MODEL 1
REMARK VINA RESULT:     -11.3      0.000      0.000
REMARK SMILES [NH3+][C@@](Cc1ccc(F)cc1)(C(=O)NCCCCNC(=O)c1ccc(-c2c3nc(c(-c4c(F)cccc4F)c4ccc([nH]4)c(-c4c(F)cccc4F)c4nc(c(-c5c(F)cccc5F)c5ccc2[nH]5)C=C4)C=C3)cc1)c1ccccc1
REMARK SMILES IDX 15 1 14 2 13 3 11 4 12 5 2 7 1 8 3 12 4 13 5 14 10 15 6 16
REMARK SMILES IDX 9 17 7 18 8 19 75 20 76 21 80 22 77 23 79 24 78 25 16 26
REMARK SMILES IDX 17 27 18 28 19 29 20 31 21 32 22 33 74 34 23 35 73 36 24 37
REMARK SMILES IDX 25 38 26 39 67 40 27 41 72 42 66 43 68 44 28 45 71 46 65 47
REMARK SMILES IDX 64 48 29 50 55 51 38 52 54 53 39 54 42 55 53 56 69 57 40 58
REMARK SMILES IDX 41 59 52 61 70 62 43 63 30 64 31 65 36 66 32 67 33 68 35 69
REMARK SMILES IDX 37 70 34 71 56 72 57 73 62 74 58 75 59 76 61 77 63 78 60 79
REMARK SMILES IDX 44 80 45 81 50 82 46 83 47 84 49 85 51 86 48 87
REMARK H PARENT 13 6 1 9 1 10 1 11 18 30 68 49 42 60
REMARK Flexibility Score: inf
ROOT
ATOM      1  C   UNL A   1      36.132  21.859  24.416  1.00  0.00     0.023 C 
ENDROOT
BRANCH   1   2
ATOM      2  C   UNL A   1      35.919  23.168  25.164  1.00  0.00     0.116 C 
BRANCH   2   3
ATOM      3  N   UNL A   1      35.383  23.001  26.499  1.00  0.00    -0.350 N 
ATOM      4  C   UNL A   1      34.128  22.672  26.948  1.00  0.00     0.286 C 
ATOM      5  O   UNL A   1      34.118  22.265  28.116  1.00  0.00    -0.267 OA
ATOM      6  H   UNL A   1      36.040  23.150  27.217  1.00  0.00     0.163 HD
BRANCH   4   7
ATOM      7  C   UNL A   1      32.811  22.820  26.048  1.00  0.00     0.203 C 
BRANCH   7   8
ATOM      8  N   UNL A   1      31.634  22.813  26.966  1.00  0.00    -0.341 N 
ATOM      9  H   UNL A   1      31.411  23.770  27.240  1.00  0.00     0.345 HD
ATOM     10  H   UNL A   1      31.854  22.264  27.797  1.00  0.00     0.345 HD
ATOM     11  H   UNL A   1      30.832  22.401  26.488  1.00  0.00     0.345 HD
ENDBRANCH   7   8
BRANCH   7  12
ATOM     12  C   UNL A   1      32.880  24.087  25.120  1.00  0.00     0.120 C 
BRANCH  12  13
ATOM     13  C   UNL A   1      32.782  25.477  25.717  1.00  0.00    -0.041 A 
ATOM     14  C   UNL A   1      33.934  26.273  25.840  1.00  0.00     0.007 A 
ATOM     15  C   UNL A   1      31.548  26.002  26.142  1.00  0.00     0.007 A 
ATOM     16  C   UNL A   1      33.864  27.534  26.438  1.00  0.00     0.039 A 
ATOM     17  C   UNL A   1      31.487  27.251  26.767  1.00  0.00     0.039 A 
ATOM     18  C   UNL A   1      32.646  28.001  26.915  1.00  0.00     0.123 A 
ATOM     19  F   UNL A   1      32.589  29.187  27.532  1.00  0.00    -0.207 F 
ENDBRANCH  12  13
ENDBRANCH   7  12
BRANCH   7  20
ATOM     20  C   UNL A   1      32.618  21.619  25.056  1.00  0.00     0.022 A 
ATOM     21  C   UNL A   1      32.934  20.293  25.401  1.00  0.00     0.011 A 
ATOM     22  C   UNL A   1      32.233  21.850  23.715  1.00  0.00     0.011 A 
ATOM     23  C   UNL A   1      32.805  19.245  24.479  1.00  0.00     0.001 A 
ATOM     24  C   UNL A   1      32.119  20.808  22.790  1.00  0.00     0.001 A 
ATOM     25  C   UNL A   1      32.395  19.503  23.176  1.00  0.00     0.000 A 
ENDBRANCH   7  20
ENDBRANCH   4   7
ENDBRANCH   2   3
ENDBRANCH   1   2
BRANCH   1  26
ATOM     26  C   UNL A   1      36.924  20.795  25.174  1.00  0.00     0.023 C 
BRANCH  26  27
ATOM     27  C   UNL A   1      38.390  21.118  25.455  1.00  0.00     0.116 C 
BRANCH  27  28
ATOM     28  N   UNL A   1      39.259  19.950  25.480  1.00  0.00    -0.352 N 
ATOM     29  C   UNL A   1      40.556  19.840  25.929  1.00  0.00     0.251 C 
ATOM     30  H   UNL A   1      38.863  19.122  25.126  1.00  0.00     0.163 HD
ATOM     31  O   UNL A   1      41.181  18.796  25.778  1.00  0.00    -0.269 OA
BRANCH  29  32
ATOM     32  C   UNL A   1      41.212  21.008  26.551  1.00  0.00     0.039 A 
ATOM     33  C   UNL A   1      41.878  21.922  25.732  1.00  0.00     0.014 A 
ATOM     34  C   UNL A   1      41.124  21.226  27.929  1.00  0.00     0.014 A 
ATOM     35  C   UNL A   1      42.367  23.109  26.281  1.00  0.00     0.010 A 
ATOM     36  C   UNL A   1      41.546  22.440  28.460  1.00  0.00     0.010 A 
ATOM     37  C   UNL A   1      42.157  23.400  27.639  1.00  0.00    -0.014 A 
BRANCH  37  38
ATOM     38  C   UNL A   1      42.533  24.718  28.210  1.00  0.00     0.031 A 
ATOM     39  C   UNL A   1      41.495  25.786  28.399  1.00  0.00     0.074 A 
ATOM     40  C   UNL A   1      43.826  24.976  28.490  1.00  0.00     0.049 A 
ATOM     41  N   UNL A   1      41.646  27.020  28.807  1.00  0.00    -0.248 NA
ATOM     42  C   UNL A   1      40.108  25.431  28.058  1.00  0.00     0.031 C 
ATOM     43  C   UNL A   1      44.935  24.039  28.304  1.00  0.00     0.029 A 
ATOM     44  N   UNL A   1      44.427  26.107  28.984  1.00  0.00    -0.354 N 
ATOM     45  C   UNL A   1      40.381  27.590  28.759  1.00  0.00     0.074 A 
ATOM     46  C   UNL A   1      39.482  26.584  28.237  1.00  0.00     0.031 C 
ATOM     47  C   UNL A   1      46.075  24.622  28.707  1.00  0.00     0.029 A 
ATOM     48  C   UNL A   1      45.785  25.984  29.145  1.00  0.00     0.049 A 
ATOM     49  H   UNL A   1      43.931  26.929  29.202  1.00  0.00     0.167 HD
ATOM     50  C   UNL A   1      40.000  28.832  29.140  1.00  0.00     0.037 A 
ATOM     51  C   UNL A   1      46.696  26.868  29.595  1.00  0.00     0.037 A 
ATOM     52  C   UNL A   1      40.889  29.820  29.689  1.00  0.00     0.049 A 
ATOM     53  C   UNL A   1      46.248  28.239  30.015  1.00  0.00     0.074 A 
ATOM     54  C   UNL A   1      40.585  31.086  30.158  1.00  0.00     0.029 A 
ATOM     55  N   UNL A   1      42.256  29.652  29.848  1.00  0.00    -0.354 N 
ATOM     56  N   UNL A   1      45.040  28.748  30.010  1.00  0.00    -0.248 NA
ATOM     57  C   UNL A   1      47.287  29.159  30.501  1.00  0.00     0.031 C 
ATOM     58  C   UNL A   1      41.773  31.697  30.570  1.00  0.00     0.029 A 
ATOM     59  C   UNL A   1      42.811  30.797  30.393  1.00  0.00     0.049 A 
ATOM     60  H   UNL A   1      42.758  28.839  29.608  1.00  0.00     0.167 HD
ATOM     61  C   UNL A   1      45.169  30.036  30.512  1.00  0.00     0.074 A 
ATOM     62  C   UNL A   1      46.571  30.229  30.819  1.00  0.00     0.031 C 
ATOM     63  C   UNL A   1      44.208  30.973  30.698  1.00  0.00     0.037 A 
BRANCH  50  64
ATOM     64  C   UNL A   1      38.552  29.188  28.992  1.00  0.00     0.057 A 
ATOM     65  C   UNL A   1      38.046  29.646  27.768  1.00  0.00     0.134 A 
ATOM     66  C   UNL A   1      37.666  29.127  30.075  1.00  0.00     0.134 A 
ATOM     67  F   UNL A   1      38.843  29.735  26.692  1.00  0.00    -0.206 F 
ATOM     68  C   UNL A   1      36.714  30.036  27.631  1.00  0.00     0.040 A 
ATOM     69  C   UNL A   1      36.326  29.490  29.944  1.00  0.00     0.040 A 
ATOM     70  F   UNL A   1      38.085  28.685  31.271  1.00  0.00    -0.206 F 
ATOM     71  C   UNL A   1      35.848  29.954  28.719  1.00  0.00     0.006 A 
ENDBRANCH  50  64
BRANCH  51  72
ATOM     72  C   UNL A   1      48.120  26.464  29.706  1.00  0.00     0.057 A 
ATOM     73  C   UNL A   1      49.032  26.690  28.668  1.00  0.00     0.134 A 
ATOM     74  C   UNL A   1      48.591  25.813  30.851  1.00  0.00     0.134 A 
ATOM     75  F   UNL A   1      48.638  27.301  27.541  1.00  0.00    -0.206 F 
ATOM     76  C   UNL A   1      50.360  26.269  28.759  1.00  0.00     0.040 A 
ATOM     77  C   UNL A   1      49.922  25.406  30.964  1.00  0.00     0.040 A 
ATOM     78  F   UNL A   1      47.768  25.585  31.884  1.00  0.00    -0.206 F 
ATOM     79  C   UNL A   1      50.808  25.627  29.912  1.00  0.00     0.006 A 
ENDBRANCH  51  72
BRANCH  63  80
ATOM     80  C   UNL A   1      44.627  32.290  31.280  1.00  0.00     0.057 A 
ATOM     81  C   UNL A   1      44.600  32.499  32.664  1.00  0.00     0.134 A 
ATOM     82  C   UNL A   1      44.979  33.373  30.465  1.00  0.00     0.134 A 
ATOM     83  F   UNL A   1      44.262  31.504  33.497  1.00  0.00    -0.206 F 
ATOM     84  C   UNL A   1      44.892  33.746  33.218  1.00  0.00     0.040 A 
ATOM     85  C   UNL A   1      45.295  34.619  31.009  1.00  0.00     0.040 A 
ATOM     86  F   UNL A   1      45.034  33.232  29.133  1.00  0.00    -0.206 F 
ATOM     87  C   UNL A   1      45.242  34.810  32.389  1.00  0.00     0.006 A 
ENDBRANCH  63  80
ENDBRANCH  37  38
ENDBRANCH  29  32
ENDBRANCH  27  28
ENDBRANCH  26  27
ENDBRANCH   1  26
TORSDOF 15
ENDMDL
MODEL 2
REMARK VINA RESULT:     -11.3      0.365      6.299
REMARK SMILES [NH3+][C@@](Cc1ccc(F)cc1)(C(=O)NCCCCNC(=O)c1ccc(-c2c3nc(c(-c4c(F)cccc4F)c4ccc([nH]4)c(-c4c(F)cccc4F)c4nc(c(-c5c(F)cccc5F)c5ccc2[nH]5)C=C4)C=C3)cc1)c1ccccc1
REMARK SMILES IDX 15 1 14 2 13 3 11 4 12 5 2 7 1 8 3 12 4 13 5 14 10 15 6 16
REMARK SMILES IDX 9 17 7 18 8 19 75 20 76 21 80 22 77 23 79 24 78 25 16 26
REMARK SMILES IDX 17 27 18 28 19 29 20 31 21 32 22 33 74 34 23 35 73 36 24 37
REMARK SMILES IDX 25 38 26 39 67 40 27 41 72 42 66 43 68 44 28 45 71 46 65 47
REMARK SMILES IDX 64 48 29 50 55 51 38 52 54 53 39 54 42 55 53 56 69 57 40 58
REMARK SMILES IDX 41 59 52 61 70 62 43 63 30 64 31 65 36 66 32 67 33 68 35 69
REMARK SMILES IDX 37 70 34 71 56 72 57 73 62 74 58 75 59 76 61 77 63 78 60 79
REMARK SMILES IDX 44 80 45 81 50 82 46 83 47 84 49 85 51 86 48 87
REMARK H PARENT 13 6 1 9 1 10 1 11 18 30 68 49 42 60
REMARK Flexibility Score: inf
ROOT
ATOM      1  C   UNL A   1      36.205  20.909  25.104  1.00  0.00     0.023 C 
ENDROOT
BRANCH   1   2
ATOM      2  C   UNL A   1      35.789  22.353  25.351  1.00  0.00     0.116 C 
BRANCH   2   3
ATOM      3  N   UNL A   1      35.139  22.567  26.627  1.00  0.00    -0.350 N 
ATOM      4  C   UNL A   1      33.824  22.482  27.012  1.00  0.00     0.286 C 
ATOM      5  O   UNL A   1      33.677  22.372  28.234  1.00  0.00    -0.267 OA
ATOM      6  H   UNL A   1      35.754  22.817  27.354  1.00  0.00     0.163 HD
BRANCH   4   7
ATOM      7  C   UNL A   1      32.604  22.541  25.973  1.00  0.00     0.203 C 
BRANCH   7   8
ATOM      8  N   UNL A   1      31.338  22.490  26.760  1.00  0.00    -0.341 N 
ATOM      9  H   UNL A   1      30.663  23.144  26.362  1.00  0.00     0.345 HD
ATOM     10  H   UNL A   1      31.529  22.747  27.729  1.00  0.00     0.345 HD
ATOM     11  H   UNL A   1      30.955  21.545  26.728  1.00  0.00     0.345 HD
ENDBRANCH   7   8
BRANCH   7  12
ATOM     12  C   UNL A   1      32.708  23.790  25.024  1.00  0.00     0.120 C 
BRANCH  12  13
ATOM     13  C   UNL A   1      32.710  25.191  25.604  1.00  0.00    -0.041 A 
ATOM     14  C   UNL A   1      33.889  25.955  25.595  1.00  0.00     0.007 A 
ATOM     15  C   UNL A   1      31.541  25.758  26.143  1.00  0.00     0.007 A 
ATOM     16  C   UNL A   1      33.916  27.226  26.175  1.00  0.00     0.039 A 
ATOM     17  C   UNL A   1      31.578  27.017  26.748  1.00  0.00     0.039 A 
ATOM     18  C   UNL A   1      32.766  27.735  26.765  1.00  0.00     0.123 A 
ATOM     19  F   UNL A   1      32.805  28.931  27.365  1.00  0.00    -0.207 F 
ENDBRANCH  12  13
ENDBRANCH   7  12
BRANCH   7  20
ATOM     20  C   UNL A   1      32.582  21.311  24.998  1.00  0.00     0.022 A 
ATOM     21  C   UNL A   1      32.302  21.437  23.625  1.00  0.00     0.011 A 
ATOM     22  C   UNL A   1      32.720  19.996  25.497  1.00  0.00     0.011 A 
ATOM     23  C   UNL A   1      32.234  20.317  22.785  1.00  0.00     0.001 A 
ATOM     24  C   UNL A   1      32.637  18.877  24.664  1.00  0.00     0.001 A 
ATOM     25  C   UNL A   1      32.404  19.039  23.304  1.00  0.00     0.000 A 
ENDBRANCH   7  20
ENDBRANCH   4   7
ENDBRANCH   2   3
ENDBRANCH   1   2
BRANCH   1  26
ATOM     26  C   UNL A   1      37.657  20.713  24.668  1.00  0.00     0.023 C 
BRANCH  26  27
ATOM     27  C   UNL A   1      38.708  20.775  25.775  1.00  0.00     0.116 C 
BRANCH  27  28
ATOM     28  N   UNL A   1      39.691  19.702  25.718  1.00  0.00    -0.352 N 
ATOM     29  C   UNL A   1      41.028  19.730  26.042  1.00  0.00     0.251 C 
ATOM     30  H   UNL A   1      39.351  18.834  25.403  1.00  0.00     0.163 HD
ATOM     31  O   UNL A   1      41.741  18.753  25.834  1.00  0.00    -0.269 OA
BRANCH  29  32
ATOM     32  C   UNL A   1      41.617  20.965  26.598  1.00  0.00     0.039 A 
ATOM     33  C   UNL A   1      42.129  21.922  25.719  1.00  0.00     0.014 A 
ATOM     34  C   UNL A   1      41.614  21.200  27.976  1.00  0.00     0.014 A 
ATOM     35  C   UNL A   1      42.545  23.160  26.215  1.00  0.00     0.010 A 
ATOM     36  C   UNL A   1      41.959  22.458  28.459  1.00  0.00     0.010 A 
ATOM     37  C   UNL A   1      42.412  23.455  27.582  1.00  0.00    -0.014 A 
BRANCH  37  38
ATOM     38  C   UNL A   1      42.704  24.813  28.107  1.00  0.00     0.031 A 
ATOM     39  C   UNL A   1      44.098  25.180  28.526  1.00  0.00     0.074 A 
ATOM     40  C   UNL A   1      41.695  25.691  28.274  1.00  0.00     0.049 A 
ATOM     41  N   UNL A   1      44.529  26.285  29.079  1.00  0.00    -0.248 NA
ATOM     42  C   UNL A   1      45.141  24.162  28.324  1.00  0.00     0.031 C 
ATOM     43  C   UNL A   1      40.290  25.437  27.951  1.00  0.00     0.029 A 
ATOM     44  N   UNL A   1      41.696  26.974  28.764  1.00  0.00    -0.354 N 
ATOM     45  C   UNL A   1      45.885  26.090  29.302  1.00  0.00     0.074 A 
ATOM     46  C   UNL A   1      46.197  24.745  28.871  1.00  0.00     0.031 C 
ATOM     47  C   UNL A   1      39.571  26.538  28.223  1.00  0.00     0.029 A 
ATOM     48  C   UNL A   1      40.455  27.561  28.772  1.00  0.00     0.049 A 
ATOM     49  H   UNL A   1      42.510  27.429  29.081  1.00  0.00     0.167 HD
ATOM     50  C   UNL A   1      46.793  26.964  29.799  1.00  0.00     0.037 A 
ATOM     51  C   UNL A   1      40.070  28.787  29.177  1.00  0.00     0.037 A 
ATOM     52  C   UNL A   1      46.487  28.311  30.197  1.00  0.00     0.049 A 
ATOM     53  C   UNL A   1      41.097  29.740  29.721  1.00  0.00     0.074 A 
ATOM     54  C   UNL A   1      47.351  29.289  30.657  1.00  0.00     0.029 A 
ATOM     55  N   UNL A   1      45.220  28.873  30.178  1.00  0.00    -0.354 N 
ATOM     56  N   UNL A   1      42.385  29.558  29.880  1.00  0.00    -0.248 NA
ATOM     57  C   UNL A   1      40.618  31.064  30.142  1.00  0.00     0.031 C 
ATOM     58  C   UNL A   1      46.602  30.433  30.949  1.00  0.00     0.029 A 
ATOM     59  C   UNL A   1      45.277  30.179  30.634  1.00  0.00     0.049 A 
ATOM     60  H   UNL A   1      44.401  28.411  29.885  1.00  0.00     0.167 HD
ATOM     61  C   UNL A   1      42.875  30.750  30.398  1.00  0.00     0.074 A 
ATOM     62  C   UNL A   1      41.747  31.651  30.518  1.00  0.00     0.031 C 
ATOM     63  C   UNL A   1      44.147  31.066  30.743  1.00  0.00     0.037 A 
BRANCH  50  64
ATOM     64  C   UNL A   1      48.210  26.493  29.924  1.00  0.00     0.057 A 
ATOM     65  C   UNL A   1      48.651  25.842  31.083  1.00  0.00     0.134 A 
ATOM     66  C   UNL A   1      49.154  26.730  28.916  1.00  0.00     0.134 A 
ATOM     67  F   UNL A   1      47.800  25.590  32.088  1.00  0.00    -0.206 F 
ATOM     68  C   UNL A   1      49.982  25.450  31.236  1.00  0.00     0.040 A 
ATOM     69  C   UNL A   1      50.481  26.321  29.047  1.00  0.00     0.040 A 
ATOM     70  F   UNL A   1      48.791  27.338  27.775  1.00  0.00    -0.206 F 
ATOM     71  C   UNL A   1      50.900  25.685  30.215  1.00  0.00     0.006 A 
ENDBRANCH  50  64
BRANCH  51  72
ATOM     72  C   UNL A   1      38.649  29.193  29.043  1.00  0.00     0.057 A 
ATOM     73  C   UNL A   1      37.771  29.167  30.133  1.00  0.00     0.134 A 
ATOM     74  C   UNL A   1      38.132  29.589  27.805  1.00  0.00     0.134 A 
ATOM     75  F   UNL A   1      38.206  28.788  31.344  1.00  0.00    -0.206 F 
ATOM     76  C   UNL A   1      36.425  29.508  29.994  1.00  0.00     0.040 A 
ATOM     77  C   UNL A   1      36.792  29.953  27.656  1.00  0.00     0.040 A 
ATOM     78  F   UNL A   1      38.929  29.650  26.730  1.00  0.00    -0.206 F 
ATOM     79  C   UNL A   1      35.932  29.905  28.752  1.00  0.00     0.006 A 
ENDBRANCH  51  72
BRANCH  63  80
ATOM     80  C   UNL A   1      44.401  32.447  31.267  1.00  0.00     0.057 A 
ATOM     81  C   UNL A   1      44.299  32.720  32.637  1.00  0.00     0.134 A 
ATOM     82  C   UNL A   1      44.665  33.521  30.408  1.00  0.00     0.134 A 
ATOM     83  F   UNL A   1      44.040  31.736  33.510  1.00  0.00    -0.206 F 
ATOM     84  C   UNL A   1      44.436  34.017  33.133  1.00  0.00     0.040 A 
ATOM     85  C   UNL A   1      44.824  34.818  30.894  1.00  0.00     0.040 A 
ATOM     86  F   UNL A   1      44.784  33.321  29.087  1.00  0.00    -0.206 F 
ATOM     87  C   UNL A   1      44.700  35.071  32.260  1.00  0.00     0.006 A 
ENDBRANCH  63  80
ENDBRANCH  37  38
ENDBRANCH  29  32
ENDBRANCH  27  28
ENDBRANCH  26  27
ENDBRANCH   1  26
TORSDOF 15
ENDMDL
MODEL 3
REMARK VINA RESULT:     -11.2      4.922      9.252
REMARK SMILES [NH3+][C@@](Cc1ccc(F)cc1)(C(=O)NCCCCNC(=O)c1ccc(-c2c3nc(c(-c4c(F)cccc4F)c4ccc([nH]4)c(-c4c(F)cccc4F)c4nc(c(-c5c(F)cccc5F)c5ccc2[nH]5)C=C4)C=C3)cc1)c1ccccc1
REMARK SMILES IDX 15 1 14 2 13 3 11 4 12 5 2 7 1 8 3 12 4 13 5 14 10 15 6 16
REMARK SMILES IDX 9 17 7 18 8 19 75 20 76 21 80 22 77 23 79 24 78 25 16 26
REMARK SMILES IDX 17 27 18 28 19 29 20 31 21 32 22 33 74 34 23 35 73 36 24 37
REMARK SMILES IDX 25 38 26 39 67 40 27 41 72 42 66 43 68 44 28 45 71 46 65 47
REMARK SMILES IDX 64 48 29 50 55 51 38 52 54 53 39 54 42 55 53 56 69 57 40 58
REMARK SMILES IDX 41 59 52 61 70 62 43 63 30 64 31 65 36 66 32 67 33 68 35 69
REMARK SMILES IDX 37 70 34 71 56 72 57 73 62 74 58 75 59 76 61 77 63 78 60 79
REMARK SMILES IDX 44 80 45 81 50 82 46 83 47 84 49 85 51 86 48 87
REMARK H PARENT 13 6 1 9 1 10 1 11 18 30 68 49 42 60
REMARK Flexibility Score: inf
ROOT
ATOM      1  C   UNL A   1      31.906  30.475  26.630  1.00  0.00     0.023 C 
ENDROOT
BRANCH   1   2
ATOM      2  C   UNL A   1      31.467  29.915  25.284  1.00  0.00     0.116 C 
BRANCH   2   3
ATOM      3  N   UNL A   1      32.563  29.477  24.445  1.00  0.00    -0.350 N 
ATOM      4  C   UNL A   1      32.594  28.718  23.301  1.00  0.00     0.286 C 
ATOM      5  O   UNL A   1      33.642  28.846  22.658  1.00  0.00    -0.267 OA
ATOM      6  H   UNL A   1      33.448  29.779  24.750  1.00  0.00     0.163 HD
BRANCH   4   7
ATOM      7  C   UNL A   1      31.394  27.751  22.860  1.00  0.00     0.203 C 
BRANCH   7   8
ATOM      8  N   UNL A   1      31.778  27.117  21.565  1.00  0.00    -0.341 N 
ATOM      9  H   UNL A   1      32.701  26.692  21.654  1.00  0.00     0.345 HD
ATOM     10  H   UNL A   1      31.800  27.827  20.832  1.00  0.00     0.345 HD
ATOM     11  H   UNL A   1      31.095  26.399  21.322  1.00  0.00     0.345 HD
ENDBRANCH   7   8
BRANCH   7  12
ATOM     12  C   UNL A   1      31.038  26.716  23.988  1.00  0.00     0.120 C 
BRANCH  12  13
ATOM     13  C   UNL A   1      31.612  25.314  23.947  1.00  0.00    -0.041 A 
ATOM     14  C   UNL A   1      32.936  25.082  24.360  1.00  0.00     0.007 A 
ATOM     15  C   UNL A   1      30.838  24.222  23.515  1.00  0.00     0.007 A 
ATOM     16  C   UNL A   1      33.492  23.804  24.275  1.00  0.00     0.039 A 
ATOM     17  C   UNL A   1      31.407  22.950  23.403  1.00  0.00     0.039 A 
ATOM     18  C   UNL A   1      32.730  22.755  23.777  1.00  0.00     0.123 A 
ATOM     19  F   UNL A   1      33.279  21.541  23.649  1.00  0.00    -0.207 F 
ENDBRANCH  12  13
ENDBRANCH   7  12
BRANCH   7  20
ATOM     20  C   UNL A   1      30.055  28.528  22.605  1.00  0.00     0.022 A 
ATOM     21  C   UNL A   1      30.006  29.745  21.902  1.00  0.00     0.011 A 
ATOM     22  C   UNL A   1      28.847  28.088  23.192  1.00  0.00     0.011 A 
ATOM     23  C   UNL A   1      28.805  30.448  21.735  1.00  0.00     0.001 A 
ATOM     24  C   UNL A   1      27.651  28.795  23.039  1.00  0.00     0.001 A 
ATOM     25  C   UNL A   1      27.628  29.971  22.301  1.00  0.00     0.000 A 
ENDBRANCH   7  20
ENDBRANCH   4   7
ENDBRANCH   2   3
ENDBRANCH   1   2
BRANCH   1  26
ATOM     26  C   UNL A   1      31.607  31.957  26.851  1.00  0.00     0.023 C 
BRANCH  26  27
ATOM     27  C   UNL A   1      32.784  32.825  27.292  1.00  0.00     0.116 C 
BRANCH  27  28
ATOM     28  N   UNL A   1      32.413  34.185  27.656  1.00  0.00    -0.352 N 
ATOM     29  C   UNL A   1      32.976  35.017  28.597  1.00  0.00     0.251 C 
ATOM     30  H   UNL A   1      31.652  34.562  27.160  1.00  0.00     0.163 HD
ATOM     31  O   UNL A   1      32.469  36.105  28.851  1.00  0.00    -0.269 OA
BRANCH  29  32
ATOM     32  C   UNL A   1      34.173  34.572  29.339  1.00  0.00     0.039 A 
ATOM     33  C   UNL A   1      34.009  34.013  30.609  1.00  0.00     0.014 A 
ATOM     34  C   UNL A   1      35.443  34.658  28.763  1.00  0.00     0.014 A 
ATOM     35  C   UNL A   1      35.107  33.444  31.258  1.00  0.00     0.010 A 
ATOM     36  C   UNL A   1      36.520  34.027  29.377  1.00  0.00     0.010 A 
ATOM     37  C   UNL A   1      36.360  33.400  30.623  1.00  0.00    -0.014 A 
BRANCH  37  38
ATOM     38  C   UNL A   1      37.502  32.669  31.226  1.00  0.00     0.031 A 
ATOM     39  C   UNL A   1      38.086  33.122  32.533  1.00  0.00     0.074 A 
ATOM     40  C   UNL A   1      38.059  31.640  30.558  1.00  0.00     0.049 A 
ATOM     41  N   UNL A   1      39.130  32.661  33.173  1.00  0.00    -0.248 NA
ATOM     42  C   UNL A   1      37.430  34.261  33.194  1.00  0.00     0.031 C 
ATOM     43  C   UNL A   1      37.614  31.135  29.258  1.00  0.00     0.029 A 
ATOM     44  N   UNL A   1      39.126  30.837  30.878  1.00  0.00    -0.354 N 
ATOM     45  C   UNL A   1      39.262  33.459  34.301  1.00  0.00     0.074 A 
ATOM     46  C   UNL A   1      38.224  34.464  34.234  1.00  0.00     0.031 C 
ATOM     47  C   UNL A   1      38.381  30.091  28.906  1.00  0.00     0.029 A 
ATOM     48  C   UNL A   1      39.393  29.874  29.935  1.00  0.00     0.049 A 
ATOM     49  H   UNL A   1      39.649  30.941  31.705  1.00  0.00     0.167 HD
ATOM     50  C   UNL A   1      40.155  33.349  35.314  1.00  0.00     0.037 A 
ATOM     51  C   UNL A   1      40.347  28.924  29.902  1.00  0.00     0.037 A 
ATOM     52  C   UNL A   1      41.166  32.330  35.395  1.00  0.00     0.049 A 
ATOM     53  C   UNL A   1      41.323  28.819  31.040  1.00  0.00     0.074 A 
ATOM     54  C   UNL A   1      42.078  32.102  36.411  1.00  0.00     0.029 A 
ATOM     55  N   UNL A   1      41.397  31.365  34.426  1.00  0.00    -0.354 N 
ATOM     56  N   UNL A   1      41.405  29.550  32.124  1.00  0.00    -0.248 NA
ATOM     57  C   UNL A   1      42.338  27.759  30.949  1.00  0.00     0.031 C 
ATOM     58  C   UNL A   1      42.883  31.020  36.041  1.00  0.00     0.029 A 
ATOM     59  C   UNL A   1      42.446  30.551  34.813  1.00  0.00     0.049 A 
ATOM     60  H   UNL A   1      40.890  31.275  33.586  1.00  0.00     0.167 HD
ATOM     61  C   UNL A   1      42.463  29.028  32.855  1.00  0.00     0.074 A 
ATOM     62  C   UNL A   1      42.988  27.912  32.096  1.00  0.00     0.031 C 
ATOM     63  C   UNL A   1      42.955  29.440  34.049  1.00  0.00     0.037 A 
BRANCH  50  64
ATOM     64  C   UNL A   1      40.065  34.348  36.428  1.00  0.00     0.057 A 
ATOM     65  C   UNL A   1      39.240  34.117  37.536  1.00  0.00     0.134 A 
ATOM     66  C   UNL A   1      40.758  35.564  36.379  1.00  0.00     0.134 A 
ATOM     67  F   UNL A   1      38.544  32.975  37.641  1.00  0.00    -0.206 F 
ATOM     68  C   UNL A   1      39.102  35.064  38.551  1.00  0.00     0.040 A 
ATOM     69  C   UNL A   1      40.648  36.508  37.400  1.00  0.00     0.040 A 
ATOM     70  F   UNL A   1      41.575  35.840  35.351  1.00  0.00    -0.206 F 
ATOM     71  C   UNL A   1      39.811  36.261  38.488  1.00  0.00     0.006 A 
ENDBRANCH  50  64
BRANCH  51  72
ATOM     72  C   UNL A   1      40.396  27.971  28.766  1.00  0.00     0.057 A 
ATOM     73  C   UNL A   1      41.130  28.246  27.606  1.00  0.00     0.134 A 
ATOM     74  C   UNL A   1      39.679  26.771  28.807  1.00  0.00     0.134 A 
ATOM     75  F   UNL A   1      41.831  29.385  27.503  1.00  0.00    -0.206 F 
ATOM     76  C   UNL A   1      41.139  27.367  26.522  1.00  0.00     0.040 A 
ATOM     77  C   UNL A   1      39.695  25.873  27.738  1.00  0.00     0.040 A 
ATOM     78  F   UNL A   1      38.971  26.445  29.898  1.00  0.00    -0.206 F 
ATOM     79  C   UNL A   1      40.420  26.175  26.587  1.00  0.00     0.006 A 
ENDBRANCH  51  72
BRANCH  63  80
ATOM     80  C   UNL A   1      44.107  28.674  34.626  1.00  0.00     0.057 A 
ATOM     81  C   UNL A   1      43.883  27.589  35.484  1.00  0.00     0.134 A 
ATOM     82  C   UNL A   1      45.433  29.061  34.399  1.00  0.00     0.134 A 
ATOM     83  F   UNL A   1      42.635  27.176  35.749  1.00  0.00    -0.206 F 
ATOM     84  C   UNL A   1      44.940  26.925  36.108  1.00  0.00     0.040 A 
ATOM     85  C   UNL A   1      46.499  28.391  35.000  1.00  0.00     0.040 A 
ATOM     86  F   UNL A   1      45.711  30.085  33.579  1.00  0.00    -0.206 F 
ATOM     87  C   UNL A   1      46.252  27.325  35.866  1.00  0.00     0.006 A 
ENDBRANCH  63  80
ENDBRANCH  37  38
ENDBRANCH  29  32
ENDBRANCH  27  28
ENDBRANCH  26  27
ENDBRANCH   1  26
TORSDOF 15
ENDMDL
