MODEL 1
REMARK VINA RESULT:     -12.4      0.000      0.000
REMARK SMILES O=C(NCCCCNC(=O)c1cccc2c(=O)oc(=O)[nH]c12)c1ccc(-c2c3nc(c(-c4c(F)cccc4F)c4ccc([nH]4)c(-c4c(F)cccc4F)c4nc(c(-c5c(F)cccc5F)c5ccc2[nH]5)C=C4)C=C3)cc1
REMARK SMILES IDX 4 1 3 2 1 3 2 4 23 6 24 7 76 8 25 9 75 10 26 11 27 12 28 13
REMARK SMILES IDX 69 14 29 15 74 16 68 17 70 18 30 19 73 20 67 21 66 22 31 24
REMARK SMILES IDX 57 25 40 26 56 27 41 28 44 29 55 30 71 31 42 32 43 33 54 35
REMARK SMILES IDX 72 36 45 37 32 38 33 39 38 40 34 41 35 42 37 43 39 44 36 45
REMARK SMILES IDX 58 46 59 47 64 48 60 49 61 50 63 51 65 52 62 53 46 54 47 55
REMARK SMILES IDX 52 56 48 57 49 58 51 59 53 60 50 61 5 62 6 63 7 64 8 65 9 66
REMARK SMILES IDX 10 68 11 69 12 70 22 71 13 72 15 73 21 74 14 75 16 76 19 77
REMARK SMILES IDX 17 79 18 80 20 81
REMARK H PARENT 3 5 70 23 44 34 8 67 21 78
REMARK Flexibility Score: inf
ROOT
ATOM      1  C   UNL A   1      38.877  20.242  25.758  1.00  0.00     0.116 C 
ENDROOT
BRANCH   1   2
ATOM      2  N   UNL A   1      39.902  19.216  25.844  1.00  0.00    -0.352 N 
ATOM      3  O   UNL A   1      41.986  18.372  25.916  1.00  0.00    -0.269 OA
ATOM      4  C   UNL A   1      41.252  19.345  26.058  1.00  0.00     0.251 C 
ATOM      5  H   UNL A   1      39.581  18.292  25.733  1.00  0.00     0.163 HD
BRANCH   4   6
ATOM      6  C   UNL A   1      41.826  20.650  26.451  1.00  0.00     0.039 A 
ATOM      7  C   UNL A   1      41.967  20.941  27.811  1.00  0.00     0.014 A 
ATOM      8  C   UNL A   1      42.175  21.602  25.490  1.00  0.00     0.014 A 
ATOM      9  C   UNL A   1      42.484  22.177  28.208  1.00  0.00     0.010 A 
ATOM     10  C   UNL A   1      42.760  22.802  25.884  1.00  0.00     0.010 A 
ATOM     11  C   UNL A   1      42.896  23.112  27.246  1.00  0.00    -0.014 A 
BRANCH  11  12
ATOM     12  C   UNL A   1      43.400  24.453  27.635  1.00  0.00     0.031 A 
ATOM     13  C   UNL A   1      42.423  25.515  28.058  1.00  0.00     0.074 A 
ATOM     14  C   UNL A   1      44.713  24.737  27.553  1.00  0.00     0.049 A 
ATOM     15  N   UNL A   1      42.631  26.781  28.314  1.00  0.00    -0.248 NA
ATOM     16  C   UNL A   1      41.018  25.099  28.185  1.00  0.00     0.031 C 
ATOM     17  C   UNL A   1      45.759  23.800  27.142  1.00  0.00     0.029 A 
ATOM     18  N   UNL A   1      45.387  25.908  27.791  1.00  0.00    -0.354 N 
ATOM     19  C   UNL A   1      41.382  27.314  28.610  1.00  0.00     0.074 A 
ATOM     20  C   UNL A   1      40.418  26.248  28.444  1.00  0.00     0.031 C 
ATOM     21  C   UNL A   1      46.943  24.432  27.161  1.00  0.00     0.029 A 
ATOM     22  C   UNL A   1      46.733  25.828  27.533  1.00  0.00     0.049 A 
ATOM     23  H   UNL A   1      44.947  26.727  28.115  1.00  0.00     0.167 HD
ATOM     24  C   UNL A   1      41.068  28.572  29.003  1.00  0.00     0.037 A 
ATOM     25  C   UNL A   1      47.685  26.781  27.563  1.00  0.00     0.037 A 
ATOM     26  C   UNL A   1      42.033  29.625  29.175  1.00  0.00     0.049 A 
ATOM     27  C   UNL A   1      47.306  28.187  27.944  1.00  0.00     0.074 A 
ATOM     28  C   UNL A   1      41.830  30.918  29.625  1.00  0.00     0.029 A 
ATOM     29  N   UNL A   1      43.386  29.509  28.890  1.00  0.00    -0.354 N 
ATOM     30  N   UNL A   1      46.133  28.666  28.280  1.00  0.00    -0.248 NA
ATOM     31  C   UNL A   1      48.384  29.186  27.940  1.00  0.00     0.031 C 
ATOM     32  C   UNL A   1      43.050  31.602  29.551  1.00  0.00     0.029 A 
ATOM     33  C   UNL A   1      44.022  30.720  29.109  1.00  0.00     0.049 A 
ATOM     34  H   UNL A   1      43.828  28.687  28.578  1.00  0.00     0.167 HD
ATOM     35  C   UNL A   1      46.331  30.017  28.536  1.00  0.00     0.074 A 
ATOM     36  C   UNL A   1      47.745  30.274  28.344  1.00  0.00     0.031 C 
ATOM     37  C   UNL A   1      45.427  30.963  28.893  1.00  0.00     0.037 A 
BRANCH  24  38
ATOM     38  C   UNL A   1      39.615  28.871  29.245  1.00  0.00     0.057 A 
ATOM     39  C   UNL A   1      38.792  29.303  28.197  1.00  0.00     0.134 A 
ATOM     40  C   UNL A   1      39.023  28.719  30.507  1.00  0.00     0.134 A 
ATOM     41  F   UNL A   1      39.291  29.479  26.965  1.00  0.00    -0.206 F 
ATOM     42  C   UNL A   1      37.432  29.556  28.392  1.00  0.00     0.040 A 
ATOM     43  C   UNL A   1      37.658  28.935  30.706  1.00  0.00     0.040 A 
ATOM     44  F   UNL A   1      39.750  28.297  31.553  1.00  0.00    -0.206 F 
ATOM     45  C   UNL A   1      36.859  29.359  29.646  1.00  0.00     0.006 A 
ENDBRANCH  24  38
BRANCH  25  46
ATOM     46  C   UNL A   1      49.083  26.443  27.196  1.00  0.00     0.057 A 
ATOM     47  C   UNL A   1      49.973  25.904  28.135  1.00  0.00     0.134 A 
ATOM     48  C   UNL A   1      49.563  26.642  25.897  1.00  0.00     0.134 A 
ATOM     49  F   UNL A   1      49.576  25.692  29.399  1.00  0.00    -0.206 F 
ATOM     50  C   UNL A   1      51.290  25.590  27.800  1.00  0.00     0.040 A 
ATOM     51  C   UNL A   1      50.870  26.306  25.540  1.00  0.00     0.040 A 
ATOM     52  F   UNL A   1      48.754  27.134  24.947  1.00  0.00    -0.206 F 
ATOM     53  C   UNL A   1      51.739  25.784  26.496  1.00  0.00     0.006 A 
ENDBRANCH  25  46
BRANCH  37  54
ATOM     54  C   UNL A   1      45.940  32.360  29.091  1.00  0.00     0.057 A 
ATOM     55  C   UNL A   1      46.412  32.781  30.342  1.00  0.00     0.134 A 
ATOM     56  C   UNL A   1      45.936  33.300  28.053  1.00  0.00     0.134 A 
ATOM     57  F   UNL A   1      46.436  31.934  31.382  1.00  0.00    -0.206 F 
ATOM     58  C   UNL A   1      46.855  34.088  30.553  1.00  0.00     0.040 A 
ATOM     59  C   UNL A   1      46.404  34.601  28.243  1.00  0.00     0.040 A 
ATOM     60  F   UNL A   1      45.511  32.957  26.827  1.00  0.00    -0.206 F 
ATOM     61  C   UNL A   1      46.858  35.000  29.499  1.00  0.00     0.006 A 
ENDBRANCH  37  54
ENDBRANCH  11  12
ENDBRANCH   4   6
ENDBRANCH   1   2
BRANCH   1  62
ATOM     62  C   UNL A   1      37.645  19.768  24.994  1.00  0.00     0.023 C 
BRANCH  62  63
ATOM     63  C   UNL A   1      36.765  20.884  24.426  1.00  0.00     0.023 C 
BRANCH  63  64
ATOM     64  C   UNL A   1      36.417  22.002  25.407  1.00  0.00     0.116 C 
BRANCH  64  65
ATOM     65  N   UNL A   1      35.562  21.530  26.484  1.00  0.00    -0.352 N 
ATOM     66  C   UNL A   1      34.241  21.169  26.450  1.00  0.00     0.253 C 
ATOM     67  H   UNL A   1      35.995  21.461  27.366  1.00  0.00     0.163 HD
ATOM     68  O   UNL A   1      33.609  21.065  27.498  1.00  0.00    -0.269 OA
BRANCH  66  69
ATOM     69  C   UNL A   1      33.553  20.935  25.163  1.00  0.00     0.064 A 
ATOM     70  C   UNL A   1      33.104  22.024  24.400  1.00  0.00     0.016 A 
ATOM     71  C   UNL A   1      33.395  19.630  24.675  1.00  0.00     0.071 A 
ATOM     72  C   UNL A   1      32.443  21.806  23.192  1.00  0.00     0.002 A 
ATOM     73  C   UNL A   1      32.751  19.421  23.470  1.00  0.00     0.085 A 
ATOM     74  N   UNL A   1      33.858  18.514  25.360  1.00  0.00    -0.289 N 
ATOM     75  C   UNL A   1      32.262  20.504  22.728  1.00  0.00     0.018 A 
ATOM     76  C   UNL A   1      32.606  18.042  22.981  1.00  0.00     0.349 A 
ATOM     77  C   UNL A   1      33.687  17.233  24.929  1.00  0.00     0.419 A 
ATOM     78  H   UNL A   1      34.338  18.658  26.208  1.00  0.00     0.173 HD
ATOM     79  O   UNL A   1      32.073  17.842  21.894  1.00  0.00    -0.246 OA
ATOM     80  O   UNL A   1      33.053  17.025  23.748  1.00  0.00    -0.372 OA
ATOM     81  O   UNL A   1      34.098  16.292  25.605  1.00  0.00    -0.224 OA
ENDBRANCH  66  69
ENDBRANCH  64  65
ENDBRANCH  63  64
ENDBRANCH  62  63
ENDBRANCH   1  62
TORSDOF 11
ENDMDL
MODEL 2
REMARK VINA RESULT:     -12.3      6.592     11.004
REMARK SMILES O=C(NCCCCNC(=O)c1cccc2c(=O)oc(=O)[nH]c12)c1ccc(-c2c3nc(c(-c4c(F)cccc4F)c4ccc([nH]4)c(-c4c(F)cccc4F)c4nc(c(-c5c(F)cccc5F)c5ccc2[nH]5)C=C4)C=C3)cc1
REMARK SMILES IDX 4 1 3 2 1 3 2 4 23 6 24 7 76 8 25 9 75 10 26 11 27 12 28 13
REMARK SMILES IDX 69 14 29 15 74 16 68 17 70 18 30 19 73 20 67 21 66 22 31 24
REMARK SMILES IDX 57 25 40 26 56 27 41 28 44 29 55 30 71 31 42 32 43 33 54 35
REMARK SMILES IDX 72 36 45 37 32 38 33 39 38 40 34 41 35 42 37 43 39 44 36 45
REMARK SMILES IDX 58 46 59 47 64 48 60 49 61 50 63 51 65 52 62 53 46 54 47 55
REMARK SMILES IDX 52 56 48 57 49 58 51 59 53 60 50 61 5 62 6 63 7 64 8 65 9 66
REMARK SMILES IDX 10 68 11 69 12 70 22 71 13 72 15 73 21 74 14 75 16 76 19 77
REMARK SMILES IDX 17 79 18 80 20 81
REMARK H PARENT 3 5 70 23 44 34 8 67 21 78
REMARK Flexibility Score: inf
ROOT
ATOM      1  C   UNL A   1      32.694  32.353  27.008  1.00  0.00     0.116 C 
ENDROOT
BRANCH   1   2
ATOM      2  N   UNL A   1      32.504  33.729  27.433  1.00  0.00    -0.352 N 
ATOM      3  O   UNL A   1      32.712  35.535  28.760  1.00  0.00    -0.269 OA
ATOM      4  C   UNL A   1      33.138  34.433  28.427  1.00  0.00     0.251 C 
ATOM      5  H   UNL A   1      31.820  34.232  26.934  1.00  0.00     0.163 HD
BRANCH   4   6
ATOM      6  C   UNL A   1      34.325  33.867  29.103  1.00  0.00     0.039 A 
ATOM      7  C   UNL A   1      35.595  34.304  28.711  1.00  0.00     0.014 A 
ATOM      8  C   UNL A   1      34.195  32.877  30.080  1.00  0.00     0.014 A 
ATOM      9  C   UNL A   1      36.733  33.766  29.318  1.00  0.00     0.010 A 
ATOM     10  C   UNL A   1      35.325  32.399  30.737  1.00  0.00     0.010 A 
ATOM     11  C   UNL A   1      36.606  32.819  30.344  1.00  0.00    -0.014 A 
BRANCH  11  12
ATOM     12  C   UNL A   1      37.795  32.191  30.973  1.00  0.00     0.031 A 
ATOM     13  C   UNL A   1      38.528  31.100  30.241  1.00  0.00     0.074 A 
ATOM     14  C   UNL A   1      38.181  32.551  32.211  1.00  0.00     0.049 A 
ATOM     15  N   UNL A   1      39.505  30.334  30.652  1.00  0.00    -0.248 NA
ATOM     16  C   UNL A   1      38.080  30.818  28.868  1.00  0.00     0.031 C 
ATOM     17  C   UNL A   1      37.546  33.583  33.030  1.00  0.00     0.029 A 
ATOM     18  N   UNL A   1      39.191  32.068  33.004  1.00  0.00    -0.354 N 
ATOM     19  C   UNL A   1      39.773  29.468  29.599  1.00  0.00     0.074 A 
ATOM     20  C   UNL A   1      38.817  29.765  28.555  1.00  0.00     0.031 C 
ATOM     21  C   UNL A   1      38.184  33.659  34.209  1.00  0.00     0.029 A 
ATOM     22  C   UNL A   1      39.237  32.647  34.248  1.00  0.00     0.049 A 
ATOM     23  H   UNL A   1      39.823  31.373  32.708  1.00  0.00     0.167 HD
ATOM     24  C   UNL A   1      40.739  28.524  29.502  1.00  0.00     0.037 A 
ATOM     25  C   UNL A   1      40.017  32.372  35.310  1.00  0.00     0.037 A 
ATOM     26  C   UNL A   1      41.693  28.239  30.541  1.00  0.00     0.049 A 
ATOM     27  C   UNL A   1      41.045  31.278  35.203  1.00  0.00     0.074 A 
ATOM     28  C   UNL A   1      42.749  27.345  30.523  1.00  0.00     0.029 A 
ATOM     29  N   UNL A   1      41.697  28.838  31.792  1.00  0.00    -0.354 N 
ATOM     30  N   UNL A   1      41.331  30.506  34.182  1.00  0.00    -0.248 NA
ATOM     31  C   UNL A   1      41.854  31.012  36.401  1.00  0.00     0.031 C 
ATOM     32  C   UNL A   1      43.351  27.356  31.787  1.00  0.00     0.029 A 
ATOM     33  C   UNL A   1      42.707  28.298  32.572  1.00  0.00     0.049 A 
ATOM     34  H   UNL A   1      41.074  29.542  32.083  1.00  0.00     0.167 HD
ATOM     35  C   UNL A   1      42.355  29.671  34.609  1.00  0.00     0.074 A 
ATOM     36  C   UNL A   1      42.660  30.051  35.974  1.00  0.00     0.031 C 
ATOM     37  C   UNL A   1      42.984  28.675  33.937  1.00  0.00     0.037 A 
BRANCH  24  38
ATOM     38  C   UNL A   1      40.785  27.719  28.233  1.00  0.00     0.057 A 
ATOM     39  C   UNL A   1      41.534  28.161  27.136  1.00  0.00     0.134 A 
ATOM     40  C   UNL A   1      40.105  26.500  28.098  1.00  0.00     0.134 A 
ATOM     41  F   UNL A   1      42.204  29.321  27.189  1.00  0.00    -0.206 F 
ATOM     42  C   UNL A   1      41.617  27.415  25.958  1.00  0.00     0.040 A 
ATOM     43  C   UNL A   1      40.208  25.728  26.939  1.00  0.00     0.040 A 
ATOM     44  F   UNL A   1      39.378  26.011  29.115  1.00  0.00    -0.206 F 
ATOM     45  C   UNL A   1      40.964  26.187  25.863  1.00  0.00     0.006 A 
ENDBRANCH  24  38
BRANCH  25  46
ATOM     46  C   UNL A   1      39.839  33.127  36.576  1.00  0.00     0.057 A 
ATOM     47  C   UNL A   1      38.926  32.707  37.552  1.00  0.00     0.134 A 
ATOM     48  C   UNL A   1      40.582  34.282  36.844  1.00  0.00     0.134 A 
ATOM     49  F   UNL A   1      38.181  31.609  37.355  1.00  0.00    -0.206 F 
ATOM     50  C   UNL A   1      38.749  33.415  38.742  1.00  0.00     0.040 A 
ATOM     51  C   UNL A   1      40.434  34.984  38.042  1.00  0.00     0.040 A 
ATOM     52  F   UNL A   1      41.487  34.723  35.959  1.00  0.00    -0.206 F 
ATOM     53  C   UNL A   1      39.511  34.553  38.992  1.00  0.00     0.006 A 
ENDBRANCH  25  46
BRANCH  37  54
ATOM     54  C   UNL A   1      44.058  27.926  34.671  1.00  0.00     0.057 A 
ATOM     55  C   UNL A   1      43.757  26.761  35.392  1.00  0.00     0.134 A 
ATOM     56  C   UNL A   1      45.384  28.374  34.694  1.00  0.00     0.134 A 
ATOM     57  F   UNL A   1      42.506  26.281  35.418  1.00  0.00    -0.206 F 
ATOM     58  C   UNL A   1      44.737  26.076  36.112  1.00  0.00     0.040 A 
ATOM     59  C   UNL A   1      46.378  27.681  35.387  1.00  0.00     0.040 A 
ATOM     60  F   UNL A   1      45.742  29.475  34.014  1.00  0.00    -0.206 F 
ATOM     61  C   UNL A   1      46.053  26.532  36.105  1.00  0.00     0.006 A 
ENDBRANCH  37  54
ENDBRANCH  11  12
ENDBRANCH   4   6
ENDBRANCH   1   2
BRANCH   1  62
ATOM     62  C   UNL A   1      31.449  31.773  26.346  1.00  0.00     0.023 C 
BRANCH  62  63
ATOM     63  C   UNL A   1      31.423  30.247  26.238  1.00  0.00     0.023 C 
BRANCH  63  64
ATOM     64  C   UNL A   1      32.773  29.591  25.952  1.00  0.00     0.116 C 
BRANCH  64  65
ATOM     65  N   UNL A   1      33.129  29.676  24.546  1.00  0.00    -0.352 N 
ATOM     66  C   UNL A   1      32.567  29.044  23.468  1.00  0.00     0.253 C 
ATOM     67  H   UNL A   1      33.885  30.272  24.338  1.00  0.00     0.163 HD
ATOM     68  O   UNL A   1      33.167  29.013  22.397  1.00  0.00    -0.269 OA
BRANCH  66  69
ATOM     69  C   UNL A   1      31.258  28.367  23.584  1.00  0.00     0.064 A 
ATOM     70  C   UNL A   1      31.187  27.063  24.097  1.00  0.00     0.016 A 
ATOM     71  C   UNL A   1      30.081  29.045  23.235  1.00  0.00     0.071 A 
ATOM     72  C   UNL A   1      29.955  26.417  24.196  1.00  0.00     0.002 A 
ATOM     73  C   UNL A   1      28.861  28.404  23.349  1.00  0.00     0.085 A 
ATOM     74  N   UNL A   1      30.081  30.351  22.766  1.00  0.00    -0.289 N 
ATOM     75  C   UNL A   1      28.791  27.085  23.818  1.00  0.00     0.018 A 
ATOM     76  C   UNL A   1      27.644  29.140  22.981  1.00  0.00     0.349 A 
ATOM     77  C   UNL A   1      28.957  31.021  22.384  1.00  0.00     0.419 A 
ATOM     78  H   UNL A   1      30.944  30.821  22.704  1.00  0.00     0.173 HD
ATOM     79  O   UNL A   1      26.550  28.601  23.114  1.00  0.00    -0.246 OA
ATOM     80  O   UNL A   1      27.760  30.394  22.493  1.00  0.00    -0.372 OA
ATOM     81  O   UNL A   1      29.038  32.168  21.949  1.00  0.00    -0.224 OA
ENDBRANCH  66  69
ENDBRANCH  64  65
ENDBRANCH  63  64
ENDBRANCH  62  63
ENDBRANCH   1  62
TORSDOF 11
ENDMDL
MODEL 3
REMARK VINA RESULT:     -12.3      6.782     11.245
REMARK SMILES O=C(NCCCCNC(=O)c1cccc2c(=O)oc(=O)[nH]c12)c1ccc(-c2c3nc(c(-c4c(F)cccc4F)c4ccc([nH]4)c(-c4c(F)cccc4F)c4nc(c(-c5c(F)cccc5F)c5ccc2[nH]5)C=C4)C=C3)cc1
REMARK SMILES IDX 4 1 3 2 1 3 2 4 23 6 24 7 76 8 25 9 75 10 26 11 27 12 28 13
REMARK SMILES IDX 69 14 29 15 74 16 68 17 70 18 30 19 73 20 67 21 66 22 31 24
REMARK SMILES IDX 57 25 40 26 56 27 41 28 44 29 55 30 71 31 42 32 43 33 54 35
REMARK SMILES IDX 72 36 45 37 32 38 33 39 38 40 34 41 35 42 37 43 39 44 36 45
REMARK SMILES IDX 58 46 59 47 64 48 60 49 61 50 63 51 65 52 62 53 46 54 47 55
REMARK SMILES IDX 52 56 48 57 49 58 51 59 53 60 50 61 5 62 6 63 7 64 8 65 9 66
REMARK SMILES IDX 10 68 11 69 12 70 22 71 13 72 15 73 21 74 14 75 16 76 19 77
REMARK SMILES IDX 17 79 18 80 20 81
REMARK H PARENT 3 5 70 23 44 34 8 67 21 78
REMARK Flexibility Score: inf
ROOT
ATOM      1  C   UNL A   1      32.595  32.405  27.152  1.00  0.00     0.116 C 
ENDROOT
BRANCH   1   2
ATOM      2  N   UNL A   1      32.362  33.795  27.501  1.00  0.00    -0.352 N 
ATOM      3  O   UNL A   1      32.505  35.674  28.732  1.00  0.00    -0.269 OA
ATOM      4  C   UNL A   1      32.964  34.568  28.462  1.00  0.00     0.251 C 
ATOM      5  H   UNL A   1      31.670  34.251  26.970  1.00  0.00     0.163 HD
BRANCH   4   6
ATOM      6  C   UNL A   1      34.159  34.073  29.180  1.00  0.00     0.039 A 
ATOM      7  C   UNL A   1      35.426  34.409  28.691  1.00  0.00     0.014 A 
ATOM      8  C   UNL A   1      34.037  33.241  30.296  1.00  0.00     0.014 A 
ATOM      9  C   UNL A   1      36.569  33.934  29.337  1.00  0.00     0.010 A 
ATOM     10  C   UNL A   1      35.175  32.832  30.983  1.00  0.00     0.010 A 
ATOM     11  C   UNL A   1      36.453  33.151  30.495  1.00  0.00    -0.014 A 
BRANCH  11  12
ATOM     12  C   UNL A   1      37.646  32.588  31.175  1.00  0.00     0.031 A 
ATOM     13  C   UNL A   1      38.346  31.399  30.573  1.00  0.00     0.074 A 
ATOM     14  C   UNL A   1      38.066  33.096  32.348  1.00  0.00     0.049 A 
ATOM     15  N   UNL A   1      39.320  30.675  31.060  1.00  0.00    -0.248 NA
ATOM     16  C   UNL A   1      37.863  30.952  29.257  1.00  0.00     0.031 C 
ATOM     17  C   UNL A   1      37.465  34.235  33.041  1.00  0.00     0.029 A 
ATOM     18  N   UNL A   1      39.086  32.700  33.176  1.00  0.00    -0.354 N 
ATOM     19  C   UNL A   1      39.551  29.676  30.121  1.00  0.00     0.074 A 
ATOM     20  C   UNL A   1      38.576  29.855  29.067  1.00  0.00     0.031 C 
ATOM     21  C   UNL A   1      38.131  34.450  34.187  1.00  0.00     0.029 A 
ATOM     22  C   UNL A   1      39.168  33.433  34.333  1.00  0.00     0.049 A 
ATOM     23  H   UNL A   1      39.701  31.961  32.959  1.00  0.00     0.167 HD
ATOM     24  C   UNL A   1      40.500  28.710  30.126  1.00  0.00     0.037 A 
ATOM     25  C   UNL A   1      39.969  33.282  35.406  1.00  0.00     0.037 A 
ATOM     26  C   UNL A   1      41.473  28.543  31.173  1.00  0.00     0.049 A 
ATOM     27  C   UNL A   1      40.977  32.165  35.419  1.00  0.00     0.074 A 
ATOM     28  C   UNL A   1      42.514  27.635  31.248  1.00  0.00     0.029 A 
ATOM     29  N   UNL A   1      41.515  29.297  32.337  1.00  0.00    -0.354 N 
ATOM     30  N   UNL A   1      41.228  31.264  34.500  1.00  0.00    -0.248 NA
ATOM     31  C   UNL A   1      41.809  32.039  36.625  1.00  0.00     0.031 C 
ATOM     32  C   UNL A   1      43.145  27.797  32.488  1.00  0.00     0.029 A 
ATOM     33  C   UNL A   1      42.533  28.844  33.159  1.00  0.00     0.049 A 
ATOM     34  H   UNL A   1      40.909  30.043  32.548  1.00  0.00     0.167 HD
ATOM     35  C   UNL A   1      42.248  30.471  35.010  1.00  0.00     0.074 A 
ATOM     36  C   UNL A   1      42.590  31.017  36.308  1.00  0.00     0.031 C 
ATOM     37  C   UNL A   1      42.846  29.386  34.458  1.00  0.00     0.037 A 
BRANCH  24  38
ATOM     38  C   UNL A   1      40.505  27.749  28.970  1.00  0.00     0.057 A 
ATOM     39  C   UNL A   1      39.686  26.613  28.985  1.00  0.00     0.134 A 
ATOM     40  C   UNL A   1      41.304  27.951  27.836  1.00  0.00     0.134 A 
ATOM     41  F   UNL A   1      38.901  26.350  30.040  1.00  0.00    -0.206 F 
ATOM     42  C   UNL A   1      39.650  25.722  27.909  1.00  0.00     0.040 A 
ATOM     43  C   UNL A   1      41.251  27.088  26.739  1.00  0.00     0.040 A 
ATOM     44  F   UNL A   1      42.103  29.025  27.749  1.00  0.00    -0.206 F 
ATOM     45  C   UNL A   1      40.424  25.967  26.776  1.00  0.00     0.006 A 
ENDBRANCH  24  38
BRANCH  25  46
ATOM     46  C   UNL A   1      39.831  34.196  36.568  1.00  0.00     0.057 A 
ATOM     47  C   UNL A   1      40.462  35.446  36.590  1.00  0.00     0.134 A 
ATOM     48  C   UNL A   1      39.059  33.845  37.681  1.00  0.00     0.134 A 
ATOM     49  F   UNL A   1      41.219  35.841  35.555  1.00  0.00    -0.206 F 
ATOM     50  C   UNL A   1      40.342  36.308  37.681  1.00  0.00     0.040 A 
ATOM     51  C   UNL A   1      38.908  34.709  38.768  1.00  0.00     0.040 A 
ATOM     52  F   UNL A   1      38.412  32.670  37.711  1.00  0.00    -0.206 F 
ATOM     53  C   UNL A   1      39.556  35.942  38.771  1.00  0.00     0.006 A 
ENDBRANCH  25  46
BRANCH  37  54
ATOM     54  C   UNL A   1      43.925  28.718  35.260  1.00  0.00     0.057 A 
ATOM     55  C   UNL A   1      43.621  27.675  36.145  1.00  0.00     0.134 A 
ATOM     56  C   UNL A   1      45.262  29.129  35.182  1.00  0.00     0.134 A 
ATOM     57  F   UNL A   1      42.359  27.237  36.274  1.00  0.00    -0.206 F 
ATOM     58  C   UNL A   1      44.606  27.070  36.927  1.00  0.00     0.040 A 
ATOM     59  C   UNL A   1      46.261  28.512  35.938  1.00  0.00     0.040 A 
ATOM     60  F   UNL A   1      45.623  30.113  34.344  1.00  0.00    -0.206 F 
ATOM     61  C   UNL A   1      45.932  27.485  36.819  1.00  0.00     0.006 A 
ENDBRANCH  37  54
ENDBRANCH  11  12
ENDBRANCH   4   6
ENDBRANCH   1   2
BRANCH   1  62
ATOM     62  C   UNL A   1      31.451  31.810  26.338  1.00  0.00     0.023 C 
BRANCH  62  63
ATOM     63  C   UNL A   1      31.401  30.281  26.308  1.00  0.00     0.023 C 
BRANCH  63  64
ATOM     64  C   UNL A   1      32.726  29.593  25.987  1.00  0.00     0.116 C 
BRANCH  64  65
ATOM     65  N   UNL A   1      33.064  29.700  24.577  1.00  0.00    -0.352 N 
ATOM     66  C   UNL A   1      32.493  29.080  23.498  1.00  0.00     0.253 C 
ATOM     67  H   UNL A   1      33.812  30.305  24.368  1.00  0.00     0.163 HD
ATOM     68  O   UNL A   1      33.079  29.068  22.418  1.00  0.00    -0.269 OA
BRANCH  66  69
ATOM     69  C   UNL A   1      31.191  28.391  23.621  1.00  0.00     0.064 A 
ATOM     70  C   UNL A   1      31.133  27.088  24.138  1.00  0.00     0.016 A 
ATOM     71  C   UNL A   1      30.006  29.057  23.274  1.00  0.00     0.071 A 
ATOM     72  C   UNL A   1      29.908  26.431  24.243  1.00  0.00     0.002 A 
ATOM     73  C   UNL A   1      28.792  28.405  23.394  1.00  0.00     0.085 A 
ATOM     74  N   UNL A   1      29.992  30.362  22.801  1.00  0.00    -0.289 N 
ATOM     75  C   UNL A   1      28.736  27.087  23.868  1.00  0.00     0.018 A 
ATOM     76  C   UNL A   1      27.567  29.129  23.029  1.00  0.00     0.349 A 
ATOM     77  C   UNL A   1      28.861  31.020  22.422  1.00  0.00     0.419 A 
ATOM     78  H   UNL A   1      30.850  30.839  22.735  1.00  0.00     0.173 HD
ATOM     79  O   UNL A   1      26.479  28.580  23.167  1.00  0.00    -0.246 OA
ATOM     80  O   UNL A   1      27.670  30.382  22.536  1.00  0.00    -0.372 OA
ATOM     81  O   UNL A   1      28.929  32.166  21.983  1.00  0.00    -0.224 OA
ENDBRANCH  66  69
ENDBRANCH  64  65
ENDBRANCH  63  64
ENDBRANCH  62  63
ENDBRANCH   1  62
TORSDOF 11
ENDMDL
