MODEL 1
REMARK VINA RESULT:     -11.6      0.000      0.000
REMARK SMILES Cc1nn(C)c(=O)c(C(=O)N2CCCC[C@H]2C(=O)NCCCCNC(=O)c2ccc(-c3c4nc(c(-c5c(F)cccc5F)c5ccc([nH]5)c(-c5c(F)cccc5F)c5nc(c(-c6c(F)cccc6F)c6ccc3[nH]6)C=C5)C=C4)cc2)c1C
REMARK SMILES IDX 21 1 20 2 19 3 17 4 18 5 16 7 11 8 12 9 13 10 15 11 14 12
REMARK SMILES IDX 9 13 10 14 8 15 1 16 2 17 3 18 81 19 4 20 82 21 5 22 6 23
REMARK SMILES IDX 7 24 22 25 23 26 24 27 25 28 26 30 27 31 28 32 80 33 29 34
REMARK SMILES IDX 79 35 30 36 31 37 32 38 73 39 33 40 78 41 72 42 74 43 34 44
REMARK SMILES IDX 77 45 71 46 70 47 35 49 61 50 44 51 60 52 45 53 48 54 59 55
REMARK SMILES IDX 75 56 46 57 47 58 58 60 76 61 49 62 36 63 37 64 42 65 38 66
REMARK SMILES IDX 39 67 41 68 43 69 40 70 62 71 63 72 68 73 64 74 65 75 67 76
REMARK SMILES IDX 69 77 66 78 50 79 51 80 56 81 52 82 53 83 55 84 57 85 54 86
REMARK H PARENT 19 6 24 29 74 48 48 59
REMARK Flexibility Score: inf
ROOT
ATOM      1  C   UNL A   1      39.020  22.651  26.342  1.00  0.00     0.023 C 
ENDROOT
BRANCH   1   2
ATOM      2  C   UNL A   1      37.880  23.544  25.880  1.00  0.00     0.116 C 
BRANCH   2   3
ATOM      3  N   UNL A   1      37.386  23.169  24.566  1.00  0.00    -0.354 N 
ATOM      4  C   UNL A   1      36.275  23.504  23.855  1.00  0.00     0.242 C 
ATOM      5  O   UNL A   1      36.168  22.953  22.752  1.00  0.00    -0.273 OA
ATOM      6  H   UNL A   1      37.980  22.543  24.092  1.00  0.00     0.163 HD
BRANCH   4   7
ATOM      7  C   UNL A   1      35.111  24.376  24.406  1.00  0.00     0.174 C 
ATOM      8  N   UNL A   1      33.984  24.652  23.528  1.00  0.00    -0.326 N 
ATOM      9  C   UNL A   1      33.099  23.478  23.323  1.00  0.00     0.120 C 
ATOM     10  C   UNL A   1      32.607  22.849  24.624  1.00  0.00     0.022 C 
ATOM     11  C   UNL A   1      34.610  23.804  25.753  1.00  0.00     0.035 C 
ATOM     12  C   UNL A   1      33.774  22.546  25.555  1.00  0.00     0.004 C 
BRANCH   8  13
ATOM     13  C   UNL A   1      33.544  25.893  23.058  1.00  0.00     0.260 C 
ATOM     14  O   UNL A   1      34.028  26.234  21.972  1.00  0.00    -0.269 OA
BRANCH  13  15
ATOM     15  C   UNL A   1      32.746  26.970  23.868  1.00  0.00     0.111 A 
ATOM     16  C   UNL A   1      32.653  30.051  26.140  1.00  0.00     0.069 C 
ATOM     17  C   UNL A   1      32.174  28.948  25.203  1.00  0.00     0.062 A 
ATOM     18  N   UNL A   1      31.094  29.240  24.567  1.00  0.00    -0.175 NA
ATOM     19  C   UNL A   1      32.999  27.692  24.995  1.00  0.00    -0.010 A 
ATOM     20  N   UNL A   1      30.643  28.344  23.671  1.00  0.00    -0.232 N 
ATOM     21  C   UNL A   1      34.031  27.484  26.059  1.00  0.00     0.047 C 
ATOM     22  C   UNL A   1      29.325  28.639  23.125  1.00  0.00     0.178 C 
ATOM     23  C   UNL A   1      31.316  27.185  23.322  1.00  0.00     0.279 A 
ATOM     24  O   UNL A   1      30.747  26.336  22.636  1.00  0.00    -0.267 OA
ENDBRANCH  13  15
ENDBRANCH   8  13
ENDBRANCH   4   7
ENDBRANCH   2   3
ENDBRANCH   1   2
BRANCH   1  25
ATOM     25  C   UNL A   1      39.065  21.277  25.702  1.00  0.00     0.023 C 
BRANCH  25  26
ATOM     26  C   UNL A   1      39.653  20.200  26.590  1.00  0.00     0.116 C 
BRANCH  26  27
ATOM     27  N   UNL A   1      40.718  19.438  25.951  1.00  0.00    -0.352 N 
ATOM     28  C   UNL A   1      42.025  19.816  25.752  1.00  0.00     0.251 C 
ATOM     29  H   UNL A   1      40.473  18.542  25.623  1.00  0.00     0.163 HD
ATOM     30  O   UNL A   1      42.800  19.118  25.109  1.00  0.00    -0.269 OA
BRANCH  28  31
ATOM     31  C   UNL A   1      42.455  21.113  26.300  1.00  0.00     0.039 A 
ATOM     32  C   UNL A   1      42.694  22.174  25.427  1.00  0.00     0.014 A 
ATOM     33  C   UNL A   1      42.484  21.296  27.685  1.00  0.00     0.014 A 
ATOM     34  C   UNL A   1      42.891  23.450  25.951  1.00  0.00     0.010 A 
ATOM     35  C   UNL A   1      42.571  22.582  28.195  1.00  0.00     0.010 A 
ATOM     36  C   UNL A   1      42.789  23.668  27.335  1.00  0.00    -0.014 A 
BRANCH  36  37
ATOM     37  C   UNL A   1      42.961  25.017  27.921  1.00  0.00     0.031 A 
ATOM     38  C   UNL A   1      44.330  25.445  28.375  1.00  0.00     0.074 A 
ATOM     39  C   UNL A   1      41.894  25.820  28.106  1.00  0.00     0.049 A 
ATOM     40  N   UNL A   1      44.688  26.530  29.011  1.00  0.00    -0.248 NA
ATOM     41  C   UNL A   1      45.439  24.509  28.116  1.00  0.00     0.031 C 
ATOM     42  C   UNL A   1      40.510  25.489  27.759  1.00  0.00     0.029 A 
ATOM     43  N   UNL A   1      41.809  27.080  28.640  1.00  0.00    -0.354 N 
ATOM     44  C   UNL A   1      46.049  26.391  29.247  1.00  0.00     0.074 A 
ATOM     45  C   UNL A   1      46.444  25.095  28.747  1.00  0.00     0.031 C 
ATOM     46  C   UNL A   1      39.719  26.533  28.061  1.00  0.00     0.029 A 
ATOM     47  C   UNL A   1      40.533  27.591  28.651  1.00  0.00     0.049 A 
ATOM     48  H   UNL A   1      42.589  27.572  28.984  1.00  0.00     0.167 HD
ATOM     49  C   UNL A   1      46.902  27.283  29.798  1.00  0.00     0.037 A 
ATOM     50  C   UNL A   1      40.077  28.781  29.088  1.00  0.00     0.037 A 
ATOM     51  C   UNL A   1      46.519  28.598  30.226  1.00  0.00     0.049 A 
ATOM     52  C   UNL A   1      41.057  29.769  29.663  1.00  0.00     0.074 A 
ATOM     53  C   UNL A   1      47.320  29.606  30.727  1.00  0.00     0.029 A 
ATOM     54  N   UNL A   1      45.224  29.092  30.182  1.00  0.00    -0.354 N 
ATOM     55  N   UNL A   1      42.352  29.646  29.830  1.00  0.00    -0.248 NA
ATOM     56  C   UNL A   1      40.515  31.061  30.107  1.00  0.00     0.031 C 
ATOM     57  C   UNL A   1      46.507  30.706  31.011  1.00  0.00     0.029 A 
ATOM     58  C   UNL A   1      45.205  30.391  30.655  1.00  0.00     0.049 A 
ATOM     59  H   UNL A   1      44.438  28.594  29.862  1.00  0.00     0.167 HD
ATOM     60  C   UNL A   1      42.782  30.848  30.374  1.00  0.00     0.074 A 
ATOM     61  C   UNL A   1      41.614  31.695  30.496  1.00  0.00     0.031 C 
ATOM     62  C   UNL A   1      44.030  31.218  30.748  1.00  0.00     0.037 A 
BRANCH  49  63
ATOM     63  C   UNL A   1      48.340  26.886  29.930  1.00  0.00     0.057 A 
ATOM     64  C   UNL A   1      48.801  26.161  31.037  1.00  0.00     0.134 A 
ATOM     65  C   UNL A   1      49.258  27.172  28.913  1.00  0.00     0.134 A 
ATOM     66  F   UNL A   1      47.973  25.873  32.053  1.00  0.00    -0.206 F 
ATOM     67  C   UNL A   1      50.127  25.740  31.130  1.00  0.00     0.040 A 
ATOM     68  C   UNL A   1      50.581  26.736  28.984  1.00  0.00     0.040 A 
ATOM     69  F   UNL A   1      48.880  27.864  27.828  1.00  0.00    -0.206 F 
ATOM     70  C   UNL A   1      51.018  26.017  30.096  1.00  0.00     0.006 A 
ENDBRANCH  49  63
BRANCH  50  71
ATOM     71  C   UNL A   1      38.638  29.122  28.974  1.00  0.00     0.057 A 
ATOM     72  C   UNL A   1      38.098  29.572  27.762  1.00  0.00     0.134 A 
ATOM     73  C   UNL A   1      37.770  29.025  30.068  1.00  0.00     0.134 A 
ATOM     74  F   UNL A   1      38.883  29.703  26.683  1.00  0.00    -0.206 F 
ATOM     75  C   UNL A   1      36.754  29.934  27.648  1.00  0.00     0.040 A 
ATOM     76  C   UNL A   1      36.418  29.362  29.962  1.00  0.00     0.040 A 
ATOM     77  F   UNL A   1      38.221  28.592  31.254  1.00  0.00    -0.206 F 
ATOM     78  C   UNL A   1      35.910  29.826  28.750  1.00  0.00     0.006 A 
ENDBRANCH  50  71
BRANCH  62  79
ATOM     79  C   UNL A   1      44.208  32.598  31.301  1.00  0.00     0.057 A 
ATOM     80  C   UNL A   1      44.167  32.844  32.678  1.00  0.00     0.134 A 
ATOM     81  C   UNL A   1      44.511  33.671  30.455  1.00  0.00     0.134 A 
ATOM     82  F   UNL A   1      43.874  31.856  33.537  1.00  0.00    -0.206 F 
ATOM     83  C   UNL A   1      44.416  34.115  33.196  1.00  0.00     0.040 A 
ATOM     84  C   UNL A   1      44.784  34.941  30.963  1.00  0.00     0.040 A 
ATOM     85  F   UNL A   1      44.577  33.494  29.127  1.00  0.00    -0.206 F 
ATOM     86  C   UNL A   1      44.736  35.166  32.337  1.00  0.00     0.006 A 
ENDBRANCH  62  79
ENDBRANCH  36  37
ENDBRANCH  28  31
ENDBRANCH  26  27
ENDBRANCH  25  26
ENDBRANCH   1  25
TORSDOF 13
ENDMDL
MODEL 2
REMARK VINA RESULT:     -11.6      3.139      8.759
REMARK SMILES Cc1nn(C)c(=O)c(C(=O)N2CCCC[C@H]2C(=O)NCCCCNC(=O)c2ccc(-c3c4nc(c(-c5c(F)cccc5F)c5ccc([nH]5)c(-c5c(F)cccc5F)c5nc(c(-c6c(F)cccc6F)c6ccc3[nH]6)C=C5)C=C4)cc2)c1C
REMARK SMILES IDX 21 1 20 2 19 3 17 4 18 5 16 7 11 8 12 9 13 10 15 11 14 12
REMARK SMILES IDX 9 13 10 14 8 15 1 16 2 17 3 18 81 19 4 20 82 21 5 22 6 23
REMARK SMILES IDX 7 24 22 25 23 26 24 27 25 28 26 30 27 31 28 32 80 33 29 34
REMARK SMILES IDX 79 35 30 36 31 37 32 38 73 39 33 40 78 41 72 42 74 43 34 44
REMARK SMILES IDX 77 45 71 46 70 47 35 49 61 50 44 51 60 52 45 53 48 54 59 55
REMARK SMILES IDX 75 56 46 57 47 58 58 60 76 61 49 62 36 63 37 64 42 65 38 66
REMARK SMILES IDX 39 67 41 68 43 69 40 70 62 71 63 72 68 73 64 74 65 75 67 76
REMARK SMILES IDX 69 77 66 78 50 79 51 80 56 81 52 82 53 83 55 84 57 85 54 86
REMARK H PARENT 19 6 24 29 74 48 48 59
REMARK Flexibility Score: inf
ROOT
ATOM      1  C   UNL A   1      32.154  30.083  26.263  1.00  0.00     0.023 C 
ENDROOT
BRANCH   1   2
ATOM      2  C   UNL A   1      32.150  28.926  27.248  1.00  0.00     0.116 C 
BRANCH   2   3
ATOM      3  N   UNL A   1      31.205  27.888  26.873  1.00  0.00    -0.354 N 
ATOM      4  C   UNL A   1      31.346  26.586  26.502  1.00  0.00     0.242 C 
ATOM      5  O   UNL A   1      30.293  26.001  26.219  1.00  0.00    -0.273 OA
ATOM      6  H   UNL A   1      30.268  28.190  26.893  1.00  0.00     0.163 HD
BRANCH   4   7
ATOM      7  C   UNL A   1      32.714  25.883  26.270  1.00  0.00     0.174 C 
ATOM      8  N   UNL A   1      32.716  24.582  25.621  1.00  0.00    -0.326 N 
ATOM      9  C   UNL A   1      32.428  24.651  24.166  1.00  0.00     0.120 C 
ATOM     10  C   UNL A   1      33.335  25.615  23.408  1.00  0.00     0.022 C 
ATOM     11  C   UNL A   1      33.688  26.843  25.545  1.00  0.00     0.035 C 
ATOM     12  C   UNL A   1      33.342  26.988  24.069  1.00  0.00     0.004 C 
BRANCH   8  13
ATOM     13  C   UNL A   1      33.154  23.361  26.144  1.00  0.00     0.260 C 
ATOM     14  O   UNL A   1      32.784  23.133  27.301  1.00  0.00    -0.269 OA
BRANCH  13  15
ATOM     15  C   UNL A   1      34.248  22.420  25.532  1.00  0.00     0.111 A 
ATOM     16  C   UNL A   1      37.898  21.309  25.213  1.00  0.00     0.069 C 
ATOM     17  C   UNL A   1      36.379  21.292  25.081  1.00  0.00     0.062 A 
ATOM     18  N   UNL A   1      35.886  20.113  24.928  1.00  0.00    -0.175 NA
ATOM     19  C   UNL A   1      35.571  22.565  25.242  1.00  0.00    -0.010 A 
ATOM     20  N   UNL A   1      34.545  20.008  24.870  1.00  0.00    -0.232 N 
ATOM     21  C   UNL A   1      36.398  23.806  25.117  1.00  0.00     0.047 C 
ATOM     22  C   UNL A   1      34.054  18.686  24.506  1.00  0.00     0.178 C 
ATOM     23  C   UNL A   1      33.671  21.064  25.065  1.00  0.00     0.279 A 
ATOM     24  O   UNL A   1      32.476  20.917  24.813  1.00  0.00    -0.267 OA
ENDBRANCH  13  15
ENDBRANCH   8  13
ENDBRANCH   4   7
ENDBRANCH   2   3
ENDBRANCH   1   2
BRANCH   1  25
ATOM     25  C   UNL A   1      31.739  31.424  26.840  1.00  0.00     0.023 C 
BRANCH  25  26
ATOM     26  C   UNL A   1      32.899  32.338  27.177  1.00  0.00     0.116 C 
BRANCH  26  27
ATOM     27  N   UNL A   1      32.486  33.657  27.636  1.00  0.00    -0.352 N 
ATOM     28  C   UNL A   1      33.122  34.476  28.539  1.00  0.00     0.251 C 
ATOM     29  H   UNL A   1      31.649  34.006  27.251  1.00  0.00     0.163 HD
ATOM     30  O   UNL A   1      32.615  35.526  28.916  1.00  0.00    -0.269 OA
BRANCH  28  31
ATOM     31  C   UNL A   1      34.418  34.029  29.075  1.00  0.00     0.039 A 
ATOM     32  C   UNL A   1      34.445  33.285  30.254  1.00  0.00     0.014 A 
ATOM     33  C   UNL A   1      35.580  34.238  28.326  1.00  0.00     0.014 A 
ATOM     34  C   UNL A   1      35.639  32.681  30.647  1.00  0.00     0.010 A 
ATOM     35  C   UNL A   1      36.734  33.548  28.661  1.00  0.00     0.010 A 
ATOM     36  C   UNL A   1      36.779  32.775  29.831  1.00  0.00    -0.014 A 
BRANCH  36  37
ATOM     37  C   UNL A   1      38.054  32.120  30.203  1.00  0.00     0.031 A 
ATOM     38  C   UNL A   1      38.979  32.817  31.162  1.00  0.00     0.074 A 
ATOM     39  C   UNL A   1      38.406  30.949  29.637  1.00  0.00     0.049 A 
ATOM     40  N   UNL A   1      40.184  32.482  31.539  1.00  0.00    -0.248 NA
ATOM     41  C   UNL A   1      38.500  34.085  31.744  1.00  0.00     0.031 C 
ATOM     42  C   UNL A   1      37.617  30.208  28.650  1.00  0.00     0.029 A 
ATOM     43  N   UNL A   1      39.529  30.179  29.808  1.00  0.00    -0.354 N 
ATOM     44  C   UNL A   1      40.612  33.504  32.374  1.00  0.00     0.074 A 
ATOM     45  C   UNL A   1      39.570  34.504  32.403  1.00  0.00     0.031 C 
ATOM     46  C   UNL A   1      38.266  29.076  28.327  1.00  0.00     0.029 A 
ATOM     47  C   UNL A   1      39.529  29.027  29.057  1.00  0.00     0.049 A 
ATOM     48  H   UNL A   1      40.266  30.429  30.411  1.00  0.00     0.167 HD
ATOM     49  C   UNL A   1      41.758  33.584  33.087  1.00  0.00     0.037 A 
ATOM     50  C   UNL A   1      40.447  28.045  28.974  1.00  0.00     0.037 A 
ATOM     51  C   UNL A   1      42.757  32.556  33.113  1.00  0.00     0.049 A 
ATOM     52  C   UNL A   1      41.697  28.144  29.807  1.00  0.00     0.074 A 
ATOM     53  C   UNL A   1      43.919  32.505  33.861  1.00  0.00     0.029 A 
ATOM     54  N   UNL A   1      42.701  31.386  32.371  1.00  0.00    -0.354 N 
ATOM     55  N   UNL A   1      42.063  29.091  30.637  1.00  0.00    -0.248 NA
ATOM     56  C   UNL A   1      42.659  27.038  29.698  1.00  0.00     0.031 C 
ATOM     57  C   UNL A   1      44.581  31.314  33.554  1.00  0.00     0.029 A 
ATOM     58  C   UNL A   1      43.813  30.609  32.639  1.00  0.00     0.049 A 
ATOM     59  H   UNL A   1      41.978  31.145  31.749  1.00  0.00     0.167 HD
ATOM     60  C   UNL A   1      43.282  28.686  31.163  1.00  0.00     0.074 A 
ATOM     61  C   UNL A   1      43.587  27.400  30.573  1.00  0.00     0.031 C 
ATOM     62  C   UNL A   1      44.082  29.324  32.051  1.00  0.00     0.037 A 
BRANCH  49  63
ATOM     63  C   UNL A   1      41.973  34.803  33.930  1.00  0.00     0.057 A 
ATOM     64  C   UNL A   1      41.574  34.845  35.273  1.00  0.00     0.134 A 
ATOM     65  C   UNL A   1      42.643  35.920  33.417  1.00  0.00     0.134 A 
ATOM     66  F   UNL A   1      40.911  33.813  35.817  1.00  0.00    -0.206 F 
ATOM     67  C   UNL A   1      41.829  35.958  36.074  1.00  0.00     0.040 A 
ATOM     68  C   UNL A   1      42.925  37.029  34.215  1.00  0.00     0.040 A 
ATOM     69  F   UNL A   1      43.051  35.943  32.139  1.00  0.00    -0.206 F 
ATOM     70  C   UNL A   1      42.517  37.049  35.548  1.00  0.00     0.006 A 
ENDBRANCH  49  63
BRANCH  50  71
ATOM     71  C   UNL A   1      40.213  26.871  28.097  1.00  0.00     0.057 A 
ATOM     72  C   UNL A   1      39.430  25.794  28.531  1.00  0.00     0.134 A 
ATOM     73  C   UNL A   1      40.774  26.784  26.818  1.00  0.00     0.134 A 
ATOM     74  F   UNL A   1      38.880  25.810  29.754  1.00  0.00    -0.206 F 
ATOM     75  C   UNL A   1      39.232  24.664  27.735  1.00  0.00     0.040 A 
ATOM     76  C   UNL A   1      40.565  25.670  26.002  1.00  0.00     0.040 A 
ATOM     77  F   UNL A   1      41.527  27.785  26.340  1.00  0.00    -0.206 F 
ATOM     78  C   UNL A   1      39.798  24.602  26.464  1.00  0.00     0.006 A 
ENDBRANCH  50  71
BRANCH  62  79
ATOM     79  C   UNL A   1      45.351  28.639  32.457  1.00  0.00     0.057 A 
ATOM     80  C   UNL A   1      45.382  27.729  33.520  1.00  0.00     0.134 A 
ATOM     81  C   UNL A   1      46.527  28.823  31.720  1.00  0.00     0.134 A 
ATOM     82  F   UNL A   1      44.287  27.517  34.266  1.00  0.00    -0.206 F 
ATOM     83  C   UNL A   1      46.545  27.030  33.842  1.00  0.00     0.040 A 
ATOM     84  C   UNL A   1      47.689  28.112  32.019  1.00  0.00     0.040 A 
ATOM     85  F   UNL A   1      46.555  29.672  30.682  1.00  0.00    -0.206 F 
ATOM     86  C   UNL A   1      47.700  27.213  33.083  1.00  0.00     0.006 A 
ENDBRANCH  62  79
ENDBRANCH  36  37
ENDBRANCH  28  31
ENDBRANCH  26  27
ENDBRANCH  25  26
ENDBRANCH   1  25
TORSDOF 13
ENDMDL
MODEL 3
REMARK VINA RESULT:     -11.4      1.668      2.106
REMARK SMILES Cc1nn(C)c(=O)c(C(=O)N2CCCC[C@H]2C(=O)NCCCCNC(=O)c2ccc(-c3c4nc(c(-c5c(F)cccc5F)c5ccc([nH]5)c(-c5c(F)cccc5F)c5nc(c(-c6c(F)cccc6F)c6ccc3[nH]6)C=C5)C=C4)cc2)c1C
REMARK SMILES IDX 21 1 20 2 19 3 17 4 18 5 16 7 11 8 12 9 13 10 15 11 14 12
REMARK SMILES IDX 9 13 10 14 8 15 1 16 2 17 3 18 81 19 4 20 82 21 5 22 6 23
REMARK SMILES IDX 7 24 22 25 23 26 24 27 25 28 26 30 27 31 28 32 80 33 29 34
REMARK SMILES IDX 79 35 30 36 31 37 32 38 73 39 33 40 78 41 72 42 74 43 34 44
REMARK SMILES IDX 77 45 71 46 70 47 35 49 61 50 44 51 60 52 45 53 48 54 59 55
REMARK SMILES IDX 75 56 46 57 47 58 58 60 76 61 49 62 36 63 37 64 42 65 38 66
REMARK SMILES IDX 39 67 41 68 43 69 40 70 62 71 63 72 68 73 64 74 65 75 67 76
REMARK SMILES IDX 69 77 66 78 50 79 51 80 56 81 52 82 53 83 55 84 57 85 54 86
REMARK H PARENT 19 6 24 29 74 48 48 59
REMARK Flexibility Score: inf
ROOT
ATOM      1  C   UNL A   1      37.235  21.316  24.708  1.00  0.00     0.023 C 
ENDROOT
BRANCH   1   2
ATOM      2  C   UNL A   1      35.935  21.453  25.486  1.00  0.00     0.116 C 
BRANCH   2   3
ATOM      3  N   UNL A   1      34.768  21.365  24.626  1.00  0.00    -0.354 N 
ATOM      4  C   UNL A   1      33.772  22.237  24.310  1.00  0.00     0.242 C 
ATOM      5  O   UNL A   1      32.906  21.794  23.545  1.00  0.00    -0.273 OA
ATOM      6  H   UNL A   1      34.681  20.492  24.177  1.00  0.00     0.163 HD
BRANCH   4   7
ATOM      7  C   UNL A   1      33.593  23.638  24.962  1.00  0.00     0.174 C 
ATOM      8  N   UNL A   1      32.548  24.507  24.445  1.00  0.00    -0.326 N 
ATOM      9  C   UNL A   1      31.181  24.077  24.833  1.00  0.00     0.120 C 
ATOM     10  C   UNL A   1      31.005  23.882  26.336  1.00  0.00     0.022 C 
ATOM     11  C   UNL A   1      33.459  23.495  26.497  1.00  0.00     0.035 C 
ATOM     12  C   UNL A   1      32.087  22.968  26.896  1.00  0.00     0.004 C 
BRANCH   8  13
ATOM     13  C   UNL A   1      32.693  25.760  23.842  1.00  0.00     0.260 C 
ATOM     14  O   UNL A   1      33.640  25.846  23.052  1.00  0.00    -0.269 OA
BRANCH  13  15
ATOM     15  C   UNL A   1      31.971  27.087  24.258  1.00  0.00     0.111 A 
ATOM     16  C   UNL A   1      31.778  30.252  26.404  1.00  0.00     0.069 C 
ATOM     17  C   UNL A   1      31.471  29.254  25.293  1.00  0.00     0.062 A 
ATOM     18  N   UNL A   1      30.932  29.787  24.253  1.00  0.00    -0.175 NA
ATOM     19  C   UNL A   1      31.891  27.802  25.415  1.00  0.00    -0.010 A 
ATOM     20  N   UNL A   1      30.691  28.982  23.202  1.00  0.00    -0.232 N 
ATOM     21  C   UNL A   1      32.222  27.401  26.818  1.00  0.00     0.047 C 
ATOM     22  C   UNL A   1      29.911  29.593  22.134  1.00  0.00     0.178 C 
ATOM     23  C   UNL A   1      31.074  27.653  23.134  1.00  0.00     0.279 A 
ATOM     24  O   UNL A   1      30.653  26.946  22.219  1.00  0.00    -0.267 OA
ENDBRANCH  13  15
ENDBRANCH   8  13
ENDBRANCH   4   7
ENDBRANCH   2   3
ENDBRANCH   1   2
BRANCH   1  25
ATOM     25  C   UNL A   1      38.032  20.058  25.001  1.00  0.00     0.023 C 
BRANCH  25  26
ATOM     26  C   UNL A   1      39.210  20.276  25.929  1.00  0.00     0.116 C 
BRANCH  26  27
ATOM     27  N   UNL A   1      40.165  19.176  25.923  1.00  0.00    -0.352 N 
ATOM     28  C   UNL A   1      41.527  19.239  26.106  1.00  0.00     0.251 C 
ATOM     29  H   UNL A   1      39.791  18.279  25.771  1.00  0.00     0.163 HD
ATOM     30  O   UNL A   1      42.234  18.246  25.979  1.00  0.00    -0.269 OA
BRANCH  28  31
ATOM     31  C   UNL A   1      42.117  20.551  26.419  1.00  0.00     0.039 A 
ATOM     32  C   UNL A   1      42.421  21.425  25.376  1.00  0.00     0.014 A 
ATOM     33  C   UNL A   1      42.236  20.950  27.753  1.00  0.00     0.014 A 
ATOM     34  C   UNL A   1      42.776  22.739  25.675  1.00  0.00     0.010 A 
ATOM     35  C   UNL A   1      42.482  22.282  28.041  1.00  0.00     0.010 A 
ATOM     36  C   UNL A   1      42.768  23.186  27.007  1.00  0.00    -0.014 A 
BRANCH  36  37
ATOM     37  C   UNL A   1      43.110  24.584  27.357  1.00  0.00     0.031 A 
ATOM     38  C   UNL A   1      44.547  25.022  27.287  1.00  0.00     0.074 A 
ATOM     39  C   UNL A   1      42.155  25.428  27.796  1.00  0.00     0.049 A 
ATOM     40  N   UNL A   1      45.083  26.157  27.650  1.00  0.00    -0.248 NA
ATOM     41  C   UNL A   1      45.518  24.036  26.779  1.00  0.00     0.031 C 
ATOM     42  C   UNL A   1      40.738  25.098  27.962  1.00  0.00     0.029 A 
ATOM     43  N   UNL A   1      42.238  26.738  28.191  1.00  0.00    -0.354 N 
ATOM     44  C   UNL A   1      46.447  26.010  27.439  1.00  0.00     0.074 A 
ATOM     45  C   UNL A   1      46.670  24.659  26.978  1.00  0.00     0.031 C 
ATOM     46  C   UNL A   1      40.080  26.187  28.394  1.00  0.00     0.029 A 
ATOM     47  C   UNL A   1      41.031  27.280  28.567  1.00  0.00     0.049 A 
ATOM     48  H   UNL A   1      43.082  27.244  28.205  1.00  0.00     0.167 HD
ATOM     49  C   UNL A   1      47.425  26.933  27.580  1.00  0.00     0.037 A 
ATOM     50  C   UNL A   1      40.733  28.520  29.001  1.00  0.00     0.037 A 
ATOM     51  C   UNL A   1      47.191  28.294  27.968  1.00  0.00     0.049 A 
ATOM     52  C   UNL A   1      41.837  29.537  29.113  1.00  0.00     0.074 A 
ATOM     53  C   UNL A   1      48.102  29.328  28.068  1.00  0.00     0.029 A 
ATOM     54  N   UNL A   1      45.949  28.813  28.300  1.00  0.00    -0.354 N 
ATOM     55  N   UNL A   1      43.115  29.399  28.856  1.00  0.00    -0.248 NA
ATOM     56  C   UNL A   1      41.459  30.882  29.570  1.00  0.00     0.031 C 
ATOM     57  C   UNL A   1      47.416  30.471  28.484  1.00  0.00     0.029 A 
ATOM     58  C   UNL A   1      46.073  30.155  28.613  1.00  0.00     0.049 A 
ATOM     59  H   UNL A   1      45.107  28.305  28.312  1.00  0.00     0.167 HD
ATOM     60  C   UNL A   1      43.688  30.640  29.098  1.00  0.00     0.074 A 
ATOM     61  C   UNL A   1      42.617  31.524  29.506  1.00  0.00     0.031 C 
ATOM     62  C   UNL A   1      44.986  31.015  28.998  1.00  0.00     0.037 A 
BRANCH  49  63
ATOM     63  C   UNL A   1      48.830  26.515  27.273  1.00  0.00     0.057 A 
ATOM     64  C   UNL A   1      49.683  26.023  28.270  1.00  0.00     0.134 A 
ATOM     65  C   UNL A   1      49.315  26.543  25.960  1.00  0.00     0.134 A 
ATOM     66  F   UNL A   1      49.282  25.989  29.551  1.00  0.00    -0.206 F 
ATOM     67  C   UNL A   1      50.971  25.578  27.973  1.00  0.00     0.040 A 
ATOM     68  C   UNL A   1      50.593  26.079  25.647  1.00  0.00     0.040 A 
ATOM     69  F   UNL A   1      48.549  27.004  24.960  1.00  0.00    -0.206 F 
ATOM     70  C   UNL A   1      51.424  25.595  26.656  1.00  0.00     0.006 A 
ENDBRANCH  49  63
BRANCH  50  71
ATOM     71  C   UNL A   1      39.333  28.883  29.331  1.00  0.00     0.057 A 
ATOM     72  C   UNL A   1      38.813  28.657  30.612  1.00  0.00     0.134 A 
ATOM     73  C   UNL A   1      38.474  29.445  28.380  1.00  0.00     0.134 A 
ATOM     74  F   UNL A   1      39.581  28.104  31.563  1.00  0.00    -0.206 F 
ATOM     75  C   UNL A   1      37.487  28.956  30.929  1.00  0.00     0.040 A 
ATOM     76  C   UNL A   1      37.152  29.771  28.689  1.00  0.00     0.040 A 
ATOM     77  F   UNL A   1      38.912  29.695  27.137  1.00  0.00    -0.206 F 
ATOM     78  C   UNL A   1      36.653  29.518  29.965  1.00  0.00     0.006 A 
ENDBRANCH  50  71
BRANCH  62  79
ATOM     79  C   UNL A   1      45.322  32.441  29.312  1.00  0.00     0.057 A 
ATOM     80  C   UNL A   1      45.748  32.827  30.588  1.00  0.00     0.134 A 
ATOM     81  C   UNL A   1      45.304  33.415  28.306  1.00  0.00     0.134 A 
ATOM     82  F   UNL A   1      45.778  31.939  31.593  1.00  0.00    -0.206 F 
ATOM     83  C   UNL A   1      46.139  34.138  30.855  1.00  0.00     0.040 A 
ATOM     84  C   UNL A   1      45.716  34.724  28.557  1.00  0.00     0.040 A 
ATOM     85  F   UNL A   1      44.917  33.102  27.061  1.00  0.00    -0.206 F 
ATOM     86  C   UNL A   1      46.134  35.089  29.835  1.00  0.00     0.006 A 
ENDBRANCH  62  79
ENDBRANCH  36  37
ENDBRANCH  28  31
ENDBRANCH  26  27
ENDBRANCH  25  26
ENDBRANCH   1  25
TORSDOF 13
ENDMDL
