MODEL 1
REMARK VINA RESULT:     -11.5      0.000      0.000
REMARK SMILES CCOC(=O)c1c(S(=O)(=O)N2CCC[C@@H](C(=O)NCCCCNC(=O)c3ccc(-c4c5nc(c(-c6c(F)cccc6F)c6ccc([nH]6)c(-c6c(F)cccc6F)c6nc(c(-c7c(F)cccc7F)c7ccc4[nH]7)C=C6)C=C5)cc3)C2)c(C)n(C)c1C
REMARK SMILES IDX 19 1 18 2 16 3 17 4 15 6 11 7 12 8 80 9 13 10 14 11 8 12
REMARK SMILES IDX 9 13 10 14 7 15 6 16 85 17 81 18 83 19 86 20 82 21 84 22
REMARK SMILES IDX 4 23 5 24 3 25 2 26 1 27 20 28 21 29 22 30 23 31 24 32 25 34
REMARK SMILES IDX 26 35 27 36 79 37 28 38 78 39 29 40 30 41 31 42 72 43 32 44
REMARK SMILES IDX 77 45 71 46 73 47 33 48 76 49 70 50 69 51 34 53 60 54 43 55
REMARK SMILES IDX 59 56 44 57 47 58 58 59 74 60 45 61 46 62 57 64 75 65 48 66
REMARK SMILES IDX 35 67 36 68 41 69 37 70 38 71 40 72 42 73 39 74 61 75 62 76
REMARK SMILES IDX 67 77 63 78 64 79 66 80 68 81 65 82 49 83 50 84 55 85 51 86
REMARK SMILES IDX 52 87 54 88 56 89 53 90
REMARK H PARENT 18 5 23 33 73 52 47 63
REMARK Flexibility Score: inf
ROOT
ATOM      1  C   UNL A   1      39.323  20.872  25.958  1.00  0.00     0.116 C 
ENDROOT
BRANCH   1   2
ATOM      2  N   UNL A   1      38.784  22.212  25.713  1.00  0.00    -0.356 N 
ATOM      3  C   UNL A   1      37.558  22.806  25.695  1.00  0.00     0.224 C 
ATOM      4  O   UNL A   1      37.580  24.024  25.469  1.00  0.00    -0.275 OA
ATOM      5  H   UNL A   1      39.499  22.856  25.505  1.00  0.00     0.163 HD
BRANCH   3   6
ATOM      6  C   UNL A   1      36.203  22.098  25.874  1.00  0.00     0.093 C 
ATOM      7  N   UNL A   1      33.696  22.472  25.722  1.00  0.00    -0.197 NA
ATOM      8  C   UNL A   1      33.477  21.251  24.938  1.00  0.00     0.102 C 
ATOM      9  C   UNL A   1      35.037  23.043  25.862  1.00  0.00     0.116 C 
ATOM     10  C   UNL A   1      34.671  20.307  24.972  1.00  0.00     0.018 C 
ATOM     11  C   UNL A   1      36.010  21.014  24.803  1.00  0.00     0.016 C 
BRANCH   7  12
ATOM     12  S   UNL A   1      32.461  23.629  25.723  1.00  0.00     0.245 S 
ATOM     13  O   UNL A   1      32.607  24.384  26.955  1.00  0.00    -0.207 OA
ATOM     14  O   UNL A   1      31.218  22.968  25.393  1.00  0.00    -0.207 OA
BRANCH  12  15
ATOM     15  C   UNL A   1      32.589  24.886  24.511  1.00  0.00     0.118 A 
ATOM     16  C   UNL A   1      32.772  26.304  24.629  1.00  0.00     0.101 A 
ATOM     17  C   UNL A   1      32.874  26.798  23.324  1.00  0.00     0.030 A 
ATOM     18  C   UNL A   1      32.438  24.601  23.152  1.00  0.00     0.035 A 
ATOM     19  N   UNL A   1      32.659  25.760  22.447  1.00  0.00    -0.350 N 
ATOM     20  C   UNL A   1      33.199  28.183  22.860  1.00  0.00     0.065 C 
ATOM     21  C   UNL A   1      32.099  23.295  22.504  1.00  0.00     0.066 C 
ATOM     22  C   UNL A   1      32.686  25.851  20.999  1.00  0.00     0.149 C 
BRANCH  16  23
ATOM     23  C   UNL A   1      32.914  27.190  25.777  1.00  0.00     0.341 C 
ATOM     24  O   UNL A   1      33.983  27.499  26.274  1.00  0.00    -0.246 OA
BRANCH  23  25
ATOM     25  O   UNL A   1      31.710  27.729  26.148  1.00  0.00    -0.462 OA
BRANCH  25  26
ATOM     26  C   UNL A   1      31.751  29.052  26.709  1.00  0.00     0.230 C 
ATOM     27  C   UNL A   1      31.656  30.106  25.628  1.00  0.00     0.049 C 
ENDBRANCH  25  26
ENDBRANCH  23  25
ENDBRANCH  16  23
ENDBRANCH  12  15
ENDBRANCH   7  12
ENDBRANCH   3   6
ENDBRANCH   1   2
BRANCH   1  28
ATOM     28  C   UNL A   1      40.791  20.900  26.384  1.00  0.00     0.023 C 
BRANCH  28  29
ATOM     29  C   UNL A   1      41.541  19.585  26.145  1.00  0.00     0.023 C 
BRANCH  29  30
ATOM     30  C   UNL A   1      42.995  19.591  26.619  1.00  0.00     0.116 C 
BRANCH  30  31
ATOM     31  N   UNL A   1      43.954  19.436  25.529  1.00  0.00    -0.352 N 
ATOM     32  C   UNL A   1      44.476  20.423  24.719  1.00  0.00     0.251 C 
ATOM     33  H   UNL A   1      44.265  18.519  25.352  1.00  0.00     0.163 HD
ATOM     34  O   UNL A   1      44.968  20.158  23.629  1.00  0.00    -0.269 OA
BRANCH  32  35
ATOM     35  C   UNL A   1      44.425  21.818  25.187  1.00  0.00     0.039 A 
ATOM     36  C   UNL A   1      43.480  22.703  24.664  1.00  0.00     0.014 A 
ATOM     37  C   UNL A   1      45.310  22.216  26.189  1.00  0.00     0.014 A 
ATOM     38  C   UNL A   1      43.363  23.971  25.228  1.00  0.00     0.010 A 
ATOM     39  C   UNL A   1      45.134  23.438  26.804  1.00  0.00     0.010 A 
ATOM     40  C   UNL A   1      44.172  24.326  26.320  1.00  0.00    -0.014 A 
BRANCH  40  41
ATOM     41  C   UNL A   1      43.919  25.582  27.026  1.00  0.00     0.031 A 
ATOM     42  C   UNL A   1      44.875  26.694  26.740  1.00  0.00     0.074 A 
ATOM     43  C   UNL A   1      42.793  25.837  27.724  1.00  0.00     0.049 A 
ATOM     44  N   UNL A   1      45.677  27.286  27.562  1.00  0.00    -0.248 NA
ATOM     45  C   UNL A   1      45.001  27.160  25.350  1.00  0.00     0.031 C 
ATOM     46  C   UNL A   1      41.590  25.008  27.848  1.00  0.00     0.029 A 
ATOM     47  N   UNL A   1      42.452  26.972  28.396  1.00  0.00    -0.354 N 
ATOM     48  C   UNL A   1      46.295  28.311  26.844  1.00  0.00     0.074 A 
ATOM     49  C   UNL A   1      45.939  28.103  25.463  1.00  0.00     0.031 C 
ATOM     50  C   UNL A   1      40.583  25.754  28.355  1.00  0.00     0.029 A 
ATOM     51  C   UNL A   1      41.112  27.048  28.743  1.00  0.00     0.049 A 
ATOM     52  H   UNL A   1      43.102  27.677  28.615  1.00  0.00     0.167 HD
ATOM     53  C   UNL A   1      46.894  29.364  27.466  1.00  0.00     0.037 A 
ATOM     54  C   UNL A   1      40.473  28.111  29.288  1.00  0.00     0.037 A 
ATOM     55  C   UNL A   1      47.113  29.096  28.863  1.00  0.00     0.049 A 
ATOM     56  C   UNL A   1      41.501  28.990  29.895  1.00  0.00     0.074 A 
ATOM     57  C   UNL A   1      47.821  28.151  29.580  1.00  0.00     0.029 A 
ATOM     58  N   UNL A   1      46.262  29.681  29.767  1.00  0.00    -0.354 N 
ATOM     59  N   UNL A   1      42.194  28.678  30.952  1.00  0.00    -0.248 NA
ATOM     60  C   UNL A   1      42.050  30.062  29.082  1.00  0.00     0.031 C 
ATOM     61  C   UNL A   1      47.012  27.876  30.722  1.00  0.00     0.029 A 
ATOM     62  C   UNL A   1      45.893  28.707  30.656  1.00  0.00     0.049 A 
ATOM     63  H   UNL A   1      45.971  30.622  29.773  1.00  0.00     0.167 HD
ATOM     64  C   UNL A   1      43.458  29.192  30.707  1.00  0.00     0.074 A 
ATOM     65  C   UNL A   1      43.278  30.129  29.602  1.00  0.00     0.031 C 
ATOM     66  C   UNL A   1      44.573  28.601  31.231  1.00  0.00     0.037 A 
BRANCH  53  67
ATOM     67  C   UNL A   1      46.976  30.769  26.918  1.00  0.00     0.057 A 
ATOM     68  C   UNL A   1      48.209  31.452  26.946  1.00  0.00     0.134 A 
ATOM     69  C   UNL A   1      45.853  31.576  26.656  1.00  0.00     0.134 A 
ATOM     70  F   UNL A   1      49.353  30.799  27.198  1.00  0.00    -0.206 F 
ATOM     71  C   UNL A   1      48.303  32.842  26.805  1.00  0.00     0.040 A 
ATOM     72  C   UNL A   1      45.942  32.959  26.462  1.00  0.00     0.040 A 
ATOM     73  F   UNL A   1      44.605  31.093  26.677  1.00  0.00    -0.206 F 
ATOM     74  C   UNL A   1      47.164  33.602  26.571  1.00  0.00     0.006 A 
ENDBRANCH  53  67
BRANCH  54  75
ATOM     75  C   UNL A   1      39.066  28.531  29.127  1.00  0.00     0.057 A 
ATOM     76  C   UNL A   1      38.185  28.543  30.218  1.00  0.00     0.134 A 
ATOM     77  C   UNL A   1      38.624  29.192  27.966  1.00  0.00     0.134 A 
ATOM     78  F   UNL A   1      38.530  27.965  31.377  1.00  0.00    -0.206 F 
ATOM     79  C   UNL A   1      36.951  29.201  30.169  1.00  0.00     0.040 A 
ATOM     80  C   UNL A   1      37.391  29.848  27.903  1.00  0.00     0.040 A 
ATOM     81  F   UNL A   1      39.412  29.297  26.885  1.00  0.00    -0.206 F 
ATOM     82  C   UNL A   1      36.557  29.869  29.014  1.00  0.00     0.006 A 
ENDBRANCH  54  75
BRANCH  66  83
ATOM     83  C   UNL A   1      44.387  27.571  32.308  1.00  0.00     0.057 A 
ATOM     84  C   UNL A   1      44.233  26.197  32.069  1.00  0.00     0.134 A 
ATOM     85  C   UNL A   1      44.520  27.968  33.644  1.00  0.00     0.134 A 
ATOM     86  F   UNL A   1      44.198  25.707  30.824  1.00  0.00    -0.206 F 
ATOM     87  C   UNL A   1      44.166  25.270  33.114  1.00  0.00     0.040 A 
ATOM     88  C   UNL A   1      44.490  27.049  34.694  1.00  0.00     0.040 A 
ATOM     89  F   UNL A   1      44.728  29.260  33.947  1.00  0.00    -0.206 F 
ATOM     90  C   UNL A   1      44.302  25.695  34.431  1.00  0.00     0.006 A 
ENDBRANCH  66  83
ENDBRANCH  40  41
ENDBRANCH  32  35
ENDBRANCH  30  31
ENDBRANCH  29  30
ENDBRANCH  28  29
ENDBRANCH   1  28
TORSDOF 16
ENDMDL
MODEL 2
REMARK VINA RESULT:     -11.3      2.556      3.449
REMARK SMILES CCOC(=O)c1c(S(=O)(=O)N2CCC[C@@H](C(=O)NCCCCNC(=O)c3ccc(-c4c5nc(c(-c6c(F)cccc6F)c6ccc([nH]6)c(-c6c(F)cccc6F)c6nc(c(-c7c(F)cccc7F)c7ccc4[nH]7)C=C6)C=C5)cc3)C2)c(C)n(C)c1C
REMARK SMILES IDX 19 1 18 2 16 3 17 4 15 6 11 7 12 8 80 9 13 10 14 11 8 12
REMARK SMILES IDX 9 13 10 14 7 15 6 16 85 17 81 18 83 19 86 20 82 21 84 22
REMARK SMILES IDX 4 23 5 24 3 25 2 26 1 27 20 28 21 29 22 30 23 31 24 32 25 34
REMARK SMILES IDX 26 35 27 36 79 37 28 38 78 39 29 40 30 41 31 42 72 43 32 44
REMARK SMILES IDX 77 45 71 46 73 47 33 48 76 49 70 50 69 51 34 53 60 54 43 55
REMARK SMILES IDX 59 56 44 57 47 58 58 59 74 60 45 61 46 62 57 64 75 65 48 66
REMARK SMILES IDX 35 67 36 68 41 69 37 70 38 71 40 72 42 73 39 74 61 75 62 76
REMARK SMILES IDX 67 77 63 78 64 79 66 80 68 81 65 82 49 83 50 84 55 85 51 86
REMARK SMILES IDX 52 87 54 88 56 89 53 90
REMARK H PARENT 18 5 23 33 73 52 47 63
REMARK Flexibility Score: inf
ROOT
ATOM      1  C   UNL A   1      37.706  21.524  25.594  1.00  0.00     0.116 C 
ENDROOT
BRANCH   1   2
ATOM      2  N   UNL A   1      37.356  22.105  24.296  1.00  0.00    -0.356 N 
ATOM      3  C   UNL A   1      36.252  22.647  23.712  1.00  0.00     0.224 C 
ATOM      4  O   UNL A   1      36.432  23.065  22.560  1.00  0.00    -0.275 OA
ATOM      5  H   UNL A   1      38.125  22.104  23.681  1.00  0.00     0.163 HD
BRANCH   3   6
ATOM      6  C   UNL A   1      34.844  22.727  24.329  1.00  0.00     0.093 C 
ATOM      7  N   UNL A   1      32.584  23.853  24.059  1.00  0.00    -0.197 NA
ATOM      8  C   UNL A   1      31.846  22.592  24.194  1.00  0.00     0.102 C 
ATOM      9  C   UNL A   1      34.021  23.855  23.778  1.00  0.00     0.116 C 
ATOM     10  C   UNL A   1      32.701  21.466  24.761  1.00  0.00     0.018 C 
ATOM     11  C   UNL A   1      34.096  21.397  24.153  1.00  0.00     0.016 C 
BRANCH   7  12
ATOM     12  S   UNL A   1      31.758  25.169  23.391  1.00  0.00     0.245 S 
ATOM     13  O   UNL A   1      30.356  24.794  23.343  1.00  0.00    -0.207 OA
ATOM     14  O   UNL A   1      32.460  25.591  22.199  1.00  0.00    -0.207 OA
BRANCH  12  15
ATOM     15  C   UNL A   1      31.709  26.620  24.371  1.00  0.00     0.118 A 
ATOM     16  C   UNL A   1      31.607  28.005  24.014  1.00  0.00     0.101 A 
ATOM     17  C   UNL A   1      31.541  28.718  25.216  1.00  0.00     0.030 A 
ATOM     18  C   UNL A   1      31.851  26.561  25.759  1.00  0.00     0.035 A 
ATOM     19  N   UNL A   1      31.700  27.833  26.257  1.00  0.00    -0.350 N 
ATOM     20  C   UNL A   1      31.298  30.178  25.437  1.00  0.00     0.065 C 
ATOM     21  C   UNL A   1      32.118  25.366  26.621  1.00  0.00     0.066 C 
ATOM     22  C   UNL A   1      31.687  28.170  27.668  1.00  0.00     0.149 C 
BRANCH  16  23
ATOM     23  C   UNL A   1      31.510  28.690  22.731  1.00  0.00     0.341 C 
ATOM     24  O   UNL A   1      32.469  29.111  22.108  1.00  0.00    -0.246 OA
BRANCH  23  25
ATOM     25  O   UNL A   1      30.224  28.691  22.258  1.00  0.00    -0.462 OA
BRANCH  25  26
ATOM     26  C   UNL A   1      29.745  29.936  21.721  1.00  0.00     0.230 C 
ATOM     27  C   UNL A   1      28.234  30.004  21.766  1.00  0.00     0.049 C 
ENDBRANCH  25  26
ENDBRANCH  23  25
ENDBRANCH  16  23
ENDBRANCH  12  15
ENDBRANCH   7  12
ENDBRANCH   3   6
ENDBRANCH   1   2
BRANCH   1  28
ATOM     28  C   UNL A   1      39.078  21.982  26.090  1.00  0.00     0.023 C 
BRANCH  28  29
ATOM     29  C   UNL A   1      40.054  20.837  26.390  1.00  0.00     0.023 C 
BRANCH  29  30
ATOM     30  C   UNL A   1      41.386  21.284  26.993  1.00  0.00     0.116 C 
BRANCH  30  31
ATOM     31  N   UNL A   1      42.357  21.708  25.988  1.00  0.00    -0.352 N 
ATOM     32  C   UNL A   1      42.647  22.995  25.586  1.00  0.00     0.251 C 
ATOM     33  H   UNL A   1      42.863  20.990  25.544  1.00  0.00     0.163 HD
ATOM     34  O   UNL A   1      43.186  23.220  24.509  1.00  0.00    -0.269 OA
BRANCH  32  35
ATOM     35  C   UNL A   1      42.287  24.109  26.478  1.00  0.00     0.039 A 
ATOM     36  C   UNL A   1      42.967  24.294  27.684  1.00  0.00     0.014 A 
ATOM     37  C   UNL A   1      41.288  24.993  26.071  1.00  0.00     0.014 A 
ATOM     38  C   UNL A   1      42.703  25.436  28.436  1.00  0.00     0.010 A 
ATOM     39  C   UNL A   1      41.092  26.165  26.770  1.00  0.00     0.010 A 
ATOM     40  C   UNL A   1      41.786  26.387  27.961  1.00  0.00    -0.014 A 
BRANCH  40  41
ATOM     41  C   UNL A   1      41.650  27.667  28.655  1.00  0.00     0.031 A 
ATOM     42  C   UNL A   1      42.715  28.677  28.375  1.00  0.00     0.074 A 
ATOM     43  C   UNL A   1      40.545  28.039  29.336  1.00  0.00     0.049 A 
ATOM     44  N   UNL A   1      43.561  29.192  29.206  1.00  0.00    -0.248 NA
ATOM     45  C   UNL A   1      42.905  29.117  26.985  1.00  0.00     0.031 C 
ATOM     46  C   UNL A   1      39.264  27.335  29.448  1.00  0.00     0.029 A 
ATOM     47  N   UNL A   1      40.309  29.207  29.995  1.00  0.00    -0.354 N 
ATOM     48  C   UNL A   1      44.287  30.145  28.490  1.00  0.00     0.074 A 
ATOM     49  C   UNL A   1      43.931  29.963  27.105  1.00  0.00     0.031 C 
ATOM     50  C   UNL A   1      38.330  28.181  29.936  1.00  0.00     0.029 A 
ATOM     51  C   UNL A   1      38.979  29.419  30.322  1.00  0.00     0.049 A 
ATOM     52  H   UNL A   1      41.024  29.846  30.219  1.00  0.00     0.167 HD
ATOM     53  C   UNL A   1      44.980  31.139  29.114  1.00  0.00     0.037 A 
ATOM     54  C   UNL A   1      38.442  30.544  30.852  1.00  0.00     0.037 A 
ATOM     55  C   UNL A   1      45.152  30.860  30.515  1.00  0.00     0.049 A 
ATOM     56  C   UNL A   1      39.544  31.321  31.468  1.00  0.00     0.074 A 
ATOM     57  C   UNL A   1      45.752  29.855  31.248  1.00  0.00     0.029 A 
ATOM     58  N   UNL A   1      44.351  31.534  31.403  1.00  0.00    -0.354 N 
ATOM     59  N   UNL A   1      40.188  30.950  32.537  1.00  0.00    -0.248 NA
ATOM     60  C   UNL A   1      40.208  32.327  30.655  1.00  0.00     0.031 C 
ATOM     61  C   UNL A   1      44.905  29.671  32.381  1.00  0.00     0.029 A 
ATOM     62  C   UNL A   1      43.875  30.609  32.293  1.00  0.00     0.049 A 
ATOM     63  H   UNL A   1      44.156  32.500  31.400  1.00  0.00     0.167 HD
ATOM     64  C   UNL A   1      41.500  31.333  32.306  1.00  0.00     0.074 A 
ATOM     65  C   UNL A   1      41.430  32.275  31.193  1.00  0.00     0.031 C 
ATOM     66  C   UNL A   1      42.543  30.639  32.850  1.00  0.00     0.037 A 
BRANCH  53  67
ATOM     67  C   UNL A   1      45.209  32.524  28.558  1.00  0.00     0.057 A 
ATOM     68  C   UNL A   1      46.526  33.007  28.425  1.00  0.00     0.134 A 
ATOM     69  C   UNL A   1      44.201  33.500  28.443  1.00  0.00     0.134 A 
ATOM     70  F   UNL A   1      47.577  32.180  28.527  1.00  0.00    -0.206 F 
ATOM     71  C   UNL A   1      46.817  34.368  28.271  1.00  0.00     0.040 A 
ATOM     72  C   UNL A   1      44.479  34.856  28.237  1.00  0.00     0.040 A 
ATOM     73  F   UNL A   1      42.906  33.215  28.627  1.00  0.00    -0.206 F 
ATOM     74  C   UNL A   1      45.790  35.299  28.186  1.00  0.00     0.006 A 
ENDBRANCH  53  67
BRANCH  54  75
ATOM     75  C   UNL A   1      37.086  31.101  30.668  1.00  0.00     0.057 A 
ATOM     76  C   UNL A   1      36.258  31.367  31.768  1.00  0.00     0.134 A 
ATOM     77  C   UNL A   1      36.674  31.642  29.437  1.00  0.00     0.134 A 
ATOM     78  F   UNL A   1      36.584  30.919  32.989  1.00  0.00    -0.206 F 
ATOM     79  C   UNL A   1      35.105  32.154  31.657  1.00  0.00     0.040 A 
ATOM     80  C   UNL A   1      35.522  32.424  29.312  1.00  0.00     0.040 A 
ATOM     81  F   UNL A   1      37.423  31.502  28.332  1.00  0.00    -0.206 F 
ATOM     82  C   UNL A   1      34.742  32.697  30.429  1.00  0.00     0.006 A 
ENDBRANCH  54  75
BRANCH  66  83
ATOM     83  C   UNL A   1      42.241  29.641  33.931  1.00  0.00     0.057 A 
ATOM     84  C   UNL A   1      41.905  28.300  33.695  1.00  0.00     0.134 A 
ATOM     85  C   UNL A   1      42.445  30.016  35.264  1.00  0.00     0.134 A 
ATOM     86  F   UNL A   1      41.787  27.820  32.451  1.00  0.00    -0.206 F 
ATOM     87  C   UNL A   1      41.734  27.388  34.742  1.00  0.00     0.040 A 
ATOM     88  C   UNL A   1      42.313  29.108  36.315  1.00  0.00     0.040 A 
ATOM     89  F   UNL A   1      42.826  31.269  35.562  1.00  0.00    -0.206 F 
ATOM     90  C   UNL A   1      41.945  27.790  36.056  1.00  0.00     0.006 A 
ENDBRANCH  66  83
ENDBRANCH  40  41
ENDBRANCH  32  35
ENDBRANCH  30  31
ENDBRANCH  29  30
ENDBRANCH  28  29
ENDBRANCH   1  28
TORSDOF 16
ENDMDL
MODEL 3
REMARK VINA RESULT:     -11.2      2.599      8.136
REMARK SMILES CCOC(=O)c1c(S(=O)(=O)N2CCC[C@@H](C(=O)NCCCCNC(=O)c3ccc(-c4c5nc(c(-c6c(F)cccc6F)c6ccc([nH]6)c(-c6c(F)cccc6F)c6nc(c(-c7c(F)cccc7F)c7ccc4[nH]7)C=C6)C=C5)cc3)C2)c(C)n(C)c1C
REMARK SMILES IDX 19 1 18 2 16 3 17 4 15 6 11 7 12 8 80 9 13 10 14 11 8 12
REMARK SMILES IDX 9 13 10 14 7 15 6 16 85 17 81 18 83 19 86 20 82 21 84 22
REMARK SMILES IDX 4 23 5 24 3 25 2 26 1 27 20 28 21 29 22 30 23 31 24 32 25 34
REMARK SMILES IDX 26 35 27 36 79 37 28 38 78 39 29 40 30 41 31 42 72 43 32 44
REMARK SMILES IDX 77 45 71 46 73 47 33 48 76 49 70 50 69 51 34 53 60 54 43 55
REMARK SMILES IDX 59 56 44 57 47 58 58 59 74 60 45 61 46 62 57 64 75 65 48 66
REMARK SMILES IDX 35 67 36 68 41 69 37 70 38 71 40 72 42 73 39 74 61 75 62 76
REMARK SMILES IDX 67 77 63 78 64 79 66 80 68 81 65 82 49 83 50 84 55 85 51 86
REMARK SMILES IDX 52 87 54 88 56 89 53 90
REMARK H PARENT 18 5 23 33 73 52 47 63
REMARK Flexibility Score: inf
ROOT
ATOM      1  C   UNL A   1      32.503  29.380  24.246  1.00  0.00     0.116 C 
ENDROOT
BRANCH   1   2
ATOM      2  N   UNL A   1      31.556  29.642  23.160  1.00  0.00    -0.356 N 
ATOM      3  C   UNL A   1      30.672  28.923  22.413  1.00  0.00     0.224 C 
ATOM      4  O   UNL A   1      30.023  29.593  21.598  1.00  0.00    -0.275 OA
ATOM      5  H   UNL A   1      31.558  30.591  22.900  1.00  0.00     0.163 HD
BRANCH   3   6
ATOM      6  C   UNL A   1      30.465  27.399  22.467  1.00  0.00     0.093 C 
ATOM      7  N   UNL A   1      31.722  25.197  22.615  1.00  0.00    -0.197 NA
ATOM      8  C   UNL A   1      30.862  24.681  23.685  1.00  0.00     0.102 C 
ATOM      9  C   UNL A   1      31.738  26.624  22.286  1.00  0.00     0.116 C 
ATOM     10  C   UNL A   1      29.575  25.480  23.844  1.00  0.00     0.018 C 
ATOM     11  C   UNL A   1      29.784  26.988  23.781  1.00  0.00     0.016 C 
BRANCH   7  12
ATOM     12  S   UNL A   1      33.209  24.426  22.372  1.00  0.00     0.245 S 
ATOM     13  O   UNL A   1      34.234  25.394  22.719  1.00  0.00    -0.207 OA
ATOM     14  O   UNL A   1      33.188  23.794  21.072  1.00  0.00    -0.207 OA
BRANCH  12  15
ATOM     15  C   UNL A   1      33.574  23.107  23.463  1.00  0.00     0.118 A 
ATOM     16  C   UNL A   1      34.500  23.003  24.552  1.00  0.00     0.101 A 
ATOM     17  C   UNL A   1      34.312  21.734  25.112  1.00  0.00     0.030 A 
ATOM     18  C   UNL A   1      32.974  21.854  23.312  1.00  0.00     0.035 A 
ATOM     19  N   UNL A   1      33.396  21.052  24.344  1.00  0.00    -0.350 N 
ATOM     20  C   UNL A   1      34.917  21.146  26.347  1.00  0.00     0.065 C 
ATOM     21  C   UNL A   1      32.029  21.394  22.246  1.00  0.00     0.066 C 
ATOM     22  C   UNL A   1      32.919  19.704  24.589  1.00  0.00     0.149 C 
BRANCH  16  23
ATOM     23  C   UNL A   1      35.453  23.942  25.133  1.00  0.00     0.341 C 
ATOM     24  O   UNL A   1      35.156  24.799  25.946  1.00  0.00    -0.246 OA
BRANCH  23  25
ATOM     25  O   UNL A   1      36.736  23.659  24.746  1.00  0.00    -0.462 OA
BRANCH  25  26
ATOM     26  C   UNL A   1      37.620  23.180  25.774  1.00  0.00     0.230 C 
ATOM     27  C   UNL A   1      38.542  24.277  26.256  1.00  0.00     0.049 C 
ENDBRANCH  25  26
ENDBRANCH  23  25
ENDBRANCH  16  23
ENDBRANCH  12  15
ENDBRANCH   7  12
ENDBRANCH   3   6
ENDBRANCH   1   2
BRANCH   1  28
ATOM     28  C   UNL A   1      31.973  29.832  25.607  1.00  0.00     0.023 C 
BRANCH  28  29
ATOM     29  C   UNL A   1      32.418  28.951  26.781  1.00  0.00     0.023 C 
BRANCH  29  30
ATOM     30  C   UNL A   1      33.544  29.547  27.627  1.00  0.00     0.116 C 
BRANCH  30  31
ATOM     31  N   UNL A   1      33.910  30.901  27.222  1.00  0.00    -0.352 N 
ATOM     32  C   UNL A   1      35.008  31.633  27.624  1.00  0.00     0.251 C 
ATOM     33  H   UNL A   1      33.302  31.344  26.588  1.00  0.00     0.163 HD
ATOM     34  O   UNL A   1      35.030  32.854  27.526  1.00  0.00    -0.269 OA
BRANCH  32  35
ATOM     35  C   UNL A   1      36.165  30.917  28.186  1.00  0.00     0.039 A 
ATOM     36  C   UNL A   1      36.322  29.547  27.965  1.00  0.00     0.014 A 
ATOM     37  C   UNL A   1      37.115  31.645  28.903  1.00  0.00     0.014 A 
ATOM     38  C   UNL A   1      37.496  28.929  28.385  1.00  0.00     0.010 A 
ATOM     39  C   UNL A   1      38.313  31.051  29.241  1.00  0.00     0.010 A 
ATOM     40  C   UNL A   1      38.505  29.690  28.997  1.00  0.00    -0.014 A 
BRANCH  40  41
ATOM     41  C   UNL A   1      39.806  29.079  29.268  1.00  0.00     0.031 A 
ATOM     42  C   UNL A   1      40.171  28.935  30.709  1.00  0.00     0.074 A 
ATOM     43  C   UNL A   1      40.560  28.472  28.328  1.00  0.00     0.049 A 
ATOM     44  N   UNL A   1      41.159  29.482  31.339  1.00  0.00    -0.248 NA
ATOM     45  C   UNL A   1      39.287  28.136  31.573  1.00  0.00     0.031 C 
ATOM     46  C   UNL A   1      40.230  28.209  26.924  1.00  0.00     0.029 A 
ATOM     47  N   UNL A   1      41.767  27.858  28.477  1.00  0.00    -0.354 N 
ATOM     48  C   UNL A   1      41.130  28.974  32.638  1.00  0.00     0.074 A 
ATOM     49  C   UNL A   1      39.886  28.256  32.760  1.00  0.00     0.031 C 
ATOM     50  C   UNL A   1      41.101  27.307  26.421  1.00  0.00     0.029 A 
ATOM     51  C   UNL A   1      42.137  27.060  27.405  1.00  0.00     0.049 A 
ATOM     52  H   UNL A   1      42.327  27.971  29.278  1.00  0.00     0.167 HD
ATOM     53  C   UNL A   1      42.221  29.021  33.453  1.00  0.00     0.037 A 
ATOM     54  C   UNL A   1      43.209  26.234  27.339  1.00  0.00     0.037 A 
ATOM     55  C   UNL A   1      43.212  29.938  32.954  1.00  0.00     0.049 A 
ATOM     56  C   UNL A   1      44.175  26.667  28.376  1.00  0.00     0.074 A 
ATOM     57  C   UNL A   1      43.244  31.290  32.678  1.00  0.00     0.029 A 
ATOM     58  N   UNL A   1      44.314  29.409  32.330  1.00  0.00    -0.354 N 
ATOM     59  N   UNL A   1      44.847  27.782  28.327  1.00  0.00    -0.248 NA
ATOM     60  C   UNL A   1      44.096  26.044  29.687  1.00  0.00     0.031 C 
ATOM     61  C   UNL A   1      44.054  31.407  31.510  1.00  0.00     0.029 A 
ATOM     62  C   UNL A   1      44.505  30.128  31.180  1.00  0.00     0.049 A 
ATOM     63  H   UNL A   1      44.862  28.654  32.648  1.00  0.00     0.167 HD
ATOM     64  C   UNL A   1      44.897  28.220  29.640  1.00  0.00     0.074 A 
ATOM     65  C   UNL A   1      44.524  27.059  30.442  1.00  0.00     0.031 C 
ATOM     66  C   UNL A   1      44.959  29.552  29.937  1.00  0.00     0.037 A 
BRANCH  53  67
ATOM     67  C   UNL A   1      42.563  27.999  34.511  1.00  0.00     0.057 A 
ATOM     68  C   UNL A   1      42.951  26.702  34.121  1.00  0.00     0.134 A 
ATOM     69  C   UNL A   1      42.234  28.140  35.873  1.00  0.00     0.134 A 
ATOM     70  F   UNL A   1      43.277  26.433  32.848  1.00  0.00    -0.206 F 
ATOM     71  C   UNL A   1      42.932  25.613  35.002  1.00  0.00     0.040 A 
ATOM     72  C   UNL A   1      42.262  27.069  36.774  1.00  0.00     0.040 A 
ATOM     73  F   UNL A   1      41.769  29.287  36.381  1.00  0.00    -0.206 F 
ATOM     74  C   UNL A   1      42.578  25.794  36.332  1.00  0.00     0.006 A 
ENDBRANCH  53  67
BRANCH  54  75
ATOM     75  C   UNL A   1      43.358  24.965  26.599  1.00  0.00     0.057 A 
ATOM     76  C   UNL A   1      42.564  23.850  26.906  1.00  0.00     0.134 A 
ATOM     77  C   UNL A   1      44.084  24.896  25.396  1.00  0.00     0.134 A 
ATOM     78  F   UNL A   1      41.813  23.836  28.016  1.00  0.00    -0.206 F 
ATOM     79  C   UNL A   1      42.471  22.746  26.051  1.00  0.00     0.040 A 
ATOM     80  C   UNL A   1      44.004  23.796  24.536  1.00  0.00     0.040 A 
ATOM     81  F   UNL A   1      44.827  25.930  24.973  1.00  0.00    -0.206 F 
ATOM     82  C   UNL A   1      43.181  22.722  24.855  1.00  0.00     0.006 A 
ENDBRANCH  54  75
BRANCH  66  83
ATOM     83  C   UNL A   1      45.267  30.511  28.822  1.00  0.00     0.057 A 
ATOM     84  C   UNL A   1      46.564  30.837  28.398  1.00  0.00     0.134 A 
ATOM     85  C   UNL A   1      44.208  31.006  28.053  1.00  0.00     0.134 A 
ATOM     86  F   UNL A   1      47.644  30.332  29.006  1.00  0.00    -0.206 F 
ATOM     87  C   UNL A   1      46.791  31.657  27.287  1.00  0.00     0.040 A 
ATOM     88  C   UNL A   1      44.422  31.795  26.922  1.00  0.00     0.040 A 
ATOM     89  F   UNL A   1      42.941  30.687  28.365  1.00  0.00    -0.206 F 
ATOM     90  C   UNL A   1      45.718  32.133  26.542  1.00  0.00     0.006 A 
ENDBRANCH  66  83
ENDBRANCH  40  41
ENDBRANCH  32  35
ENDBRANCH  30  31
ENDBRANCH  29  30
ENDBRANCH  28  29
ENDBRANCH   1  28
TORSDOF 16
ENDMDL
