MODEL 1
REMARK VINA RESULT:     -12.6      0.000      0.000
REMARK SMILES CC[NH+]1CCC2(CC1)OC[C@H](C(=O)NCCCCNC(=O)c1ccc(-c3c4nc(c(-c5c(F)cccc5F)c5ccc([nH]5)c(-c5c(F)cccc5F)c5nc(c(-c6c(F)cccc6F)c6ccc3[nH]6)C=C5)C=C4)cc1)N2C(=O)c1ccccc1
REMARK SMILES IDX 16 1 15 2 14 3 12 4 13 5 11 7 3 8 4 9 8 10 5 12 7 13 6 14
REMARK SMILES IDX 9 15 76 16 10 17 2 18 1 19 77 20 78 21 79 22 80 23 84 24
REMARK SMILES IDX 81 25 83 26 82 27 17 28 18 29 19 30 20 31 21 33 22 34 23 35
REMARK SMILES IDX 75 36 24 37 74 38 25 39 26 40 27 41 68 42 28 43 73 44 67 45
REMARK SMILES IDX 69 46 29 47 72 48 66 49 65 50 30 52 56 53 39 54 55 55 40 56
REMARK SMILES IDX 43 57 54 58 70 59 41 60 42 61 53 63 71 64 44 65 31 66 32 67
REMARK SMILES IDX 37 68 33 69 34 70 36 71 38 72 35 73 57 74 58 75 63 76 59 77
REMARK SMILES IDX 60 78 62 79 64 80 61 81 45 82 46 83 51 84 47 85 48 86 50 87
REMARK SMILES IDX 52 88 49 89
REMARK H PARENT 14 6 3 11 19 32 69 51 43 62
REMARK Flexibility Score: inf
ROOT
ATOM      1  C   UNL A   1      31.588  30.708  26.093  1.00  0.00     0.023 C 
ENDROOT
BRANCH   1   2
ATOM      2  C   UNL A   1      32.250  29.795  27.114  1.00  0.00     0.116 C 
BRANCH   2   3
ATOM      3  N   UNL A   1      31.576  28.543  27.359  1.00  0.00    -0.354 N 
ATOM      4  C   UNL A   1      31.576  27.417  26.572  1.00  0.00     0.245 C 
ATOM      5  O   UNL A   1      30.998  26.427  27.035  1.00  0.00    -0.273 OA
ATOM      6  H   UNL A   1      31.052  28.490  28.191  1.00  0.00     0.163 HD
BRANCH   4   7
ATOM      7  C   UNL A   1      32.181  27.441  25.136  1.00  0.00     0.203 C 
ATOM      8  N   UNL A   1      33.194  22.367  24.099  1.00  0.00    -0.335 N 
ATOM      9  C   UNL A   1      32.356  22.903  25.168  1.00  0.00     0.267 C 
ATOM     10  C   UNL A   1      33.615  23.342  23.099  1.00  0.00     0.267 C 
ATOM     11  H   UNL A   1      32.558  21.760  23.583  1.00  0.00     0.348 HD
ATOM     12  C   UNL A   1      32.867  24.193  25.777  1.00  0.00     0.120 C 
ATOM     13  C   UNL A   1      33.989  24.733  23.584  1.00  0.00     0.120 C 
ATOM     14  C   UNL A   1      33.144  25.279  24.737  1.00  0.00     0.155 C 
ATOM     15  O   UNL A   1      34.083  26.188  25.416  1.00  0.00    -0.352 OA
ATOM     16  N   UNL A   1      31.994  26.169  24.430  1.00  0.00    -0.295 N 
ATOM     17  C   UNL A   1      33.682  27.514  25.067  1.00  0.00     0.198 C 
BRANCH   8  18
ATOM     18  C   UNL A   1      34.253  21.472  24.551  1.00  0.00     0.258 C 
ATOM     19  C   UNL A   1      33.671  20.433  25.507  1.00  0.00     0.071 C 
ENDBRANCH   8  18
BRANCH  16  20
ATOM     20  C   UNL A   1      30.872  26.068  23.624  1.00  0.00     0.256 C 
ATOM     21  O   UNL A   1      30.344  24.990  23.351  1.00  0.00    -0.269 OA
BRANCH  20  22
ATOM     22  C   UNL A   1      30.125  27.262  23.211  1.00  0.00     0.040 A 
ATOM     23  C   UNL A   1      28.760  27.332  23.522  1.00  0.00     0.014 A 
ATOM     24  C   UNL A   1      30.719  28.250  22.426  1.00  0.00     0.014 A 
ATOM     25  C   UNL A   1      28.021  28.457  23.148  1.00  0.00     0.001 A 
ATOM     26  C   UNL A   1      29.986  29.389  22.084  1.00  0.00     0.001 A 
ATOM     27  C   UNL A   1      28.644  29.498  22.457  1.00  0.00     0.000 A 
ENDBRANCH  20  22
ENDBRANCH  16  20
ENDBRANCH   4   7
ENDBRANCH   2   3
ENDBRANCH   1   2
BRANCH   1  28
ATOM     28  C   UNL A   1      31.391  32.161  26.524  1.00  0.00     0.023 C 
BRANCH  28  29
ATOM     29  C   UNL A   1      32.562  32.826  27.246  1.00  0.00     0.116 C 
BRANCH  29  30
ATOM     30  N   UNL A   1      32.303  34.200  27.656  1.00  0.00    -0.352 N 
ATOM     31  C   UNL A   1      32.947  35.007  28.568  1.00  0.00     0.251 C 
ATOM     32  H   UNL A   1      31.538  34.625  27.206  1.00  0.00     0.163 HD
ATOM     33  O   UNL A   1      32.498  36.115  28.826  1.00  0.00    -0.269 OA
BRANCH  31  34
ATOM     34  C   UNL A   1      34.152  34.521  29.272  1.00  0.00     0.039 A 
ATOM     35  C   UNL A   1      34.005  33.934  30.533  1.00  0.00     0.014 A 
ATOM     36  C   UNL A   1      35.417  34.620  28.692  1.00  0.00     0.014 A 
ATOM     37  C   UNL A   1      35.111  33.354  31.160  1.00  0.00     0.010 A 
ATOM     38  C   UNL A   1      36.495  33.958  29.271  1.00  0.00     0.010 A 
ATOM     39  C   UNL A   1      36.353  33.311  30.507  1.00  0.00    -0.014 A 
BRANCH  39  40
ATOM     40  C   UNL A   1      37.510  32.585  31.093  1.00  0.00     0.031 A 
ATOM     41  C   UNL A   1      38.120  33.049  32.387  1.00  0.00     0.074 A 
ATOM     42  C   UNL A   1      38.062  31.555  30.420  1.00  0.00     0.049 A 
ATOM     43  N   UNL A   1      39.176  32.595  33.014  1.00  0.00    -0.248 NA
ATOM     44  C   UNL A   1      37.478  34.196  33.049  1.00  0.00     0.031 C 
ATOM     45  C   UNL A   1      37.606  31.046  29.124  1.00  0.00     0.029 A 
ATOM     46  N   UNL A   1      39.136  30.757  30.728  1.00  0.00    -0.354 N 
ATOM     47  C   UNL A   1      39.336  33.411  34.126  1.00  0.00     0.074 A 
ATOM     48  C   UNL A   1      38.305  34.423  34.059  1.00  0.00     0.031 C 
ATOM     49  C   UNL A   1      38.375  30.005  28.765  1.00  0.00     0.029 A 
ATOM     50  C   UNL A   1      39.400  29.796  29.782  1.00  0.00     0.049 A 
ATOM     51  H   UNL A   1      39.666  30.863  31.551  1.00  0.00     0.167 HD
ATOM     52  C   UNL A   1      40.239  33.311  35.129  1.00  0.00     0.037 A 
ATOM     53  C   UNL A   1      40.362  28.855  29.736  1.00  0.00     0.037 A 
ATOM     54  C   UNL A   1      41.243  32.283  35.213  1.00  0.00     0.049 A 
ATOM     55  C   UNL A   1      41.347  28.757  30.867  1.00  0.00     0.074 A 
ATOM     56  C   UNL A   1      42.162  32.056  36.223  1.00  0.00     0.029 A 
ATOM     57  N   UNL A   1      41.459  31.311  34.249  1.00  0.00    -0.354 N 
ATOM     58  N   UNL A   1      41.438  29.490  31.951  1.00  0.00    -0.248 NA
ATOM     59  C   UNL A   1      42.360  27.696  30.774  1.00  0.00     0.031 C 
ATOM     60  C   UNL A   1      42.962  30.971  35.849  1.00  0.00     0.029 A 
ATOM     61  C   UNL A   1      42.510  30.492  34.630  1.00  0.00     0.049 A 
ATOM     62  H   UNL A   1      40.944  31.216  33.416  1.00  0.00     0.167 HD
ATOM     63  C   UNL A   1      42.496  28.963  32.680  1.00  0.00     0.074 A 
ATOM     64  C   UNL A   1      43.006  27.839  31.922  1.00  0.00     0.031 C 
ATOM     65  C   UNL A   1      43.000  29.372  33.869  1.00  0.00     0.037 A 
BRANCH  52  66
ATOM     66  C   UNL A   1      40.174  34.337  36.223  1.00  0.00     0.057 A 
ATOM     67  C   UNL A   1      40.895  35.537  36.154  1.00  0.00     0.134 A 
ATOM     68  C   UNL A   1      39.361  34.137  37.346  1.00  0.00     0.134 A 
ATOM     69  F   UNL A   1      41.703  35.786  35.112  1.00  0.00    -0.206 F 
ATOM     70  C   UNL A   1      40.835  36.485  37.176  1.00  0.00     0.040 A 
ATOM     71  C   UNL A   1      39.270  35.092  38.360  1.00  0.00     0.040 A 
ATOM     72  F   UNL A   1      38.638  33.014  37.473  1.00  0.00    -0.206 F 
ATOM     73  C   UNL A   1      40.015  36.267  38.280  1.00  0.00     0.006 A 
ENDBRANCH  52  66
BRANCH  53  74
ATOM     74  C   UNL A   1      40.424  27.908  28.594  1.00  0.00     0.057 A 
ATOM     75  C   UNL A   1      41.155  28.218  27.441  1.00  0.00     0.134 A 
ATOM     76  C   UNL A   1      39.751  26.681  28.620  1.00  0.00     0.134 A 
ATOM     77  F   UNL A   1      41.806  29.387  27.349  1.00  0.00    -0.206 F 
ATOM     78  C   UNL A   1      41.197  27.352  26.346  1.00  0.00     0.040 A 
ATOM     79  C   UNL A   1      39.805  25.795  27.543  1.00  0.00     0.040 A 
ATOM     80  F   UNL A   1      39.041  26.321  29.700  1.00  0.00    -0.206 F 
ATOM     81  C   UNL A   1      40.524  26.134  26.398  1.00  0.00     0.006 A 
ENDBRANCH  53  74
BRANCH  65  82
ATOM     82  C   UNL A   1      44.136  28.578  34.444  1.00  0.00     0.057 A 
ATOM     83  C   UNL A   1      45.473  28.901  34.178  1.00  0.00     0.134 A 
ATOM     84  C   UNL A   1      43.889  27.500  35.303  1.00  0.00     0.134 A 
ATOM     85  F   UNL A   1      45.777  29.914  33.354  1.00  0.00    -0.206 F 
ATOM     86  C   UNL A   1      46.524  28.166  34.730  1.00  0.00     0.040 A 
ATOM     87  C   UNL A   1      44.930  26.774  35.882  1.00  0.00     0.040 A 
ATOM     88  F   UNL A   1      42.631  27.144  35.605  1.00  0.00    -0.206 F 
ATOM     89  C   UNL A   1      46.253  27.103  35.590  1.00  0.00     0.006 A 
ENDBRANCH  65  82
ENDBRANCH  39  40
ENDBRANCH  31  34
ENDBRANCH  29  30
ENDBRANCH  28  29
ENDBRANCH   1  28
TORSDOF 14
ENDMDL
MODEL 2
REMARK VINA RESULT:     -12.5      4.935     10.112
REMARK SMILES CC[NH+]1CCC2(CC1)OC[C@H](C(=O)NCCCCNC(=O)c1ccc(-c3c4nc(c(-c5c(F)cccc5F)c5ccc([nH]5)c(-c5c(F)cccc5F)c5nc(c(-c6c(F)cccc6F)c6ccc3[nH]6)C=C5)C=C4)cc1)N2C(=O)c1ccccc1
REMARK SMILES IDX 16 1 15 2 14 3 12 4 13 5 11 7 3 8 4 9 8 10 5 12 7 13 6 14
REMARK SMILES IDX 9 15 76 16 10 17 2 18 1 19 77 20 78 21 79 22 80 23 84 24
REMARK SMILES IDX 81 25 83 26 82 27 17 28 18 29 19 30 20 31 21 33 22 34 23 35
REMARK SMILES IDX 75 36 24 37 74 38 25 39 26 40 27 41 68 42 28 43 73 44 67 45
REMARK SMILES IDX 69 46 29 47 72 48 66 49 65 50 30 52 56 53 39 54 55 55 40 56
REMARK SMILES IDX 43 57 54 58 70 59 41 60 42 61 53 63 71 64 44 65 31 66 32 67
REMARK SMILES IDX 37 68 33 69 34 70 36 71 38 72 35 73 57 74 58 75 63 76 59 77
REMARK SMILES IDX 60 78 62 79 64 80 61 81 45 82 46 83 51 84 47 85 48 86 50 87
REMARK SMILES IDX 52 88 49 89
REMARK H PARENT 14 6 3 11 19 32 69 51 43 62
REMARK Flexibility Score: inf
ROOT
ATOM      1  C   UNL A   1      36.707  20.682  24.988  1.00  0.00     0.023 C 
ENDROOT
BRANCH   1   2
ATOM      2  C   UNL A   1      37.028  22.071  24.454  1.00  0.00     0.116 C 
BRANCH   2   3
ATOM      3  N   UNL A   1      36.111  22.584  23.464  1.00  0.00    -0.354 N 
ATOM      4  C   UNL A   1      35.065  23.454  23.654  1.00  0.00     0.245 C 
ATOM      5  O   UNL A   1      34.472  23.826  22.636  1.00  0.00    -0.273 OA
ATOM      6  H   UNL A   1      36.252  22.272  22.541  1.00  0.00     0.163 HD
BRANCH   4   7
ATOM      7  C   UNL A   1      34.601  23.849  25.089  1.00  0.00     0.203 C 
ATOM      8  N   UNL A   1      29.644  25.524  24.402  1.00  0.00    -0.335 N 
ATOM      9  C   UNL A   1      30.460  24.760  23.462  1.00  0.00     0.267 C 
ATOM     10  C   UNL A   1      30.201  25.643  25.745  1.00  0.00     0.267 C 
ATOM     11  H   UNL A   1      28.825  24.931  24.538  1.00  0.00     0.348 HD
ATOM     12  C   UNL A   1      31.928  25.132  23.462  1.00  0.00     0.120 C 
ATOM     13  C   UNL A   1      31.702  25.848  25.870  1.00  0.00     0.120 C 
ATOM     14  C   UNL A   1      32.558  25.088  24.855  1.00  0.00     0.155 C 
ATOM     15  O   UNL A   1      33.747  25.950  24.734  1.00  0.00    -0.352 OA
ATOM     16  N   UNL A   1      33.144  23.778  25.243  1.00  0.00    -0.295 N 
ATOM     17  C   UNL A   1      34.792  25.296  25.456  1.00  0.00     0.198 C 
BRANCH   8  18
ATOM     18  C   UNL A   1      29.099  26.765  23.862  1.00  0.00     0.258 C 
ATOM     19  C   UNL A   1      27.573  26.703  23.876  1.00  0.00     0.071 C 
ENDBRANCH   8  18
BRANCH  16  20
ATOM     20  C   UNL A   1      32.631  22.590  25.737  1.00  0.00     0.256 C 
ATOM     21  O   UNL A   1      32.033  22.518  26.810  1.00  0.00    -0.269 OA
BRANCH  20  22
ATOM     22  C   UNL A   1      32.595  21.378  24.910  1.00  0.00     0.040 A 
ATOM     23  C   UNL A   1      33.075  20.182  25.462  1.00  0.00     0.014 A 
ATOM     24  C   UNL A   1      32.209  21.429  23.570  1.00  0.00     0.014 A 
ATOM     25  C   UNL A   1      33.050  19.010  24.704  1.00  0.00     0.001 A 
ATOM     26  C   UNL A   1      32.153  20.247  22.826  1.00  0.00     0.001 A 
ATOM     27  C   UNL A   1      32.559  19.039  23.397  1.00  0.00     0.000 A 
ENDBRANCH  20  22
ENDBRANCH  16  20
ENDBRANCH   4   7
ENDBRANCH   2   3
ENDBRANCH   1   2
BRANCH   1  28
ATOM     28  C   UNL A   1      37.866  19.687  25.001  1.00  0.00     0.023 C 
BRANCH  28  29
ATOM     29  C   UNL A   1      39.126  20.112  25.753  1.00  0.00     0.116 C 
BRANCH  29  30
ATOM     30  N   UNL A   1      40.160  19.087  25.805  1.00  0.00    -0.352 N 
ATOM     31  C   UNL A   1      41.511  19.179  26.061  1.00  0.00     0.251 C 
ATOM     32  H   UNL A   1      39.841  18.173  25.627  1.00  0.00     0.163 HD
ATOM     33  O   UNL A   1      42.219  18.186  25.963  1.00  0.00    -0.269 OA
BRANCH  31  34
ATOM     34  C   UNL A   1      42.117  20.482  26.408  1.00  0.00     0.039 A 
ATOM     35  C   UNL A   1      42.551  21.318  25.375  1.00  0.00     0.014 A 
ATOM     36  C   UNL A   1      42.239  20.891  27.736  1.00  0.00     0.014 A 
ATOM     37  C   UNL A   1      43.008  22.604  25.672  1.00  0.00     0.010 A 
ATOM     38  C   UNL A   1      42.601  22.203  28.022  1.00  0.00     0.010 A 
ATOM     39  C   UNL A   1      42.982  23.077  26.994  1.00  0.00    -0.014 A 
BRANCH  39  40
ATOM     40  C   UNL A   1      43.337  24.483  27.320  1.00  0.00     0.031 A 
ATOM     41  C   UNL A   1      44.771  24.935  27.269  1.00  0.00     0.074 A 
ATOM     42  C   UNL A   1      42.379  25.334  27.737  1.00  0.00     0.049 A 
ATOM     43  N   UNL A   1      45.285  26.095  27.592  1.00  0.00    -0.248 NA
ATOM     44  C   UNL A   1      45.764  23.942  26.829  1.00  0.00     0.031 C 
ATOM     45  C   UNL A   1      40.959  25.005  27.892  1.00  0.00     0.029 A 
ATOM     46  N   UNL A   1      42.454  26.651  28.121  1.00  0.00    -0.354 N 
ATOM     47  C   UNL A   1      46.656  25.963  27.415  1.00  0.00     0.074 A 
ATOM     48  C   UNL A   1      46.901  24.596  27.013  1.00  0.00     0.031 C 
ATOM     49  C   UNL A   1      40.296  26.096  28.307  1.00  0.00     0.029 A 
ATOM     50  C   UNL A   1      41.245  27.190  28.485  1.00  0.00     0.049 A 
ATOM     51  H   UNL A   1      43.297  27.160  28.132  1.00  0.00     0.167 HD
ATOM     52  C   UNL A   1      47.622  26.903  27.546  1.00  0.00     0.037 A 
ATOM     53  C   UNL A   1      40.934  28.426  28.919  1.00  0.00     0.037 A 
ATOM     54  C   UNL A   1      47.375  28.272  27.912  1.00  0.00     0.049 A 
ATOM     55  C   UNL A   1      42.023  29.455  29.046  1.00  0.00     0.074 A 
ATOM     56  C   UNL A   1      48.278  29.316  28.006  1.00  0.00     0.029 A 
ATOM     57  N   UNL A   1      46.132  28.786  28.246  1.00  0.00    -0.354 N 
ATOM     58  N   UNL A   1      43.306  29.336  28.802  1.00  0.00    -0.248 NA
ATOM     59  C   UNL A   1      41.621  30.793  29.502  1.00  0.00     0.031 C 
ATOM     60  C   UNL A   1      47.587  30.454  28.437  1.00  0.00     0.029 A 
ATOM     61  C   UNL A   1      46.246  30.130  28.564  1.00  0.00     0.049 A 
ATOM     62  H   UNL A   1      45.291  28.274  28.255  1.00  0.00     0.167 HD
ATOM     63  C   UNL A   1      43.858  30.587  29.045  1.00  0.00     0.074 A 
ATOM     64  C   UNL A   1      42.768  31.454  29.443  1.00  0.00     0.031 C 
ATOM     65  C   UNL A   1      45.150  30.982  28.949  1.00  0.00     0.037 A 
BRANCH  52  66
ATOM     66  C   UNL A   1      49.038  26.479  27.278  1.00  0.00     0.057 A 
ATOM     67  C   UNL A   1      49.581  26.495  25.986  1.00  0.00     0.134 A 
ATOM     68  C   UNL A   1      49.876  26.077  28.326  1.00  0.00     0.134 A 
ATOM     69  F   UNL A   1      48.829  26.858  24.936  1.00  0.00    -0.206 F 
ATOM     70  C   UNL A   1      50.897  26.096  25.742  1.00  0.00     0.040 A 
ATOM     71  C   UNL A   1      51.202  25.704  28.097  1.00  0.00     0.040 A 
ATOM     72  F   UNL A   1      49.422  26.045  29.588  1.00  0.00    -0.206 F 
ATOM     73  C   UNL A   1      51.713  25.705  26.801  1.00  0.00     0.006 A 
ENDBRANCH  52  66
BRANCH  53  74
ATOM     74  C   UNL A   1      39.525  28.774  29.237  1.00  0.00     0.057 A 
ATOM     75  C   UNL A   1      38.670  29.281  28.252  1.00  0.00     0.134 A 
ATOM     76  C   UNL A   1      39.004  28.620  30.526  1.00  0.00     0.134 A 
ATOM     77  F   UNL A   1      39.116  29.468  27.001  1.00  0.00    -0.206 F 
ATOM     78  C   UNL A   1      37.352  29.642  28.542  1.00  0.00     0.040 A 
ATOM     79  C   UNL A   1      37.682  28.954  30.826  1.00  0.00     0.040 A 
ATOM     80  F   UNL A   1      39.770  28.131  31.513  1.00  0.00    -0.206 F 
ATOM     81  C   UNL A   1      36.854  29.474  29.832  1.00  0.00     0.006 A 
ENDBRANCH  53  74
BRANCH  65  82
ATOM     82  C   UNL A   1      45.452  32.423  29.241  1.00  0.00     0.057 A 
ATOM     83  C   UNL A   1      45.374  33.410  28.250  1.00  0.00     0.134 A 
ATOM     84  C   UNL A   1      45.789  32.831  30.538  1.00  0.00     0.134 A 
ATOM     85  F   UNL A   1      45.069  33.083  26.986  1.00  0.00    -0.206 F 
ATOM     86  C   UNL A   1      45.642  34.750  28.535  1.00  0.00     0.040 A 
ATOM     87  C   UNL A   1      46.033  34.171  30.840  1.00  0.00     0.040 A 
ATOM     88  F   UNL A   1      45.873  31.936  31.534  1.00  0.00    -0.206 F 
ATOM     89  C   UNL A   1      45.966  35.134  29.835  1.00  0.00     0.006 A 
ENDBRANCH  65  82
ENDBRANCH  39  40
ENDBRANCH  31  34
ENDBRANCH  29  30
ENDBRANCH  28  29
ENDBRANCH   1  28
TORSDOF 14
ENDMDL
MODEL 3
REMARK VINA RESULT:     -12.5      2.491      7.896
REMARK SMILES CC[NH+]1CCC2(CC1)OC[C@H](C(=O)NCCCCNC(=O)c1ccc(-c3c4nc(c(-c5c(F)cccc5F)c5ccc([nH]5)c(-c5c(F)cccc5F)c5nc(c(-c6c(F)cccc6F)c6ccc3[nH]6)C=C5)C=C4)cc1)N2C(=O)c1ccccc1
REMARK SMILES IDX 16 1 15 2 14 3 12 4 13 5 11 7 3 8 4 9 8 10 5 12 7 13 6 14
REMARK SMILES IDX 9 15 76 16 10 17 2 18 1 19 77 20 78 21 79 22 80 23 84 24
REMARK SMILES IDX 81 25 83 26 82 27 17 28 18 29 19 30 20 31 21 33 22 34 23 35
REMARK SMILES IDX 75 36 24 37 74 38 25 39 26 40 27 41 68 42 28 43 73 44 67 45
REMARK SMILES IDX 69 46 29 47 72 48 66 49 65 50 30 52 56 53 39 54 55 55 40 56
REMARK SMILES IDX 43 57 54 58 70 59 41 60 42 61 53 63 71 64 44 65 31 66 32 67
REMARK SMILES IDX 37 68 33 69 34 70 36 71 38 72 35 73 57 74 58 75 63 76 59 77
REMARK SMILES IDX 60 78 62 79 64 80 61 81 45 82 46 83 51 84 47 85 48 86 50 87
REMARK SMILES IDX 52 88 49 89
REMARK H PARENT 14 6 3 11 19 32 69 51 43 62
REMARK Flexibility Score: inf
ROOT
ATOM      1  C   UNL A   1      34.746  23.714  25.812  1.00  0.00     0.023 C 
ENDROOT
BRANCH   1   2
ATOM      2  C   UNL A   1      34.093  23.302  24.501  1.00  0.00     0.116 C 
BRANCH   2   3
ATOM      3  N   UNL A   1      32.659  23.446  24.448  1.00  0.00    -0.354 N 
ATOM      4  C   UNL A   1      31.933  24.596  24.249  1.00  0.00     0.245 C 
ATOM      5  O   UNL A   1      30.709  24.458  24.150  1.00  0.00    -0.273 OA
ATOM      6  H   UNL A   1      32.136  22.620  24.570  1.00  0.00     0.163 HD
BRANCH   4   7
ATOM      7  C   UNL A   1      32.624  25.992  24.260  1.00  0.00     0.203 C 
ATOM      8  N   UNL A   1      28.712  29.352  23.139  1.00  0.00    -0.335 N 
ATOM      9  C   UNL A   1      28.590  27.956  23.551  1.00  0.00     0.267 C 
ATOM     10  C   UNL A   1      30.051  29.916  23.261  1.00  0.00     0.267 C 
ATOM     11  H   UNL A   1      28.179  29.853  23.850  1.00  0.00     0.348 HD
ATOM     12  C   UNL A   1      29.668  27.045  22.999  1.00  0.00     0.120 C 
ATOM     13  C   UNL A   1      31.227  29.025  22.895  1.00  0.00     0.120 C 
ATOM     14  C   UNL A   1      31.083  27.551  23.281  1.00  0.00     0.155 C 
ATOM     15  O   UNL A   1      31.910  26.876  22.266  1.00  0.00    -0.352 OA
ATOM     16  N   UNL A   1      31.682  27.078  24.556  1.00  0.00    -0.295 N 
ATOM     17  C   UNL A   1      33.115  26.484  22.926  1.00  0.00     0.198 C 
BRANCH   8  18
ATOM     18  C   UNL A   1      28.032  29.676  21.890  1.00  0.00     0.258 C 
ATOM     19  C   UNL A   1      28.238  31.154  21.564  1.00  0.00     0.071 C 
ENDBRANCH   8  18
BRANCH  16  20
ATOM     20  C   UNL A   1      31.576  27.460  25.883  1.00  0.00     0.256 C 
ATOM     21  O   UNL A   1      30.911  26.830  26.706  1.00  0.00    -0.269 OA
BRANCH  20  22
ATOM     22  C   UNL A   1      32.416  28.530  26.433  1.00  0.00     0.040 A 
ATOM     23  C   UNL A   1      33.715  28.206  26.853  1.00  0.00     0.014 A 
ATOM     24  C   UNL A   1      31.907  29.810  26.650  1.00  0.00     0.014 A 
ATOM     25  C   UNL A   1      34.542  29.201  27.376  1.00  0.00     0.001 A 
ATOM     26  C   UNL A   1      32.749  30.811  27.141  1.00  0.00     0.001 A 
ATOM     27  C   UNL A   1      34.068  30.509  27.490  1.00  0.00     0.000 A 
ENDBRANCH  20  22
ENDBRANCH  16  20
ENDBRANCH   4   7
ENDBRANCH   2   3
ENDBRANCH   1   2
BRANCH   1  28
ATOM     28  C   UNL A   1      36.088  23.053  26.128  1.00  0.00     0.023 C 
BRANCH  28  29
ATOM     29  C   UNL A   1      37.265  23.430  25.229  1.00  0.00     0.116 C 
BRANCH  29  30
ATOM     30  N   UNL A   1      38.484  22.682  25.506  1.00  0.00    -0.352 N 
ATOM     31  C   UNL A   1      39.621  23.033  26.200  1.00  0.00     0.251 C 
ATOM     32  H   UNL A   1      38.499  21.770  25.134  1.00  0.00     0.163 HD
ATOM     33  O   UNL A   1      40.576  22.269  26.233  1.00  0.00    -0.269 OA
BRANCH  31  34
ATOM     34  C   UNL A   1      39.711  24.348  26.867  1.00  0.00     0.039 A 
ATOM     35  C   UNL A   1      39.163  24.494  28.145  1.00  0.00     0.014 A 
ATOM     36  C   UNL A   1      40.346  25.428  26.253  1.00  0.00     0.014 A 
ATOM     37  C   UNL A   1      39.348  25.688  28.846  1.00  0.00     0.010 A 
ATOM     38  C   UNL A   1      40.613  26.579  26.987  1.00  0.00     0.010 A 
ATOM     39  C   UNL A   1      40.124  26.720  28.294  1.00  0.00    -0.014 A 
BRANCH  39  40
ATOM     40  C   UNL A   1      40.446  27.945  29.071  1.00  0.00     0.031 A 
ATOM     41  C   UNL A   1      41.764  28.064  29.788  1.00  0.00     0.074 A 
ATOM     42  C   UNL A   1      39.522  28.918  29.197  1.00  0.00     0.049 A 
ATOM     43  N   UNL A   1      42.194  29.017  30.577  1.00  0.00    -0.248 NA
ATOM     44  C   UNL A   1      42.710  26.950  29.624  1.00  0.00     0.031 C 
ATOM     45  C   UNL A   1      38.181  28.898  28.605  1.00  0.00     0.029 A 
ATOM     46  N   UNL A   1      39.564  30.111  29.875  1.00  0.00    -0.354 N 
ATOM     47  C   UNL A   1      43.445  28.608  31.016  1.00  0.00     0.074 A 
ATOM     48  C   UNL A   1      43.682  27.295  30.456  1.00  0.00     0.031 C 
ATOM     49  C   UNL A   1      37.543  30.036  28.921  1.00  0.00     0.029 A 
ATOM     50  C   UNL A   1      38.410  30.849  29.767  1.00  0.00     0.049 A 
ATOM     51  H   UNL A   1      40.349  30.410  30.390  1.00  0.00     0.167 HD
ATOM     52  C   UNL A   1      44.331  29.274  31.793  1.00  0.00     0.037 A 
ATOM     53  C   UNL A   1      38.084  32.045  30.294  1.00  0.00     0.037 A 
ATOM     54  C   UNL A   1      44.110  30.594  32.322  1.00  0.00     0.049 A 
ATOM     55  C   UNL A   1      39.090  32.771  31.144  1.00  0.00     0.074 A 
ATOM     56  C   UNL A   1      44.973  31.382  33.064  1.00  0.00     0.029 A 
ATOM     57  N   UNL A   1      42.939  31.320  32.166  1.00  0.00    -0.354 N 
ATOM     58  N   UNL A   1      40.300  32.403  31.489  1.00  0.00    -0.248 NA
ATOM     59  C   UNL A   1      38.687  34.082  31.672  1.00  0.00     0.031 C 
ATOM     60  C   UNL A   1      44.309  32.568  33.391  1.00  0.00     0.029 A 
ATOM     61  C   UNL A   1      43.050  32.540  32.813  1.00  0.00     0.049 A 
ATOM     62  H   UNL A   1      42.146  31.015  31.669  1.00  0.00     0.167 HD
ATOM     63  C   UNL A   1      40.813  33.447  32.249  1.00  0.00     0.074 A 
ATOM     64  C   UNL A   1      39.788  34.469  32.302  1.00  0.00     0.031 C 
ATOM     65  C   UNL A   1      42.024  33.550  32.849  1.00  0.00     0.037 A 
BRANCH  52  66
ATOM     66  C   UNL A   1      45.629  28.588  32.106  1.00  0.00     0.057 A 
ATOM     67  C   UNL A   1      45.777  27.768  33.234  1.00  0.00     0.134 A 
ATOM     68  C   UNL A   1      46.736  28.725  31.259  1.00  0.00     0.134 A 
ATOM     69  F   UNL A   1      44.760  27.604  34.093  1.00  0.00    -0.206 F 
ATOM     70  C   UNL A   1      46.987  27.136  33.524  1.00  0.00     0.040 A 
ATOM     71  C   UNL A   1      47.942  28.073  31.524  1.00  0.00     0.040 A 
ATOM     72  F   UNL A   1      46.662  29.489  30.159  1.00  0.00    -0.206 F 
ATOM     73  C   UNL A   1      48.072  27.282  32.663  1.00  0.00     0.006 A 
ENDBRANCH  52  66
BRANCH  53  74
ATOM     74  C   UNL A   1      36.758  32.649  30.009  1.00  0.00     0.057 A 
ATOM     75  C   UNL A   1      35.650  32.367  30.817  1.00  0.00     0.134 A 
ATOM     76  C   UNL A   1      36.561  33.509  28.923  1.00  0.00     0.134 A 
ATOM     77  F   UNL A   1      35.771  31.535  31.862  1.00  0.00    -0.206 F 
ATOM     78  C   UNL A   1      34.389  32.901  30.543  1.00  0.00     0.040 A 
ATOM     79  C   UNL A   1      35.312  34.071  28.651  1.00  0.00     0.040 A 
ATOM     80  F   UNL A   1      37.585  33.826  28.115  1.00  0.00    -0.206 F 
ATOM     81  C   UNL A   1      34.220  33.760  29.459  1.00  0.00     0.006 A 
ENDBRANCH  53  74
BRANCH  65  82
ATOM     82  C   UNL A   1      42.321  34.826  33.581  1.00  0.00     0.057 A 
ATOM     83  C   UNL A   1      41.980  35.002  34.928  1.00  0.00     0.134 A 
ATOM     84  C   UNL A   1      42.991  35.875  32.939  1.00  0.00     0.134 A 
ATOM     85  F   UNL A   1      41.326  34.040  35.596  1.00  0.00    -0.206 F 
ATOM     86  C   UNL A   1      42.275  36.187  35.605  1.00  0.00     0.040 A 
ATOM     87  C   UNL A   1      43.315  37.054  33.613  1.00  0.00     0.040 A 
ATOM     88  F   UNL A   1      43.354  35.767  31.652  1.00  0.00    -0.206 F 
ATOM     89  C   UNL A   1      42.951  37.214  34.948  1.00  0.00     0.006 A 
ENDBRANCH  65  82
ENDBRANCH  39  40
ENDBRANCH  31  34
ENDBRANCH  29  30
ENDBRANCH  28  29
ENDBRANCH   1  28
TORSDOF 14
ENDMDL
