MODEL 1
REMARK VINA RESULT:     -12.0      0.000      0.000
REMARK SMILES CCOc1ccc(NC(=O)Nc2cccc(C(=O)NCCCCNC(=O)c3ccc(-c4c5nc(c(-c6c(F)cccc6F)c6ccc([nH]6)c(-c6c(F)cccc6F)c6nc(c(-c7c(F)cccc7F)c7ccc4[nH]7)C=C6)C=C5)cc3)c2)cc1
REMARK SMILES IDX 20 1 19 2 17 3 18 4 16 6 12 7 13 8 81 9 14 10 15 11 11 12
REMARK SMILES IDX 8 13 9 14 10 16 7 18 4 19 5 20 83 21 6 22 82 23 3 24 2 25
REMARK SMILES IDX 1 26 21 27 22 28 23 29 24 30 25 31 26 33 27 34 28 35 80 36
REMARK SMILES IDX 29 37 79 38 30 39 31 40 32 41 73 42 33 43 78 44 72 45 74 46
REMARK SMILES IDX 34 47 77 48 71 49 70 50 35 52 61 53 44 54 60 55 45 56 48 57
REMARK SMILES IDX 59 58 75 59 46 60 47 61 58 63 76 64 49 65 36 66 37 67 42 68
REMARK SMILES IDX 38 69 39 70 41 71 43 72 40 73 62 74 63 75 68 76 64 77 65 78
REMARK SMILES IDX 67 79 69 80 66 81 50 82 51 83 56 84 52 85 53 86 55 87 57 88
REMARK SMILES IDX 54 89
REMARK H PARENT 19 5 8 15 11 17 24 32 74 51 48 62
REMARK Flexibility Score: inf
ROOT
ATOM      1  C   UNL A   1      31.257  27.515  26.127  1.00  0.00     0.116 C 
ENDROOT
BRANCH   1   2
ATOM      2  N   UNL A   1      31.049  26.236  26.765  1.00  0.00    -0.352 N 
ATOM      3  C   UNL A   1      31.540  24.980  26.519  1.00  0.00     0.251 C 
ATOM      4  O   UNL A   1      31.148  24.083  27.268  1.00  0.00    -0.269 OA
ATOM      5  H   UNL A   1      30.429  26.274  27.529  1.00  0.00     0.163 HD
BRANCH   3   6
ATOM      6  C   UNL A   1      32.551  24.656  25.464  1.00  0.00     0.041 A 
ATOM      7  C   UNL A   1      34.814  24.358  24.645  1.00  0.00     0.043 A 
ATOM      8  C   UNL A   1      34.343  23.736  23.490  1.00  0.00     0.026 A 
ATOM      9  C   UNL A   1      33.915  24.934  25.545  1.00  0.00     0.040 A 
ATOM     10  C   UNL A   1      32.975  23.522  23.344  1.00  0.00     0.003 A 
ATOM     11  C   UNL A   1      32.091  23.944  24.343  1.00  0.00     0.014 A 
BRANCH   7  12
ATOM     12  N   UNL A   1      36.187  24.283  24.925  1.00  0.00    -0.308 N 
ATOM     13  N   UNL A   1      36.406  22.468  26.477  1.00  0.00    -0.308 N 
ATOM     14  C   UNL A   1      36.853  23.615  25.901  1.00  0.00     0.323 C 
ATOM     15  H   UNL A   1      36.846  22.280  27.338  1.00  0.00     0.171 HD
ATOM     16  O   UNL A   1      37.940  24.060  26.281  1.00  0.00    -0.248 OA
ATOM     17  H   UNL A   1      36.761  24.799  24.313  1.00  0.00     0.171 HD
BRANCH  13  18
ATOM     18  C   UNL A   1      35.455  21.486  26.127  1.00  0.00     0.043 A 
ATOM     19  C   UNL A   1      33.292  19.951  25.208  1.00  0.00     0.119 A 
ATOM     20  C   UNL A   1      34.560  19.768  24.669  1.00  0.00     0.048 A 
ATOM     21  C   UNL A   1      33.137  20.772  26.320  1.00  0.00     0.048 A 
ATOM     22  C   UNL A   1      35.644  20.513  25.151  1.00  0.00     0.030 A 
ATOM     23  C   UNL A   1      34.220  21.524  26.788  1.00  0.00     0.030 A 
BRANCH  19  24
ATOM     24  O   UNL A   1      32.268  19.234  24.660  1.00  0.00    -0.494 OA
BRANCH  24  25
ATOM     25  C   UNL A   1      32.676  18.053  23.954  1.00  0.00     0.226 C 
ATOM     26  C   UNL A   1      32.253  18.135  22.497  1.00  0.00     0.049 C 
ENDBRANCH  24  25
ENDBRANCH  19  24
ENDBRANCH  13  18
ENDBRANCH   7  12
ENDBRANCH   3   6
ENDBRANCH   1   2
BRANCH   1  27
ATOM     27  C   UNL A   1      32.146  28.413  26.979  1.00  0.00     0.023 C 
BRANCH  27  28
ATOM     28  C   UNL A   1      33.468  28.744  26.291  1.00  0.00     0.023 C 
BRANCH  28  29
ATOM     29  C   UNL A   1      34.665  28.805  27.234  1.00  0.00     0.116 C 
BRANCH  29  30
ATOM     30  N   UNL A   1      34.627  29.950  28.129  1.00  0.00    -0.352 N 
ATOM     31  C   UNL A   1      35.626  30.451  28.927  1.00  0.00     0.251 C 
ATOM     32  H   UNL A   1      33.769  30.433  28.168  1.00  0.00     0.163 HD
ATOM     33  O   UNL A   1      35.389  31.342  29.729  1.00  0.00    -0.269 OA
BRANCH  31  34
ATOM     34  C   UNL A   1      36.983  29.876  28.830  1.00  0.00     0.039 A 
ATOM     35  C   UNL A   1      37.649  29.942  27.605  1.00  0.00     0.014 A 
ATOM     36  C   UNL A   1      37.603  29.297  29.942  1.00  0.00     0.014 A 
ATOM     37  C   UNL A   1      38.955  29.468  27.510  1.00  0.00     0.010 A 
ATOM     38  C   UNL A   1      38.936  28.909  29.867  1.00  0.00     0.010 A 
ATOM     39  C   UNL A   1      39.621  28.976  28.646  1.00  0.00    -0.014 A 
BRANCH  39  40
ATOM     40  C   UNL A   1      41.032  28.527  28.551  1.00  0.00     0.031 A 
ATOM     41  C   UNL A   1      41.358  27.099  28.210  1.00  0.00     0.074 A 
ATOM     42  C   UNL A   1      42.022  29.410  28.786  1.00  0.00     0.049 A 
ATOM     43  N   UNL A   1      42.529  26.544  28.023  1.00  0.00    -0.248 NA
ATOM     44  C   UNL A   1      40.227  26.166  28.086  1.00  0.00     0.031 C 
ATOM     45  C   UNL A   1      41.831  30.805  29.193  1.00  0.00     0.029 A 
ATOM     46  N   UNL A   1      43.384  29.273  28.704  1.00  0.00    -0.354 N 
ATOM     47  C   UNL A   1      42.274  25.204  27.760  1.00  0.00     0.074 A 
ATOM     48  C   UNL A   1      40.846  25.013  27.883  1.00  0.00     0.031 C 
ATOM     49  C   UNL A   1      43.029  31.405  29.278  1.00  0.00     0.029 A 
ATOM     50  C   UNL A   1      44.071  30.433  28.964  1.00  0.00     0.049 A 
ATOM     51  H   UNL A   1      43.827  28.422  28.479  1.00  0.00     0.167 HD
ATOM     52  C   UNL A   1      43.147  24.228  27.415  1.00  0.00     0.037 A 
ATOM     53  C   UNL A   1      45.392  30.688  28.942  1.00  0.00     0.037 A 
ATOM     54  C   UNL A   1      44.566  24.427  27.284  1.00  0.00     0.049 A 
ATOM     55  C   UNL A   1      46.341  29.589  28.549  1.00  0.00     0.074 A 
ATOM     56  C   UNL A   1      45.531  23.516  26.893  1.00  0.00     0.029 A 
ATOM     57  N   UNL A   1      45.225  25.618  27.548  1.00  0.00    -0.354 N 
ATOM     58  N   UNL A   1      46.078  28.347  28.219  1.00  0.00    -0.248 NA
ATOM     59  C   UNL A   1      47.769  29.932  28.510  1.00  0.00     0.031 C 
ATOM     60  C   UNL A   1      46.780  24.142  26.971  1.00  0.00     0.029 A 
ATOM     61  C   UNL A   1      46.586  25.461  27.348  1.00  0.00     0.049 A 
ATOM     62  H   UNL A   1      44.788  26.454  27.835  1.00  0.00     0.167 HD
ATOM     63  C   UNL A   1      47.301  27.771  27.901  1.00  0.00     0.074 A 
ATOM     64  C   UNL A   1      48.303  28.804  28.063  1.00  0.00     0.031 C 
ATOM     65  C   UNL A   1      47.571  26.502  27.507  1.00  0.00     0.037 A 
BRANCH  52  66
ATOM     66  C   UNL A   1      42.586  22.858  27.151  1.00  0.00     0.057 A 
ATOM     67  C   UNL A   1      42.445  22.354  25.851  1.00  0.00     0.134 A 
ATOM     68  C   UNL A   1      42.215  22.020  28.210  1.00  0.00     0.134 A 
ATOM     69  F   UNL A   1      42.769  23.109  24.790  1.00  0.00    -0.206 F 
ATOM     70  C   UNL A   1      41.927  21.081  25.612  1.00  0.00     0.040 A 
ATOM     71  C   UNL A   1      41.726  20.732  27.985  1.00  0.00     0.040 A 
ATOM     72  F   UNL A   1      42.328  22.434  29.480  1.00  0.00    -0.206 F 
ATOM     73  C   UNL A   1      41.573  20.261  26.682  1.00  0.00     0.006 A 
ENDBRANCH  52  66
BRANCH  53  74
ATOM     74  C   UNL A   1      45.892  32.050  29.262  1.00  0.00     0.057 A 
ATOM     75  C   UNL A   1      46.047  33.020  28.265  1.00  0.00     0.134 A 
ATOM     76  C   UNL A   1      46.233  32.412  30.571  1.00  0.00     0.134 A 
ATOM     77  F   UNL A   1      45.752  32.732  26.989  1.00  0.00    -0.206 F 
ATOM     78  C   UNL A   1      46.545  34.293  28.554  1.00  0.00     0.040 A 
ATOM     79  C   UNL A   1      46.704  33.689  30.878  1.00  0.00     0.040 A 
ATOM     80  F   UNL A   1      46.096  31.532  31.574  1.00  0.00    -0.206 F 
ATOM     81  C   UNL A   1      46.870  34.631  29.865  1.00  0.00     0.006 A 
ENDBRANCH  53  74
BRANCH  65  82
ATOM     82  C   UNL A   1      48.999  26.174  27.179  1.00  0.00     0.057 A 
ATOM     83  C   UNL A   1      49.523  26.326  25.889  1.00  0.00     0.134 A 
ATOM     84  C   UNL A   1      49.871  25.723  28.179  1.00  0.00     0.134 A 
ATOM     85  F   UNL A   1      48.739  26.744  24.882  1.00  0.00    -0.206 F 
ATOM     86  C   UNL A   1      50.850  26.010  25.598  1.00  0.00     0.040 A 
ATOM     87  C   UNL A   1      51.209  25.435  27.908  1.00  0.00     0.040 A 
ATOM     88  F   UNL A   1      49.439  25.567  29.440  1.00  0.00    -0.206 F 
ATOM     89  C   UNL A   1      51.699  25.569  26.612  1.00  0.00     0.006 A 
ENDBRANCH  65  82
ENDBRANCH  39  40
ENDBRANCH  31  34
ENDBRANCH  29  30
ENDBRANCH  28  29
ENDBRANCH  27  28
ENDBRANCH   1  27
TORSDOF 15
ENDMDL
MODEL 2
REMARK VINA RESULT:     -11.7      3.324      6.719
REMARK SMILES CCOc1ccc(NC(=O)Nc2cccc(C(=O)NCCCCNC(=O)c3ccc(-c4c5nc(c(-c6c(F)cccc6F)c6ccc([nH]6)c(-c6c(F)cccc6F)c6nc(c(-c7c(F)cccc7F)c7ccc4[nH]7)C=C6)C=C5)cc3)c2)cc1
REMARK SMILES IDX 20 1 19 2 17 3 18 4 16 6 12 7 13 8 81 9 14 10 15 11 11 12
REMARK SMILES IDX 8 13 9 14 10 16 7 18 4 19 5 20 83 21 6 22 82 23 3 24 2 25
REMARK SMILES IDX 1 26 21 27 22 28 23 29 24 30 25 31 26 33 27 34 28 35 80 36
REMARK SMILES IDX 29 37 79 38 30 39 31 40 32 41 73 42 33 43 78 44 72 45 74 46
REMARK SMILES IDX 34 47 77 48 71 49 70 50 35 52 61 53 44 54 60 55 45 56 48 57
REMARK SMILES IDX 59 58 75 59 46 60 47 61 58 63 76 64 49 65 36 66 37 67 42 68
REMARK SMILES IDX 38 69 39 70 41 71 43 72 40 73 62 74 63 75 68 76 64 77 65 78
REMARK SMILES IDX 67 79 69 80 66 81 50 82 51 83 56 84 52 85 53 86 55 87 57 88
REMARK SMILES IDX 54 89
REMARK H PARENT 19 5 8 15 11 17 24 32 74 51 48 62
REMARK Flexibility Score: inf
ROOT
ATOM      1  C   UNL A   1      31.207  27.326  26.286  1.00  0.00     0.116 C 
ENDROOT
BRANCH   1   2
ATOM      2  N   UNL A   1      31.035  26.011  26.859  1.00  0.00    -0.352 N 
ATOM      3  C   UNL A   1      31.551  24.781  26.541  1.00  0.00     0.251 C 
ATOM      4  O   UNL A   1      31.190  23.838  27.248  1.00  0.00    -0.269 OA
ATOM      5  H   UNL A   1      30.426  25.995  27.633  1.00  0.00     0.163 HD
BRANCH   3   6
ATOM      6  C   UNL A   1      32.553  24.535  25.458  1.00  0.00     0.041 A 
ATOM      7  C   UNL A   1      34.809  24.312  24.598  1.00  0.00     0.043 A 
ATOM      8  C   UNL A   1      34.331  23.761  23.410  1.00  0.00     0.026 A 
ATOM      9  C   UNL A   1      33.915  24.820  25.542  1.00  0.00     0.040 A 
ATOM     10  C   UNL A   1      32.964  23.542  23.265  1.00  0.00     0.003 A 
ATOM     11  C   UNL A   1      32.088  23.891  24.298  1.00  0.00     0.014 A 
BRANCH   7  12
ATOM     12  N   UNL A   1      36.186  24.233  24.858  1.00  0.00    -0.308 N 
ATOM     13  N   UNL A   1      36.418  22.444  26.437  1.00  0.00    -0.308 N 
ATOM     14  C   UNL A   1      36.863  23.578  25.835  1.00  0.00     0.323 C 
ATOM     15  H   UNL A   1      36.870  22.267  27.294  1.00  0.00     0.171 HD
ATOM     16  O   UNL A   1      37.958  24.023  26.190  1.00  0.00    -0.248 OA
ATOM     17  H   UNL A   1      36.754  24.736  24.229  1.00  0.00     0.171 HD
BRANCH  13  18
ATOM     18  C   UNL A   1      35.456  21.462  26.118  1.00  0.00     0.043 A 
ATOM     19  C   UNL A   1      33.263  19.927  25.272  1.00  0.00     0.119 A 
ATOM     20  C   UNL A   1      34.511  19.746  24.689  1.00  0.00     0.048 A 
ATOM     21  C   UNL A   1      33.146  20.746  26.390  1.00  0.00     0.048 A 
ATOM     22  C   UNL A   1      35.611  20.491  25.134  1.00  0.00     0.030 A 
ATOM     23  C   UNL A   1      34.245  21.498  26.822  1.00  0.00     0.030 A 
BRANCH  19  24
ATOM     24  O   UNL A   1      32.221  19.211  24.758  1.00  0.00    -0.494 OA
BRANCH  24  25
ATOM     25  C   UNL A   1      32.351  18.880  23.367  1.00  0.00     0.226 C 
ATOM     26  C   UNL A   1      32.119  20.112  22.507  1.00  0.00     0.049 C 
ENDBRANCH  24  25
ENDBRANCH  19  24
ENDBRANCH  13  18
ENDBRANCH   7  12
ENDBRANCH   3   6
ENDBRANCH   1   2
BRANCH   1  27
ATOM     27  C   UNL A   1      32.027  28.222  27.206  1.00  0.00     0.023 C 
BRANCH  27  28
ATOM     28  C   UNL A   1      33.524  28.127  26.924  1.00  0.00     0.023 C 
BRANCH  28  29
ATOM     29  C   UNL A   1      34.097  29.332  26.184  1.00  0.00     0.116 C 
BRANCH  29  30
ATOM     30  N   UNL A   1      33.858  30.590  26.873  1.00  0.00    -0.352 N 
ATOM     31  C   UNL A   1      34.571  31.157  27.900  1.00  0.00     0.251 C 
ATOM     32  H   UNL A   1      33.078  31.106  26.560  1.00  0.00     0.163 HD
ATOM     33  O   UNL A   1      34.155  32.158  28.464  1.00  0.00    -0.269 OA
BRANCH  31  34
ATOM     34  C   UNL A   1      35.831  30.523  28.339  1.00  0.00     0.039 A 
ATOM     35  C   UNL A   1      37.015  30.875  27.689  1.00  0.00     0.014 A 
ATOM     36  C   UNL A   1      35.848  29.608  29.396  1.00  0.00     0.014 A 
ATOM     37  C   UNL A   1      38.223  30.341  28.132  1.00  0.00     0.010 A 
ATOM     38  C   UNL A   1      37.062  29.149  29.894  1.00  0.00     0.010 A 
ATOM     39  C   UNL A   1      38.262  29.498  29.257  1.00  0.00    -0.014 A 
BRANCH  39  40
ATOM     40  C   UNL A   1      39.557  28.980  29.761  1.00  0.00     0.031 A 
ATOM     41  C   UNL A   1      40.186  29.563  30.996  1.00  0.00     0.074 A 
ATOM     42  C   UNL A   1      40.174  27.985  29.093  1.00  0.00     0.049 A 
ATOM     43  N   UNL A   1      41.280  29.197  31.616  1.00  0.00    -0.248 NA
ATOM     44  C   UNL A   1      39.516  30.725  31.602  1.00  0.00     0.031 C 
ATOM     45  C   UNL A   1      39.698  27.384  27.844  1.00  0.00     0.029 A 
ATOM     46  N   UNL A   1      41.325  27.295  29.375  1.00  0.00    -0.354 N 
ATOM     47  C   UNL A   1      41.424  30.078  32.679  1.00  0.00     0.074 A 
ATOM     48  C   UNL A   1      40.351  31.041  32.580  1.00  0.00     0.031 C 
ATOM     49  C   UNL A   1      40.525  26.385  27.495  1.00  0.00     0.029 A 
ATOM     50  C   UNL A   1      41.603  26.296  28.474  1.00  0.00     0.049 A 
ATOM     51  H   UNL A   1      41.898  27.497  30.151  1.00  0.00     0.167 HD
ATOM     52  C   UNL A   1      42.349  30.068  33.668  1.00  0.00     0.037 A 
ATOM     53  C   UNL A   1      42.607  25.401  28.447  1.00  0.00     0.037 A 
ATOM     54  C   UNL A   1      43.410  29.099  33.767  1.00  0.00     0.049 A 
ATOM     55  C   UNL A   1      43.619  25.405  29.560  1.00  0.00     0.074 A 
ATOM     56  C   UNL A   1      44.370  28.971  34.756  1.00  0.00     0.029 A 
ATOM     57  N   UNL A   1      43.654  28.097  32.840  1.00  0.00    -0.354 N 
ATOM     58  N   UNL A   1      43.694  26.191  30.607  1.00  0.00    -0.248 NA
ATOM     59  C   UNL A   1      44.675  24.386  29.496  1.00  0.00     0.031 C 
ATOM     60  C   UNL A   1      45.226  27.924  34.400  1.00  0.00     0.029 A 
ATOM     61  C   UNL A   1      44.762  27.359  33.223  1.00  0.00     0.049 A 
ATOM     62  H   UNL A   1      43.118  27.934  32.030  1.00  0.00     0.167 HD
ATOM     63  C   UNL A   1      44.783  25.741  31.342  1.00  0.00     0.074 A 
ATOM     64  C   UNL A   1      45.327  24.604  30.629  1.00  0.00     0.031 C 
ATOM     65  C   UNL A   1      45.287  26.224  32.505  1.00  0.00     0.037 A 
BRANCH  52  66
ATOM     66  C   UNL A   1      42.249  31.134  34.723  1.00  0.00     0.057 A 
ATOM     67  C   UNL A   1      41.485  30.957  35.884  1.00  0.00     0.134 A 
ATOM     68  C   UNL A   1      42.952  32.338  34.593  1.00  0.00     0.134 A 
ATOM     69  F   UNL A   1      40.776  29.833  36.067  1.00  0.00    -0.206 F 
ATOM     70  C   UNL A   1      41.399  31.949  36.862  1.00  0.00     0.040 A 
ATOM     71  C   UNL A   1      42.899  33.325  35.579  1.00  0.00     0.040 A 
ATOM     72  F   UNL A   1      43.708  32.574  33.510  1.00  0.00    -0.206 F 
ATOM     73  C   UNL A   1      42.115  33.135  36.714  1.00  0.00     0.006 A 
ENDBRANCH  52  66
BRANCH  53  74
ATOM     74  C   UNL A   1      42.683  24.402  27.350  1.00  0.00     0.057 A 
ATOM     75  C   UNL A   1      43.307  24.704  26.133  1.00  0.00     0.134 A 
ATOM     76  C   UNL A   1      42.128  23.124  27.489  1.00  0.00     0.134 A 
ATOM     77  F   UNL A   1      43.845  25.915  25.933  1.00  0.00    -0.206 F 
ATOM     78  C   UNL A   1      43.354  23.780  25.087  1.00  0.00     0.040 A 
ATOM     79  C   UNL A   1      42.194  22.181  26.462  1.00  0.00     0.040 A 
ATOM     80  F   UNL A   1      41.526  22.768  28.634  1.00  0.00    -0.206 F 
ATOM     81  C   UNL A   1      42.802  22.513  25.252  1.00  0.00     0.006 A 
ENDBRANCH  53  74
BRANCH  65  82
ATOM     82  C   UNL A   1      46.456  25.495  33.102  1.00  0.00     0.057 A 
ATOM     83  C   UNL A   1      46.293  24.433  34.001  1.00  0.00     0.134 A 
ATOM     84  C   UNL A   1      47.766  25.846  32.749  1.00  0.00     0.134 A 
ATOM     85  F   UNL A   1      45.065  24.053  34.390  1.00  0.00    -0.206 F 
ATOM     86  C   UNL A   1      47.389  23.770  34.554  1.00  0.00     0.040 A 
ATOM     87  C   UNL A   1      48.869  25.168  33.270  1.00  0.00     0.040 A 
ATOM     88  F   UNL A   1      47.994  26.844  31.883  1.00  0.00    -0.206 F 
ATOM     89  C   UNL A   1      48.683  24.133  34.182  1.00  0.00     0.006 A 
ENDBRANCH  65  82
ENDBRANCH  39  40
ENDBRANCH  31  34
ENDBRANCH  29  30
ENDBRANCH  28  29
ENDBRANCH  27  28
ENDBRANCH   1  27
TORSDOF 15
ENDMDL
MODEL 3
REMARK VINA RESULT:     -11.5      4.737      8.606
REMARK SMILES CCOc1ccc(NC(=O)Nc2cccc(C(=O)NCCCCNC(=O)c3ccc(-c4c5nc(c(-c6c(F)cccc6F)c6ccc([nH]6)c(-c6c(F)cccc6F)c6nc(c(-c7c(F)cccc7F)c7ccc4[nH]7)C=C6)C=C5)cc3)c2)cc1
REMARK SMILES IDX 20 1 19 2 17 3 18 4 16 6 12 7 13 8 81 9 14 10 15 11 11 12
REMARK SMILES IDX 8 13 9 14 10 16 7 18 4 19 5 20 83 21 6 22 82 23 3 24 2 25
REMARK SMILES IDX 1 26 21 27 22 28 23 29 24 30 25 31 26 33 27 34 28 35 80 36
REMARK SMILES IDX 29 37 79 38 30 39 31 40 32 41 73 42 33 43 78 44 72 45 74 46
REMARK SMILES IDX 34 47 77 48 71 49 70 50 35 52 61 53 44 54 60 55 45 56 48 57
REMARK SMILES IDX 59 58 75 59 46 60 47 61 58 63 76 64 49 65 36 66 37 67 42 68
REMARK SMILES IDX 38 69 39 70 41 71 43 72 40 73 62 74 63 75 68 76 64 77 65 78
REMARK SMILES IDX 67 79 69 80 66 81 50 82 51 83 56 84 52 85 53 86 55 87 57 88
REMARK SMILES IDX 54 89
REMARK H PARENT 19 5 8 15 11 17 24 32 74 51 48 62
REMARK Flexibility Score: inf
ROOT
ATOM      1  C   UNL A   1      32.711  29.975  26.539  1.00  0.00     0.116 C 
ENDROOT
BRANCH   1   2
ATOM      2  N   UNL A   1      33.558  29.511  25.466  1.00  0.00    -0.352 N 
ATOM      3  C   UNL A   1      33.458  28.465  24.585  1.00  0.00     0.251 C 
ATOM      4  O   UNL A   1      34.378  28.343  23.774  1.00  0.00    -0.269 OA
ATOM      5  H   UNL A   1      34.370  30.054  25.341  1.00  0.00     0.163 HD
BRANCH   3   6
ATOM      6  C   UNL A   1      32.294  27.528  24.509  1.00  0.00     0.041 A 
ATOM      7  C   UNL A   1      30.803  25.840  25.409  1.00  0.00     0.043 A 
ATOM      8  C   UNL A   1      29.908  26.030  24.357  1.00  0.00     0.026 A 
ATOM      9  C   UNL A   1      32.042  26.483  25.397  1.00  0.00     0.040 A 
ATOM     10  C   UNL A   1      30.177  27.011  23.406  1.00  0.00     0.003 A 
ATOM     11  C   UNL A   1      31.342  27.780  23.505  1.00  0.00     0.014 A 
BRANCH   7  12
ATOM     12  N   UNL A   1      30.375  25.088  26.514  1.00  0.00    -0.308 N 
ATOM     13  N   UNL A   1      31.314  22.907  26.181  1.00  0.00    -0.308 N 
ATOM     14  C   UNL A   1      30.400  23.749  26.732  1.00  0.00     0.323 C 
ATOM     15  H   UNL A   1      31.026  21.966  26.207  1.00  0.00     0.171 HD
ATOM     16  O   UNL A   1      29.557  23.262  27.490  1.00  0.00    -0.248 OA
ATOM     17  H   UNL A   1      29.994  25.619  27.251  1.00  0.00     0.171 HD
BRANCH  13  18
ATOM     18  C   UNL A   1      32.580  23.071  25.579  1.00  0.00     0.043 A 
ATOM     19  C   UNL A   1      35.226  22.941  24.651  1.00  0.00     0.119 A 
ATOM     20  C   UNL A   1      34.165  22.783  23.767  1.00  0.00     0.048 A 
ATOM     21  C   UNL A   1      34.968  23.334  25.960  1.00  0.00     0.048 A 
ATOM     22  C   UNL A   1      32.845  22.880  24.227  1.00  0.00     0.030 A 
ATOM     23  C   UNL A   1      33.648  23.416  26.417  1.00  0.00     0.030 A 
BRANCH  19  24
ATOM     24  O   UNL A   1      36.486  22.782  24.152  1.00  0.00    -0.494 OA
BRANCH  24  25
ATOM     25  C   UNL A   1      37.159  21.594  24.593  1.00  0.00     0.226 C 
ATOM     26  C   UNL A   1      38.282  21.948  25.554  1.00  0.00     0.049 C 
ENDBRANCH  24  25
ENDBRANCH  19  24
ENDBRANCH  13  18
ENDBRANCH   7  12
ENDBRANCH   3   6
ENDBRANCH   1   2
BRANCH   1  27
ATOM     27  C   UNL A   1      31.562  30.821  26.004  1.00  0.00     0.023 C 
BRANCH  27  28
ATOM     28  C   UNL A   1      31.310  32.063  26.854  1.00  0.00     0.023 C 
BRANCH  28  29
ATOM     29  C   UNL A   1      32.573  32.836  27.219  1.00  0.00     0.116 C 
BRANCH  29  30
ATOM     30  N   UNL A   1      32.303  34.199  27.646  1.00  0.00    -0.352 N 
ATOM     31  C   UNL A   1      32.973  34.959  28.573  1.00  0.00     0.251 C 
ATOM     32  H   UNL A   1      31.535  34.638  27.212  1.00  0.00     0.163 HD
ATOM     33  O   UNL A   1      32.533  36.044  28.920  1.00  0.00    -0.269 OA
BRANCH  31  34
ATOM     34  C   UNL A   1      34.218  34.433  29.172  1.00  0.00     0.039 A 
ATOM     35  C   UNL A   1      34.131  33.717  30.367  1.00  0.00     0.014 A 
ATOM     36  C   UNL A   1      35.455  34.624  28.550  1.00  0.00     0.014 A 
ATOM     37  C   UNL A   1      35.282  33.154  30.913  1.00  0.00     0.010 A 
ATOM     38  C   UNL A   1      36.585  33.984  29.047  1.00  0.00     0.010 A 
ATOM     39  C   UNL A   1      36.514  33.256  30.242  1.00  0.00    -0.014 A 
BRANCH  39  40
ATOM     40  C   UNL A   1      37.725  32.604  30.798  1.00  0.00     0.031 A 
ATOM     41  C   UNL A   1      38.336  33.094  32.081  1.00  0.00     0.074 A 
ATOM     42  C   UNL A   1      38.282  31.572  30.134  1.00  0.00     0.049 A 
ATOM     43  N   UNL A   1      39.354  32.609  32.747  1.00  0.00    -0.248 NA
ATOM     44  C   UNL A   1      37.745  34.298  32.686  1.00  0.00     0.031 C 
ATOM     45  C   UNL A   1      37.823  31.052  28.843  1.00  0.00     0.029 A 
ATOM     46  N   UNL A   1      39.346  30.769  30.455  1.00  0.00    -0.354 N 
ATOM     47  C   UNL A   1      39.522  33.446  33.843  1.00  0.00     0.074 A 
ATOM     48  C   UNL A   1      38.550  34.509  33.716  1.00  0.00     0.031 C 
ATOM     49  C   UNL A   1      38.570  29.988  28.508  1.00  0.00     0.029 A 
ATOM     50  C   UNL A   1      39.579  29.771  29.540  1.00  0.00     0.049 A 
ATOM     51  H   UNL A   1      39.891  30.896  31.266  1.00  0.00     0.167 HD
ATOM     52  C   UNL A   1      40.385  33.323  34.878  1.00  0.00     0.037 A 
ATOM     53  C   UNL A   1      40.495  28.786  29.539  1.00  0.00     0.037 A 
ATOM     54  C   UNL A   1      41.343  32.256  35.005  1.00  0.00     0.049 A 
ATOM     55  C   UNL A   1      41.439  28.665  30.704  1.00  0.00     0.074 A 
ATOM     56  C   UNL A   1      42.230  32.012  36.038  1.00  0.00     0.029 A 
ATOM     57  N   UNL A   1      41.544  31.258  34.062  1.00  0.00    -0.354 N 
ATOM     58  N   UNL A   1      41.530  29.414  31.777  1.00  0.00    -0.248 NA
ATOM     59  C   UNL A   1      42.397  27.552  30.665  1.00  0.00     0.031 C 
ATOM     60  C   UNL A   1      43.004  30.897  35.696  1.00  0.00     0.029 A 
ATOM     61  C   UNL A   1      42.555  30.409  34.480  1.00  0.00     0.049 A 
ATOM     62  H   UNL A   1      41.041  31.168  33.220  1.00  0.00     0.167 HD
ATOM     63  C   UNL A   1      42.529  28.844  32.555  1.00  0.00     0.074 A 
ATOM     64  C   UNL A   1      43.002  27.679  31.837  1.00  0.00     0.031 C 
ATOM     65  C   UNL A   1      43.010  29.248  33.757  1.00  0.00     0.037 A 
BRANCH  52  66
ATOM     66  C   UNL A   1      40.327  34.367  35.959  1.00  0.00     0.057 A 
ATOM     67  C   UNL A   1      41.052  35.563  35.872  1.00  0.00     0.134 A 
ATOM     68  C   UNL A   1      39.511  34.189  37.083  1.00  0.00     0.134 A 
ATOM     69  F   UNL A   1      41.864  35.793  34.828  1.00  0.00    -0.206 F 
ATOM     70  C   UNL A   1      40.991  36.530  36.876  1.00  0.00     0.040 A 
ATOM     71  C   UNL A   1      39.417  35.163  38.079  1.00  0.00     0.040 A 
ATOM     72  F   UNL A   1      38.785  33.071  37.230  1.00  0.00    -0.206 F 
ATOM     73  C   UNL A   1      40.165  36.335  37.981  1.00  0.00     0.006 A 
ENDBRANCH  52  66
BRANCH  53  74
ATOM     74  C   UNL A   1      40.538  27.812  28.418  1.00  0.00     0.057 A 
ATOM     75  C   UNL A   1      41.292  28.062  27.266  1.00  0.00     0.134 A 
ATOM     76  C   UNL A   1      39.820  26.611  28.469  1.00  0.00     0.134 A 
ATOM     77  F   UNL A   1      41.991  29.201  27.150  1.00  0.00    -0.206 F 
ATOM     78  C   UNL A   1      41.312  27.166  26.195  1.00  0.00     0.040 A 
ATOM     79  C   UNL A   1      39.854  25.692  27.419  1.00  0.00     0.040 A 
ATOM     80  F   UNL A   1      39.087  26.306  29.550  1.00  0.00    -0.206 F 
ATOM     81  C   UNL A   1      40.596  25.974  26.273  1.00  0.00     0.006 A 
ENDBRANCH  53  74
BRANCH  65  82
ATOM     82  C   UNL A   1      44.071  28.395  34.393  1.00  0.00     0.057 A 
ATOM     83  C   UNL A   1      45.437  28.656  34.227  1.00  0.00     0.134 A 
ATOM     84  C   UNL A   1      43.714  27.312  35.207  1.00  0.00     0.134 A 
ATOM     85  F   UNL A   1      45.847  29.672  33.452  1.00  0.00    -0.206 F 
ATOM     86  C   UNL A   1      46.410  27.849  34.818  1.00  0.00     0.040 A 
ATOM     87  C   UNL A   1      44.678  26.518  35.830  1.00  0.00     0.040 A 
ATOM     88  F   UNL A   1      42.424  27.014  35.419  1.00  0.00    -0.206 F 
ATOM     89  C   UNL A   1      46.031  26.780  35.628  1.00  0.00     0.006 A 
ENDBRANCH  65  82
ENDBRANCH  39  40
ENDBRANCH  31  34
ENDBRANCH  29  30
ENDBRANCH  28  29
ENDBRANCH  27  28
ENDBRANCH   1  27
TORSDOF 15
ENDMDL
