MODEL 1
REMARK VINA RESULT:     -13.3      0.000      0.000
REMARK SMILES O=C(NCCCCNC(=O)c1[nH]ncc1C[N@H+]1CCC[C@@H](C(=O)c2ccc(Oc3ccccc3)cc2)C1)c1ccc(-c2c3nc(c(-c4c(F)cccc4F)c4ccc([nH]4)c(-c4c(F)cccc4F)c4nc(c(-c5c(F)cccc5F)c5ccc2[nH]5)C=C4)C=C3)cc1
REMARK SMILES IDX 8 1 9 2 10 3 7 5 6 6 5 7 4 8 3 9 1 10 2 11 38 13 39 14 91 15
REMARK SMILES IDX 40 16 90 17 41 18 42 19 43 20 84 21 44 22 89 23 83 24 85 25
REMARK SMILES IDX 45 26 88 27 82 28 81 29 46 31 72 32 55 33 71 34 56 35 59 36
REMARK SMILES IDX 70 37 86 38 57 39 58 40 69 42 87 43 60 44 47 45 48 46 53 47
REMARK SMILES IDX 49 48 50 49 52 50 54 51 51 52 73 53 74 54 79 55 75 56 76 57
REMARK SMILES IDX 78 58 80 59 77 60 61 61 62 62 67 63 63 64 64 65 66 66 68 67
REMARK SMILES IDX 65 68 11 69 12 70 15 71 13 72 14 74 16 75 17 76 18 77 37 78
REMARK SMILES IDX 19 80 21 81 20 82 22 83 23 84 24 85 25 86 36 87 26 88 35 89
REMARK SMILES IDX 27 90 28 91 29 92 30 93 34 94 31 95 33 96 32 97
REMARK H PARENT 8 4 3 12 85 30 59 41 12 73 17 79
REMARK Flexibility Score: inf
ROOT
ATOM      1  N   UNL A   1      31.087  27.042  24.851  1.00  0.00    -0.351 N 
ATOM      2  C   UNL A   1      30.126  26.072  24.740  1.00  0.00     0.269 C 
ATOM      3  O   UNL A   1      29.265  26.195  23.867  1.00  0.00    -0.268 OA
ATOM      4  H   UNL A   1      30.942  27.848  24.304  1.00  0.00     0.163 HD
ENDROOT
BRANCH   1   5
ATOM      5  C   UNL A   1      32.290  27.047  25.666  1.00  0.00     0.116 C 
BRANCH   5   6
ATOM      6  C   UNL A   1      32.084  27.658  27.048  1.00  0.00     0.023 C 
BRANCH   6   7
ATOM      7  C   UNL A   1      31.584  29.099  27.058  1.00  0.00     0.023 C 
BRANCH   7   8
ATOM      8  C   UNL A   1      32.412  30.087  26.246  1.00  0.00     0.116 C 
BRANCH   8   9
ATOM      9  N   UNL A   1      32.198  31.475  26.627  1.00  0.00    -0.352 N 
ATOM     10  O   UNL A   1      32.596  33.431  27.684  1.00  0.00    -0.269 OA
ATOM     11  C   UNL A   1      32.996  32.314  27.371  1.00  0.00     0.251 C 
ATOM     12  H   UNL A   1      31.358  31.873  26.305  1.00  0.00     0.163 HD
BRANCH  11  13
ATOM     13  C   UNL A   1      34.322  31.849  27.833  1.00  0.00     0.039 A 
ATOM     14  C   UNL A   1      34.531  30.509  28.158  1.00  0.00     0.014 A 
ATOM     15  C   UNL A   1      35.355  32.777  27.982  1.00  0.00     0.014 A 
ATOM     16  C   UNL A   1      35.695  30.139  28.818  1.00  0.00     0.010 A 
ATOM     17  C   UNL A   1      36.568  32.380  28.555  1.00  0.00     0.010 A 
ATOM     18  C   UNL A   1      36.726  31.070  29.032  1.00  0.00    -0.014 A 
BRANCH  18  19
ATOM     19  C   UNL A   1      37.953  30.637  29.751  1.00  0.00     0.031 A 
ATOM     20  C   UNL A   1      38.184  31.007  31.191  1.00  0.00     0.074 A 
ATOM     21  C   UNL A   1      38.837  29.847  29.110  1.00  0.00     0.049 A 
ATOM     22  N   UNL A   1      39.168  30.657  31.984  1.00  0.00    -0.248 NA
ATOM     23  C   UNL A   1      37.194  31.891  31.826  1.00  0.00     0.031 C 
ATOM     24  C   UNL A   1      38.730  29.428  27.711  1.00  0.00     0.029 A 
ATOM     25  N   UNL A   1      39.974  29.227  29.556  1.00  0.00    -0.354 N 
ATOM     26  C   UNL A   1      38.933  31.299  33.193  1.00  0.00     0.074 A 
ATOM     27  C   UNL A   1      37.722  32.075  33.029  1.00  0.00     0.031 C 
ATOM     28  C   UNL A   1      39.719  28.567  27.434  1.00  0.00     0.029 A 
ATOM     29  C   UNL A   1      40.561  28.418  28.615  1.00  0.00     0.049 A 
ATOM     30  H   UNL A   1      40.335  29.350  30.465  1.00  0.00     0.167 HD
ATOM     31  C   UNL A   1      39.655  31.241  34.338  1.00  0.00     0.037 A 
ATOM     32  C   UNL A   1      41.657  27.641  28.691  1.00  0.00     0.037 A 
ATOM     33  C   UNL A   1      40.837  30.438  34.516  1.00  0.00     0.049 A 
ATOM     34  C   UNL A   1      42.427  27.583  29.976  1.00  0.00     0.074 A 
ATOM     35  C   UNL A   1      41.610  30.278  35.654  1.00  0.00     0.029 A 
ATOM     36  N   UNL A   1      41.417  29.655  33.528  1.00  0.00    -0.354 N 
ATOM     37  N   UNL A   1      42.175  28.174  31.117  1.00  0.00    -0.248 NA
ATOM     38  C   UNL A   1      43.640  26.753  29.980  1.00  0.00     0.031 C 
ATOM     39  C   UNL A   1      42.676  29.425  35.346  1.00  0.00     0.029 A 
ATOM     40  C   UNL A   1      42.546  29.025  34.026  1.00  0.00     0.049 A 
ATOM     41  H   UNL A   1      41.077  29.562  32.610  1.00  0.00     0.167 HD
ATOM     42  C   UNL A   1      43.187  27.780  31.980  1.00  0.00     0.074 A 
ATOM     43  C   UNL A   1      44.046  26.883  31.235  1.00  0.00     0.031 C 
ATOM     44  C   UNL A   1      43.389  28.134  33.272  1.00  0.00     0.037 A 
BRANCH  31  45
ATOM     45  C   UNL A   1      39.197  32.084  35.493  1.00  0.00     0.057 A 
ATOM     46  C   UNL A   1      39.580  33.424  35.632  1.00  0.00     0.134 A 
ATOM     47  C   UNL A   1      38.324  31.558  36.454  1.00  0.00     0.134 A 
ATOM     48  F   UNL A   1      40.423  33.985  34.752  1.00  0.00    -0.206 F 
ATOM     49  C   UNL A   1      39.125  34.206  36.695  1.00  0.00     0.040 A 
ATOM     50  C   UNL A   1      37.846  32.335  37.510  1.00  0.00     0.040 A 
ATOM     51  F   UNL A   1      37.915  30.283  36.377  1.00  0.00    -0.206 F 
ATOM     52  C   UNL A   1      38.250  33.663  37.635  1.00  0.00     0.006 A 
ENDBRANCH  31  45
BRANCH  32  53
ATOM     53  C   UNL A   1      42.073  26.841  27.514  1.00  0.00     0.057 A 
ATOM     54  C   UNL A   1      41.585  25.545  27.314  1.00  0.00     0.134 A 
ATOM     55  C   UNL A   1      42.951  27.359  26.555  1.00  0.00     0.134 A 
ATOM     56  F   UNL A   1      40.753  24.992  28.209  1.00  0.00    -0.206 F 
ATOM     57  C   UNL A   1      41.963  24.787  26.205  1.00  0.00     0.040 A 
ATOM     58  C   UNL A   1      43.318  26.621  25.430  1.00  0.00     0.040 A 
ATOM     59  F   UNL A   1      43.445  28.598  26.689  1.00  0.00    -0.206 F 
ATOM     60  C   UNL A   1      42.828  25.329  25.255  1.00  0.00     0.006 A 
ENDBRANCH  32  53
BRANCH  44  61
ATOM     61  C   UNL A   1      44.572  27.526  33.962  1.00  0.00     0.057 A 
ATOM     62  C   UNL A   1      44.485  26.293  34.620  1.00  0.00     0.134 A 
ATOM     63  C   UNL A   1      45.813  28.174  33.957  1.00  0.00     0.134 A 
ATOM     64  F   UNL A   1      43.320  25.631  34.674  1.00  0.00    -0.206 F 
ATOM     65  C   UNL A   1      45.587  25.737  35.272  1.00  0.00     0.040 A 
ATOM     66  C   UNL A   1      46.927  27.618  34.586  1.00  0.00     0.040 A 
ATOM     67  F   UNL A   1      45.961  29.355  33.338  1.00  0.00    -0.206 F 
ATOM     68  C   UNL A   1      46.814  26.400  35.252  1.00  0.00     0.006 A 
ENDBRANCH  44  61
ENDBRANCH  18  19
ENDBRANCH  11  13
ENDBRANCH   8   9
ENDBRANCH   7   8
ENDBRANCH   6   7
ENDBRANCH   5   6
ENDBRANCH   1   5
BRANCH   2  69
ATOM     69  C   UNL A   1      30.210  24.917  25.580  1.00  0.00     0.131 A 
ATOM     70  N   UNL A   1      29.519  24.843  26.758  1.00  0.00    -0.272 N 
ATOM     71  C   UNL A   1      30.929  23.729  25.490  1.00  0.00     0.057 A 
ATOM     72  N   UNL A   1      29.545  23.626  27.320  1.00  0.00    -0.183 NA
ATOM     73  H   UNL A   1      29.049  25.610  27.156  1.00  0.00     0.190 HD
ATOM     74  C   UNL A   1      30.405  22.953  26.556  1.00  0.00     0.145 A 
BRANCH  71  75
ATOM     75  C   UNL A   1      31.943  23.324  24.465  1.00  0.00     0.303 C 
BRANCH  75  76
ATOM     76  N   UNL A   1      32.865  22.260  24.883  1.00  0.00    -0.330 N 
ATOM     77  C   UNL A   1      32.401  20.914  24.530  1.00  0.00     0.262 C 
ATOM     78  C   UNL A   1      34.247  22.490  24.458  1.00  0.00     0.274 C 
ATOM     79  H   UNL A   1      32.866  22.304  25.902  1.00  0.00     0.348 HD
ATOM     80  C   UNL A   1      33.297  19.853  25.176  1.00  0.00     0.062 C 
ATOM     81  C   UNL A   1      35.218  21.475  25.074  1.00  0.00     0.116 C 
ATOM     82  C   UNL A   1      34.761  20.042  24.788  1.00  0.00     0.023 C 
BRANCH  81  83
ATOM     83  C   UNL A   1      36.578  21.733  24.440  1.00  0.00     0.171 C 
ATOM     84  O   UNL A   1      36.709  22.414  23.423  1.00  0.00    -0.294 OA
BRANCH  83  85
ATOM     85  C   UNL A   1      37.798  21.223  25.106  1.00  0.00     0.018 A 
ATOM     86  C   UNL A   1      38.558  22.123  25.862  1.00  0.00     0.015 A 
ATOM     87  C   UNL A   1      38.214  19.898  24.968  1.00  0.00     0.015 A 
ATOM     88  C   UNL A   1      39.739  21.700  26.470  1.00  0.00     0.048 A 
ATOM     89  C   UNL A   1      39.398  19.477  25.584  1.00  0.00     0.048 A 
ATOM     90  C   UNL A   1      40.176  20.383  26.311  1.00  0.00     0.127 A 
BRANCH  90  91
ATOM     91  O   UNL A   1      41.356  20.074  26.952  1.00  0.00    -0.457 OA
BRANCH  91  92
ATOM     92  C   UNL A   1      42.515  20.037  26.219  1.00  0.00     0.127 A 
ATOM     93  C   UNL A   1      43.135  21.257  25.953  1.00  0.00     0.047 A 
ATOM     94  C   UNL A   1      43.031  18.852  25.686  1.00  0.00     0.047 A 
ATOM     95  C   UNL A   1      44.307  21.290  25.199  1.00  0.00     0.004 A 
ATOM     96  C   UNL A   1      44.210  18.887  24.941  1.00  0.00     0.004 A 
ATOM     97  C   UNL A   1      44.850  20.105  24.703  1.00  0.00     0.000 A 
ENDBRANCH  91  92
ENDBRANCH  90  91
ENDBRANCH  83  85
ENDBRANCH  81  83
ENDBRANCH  75  76
ENDBRANCH  71  75
ENDBRANCH   2  69
TORSDOF 17
ENDMDL
MODEL 2
REMARK VINA RESULT:     -12.5      4.889     10.855
REMARK SMILES O=C(NCCCCNC(=O)c1[nH]ncc1C[N@H+]1CCC[C@@H](C(=O)c2ccc(Oc3ccccc3)cc2)C1)c1ccc(-c2c3nc(c(-c4c(F)cccc4F)c4ccc([nH]4)c(-c4c(F)cccc4F)c4nc(c(-c5c(F)cccc5F)c5ccc2[nH]5)C=C4)C=C3)cc1
REMARK SMILES IDX 8 1 9 2 10 3 7 5 6 6 5 7 4 8 3 9 1 10 2 11 38 13 39 14 91 15
REMARK SMILES IDX 40 16 90 17 41 18 42 19 43 20 84 21 44 22 89 23 83 24 85 25
REMARK SMILES IDX 45 26 88 27 82 28 81 29 46 31 72 32 55 33 71 34 56 35 59 36
REMARK SMILES IDX 70 37 86 38 57 39 58 40 69 42 87 43 60 44 47 45 48 46 53 47
REMARK SMILES IDX 49 48 50 49 52 50 54 51 51 52 73 53 74 54 79 55 75 56 76 57
REMARK SMILES IDX 78 58 80 59 77 60 61 61 62 62 67 63 63 64 64 65 66 66 68 67
REMARK SMILES IDX 65 68 11 69 12 70 15 71 13 72 14 74 16 75 17 76 18 77 37 78
REMARK SMILES IDX 19 80 21 81 20 82 22 83 23 84 24 85 25 86 36 87 26 88 35 89
REMARK SMILES IDX 27 90 28 91 29 92 30 93 34 94 31 95 33 96 32 97
REMARK H PARENT 8 4 3 12 85 30 59 41 12 73 17 79
REMARK Flexibility Score: inf
ROOT
ATOM      1  N   UNL A   1      39.445  22.998  26.902  1.00  0.00    -0.351 N 
ATOM      2  C   UNL A   1      38.325  23.204  26.141  1.00  0.00     0.269 C 
ATOM      3  O   UNL A   1      38.020  24.362  25.845  1.00  0.00    -0.268 OA
ATOM      4  H   UNL A   1      39.860  23.809  27.277  1.00  0.00     0.163 HD
ENDROOT
BRANCH   1   5
ATOM      5  C   UNL A   1      40.106  21.747  27.235  1.00  0.00     0.116 C 
BRANCH   5   6
ATOM      6  C   UNL A   1      41.388  21.509  26.445  1.00  0.00     0.023 C 
BRANCH   6   7
ATOM      7  C   UNL A   1      41.563  20.099  25.890  1.00  0.00     0.023 C 
BRANCH   7   8
ATOM      8  C   UNL A   1      42.848  19.389  26.299  1.00  0.00     0.116 C 
BRANCH   8   9
ATOM      9  N   UNL A   1      43.600  18.857  25.172  1.00  0.00    -0.352 N 
ATOM     10  O   UNL A   1      44.975  18.893  23.381  1.00  0.00    -0.269 OA
ATOM     11  C   UNL A   1      44.519  19.479  24.358  1.00  0.00     0.251 C 
ATOM     12  H   UNL A   1      43.426  17.911  24.961  1.00  0.00     0.163 HD
BRANCH  11  13
ATOM     13  C   UNL A   1      44.922  20.874  24.637  1.00  0.00     0.039 A 
ATOM     14  C   UNL A   1      45.652  21.188  25.783  1.00  0.00     0.014 A 
ATOM     15  C   UNL A   1      44.525  21.886  23.758  1.00  0.00     0.014 A 
ATOM     16  C   UNL A   1      45.806  22.518  26.153  1.00  0.00     0.010 A 
ATOM     17  C   UNL A   1      44.773  23.223  24.083  1.00  0.00     0.010 A 
ATOM     18  C   UNL A   1      45.363  23.553  25.312  1.00  0.00    -0.014 A 
BRANCH  18  19
ATOM     19  C   UNL A   1      45.538  24.963  25.748  1.00  0.00     0.031 A 
ATOM     20  C   UNL A   1      44.410  25.727  26.388  1.00  0.00     0.074 A 
ATOM     21  C   UNL A   1      46.752  25.536  25.621  1.00  0.00     0.049 A 
ATOM     22  N   UNL A   1      44.415  26.941  26.884  1.00  0.00    -0.248 NA
ATOM     23  C   UNL A   1      43.106  25.053  26.475  1.00  0.00     0.031 C 
ATOM     24  C   UNL A   1      47.921  24.902  25.009  1.00  0.00     0.029 A 
ATOM     25  N   UNL A   1      47.212  26.759  26.030  1.00  0.00    -0.354 N 
ATOM     26  C   UNL A   1      43.116  27.185  27.311  1.00  0.00     0.074 A 
ATOM     27  C   UNL A   1      42.343  26.001  27.002  1.00  0.00     0.031 C 
ATOM     28  C   UNL A   1      48.981  25.713  25.144  1.00  0.00     0.029 A 
ATOM     29  C   UNL A   1      48.553  26.944  25.799  1.00  0.00     0.049 A 
ATOM     30  H   UNL A   1      46.638  27.441  26.450  1.00  0.00     0.167 HD
ATOM     31  C   UNL A   1      42.615  28.291  27.912  1.00  0.00     0.037 A 
ATOM     32  C   UNL A   1      49.354  27.987  26.082  1.00  0.00     0.037 A 
ATOM     33  C   UNL A   1      43.393  29.454  28.256  1.00  0.00     0.049 A 
ATOM     34  C   UNL A   1      48.777  29.191  26.763  1.00  0.00     0.074 A 
ATOM     35  C   UNL A   1      42.983  30.604  28.909  1.00  0.00     0.029 A 
ATOM     36  N   UNL A   1      44.742  29.613  27.978  1.00  0.00    -0.354 N 
ATOM     37  N   UNL A   1      47.553  29.394  27.184  1.00  0.00    -0.248 NA
ATOM     38  C   UNL A   1      49.692  30.316  27.001  1.00  0.00     0.031 C 
ATOM     39  C   UNL A   1      44.076  31.473  28.997  1.00  0.00     0.029 A 
ATOM     40  C   UNL A   1      45.176  30.848  28.430  1.00  0.00     0.049 A 
ATOM     41  H   UNL A   1      45.308  28.947  27.525  1.00  0.00     0.167 HD
ATOM     42  C   UNL A   1      47.552  30.661  27.749  1.00  0.00     0.074 A 
ATOM     43  C   UNL A   1      48.903  31.171  27.634  1.00  0.00     0.031 C 
ATOM     44  C   UNL A   1      46.523  31.341  28.309  1.00  0.00     0.037 A 
BRANCH  31  45
ATOM     45  C   UNL A   1      41.147  28.308  28.226  1.00  0.00     0.057 A 
ATOM     46  C   UNL A   1      40.647  27.879  29.460  1.00  0.00     0.134 A 
ATOM     47  C   UNL A   1      40.228  28.806  27.293  1.00  0.00     0.134 A 
ATOM     48  F   UNL A   1      41.473  27.380  30.393  1.00  0.00    -0.206 F 
ATOM     49  C   UNL A   1      39.282  27.926  29.751  1.00  0.00     0.040 A 
ATOM     50  C   UNL A   1      38.864  28.878  27.579  1.00  0.00     0.040 A 
ATOM     51  F   UNL A   1      40.642  29.239  26.093  1.00  0.00    -0.206 F 
ATOM     52  C   UNL A   1      38.386  28.433  28.810  1.00  0.00     0.006 A 
ENDBRANCH  31  45
BRANCH  32  53
ATOM     53  C   UNL A   1      50.794  27.923  25.734  1.00  0.00     0.057 A 
ATOM     54  C   UNL A   1      51.229  28.143  24.423  1.00  0.00     0.134 A 
ATOM     55  C   UNL A   1      51.768  27.659  26.705  1.00  0.00     0.134 A 
ATOM     56  F   UNL A   1      50.340  28.385  23.448  1.00  0.00    -0.206 F 
ATOM     57  C   UNL A   1      52.582  28.094  24.086  1.00  0.00     0.040 A 
ATOM     58  C   UNL A   1      53.125  27.630  26.387  1.00  0.00     0.040 A 
ATOM     59  F   UNL A   1      51.411  27.447  27.980  1.00  0.00    -0.206 F 
ATOM     60  C   UNL A   1      53.536  27.843  25.072  1.00  0.00     0.006 A 
ENDBRANCH  32  53
BRANCH  44  61
ATOM     61  C   UNL A   1      46.832  32.700  28.860  1.00  0.00     0.057 A 
ATOM     62  C   UNL A   1      47.262  32.878  30.180  1.00  0.00     0.134 A 
ATOM     63  C   UNL A   1      46.710  33.841  28.057  1.00  0.00     0.134 A 
ATOM     64  F   UNL A   1      47.384  31.826  31.004  1.00  0.00    -0.206 F 
ATOM     65  C   UNL A   1      47.537  34.147  30.691  1.00  0.00     0.040 A 
ATOM     66  C   UNL A   1      47.002  35.112  28.550  1.00  0.00     0.040 A 
ATOM     67  F   UNL A   1      46.308  33.735  26.781  1.00  0.00    -0.206 F 
ATOM     68  C   UNL A   1      47.410  35.269  29.872  1.00  0.00     0.006 A 
ENDBRANCH  44  61
ENDBRANCH  18  19
ENDBRANCH  11  13
ENDBRANCH   8   9
ENDBRANCH   7   8
ENDBRANCH   6   7
ENDBRANCH   5   6
ENDBRANCH   1   5
BRANCH   2  69
ATOM     69  C   UNL A   1      37.607  22.070  25.648  1.00  0.00     0.131 A 
ATOM     70  N   UNL A   1      38.228  21.100  24.911  1.00  0.00    -0.272 N 
ATOM     71  C   UNL A   1      36.270  21.688  25.721  1.00  0.00     0.057 A 
ATOM     72  N   UNL A   1      37.468  20.015  24.701  1.00  0.00    -0.183 NA
ATOM     73  H   UNL A   1      39.145  21.190  24.567  1.00  0.00     0.190 HD
ATOM     74  C   UNL A   1      36.279  20.375  25.185  1.00  0.00     0.145 A 
BRANCH  71  75
ATOM     75  C   UNL A   1      35.114  22.438  26.307  1.00  0.00     0.303 C 
BRANCH  75  76
ATOM     76  N   UNL A   1      34.535  23.473  25.441  1.00  0.00    -0.330 N 
ATOM     77  C   UNL A   1      34.371  23.044  24.048  1.00  0.00     0.262 C 
ATOM     78  C   UNL A   1      33.307  24.062  25.979  1.00  0.00     0.274 C 
ATOM     79  H   UNL A   1      35.231  24.220  25.430  1.00  0.00     0.348 HD
ATOM     80  C   UNL A   1      33.966  24.229  23.167  1.00  0.00     0.062 C 
ATOM     81  C   UNL A   1      32.837  25.270  25.161  1.00  0.00     0.116 C 
ATOM     82  C   UNL A   1      32.697  24.904  23.681  1.00  0.00     0.023 C 
BRANCH  81  83
ATOM     83  C   UNL A   1      31.490  25.686  25.733  1.00  0.00     0.171 C 
ATOM     84  O   UNL A   1      31.152  25.408  26.883  1.00  0.00    -0.294 OA
BRANCH  83  85
ATOM     85  C   UNL A   1      30.581  26.524  24.917  1.00  0.00     0.018 A 
ATOM     86  C   UNL A   1      29.274  26.067  24.711  1.00  0.00     0.015 A 
ATOM     87  C   UNL A   1      31.007  27.718  24.332  1.00  0.00     0.015 A 
ATOM     88  C   UNL A   1      28.398  26.799  23.911  1.00  0.00     0.048 A 
ATOM     89  C   UNL A   1      30.123  28.452  23.535  1.00  0.00     0.048 A 
ATOM     90  C   UNL A   1      28.827  27.980  23.300  1.00  0.00     0.127 A 
BRANCH  90  91
ATOM     91  O   UNL A   1      27.881  28.620  22.530  1.00  0.00    -0.457 OA
BRANCH  91  92
ATOM     92  C   UNL A   1      28.007  29.970  22.316  1.00  0.00     0.127 A 
ATOM     93  C   UNL A   1      27.857  30.803  23.425  1.00  0.00     0.047 A 
ATOM     94  C   UNL A   1      28.199  30.515  21.044  1.00  0.00     0.047 A 
ATOM     95  C   UNL A   1      27.957  32.185  23.272  1.00  0.00     0.004 A 
ATOM     96  C   UNL A   1      28.309  31.899  20.896  1.00  0.00     0.004 A 
ATOM     97  C   UNL A   1      28.193  32.731  22.010  1.00  0.00     0.000 A 
ENDBRANCH  91  92
ENDBRANCH  90  91
ENDBRANCH  83  85
ENDBRANCH  81  83
ENDBRANCH  75  76
ENDBRANCH  71  75
ENDBRANCH   2  69
TORSDOF 17
ENDMDL
MODEL 3
REMARK VINA RESULT:     -12.4      4.873     11.438
REMARK SMILES O=C(NCCCCNC(=O)c1[nH]ncc1C[N@H+]1CCC[C@@H](C(=O)c2ccc(Oc3ccccc3)cc2)C1)c1ccc(-c2c3nc(c(-c4c(F)cccc4F)c4ccc([nH]4)c(-c4c(F)cccc4F)c4nc(c(-c5c(F)cccc5F)c5ccc2[nH]5)C=C4)C=C3)cc1
REMARK SMILES IDX 8 1 9 2 10 3 7 5 6 6 5 7 4 8 3 9 1 10 2 11 38 13 39 14 91 15
REMARK SMILES IDX 40 16 90 17 41 18 42 19 43 20 84 21 44 22 89 23 83 24 85 25
REMARK SMILES IDX 45 26 88 27 82 28 81 29 46 31 72 32 55 33 71 34 56 35 59 36
REMARK SMILES IDX 70 37 86 38 57 39 58 40 69 42 87 43 60 44 47 45 48 46 53 47
REMARK SMILES IDX 49 48 50 49 52 50 54 51 51 52 73 53 74 54 79 55 75 56 76 57
REMARK SMILES IDX 78 58 80 59 77 60 61 61 62 62 67 63 63 64 64 65 66 66 68 67
REMARK SMILES IDX 65 68 11 69 12 70 15 71 13 72 14 74 16 75 17 76 18 77 37 78
REMARK SMILES IDX 19 80 21 81 20 82 22 83 23 84 24 85 25 86 36 87 26 88 35 89
REMARK SMILES IDX 27 90 28 91 29 92 30 93 34 94 31 95 33 96 32 97
REMARK H PARENT 8 4 3 12 85 30 59 41 12 73 17 79
REMARK Flexibility Score: inf
ROOT
ATOM      1  N   UNL A   1      38.935  22.947  26.388  1.00  0.00    -0.351 N 
ATOM      2  C   UNL A   1      37.798  22.944  25.625  1.00  0.00     0.269 C 
ATOM      3  O   UNL A   1      37.408  24.012  25.147  1.00  0.00    -0.268 OA
ATOM      4  H   UNL A   1      39.293  23.837  26.614  1.00  0.00     0.163 HD
ENDROOT
BRANCH   1   5
ATOM      5  C   UNL A   1      39.688  21.819  26.911  1.00  0.00     0.116 C 
BRANCH   5   6
ATOM      6  C   UNL A   1      40.958  21.520  26.123  1.00  0.00     0.023 C 
BRANCH   6   7
ATOM      7  C   UNL A   1      41.230  20.043  25.856  1.00  0.00     0.023 C 
BRANCH   7   8
ATOM      8  C   UNL A   1      42.644  19.569  26.167  1.00  0.00     0.116 C 
BRANCH   8   9
ATOM      9  N   UNL A   1      43.387  19.146  24.989  1.00  0.00    -0.352 N 
ATOM     10  O   UNL A   1      44.768  19.344  23.214  1.00  0.00    -0.269 OA
ATOM     11  C   UNL A   1      44.325  19.829  24.249  1.00  0.00     0.251 C 
ATOM     12  H   UNL A   1      43.189  18.234  24.675  1.00  0.00     0.163 HD
BRANCH  11  13
ATOM     13  C   UNL A   1      44.762  21.175  24.681  1.00  0.00     0.039 A 
ATOM     14  C   UNL A   1      45.438  21.349  25.888  1.00  0.00     0.014 A 
ATOM     15  C   UNL A   1      44.453  22.280  23.883  1.00  0.00     0.014 A 
ATOM     16  C   UNL A   1      45.621  22.630  26.391  1.00  0.00     0.010 A 
ATOM     17  C   UNL A   1      44.731  23.569  24.347  1.00  0.00     0.010 A 
ATOM     18  C   UNL A   1      45.264  23.757  25.631  1.00  0.00    -0.014 A 
BRANCH  18  19
ATOM     19  C   UNL A   1      45.466  25.112  26.208  1.00  0.00     0.031 A 
ATOM     20  C   UNL A   1      46.801  25.802  26.127  1.00  0.00     0.074 A 
ATOM     21  C   UNL A   1      44.412  25.749  26.755  1.00  0.00     0.049 A 
ATOM     22  N   UNL A   1      47.130  27.009  26.522  1.00  0.00    -0.248 NA
ATOM     23  C   UNL A   1      47.916  25.044  25.539  1.00  0.00     0.031 C 
ATOM     24  C   UNL A   1      43.070  25.182  26.902  1.00  0.00     0.029 A 
ATOM     25  N   UNL A   1      44.293  27.019  27.255  1.00  0.00    -0.354 N 
ATOM     26  C   UNL A   1      48.488  27.141  26.260  1.00  0.00     0.074 A 
ATOM     27  C   UNL A   1      48.929  25.887  25.688  1.00  0.00     0.031 C 
ATOM     28  C   UNL A   1      42.247  26.122  27.389  1.00  0.00     0.029 A 
ATOM     29  C   UNL A   1      43.014  27.336  27.643  1.00  0.00     0.049 A 
ATOM     30  H   UNL A   1      45.050  27.645  27.328  1.00  0.00     0.167 HD
ATOM     31  C   UNL A   1      49.292  28.211  26.470  1.00  0.00     0.037 A 
ATOM     32  C   UNL A   1      42.511  28.477  28.147  1.00  0.00     0.037 A 
ATOM     33  C   UNL A   1      48.845  29.473  27.002  1.00  0.00     0.049 A 
ATOM     34  C   UNL A   1      43.420  29.651  28.353  1.00  0.00     0.074 A 
ATOM     35  C   UNL A   1      49.576  30.631  27.207  1.00  0.00     0.029 A 
ATOM     36  N   UNL A   1      47.547  29.744  27.411  1.00  0.00    -0.354 N 
ATOM     37  N   UNL A   1      44.694  29.768  28.075  1.00  0.00    -0.248 NA
ATOM     38  C   UNL A   1      42.820  30.852  28.952  1.00  0.00     0.031 C 
ATOM     39  C   UNL A   1      48.729  31.592  27.771  1.00  0.00     0.029 A 
ATOM     40  C   UNL A   1      47.461  31.044  27.883  1.00  0.00     0.049 A 
ATOM     41  H   UNL A   1      46.798  29.107  27.372  1.00  0.00     0.167 HD
ATOM     42  C   UNL A   1      45.048  31.056  28.450  1.00  0.00     0.074 A 
ATOM     43  C   UNL A   1      43.848  31.688  28.958  1.00  0.00     0.031 C 
ATOM     44  C   UNL A   1      46.259  31.658  28.383  1.00  0.00     0.037 A 
BRANCH  31  45
ATOM     45  C   UNL A   1      50.748  28.064  26.139  1.00  0.00     0.057 A 
ATOM     46  C   UNL A   1      51.235  28.238  24.838  1.00  0.00     0.134 A 
ATOM     47  C   UNL A   1      51.681  27.788  27.147  1.00  0.00     0.134 A 
ATOM     48  F   UNL A   1      50.393  28.492  23.825  1.00  0.00    -0.206 F 
ATOM     49  C   UNL A   1      52.596  28.126  24.547  1.00  0.00     0.040 A 
ATOM     50  C   UNL A   1      53.046  27.694  26.873  1.00  0.00     0.040 A 
ATOM     51  F   UNL A   1      51.282  27.616  28.416  1.00  0.00    -0.206 F 
ATOM     52  C   UNL A   1      53.507  27.859  25.569  1.00  0.00     0.006 A 
ENDBRANCH  31  45
BRANCH  32  53
ATOM     53  C   UNL A   1      41.067  28.562  28.473  1.00  0.00     0.057 A 
ATOM     54  C   UNL A   1      40.598  28.255  29.755  1.00  0.00     0.134 A 
ATOM     55  C   UNL A   1      40.127  28.968  27.518  1.00  0.00     0.134 A 
ATOM     56  F   UNL A   1      41.451  27.847  30.706  1.00  0.00    -0.206 F 
ATOM     57  C   UNL A   1      39.243  28.341  30.076  1.00  0.00     0.040 A 
ATOM     58  C   UNL A   1      38.772  29.080  27.831  1.00  0.00     0.040 A 
ATOM     59  F   UNL A   1      40.518  29.282  26.275  1.00  0.00    -0.206 F 
ATOM     60  C   UNL A   1      38.326  28.761  29.112  1.00  0.00     0.006 A 
ENDBRANCH  32  53
BRANCH  44  61
ATOM     61  C   UNL A   1      46.333  33.080  28.850  1.00  0.00     0.057 A 
ATOM     62  C   UNL A   1      46.640  33.403  30.178  1.00  0.00     0.134 A 
ATOM     63  C   UNL A   1      46.109  34.137  27.959  1.00  0.00     0.134 A 
ATOM     64  F   UNL A   1      46.851  32.435  31.082  1.00  0.00    -0.206 F 
ATOM     65  C   UNL A   1      46.696  34.729  30.609  1.00  0.00     0.040 A 
ATOM     66  C   UNL A   1      46.183  35.467  28.374  1.00  0.00     0.040 A 
ATOM     67  F   UNL A   1      45.816  33.893  26.673  1.00  0.00    -0.206 F 
ATOM     68  C   UNL A   1      46.471  35.765  29.704  1.00  0.00     0.006 A 
ENDBRANCH  44  61
ENDBRANCH  18  19
ENDBRANCH  11  13
ENDBRANCH   8   9
ENDBRANCH   7   8
ENDBRANCH   6   7
ENDBRANCH   5   6
ENDBRANCH   1   5
BRANCH   2  69
ATOM     69  C   UNL A   1      37.159  21.696  25.342  1.00  0.00     0.131 A 
ATOM     70  N   UNL A   1      37.831  20.678  24.724  1.00  0.00    -0.272 N 
ATOM     71  C   UNL A   1      35.864  21.226  25.539  1.00  0.00     0.057 A 
ATOM     72  N   UNL A   1      37.158  19.518  24.715  1.00  0.00    -0.183 NA
ATOM     73  H   UNL A   1      38.723  20.786  24.323  1.00  0.00     0.190 HD
ATOM     74  C   UNL A   1      35.963  19.852  25.202  1.00  0.00     0.145 A 
BRANCH  71  75
ATOM     75  C   UNL A   1      34.672  21.963  26.068  1.00  0.00     0.303 C 
BRANCH  75  76
ATOM     76  N   UNL A   1      34.129  22.996  25.177  1.00  0.00    -0.330 N 
ATOM     77  C   UNL A   1      33.680  22.472  23.882  1.00  0.00     0.262 C 
ATOM     78  C   UNL A   1      33.107  23.832  25.811  1.00  0.00     0.274 C 
ATOM     79  H   UNL A   1      34.920  23.609  24.979  1.00  0.00     0.348 HD
ATOM     80  C   UNL A   1      33.326  23.621  22.934  1.00  0.00     0.062 C 
ATOM     81  C   UNL A   1      32.703  25.021  24.932  1.00  0.00     0.116 C 
ATOM     82  C   UNL A   1      32.274  24.547  23.541  1.00  0.00     0.023 C 
BRANCH  81  83
ATOM     83  C   UNL A   1      31.545  25.711  25.637  1.00  0.00     0.171 C 
ATOM     84  O   UNL A   1      31.394  25.657  26.857  1.00  0.00    -0.294 OA
BRANCH  83  85
ATOM     85  C   UNL A   1      30.609  26.546  24.849  1.00  0.00     0.018 A 
ATOM     86  C   UNL A   1      29.319  26.053  24.623  1.00  0.00     0.015 A 
ATOM     87  C   UNL A   1      30.995  27.775  24.310  1.00  0.00     0.015 A 
ATOM     88  C   UNL A   1      28.419  26.783  23.848  1.00  0.00     0.048 A 
ATOM     89  C   UNL A   1      30.086  28.507  23.537  1.00  0.00     0.048 A 
ATOM     90  C   UNL A   1      28.808  28.000  23.282  1.00  0.00     0.127 A 
BRANCH  90  91
ATOM     91  O   UNL A   1      27.841  28.635  22.534  1.00  0.00    -0.457 OA
BRANCH  91  92
ATOM     92  C   UNL A   1      27.920  29.995  22.371  1.00  0.00     0.127 A 
ATOM     93  C   UNL A   1      28.135  30.465  21.076  1.00  0.00     0.047 A 
ATOM     94  C   UNL A   1      27.868  30.886  23.446  1.00  0.00     0.047 A 
ATOM     95  C   UNL A   1      28.241  31.836  20.845  1.00  0.00     0.004 A 
ATOM     96  C   UNL A   1      27.965  32.258  23.210  1.00  0.00     0.004 A 
ATOM     97  C   UNL A   1      28.145  32.732  21.910  1.00  0.00     0.000 A 
ENDBRANCH  91  92
ENDBRANCH  90  91
ENDBRANCH  83  85
ENDBRANCH  81  83
ENDBRANCH  75  76
ENDBRANCH  71  75
ENDBRANCH   2  69
TORSDOF 17
ENDMDL
