MODEL 1
REMARK VINA RESULT:      -8.9      0.000      0.000
REMARK SMILES Cc1c(C[NH2+]CC(=O)NCCCCNC(=O)c2ccc(-c3c4nc(c(-c5c(F)cccc5F)c5ccc([nH]5)c(-c5c(F)cccc5F)c5nc(c(-c6c(F)cccc6F)c6ccc3[nH]6)C=C5)C=C4)cc2)cnn1C
REMARK SMILES IDX 11 1 10 2 9 3 7 4 8 5 6 7 5 8 4 11 3 12 1 13 2 14 73 15
REMARK SMILES IDX 71 16 72 17 74 18 12 19 13 20 14 21 15 22 16 24 17 25 18 26
REMARK SMILES IDX 70 27 19 28 69 29 20 30 21 31 22 32 63 33 23 34 68 35 62 36
REMARK SMILES IDX 64 37 24 38 67 39 61 40 60 41 25 43 51 44 34 45 50 46 35 47
REMARK SMILES IDX 38 48 49 49 65 50 36 51 37 52 48 54 66 55 39 56 26 57 27 58
REMARK SMILES IDX 32 59 28 60 29 61 31 62 33 63 30 64 52 65 53 66 58 67 54 68
REMARK SMILES IDX 55 69 57 70 59 71 56 72 40 73 41 74 46 75 42 76 43 77 45 78
REMARK SMILES IDX 47 79 44 80
REMARK H PARENT 9 6 5 9 5 10 14 23 64 42 38 53
REMARK Flexibility Score: inf
ROOT
ATOM      1  C   UNL A   1      45.658  21.379  24.956  1.00  0.00     0.023 C 
ENDROOT
BRANCH   1   2
ATOM      2  C   UNL A   1      45.402  22.558  24.005  1.00  0.00     0.116 C 
BRANCH   2   3
ATOM      3  N   UNL A   1      46.609  23.337  23.764  1.00  0.00    -0.351 N 
ATOM      4  C   UNL A   1      47.004  24.550  24.263  1.00  0.00     0.275 C 
ATOM      5  O   UNL A   1      48.037  25.048  23.806  1.00  0.00    -0.269 OA
ATOM      6  H   UNL A   1      47.247  22.922  23.139  1.00  0.00     0.163 HD
BRANCH   4   7
ATOM      7  C   UNL A   1      46.168  25.295  25.326  1.00  0.00     0.362 C 
BRANCH   7   8
ATOM      8  N   UNL A   1      45.395  26.445  24.778  1.00  0.00    -0.335 N 
ATOM      9  H   UNL A   1      46.008  27.255  24.684  1.00  0.00     0.347 HD
ATOM     10  H   UNL A   1      45.019  26.202  23.861  1.00  0.00     0.347 HD
BRANCH   8  11
ATOM     11  C   UNL A   1      44.308  26.761  25.688  1.00  0.00     0.301 C 
BRANCH  11  12
ATOM     12  C   UNL A   1      44.410  28.033  26.435  1.00  0.00     0.047 A 
ATOM     13  C   UNL A   1      42.058  29.131  26.250  1.00  0.00     0.067 C 
ATOM     14  C   UNL A   1      43.495  29.057  26.614  1.00  0.00     0.044 A 
ATOM     15  N   UNL A   1      44.210  30.100  27.154  1.00  0.00    -0.272 N 
ATOM     16  C   UNL A   1      45.622  28.556  26.945  1.00  0.00     0.145 A 
ATOM     17  N   UNL A   1      45.500  29.802  27.389  1.00  0.00    -0.181 NA
ATOM     18  C   UNL A   1      43.763  31.452  27.390  1.00  0.00     0.174 C 
ENDBRANCH  11  12
ENDBRANCH   8  11
ENDBRANCH   7   8
ENDBRANCH   4   7
ENDBRANCH   2   3
ENDBRANCH   1   2
BRANCH   1  19
ATOM     19  C   UNL A   1      44.911  20.098  24.627  1.00  0.00     0.023 C 
BRANCH  19  20
ATOM     20  C   UNL A   1      44.297  19.417  25.833  1.00  0.00     0.116 C 
BRANCH  20  21
ATOM     21  N   UNL A   1      42.946  18.924  25.596  1.00  0.00    -0.352 N 
ATOM     22  C   UNL A   1      41.744  19.527  25.893  1.00  0.00     0.251 C 
ATOM     23  H   UNL A   1      42.884  18.040  25.167  1.00  0.00     0.163 HD
ATOM     24  O   UNL A   1      40.686  18.941  25.711  1.00  0.00    -0.269 OA
BRANCH  22  25
ATOM     25  C   UNL A   1      41.761  20.881  26.479  1.00  0.00     0.039 A 
ATOM     26  C   UNL A   1      41.663  21.023  27.863  1.00  0.00     0.014 A 
ATOM     27  C   UNL A   1      41.971  21.994  25.661  1.00  0.00     0.014 A 
ATOM     28  C   UNL A   1      41.864  22.278  28.437  1.00  0.00     0.010 A 
ATOM     29  C   UNL A   1      42.283  23.213  26.239  1.00  0.00     0.010 A 
ATOM     30  C   UNL A   1      42.221  23.372  27.632  1.00  0.00    -0.014 A 
BRANCH  30  31
ATOM     31  C   UNL A   1      42.511  24.705  28.210  1.00  0.00     0.031 A 
ATOM     32  C   UNL A   1      43.905  25.020  28.676  1.00  0.00     0.074 A 
ATOM     33  C   UNL A   1      41.514  25.589  28.401  1.00  0.00     0.049 A 
ATOM     34  N   UNL A   1      44.351  26.079  29.300  1.00  0.00    -0.248 NA
ATOM     35  C   UNL A   1      44.927  23.983  28.451  1.00  0.00     0.031 C 
ATOM     36  C   UNL A   1      40.107  25.375  28.049  1.00  0.00     0.029 A 
ATOM     37  N   UNL A   1      41.532  26.848  28.944  1.00  0.00    -0.354 N 
ATOM     38  C   UNL A   1      45.687  25.817  29.575  1.00  0.00     0.074 A 
ATOM     39  C   UNL A   1      45.965  24.479  29.105  1.00  0.00     0.031 C 
ATOM     40  C   UNL A   1      39.408  26.482  28.347  1.00  0.00     0.029 A 
ATOM     41  C   UNL A   1      40.306  27.467  28.941  1.00  0.00     0.049 A 
ATOM     42  H   UNL A   1      42.347  27.268  29.303  1.00  0.00     0.167 HD
ATOM     43  C   UNL A   1      46.608  26.631  30.141  1.00  0.00     0.037 A 
ATOM     44  C   UNL A   1      39.953  28.694  29.366  1.00  0.00     0.037 A 
ATOM     45  C   UNL A   1      46.342  27.983  30.548  1.00  0.00     0.049 A 
ATOM     46  C   UNL A   1      41.000  29.593  29.958  1.00  0.00     0.074 A 
ATOM     47  C   UNL A   1      47.226  28.928  31.035  1.00  0.00     0.029 A 
ATOM     48  N   UNL A   1      45.093  28.585  30.503  1.00  0.00    -0.354 N 
ATOM     49  N   UNL A   1      42.278  29.365  30.143  1.00  0.00    -0.248 NA
ATOM     50  C   UNL A   1      40.556  30.922  30.401  1.00  0.00     0.031 C 
ATOM     51  C   UNL A   1      46.505  30.092  31.320  1.00  0.00     0.029 A 
ATOM     52  C   UNL A   1      45.179  29.882  30.975  1.00  0.00     0.049 A 
ATOM     53  H   UNL A   1      44.268  28.151  30.185  1.00  0.00     0.167 HD
ATOM     54  C   UNL A   1      42.797  30.527  30.695  1.00  0.00     0.074 A 
ATOM     55  C   UNL A   1      41.696  31.463  30.810  1.00  0.00     0.031 C 
ATOM     56  C   UNL A   1      44.070  30.798  31.072  1.00  0.00     0.037 A 
BRANCH  43  57
ATOM     57  C   UNL A   1      47.985  26.070  30.340  1.00  0.00     0.057 A 
ATOM     58  C   UNL A   1      48.415  25.579  31.581  1.00  0.00     0.134 A 
ATOM     59  C   UNL A   1      48.898  26.029  29.279  1.00  0.00     0.134 A 
ATOM     60  F   UNL A   1      47.596  25.607  32.642  1.00  0.00    -0.206 F 
ATOM     61  C   UNL A   1      49.714  25.105  31.769  1.00  0.00     0.040 A 
ATOM     62  C   UNL A   1      50.190  25.529  29.448  1.00  0.00     0.040 A 
ATOM     63  F   UNL A   1      48.551  26.479  28.064  1.00  0.00    -0.206 F 
ATOM     64  C   UNL A   1      50.605  25.076  30.698  1.00  0.00     0.006 A 
ENDBRANCH  43  57
BRANCH  44  65
ATOM     65  C   UNL A   1      38.556  29.165  29.191  1.00  0.00     0.057 A 
ATOM     66  C   UNL A   1      38.114  29.633  27.948  1.00  0.00     0.134 A 
ATOM     67  C   UNL A   1      37.634  29.151  30.243  1.00  0.00     0.134 A 
ATOM     68  F   UNL A   1      38.958  29.685  26.908  1.00  0.00    -0.206 F 
ATOM     69  C   UNL A   1      36.807  30.084  27.759  1.00  0.00     0.040 A 
ATOM     70  C   UNL A   1      36.318  29.581  30.064  1.00  0.00     0.040 A 
ATOM     71  F   UNL A   1      37.995  28.706  31.456  1.00  0.00    -0.206 F 
ATOM     72  C   UNL A   1      35.903  30.053  28.819  1.00  0.00     0.006 A 
ENDBRANCH  44  65
BRANCH  56  73
ATOM     73  C   UNL A   1      44.346  32.169  31.612  1.00  0.00     0.057 A 
ATOM     74  C   UNL A   1      44.856  33.190  30.802  1.00  0.00     0.134 A 
ATOM     75  C   UNL A   1      44.057  32.480  32.947  1.00  0.00     0.134 A 
ATOM     76  F   UNL A   1      45.165  32.950  29.518  1.00  0.00    -0.206 F 
ATOM     77  C   UNL A   1      45.084  34.471  31.306  1.00  0.00     0.040 A 
ATOM     78  C   UNL A   1      44.260  33.762  33.456  1.00  0.00     0.040 A 
ATOM     79  F   UNL A   1      43.558  31.545  33.771  1.00  0.00    -0.206 F 
ATOM     80  C   UNL A   1      44.780  34.761  32.635  1.00  0.00     0.006 A 
ENDBRANCH  56  73
ENDBRANCH  30  31
ENDBRANCH  22  25
ENDBRANCH  20  21
ENDBRANCH  19  20
ENDBRANCH   1  19
TORSDOF 14
ENDMDL
MODEL 2
REMARK VINA RESULT:      -8.8      0.340      6.460
REMARK SMILES Cc1c(C[NH2+]CC(=O)NCCCCNC(=O)c2ccc(-c3c4nc(c(-c5c(F)cccc5F)c5ccc([nH]5)c(-c5c(F)cccc5F)c5nc(c(-c6c(F)cccc6F)c6ccc3[nH]6)C=C5)C=C4)cc2)cnn1C
REMARK SMILES IDX 11 1 10 2 9 3 7 4 8 5 6 7 5 8 4 11 3 12 1 13 2 14 73 15
REMARK SMILES IDX 71 16 72 17 74 18 12 19 13 20 14 21 15 22 16 24 17 25 18 26
REMARK SMILES IDX 70 27 19 28 69 29 20 30 21 31 22 32 63 33 23 34 68 35 62 36
REMARK SMILES IDX 64 37 24 38 67 39 61 40 60 41 25 43 51 44 34 45 50 46 35 47
REMARK SMILES IDX 38 48 49 49 65 50 36 51 37 52 48 54 66 55 39 56 26 57 27 58
REMARK SMILES IDX 32 59 28 60 29 61 31 62 33 63 30 64 52 65 53 66 58 67 54 68
REMARK SMILES IDX 55 69 57 70 59 71 56 72 40 73 41 74 46 75 42 76 43 77 45 78
REMARK SMILES IDX 47 79 44 80
REMARK H PARENT 9 6 5 9 5 10 14 23 64 42 38 53
REMARK Flexibility Score: inf
ROOT
ATOM      1  C   UNL A   1      45.192  21.384  25.159  1.00  0.00     0.023 C 
ENDROOT
BRANCH   1   2
ATOM      2  C   UNL A   1      45.008  22.537  24.161  1.00  0.00     0.116 C 
BRANCH   2   3
ATOM      3  N   UNL A   1      46.275  23.161  23.807  1.00  0.00    -0.351 N 
ATOM      4  C   UNL A   1      46.839  24.338  24.224  1.00  0.00     0.275 C 
ATOM      5  O   UNL A   1      47.887  24.694  23.679  1.00  0.00    -0.269 OA
ATOM      6  H   UNL A   1      46.817  22.652  23.161  1.00  0.00     0.163 HD
BRANCH   4   7
ATOM      7  C   UNL A   1      46.170  25.213  25.306  1.00  0.00     0.362 C 
BRANCH   7   8
ATOM      8  N   UNL A   1      45.467  26.407  24.755  1.00  0.00    -0.335 N 
ATOM      9  H   UNL A   1      46.131  27.175  24.648  1.00  0.00     0.347 HD
ATOM     10  H   UNL A   1      45.067  26.181  23.844  1.00  0.00     0.347 HD
BRANCH   8  11
ATOM     11  C   UNL A   1      44.412  26.799  25.672  1.00  0.00     0.301 C 
BRANCH  11  12
ATOM     12  C   UNL A   1      44.578  28.093  26.368  1.00  0.00     0.047 A 
ATOM     13  C   UNL A   1      42.221  29.196  26.345  1.00  0.00     0.067 C 
ATOM     14  C   UNL A   1      43.683  29.126  26.591  1.00  0.00     0.044 A 
ATOM     15  N   UNL A   1      44.443  30.182  27.036  1.00  0.00    -0.272 N 
ATOM     16  C   UNL A   1      45.829  28.627  26.758  1.00  0.00     0.145 A 
ATOM     17  N   UNL A   1      45.748  29.886  27.172  1.00  0.00    -0.181 NA
ATOM     18  C   UNL A   1      44.020  31.543  27.266  1.00  0.00     0.174 C 
ENDBRANCH  11  12
ENDBRANCH   8  11
ENDBRANCH   7   8
ENDBRANCH   4   7
ENDBRANCH   2   3
ENDBRANCH   1   2
BRANCH   1  19
ATOM     19  C   UNL A   1      44.576  20.058  24.749  1.00  0.00     0.023 C 
BRANCH  19  20
ATOM     20  C   UNL A   1      43.911  19.310  25.886  1.00  0.00     0.116 C 
BRANCH  20  21
ATOM     21  N   UNL A   1      42.526  18.950  25.613  1.00  0.00    -0.352 N 
ATOM     22  C   UNL A   1      41.378  19.644  25.925  1.00  0.00     0.251 C 
ATOM     23  H   UNL A   1      42.391  18.096  25.143  1.00  0.00     0.163 HD
ATOM     24  O   UNL A   1      40.275  19.164  25.707  1.00  0.00    -0.269 OA
BRANCH  22  25
ATOM     25  C   UNL A   1      41.506  20.964  26.574  1.00  0.00     0.039 A 
ATOM     26  C   UNL A   1      41.566  21.033  27.966  1.00  0.00     0.014 A 
ATOM     27  C   UNL A   1      41.664  22.112  25.795  1.00  0.00     0.014 A 
ATOM     28  C   UNL A   1      41.873  22.249  28.576  1.00  0.00     0.010 A 
ATOM     29  C   UNL A   1      42.080  23.289  26.396  1.00  0.00     0.010 A 
ATOM     30  C   UNL A   1      42.177  23.374  27.792  1.00  0.00    -0.014 A 
BRANCH  30  31
ATOM     31  C   UNL A   1      42.576  24.665  28.402  1.00  0.00     0.031 A 
ATOM     32  C   UNL A   1      41.541  25.735  28.608  1.00  0.00     0.074 A 
ATOM     33  C   UNL A   1      43.871  24.907  28.681  1.00  0.00     0.049 A 
ATOM     34  N   UNL A   1      41.693  26.964  29.028  1.00  0.00    -0.248 NA
ATOM     35  C   UNL A   1      40.154  25.390  28.250  1.00  0.00     0.031 C 
ATOM     36  C   UNL A   1      44.978  23.971  28.465  1.00  0.00     0.029 A 
ATOM     37  N   UNL A   1      44.476  26.021  29.204  1.00  0.00    -0.354 N 
ATOM     38  C   UNL A   1      40.434  27.545  28.945  1.00  0.00     0.074 A 
ATOM     39  C   UNL A   1      39.543  26.557  28.381  1.00  0.00     0.031 C 
ATOM     40  C   UNL A   1      46.119  24.536  28.893  1.00  0.00     0.029 A 
ATOM     41  C   UNL A   1      45.830  25.882  29.377  1.00  0.00     0.049 A 
ATOM     42  H   UNL A   1      43.984  26.843  29.432  1.00  0.00     0.167 HD
ATOM     43  C   UNL A   1      40.048  28.783  29.334  1.00  0.00     0.037 A 
ATOM     44  C   UNL A   1      46.734  26.745  29.878  1.00  0.00     0.037 A 
ATOM     45  C   UNL A   1      40.923  29.739  29.953  1.00  0.00     0.049 A 
ATOM     46  C   UNL A   1      46.276  28.100  30.336  1.00  0.00     0.074 A 
ATOM     47  C   UNL A   1      40.614  30.980  30.479  1.00  0.00     0.029 A 
ATOM     48  N   UNL A   1      42.285  29.551  30.138  1.00  0.00    -0.354 N 
ATOM     49  N   UNL A   1      45.069  28.612  30.325  1.00  0.00    -0.248 NA
ATOM     50  C   UNL A   1      47.306  28.998  30.876  1.00  0.00     0.031 C 
ATOM     51  C   UNL A   1      41.797  31.559  30.950  1.00  0.00     0.029 A 
ATOM     52  C   UNL A   1      42.835  30.663  30.751  1.00  0.00     0.049 A 
ATOM     53  H   UNL A   1      42.786  28.746  29.871  1.00  0.00     0.167 HD
ATOM     54  C   UNL A   1      45.188  29.879  30.881  1.00  0.00     0.074 A 
ATOM     55  C   UNL A   1      46.585  30.054  31.226  1.00  0.00     0.031 C 
ATOM     56  C   UNL A   1      44.228  30.812  31.091  1.00  0.00     0.037 A 
BRANCH  43  57
ATOM     57  C   UNL A   1      38.614  29.156  29.100  1.00  0.00     0.057 A 
ATOM     58  C   UNL A   1      38.149  29.572  27.845  1.00  0.00     0.134 A 
ATOM     59  C   UNL A   1      37.686  29.107  30.148  1.00  0.00     0.134 A 
ATOM     60  F   UNL A   1      38.991  29.658  26.804  1.00  0.00    -0.206 F 
ATOM     61  C   UNL A   1      36.824  29.965  27.649  1.00  0.00     0.040 A 
ATOM     62  C   UNL A   1      36.351  29.469  29.957  1.00  0.00     0.040 A 
ATOM     63  F   UNL A   1      38.062  28.715  31.374  1.00  0.00    -0.206 F 
ATOM     64  C   UNL A   1      35.920  29.910  28.707  1.00  0.00     0.006 A 
ENDBRANCH  43  57
BRANCH  44  65
ATOM     65  C   UNL A   1      48.151  26.331  30.027  1.00  0.00     0.057 A 
ATOM     66  C   UNL A   1      49.063  26.526  28.983  1.00  0.00     0.134 A 
ATOM     67  C   UNL A   1      48.630  25.747  31.205  1.00  0.00     0.134 A 
ATOM     68  F   UNL A   1      48.657  27.066  27.825  1.00  0.00    -0.206 F 
ATOM     69  C   UNL A   1      50.399  26.143  29.099  1.00  0.00     0.040 A 
ATOM     70  C   UNL A   1      49.970  25.376  31.342  1.00  0.00     0.040 A 
ATOM     71  F   UNL A   1      47.807  25.542  32.244  1.00  0.00    -0.206 F 
ATOM     72  C   UNL A   1      50.857  25.570  30.285  1.00  0.00     0.006 A 
ENDBRANCH  44  65
BRANCH  56  73
ATOM     73  C   UNL A   1      44.649  32.090  31.751  1.00  0.00     0.057 A 
ATOM     74  C   UNL A   1      45.154  33.167  31.014  1.00  0.00     0.134 A 
ATOM     75  C   UNL A   1      44.508  32.257  33.134  1.00  0.00     0.134 A 
ATOM     76  F   UNL A   1      45.325  33.063  29.687  1.00  0.00    -0.206 F 
ATOM     77  C   UNL A   1      45.519  34.363  31.633  1.00  0.00     0.040 A 
ATOM     78  C   UNL A   1      44.848  33.455  33.762  1.00  0.00     0.040 A 
ATOM     79  F   UNL A   1      44.023  31.263  33.894  1.00  0.00    -0.206 F 
ATOM     80  C   UNL A   1      45.360  34.511  33.009  1.00  0.00     0.006 A 
ENDBRANCH  56  73
ENDBRANCH  30  31
ENDBRANCH  22  25
ENDBRANCH  20  21
ENDBRANCH  19  20
ENDBRANCH   1  19
TORSDOF 14
ENDMDL
MODEL 3
REMARK VINA RESULT:      -8.7      4.573     10.273
REMARK SMILES Cc1c(C[NH2+]CC(=O)NCCCCNC(=O)c2ccc(-c3c4nc(c(-c5c(F)cccc5F)c5ccc([nH]5)c(-c5c(F)cccc5F)c5nc(c(-c6c(F)cccc6F)c6ccc3[nH]6)C=C5)C=C4)cc2)cnn1C
REMARK SMILES IDX 11 1 10 2 9 3 7 4 8 5 6 7 5 8 4 11 3 12 1 13 2 14 73 15
REMARK SMILES IDX 71 16 72 17 74 18 12 19 13 20 14 21 15 22 16 24 17 25 18 26
REMARK SMILES IDX 70 27 19 28 69 29 20 30 21 31 22 32 63 33 23 34 68 35 62 36
REMARK SMILES IDX 64 37 24 38 67 39 61 40 60 41 25 43 51 44 34 45 50 46 35 47
REMARK SMILES IDX 38 48 49 49 65 50 36 51 37 52 48 54 66 55 39 56 26 57 27 58
REMARK SMILES IDX 32 59 28 60 29 61 31 62 33 63 30 64 52 65 53 66 58 67 54 68
REMARK SMILES IDX 55 69 57 70 59 71 56 72 40 73 41 74 46 75 42 76 43 77 45 78
REMARK SMILES IDX 47 79 44 80
REMARK H PARENT 9 6 5 9 5 10 14 23 64 42 38 53
REMARK Flexibility Score: inf
ROOT
ATOM      1  C   UNL A   1      34.248  34.936  29.146  1.00  0.00     0.023 C 
ENDROOT
BRANCH   1   2
ATOM      2  C   UNL A   1      32.953  35.731  29.369  1.00  0.00     0.116 C 
BRANCH   2   3
ATOM      3  N   UNL A   1      33.163  36.889  30.227  1.00  0.00    -0.351 N 
ATOM      4  C   UNL A   1      33.116  37.010  31.591  1.00  0.00     0.275 C 
ATOM      5  O   UNL A   1      33.225  38.143  32.068  1.00  0.00    -0.269 OA
ATOM      6  H   UNL A   1      33.375  37.722  29.747  1.00  0.00     0.163 HD
BRANCH   4   7
ATOM      7  C   UNL A   1      32.890  35.784  32.502  1.00  0.00     0.362 C 
BRANCH   7   8
ATOM      8  N   UNL A   1      33.995  35.555  33.476  1.00  0.00    -0.335 N 
ATOM      9  H   UNL A   1      34.204  36.424  33.967  1.00  0.00     0.347 HD
ATOM     10  H   UNL A   1      33.714  34.847  34.155  1.00  0.00     0.347 HD
BRANCH   8  11
ATOM     11  C   UNL A   1      35.174  35.105  32.757  1.00  0.00     0.301 C 
BRANCH  11  12
ATOM     12  C   UNL A   1      36.039  34.121  33.441  1.00  0.00     0.047 A 
ATOM     13  C   UNL A   1      37.222  32.801  31.536  1.00  0.00     0.067 C 
ATOM     14  C   UNL A   1      36.843  33.112  32.936  1.00  0.00     0.044 A 
ATOM     15  N   UNL A   1      37.193  32.343  34.021  1.00  0.00    -0.272 N 
ATOM     16  C   UNL A   1      36.018  33.884  34.836  1.00  0.00     0.145 A 
ATOM     17  N   UNL A   1      36.723  32.815  35.189  1.00  0.00    -0.181 NA
ATOM     18  C   UNL A   1      37.895  31.082  34.023  1.00  0.00     0.174 C 
ENDBRANCH  11  12
ENDBRANCH   8  11
ENDBRANCH   7   8
ENDBRANCH   4   7
ENDBRANCH   2   3
ENDBRANCH   1   2
BRANCH   1  19
ATOM     19  C   UNL A   1      34.120  33.711  28.257  1.00  0.00     0.023 C 
BRANCH  19  20
ATOM     20  C   UNL A   1      34.648  32.438  28.884  1.00  0.00     0.116 C 
BRANCH  20  21
ATOM     21  N   UNL A   1      34.063  31.227  28.322  1.00  0.00    -0.352 N 
ATOM     22  C   UNL A   1      34.676  30.029  28.029  1.00  0.00     0.251 C 
ATOM     23  H   UNL A   1      33.100  31.271  28.124  1.00  0.00     0.163 HD
ATOM     24  O   UNL A   1      34.062  29.130  27.472  1.00  0.00    -0.269 OA
BRANCH  22  25
ATOM     25  C   UNL A   1      36.105  29.870  28.359  1.00  0.00     0.039 A 
ATOM     26  C   UNL A   1      36.460  29.349  29.604  1.00  0.00     0.014 A 
ATOM     27  C   UNL A   1      37.079  30.147  27.397  1.00  0.00     0.014 A 
ATOM     28  C   UNL A   1      37.793  29.023  29.852  1.00  0.00     0.010 A 
ATOM     29  C   UNL A   1      38.380  29.717  27.604  1.00  0.00     0.010 A 
ATOM     30  C   UNL A   1      38.754  29.162  28.837  1.00  0.00    -0.014 A 
BRANCH  30  31
ATOM     31  C   UNL A   1      40.166  28.761  29.039  1.00  0.00     0.031 A 
ATOM     32  C   UNL A   1      41.124  29.727  29.677  1.00  0.00     0.074 A 
ATOM     33  C   UNL A   1      40.604  27.578  28.569  1.00  0.00     0.049 A 
ATOM     34  N   UNL A   1      42.415  29.619  29.855  1.00  0.00    -0.248 NA
ATOM     35  C   UNL A   1      40.561  31.009  30.137  1.00  0.00     0.031 C 
ATOM     36  C   UNL A   1      39.785  26.581  27.874  1.00  0.00     0.029 A 
ATOM     37  N   UNL A   1      41.854  27.014  28.602  1.00  0.00    -0.354 N 
ATOM     38  C   UNL A   1      42.820  30.827  30.406  1.00  0.00     0.074 A 
ATOM     39  C   UNL A   1      41.652  31.676  30.479  1.00  0.00     0.031 C 
ATOM     40  C   UNL A   1      40.546  25.512  27.586  1.00  0.00     0.029 A 
ATOM     41  C   UNL A   1      41.909  25.762  28.042  1.00  0.00     0.049 A 
ATOM     42  H   UNL A   1      42.638  27.466  28.991  1.00  0.00     0.167 HD
ATOM     43  C   UNL A   1      44.049  31.188  30.841  1.00  0.00     0.037 A 
ATOM     44  C   UNL A   1      42.945  24.912  27.918  1.00  0.00     0.037 A 
ATOM     45  C   UNL A   1      45.193  30.318  30.825  1.00  0.00     0.049 A 
ATOM     46  C   UNL A   1      44.293  25.319  28.441  1.00  0.00     0.074 A 
ATOM     47  C   UNL A   1      46.458  30.545  31.335  1.00  0.00     0.029 A 
ATOM     48  N   UNL A   1      45.203  29.045  30.274  1.00  0.00    -0.354 N 
ATOM     49  N   UNL A   1      44.648  26.435  29.031  1.00  0.00    -0.248 NA
ATOM     50  C   UNL A   1      45.385  24.349  28.280  1.00  0.00     0.031 C 
ATOM     51  C   UNL A   1      47.245  29.421  31.061  1.00  0.00     0.029 A 
ATOM     52  C   UNL A   1      46.459  28.482  30.413  1.00  0.00     0.049 A 
ATOM     53  H   UNL A   1      44.431  28.608  29.846  1.00  0.00     0.167 HD
ATOM     54  C   UNL A   1      45.994  26.292  29.338  1.00  0.00     0.074 A 
ATOM     55  C   UNL A   1      46.390  24.976  28.875  1.00  0.00     0.031 C 
ATOM     56  C   UNL A   1      46.827  27.167  29.951  1.00  0.00     0.037 A 
BRANCH  43  57
ATOM     57  C   UNL A   1      44.204  32.581  31.375  1.00  0.00     0.057 A 
ATOM     58  C   UNL A   1      44.529  33.663  30.544  1.00  0.00     0.134 A 
ATOM     59  C   UNL A   1      44.036  32.844  32.740  1.00  0.00     0.134 A 
ATOM     60  F   UNL A   1      44.721  33.476  29.230  1.00  0.00    -0.206 F 
ATOM     61  C   UNL A   1      44.720  34.947  31.057  1.00  0.00     0.040 A 
ATOM     62  C   UNL A   1      44.195  34.130  33.260  1.00  0.00     0.040 A 
ATOM     63  F   UNL A   1      43.722  31.856  33.590  1.00  0.00    -0.206 F 
ATOM     64  C   UNL A   1      44.549  35.183  32.419  1.00  0.00     0.006 A 
ENDBRANCH  43  57
BRANCH  44  65
ATOM     65  C   UNL A   1      42.734  23.568  27.326  1.00  0.00     0.057 A 
ATOM     66  C   UNL A   1      42.935  23.353  25.957  1.00  0.00     0.134 A 
ATOM     67  C   UNL A   1      42.342  22.472  28.102  1.00  0.00     0.134 A 
ATOM     68  F   UNL A   1      43.296  24.371  25.162  1.00  0.00    -0.206 F 
ATOM     69  C   UNL A   1      42.741  22.100  25.377  1.00  0.00     0.040 A 
ATOM     70  C   UNL A   1      42.163  21.206  27.538  1.00  0.00     0.040 A 
ATOM     71  F   UNL A   1      42.142  22.611  29.421  1.00  0.00    -0.206 F 
ATOM     72  C   UNL A   1      42.358  21.020  26.171  1.00  0.00     0.006 A 
ENDBRANCH  44  65
BRANCH  56  73
ATOM     73  C   UNL A   1      48.239  26.719  30.184  1.00  0.00     0.057 A 
ATOM     74  C   UNL A   1      49.269  27.038  29.293  1.00  0.00     0.134 A 
ATOM     75  C   UNL A   1      48.574  25.996  31.336  1.00  0.00     0.134 A 
ATOM     76  F   UNL A   1      49.007  27.716  28.165  1.00  0.00    -0.206 F 
ATOM     77  C   UNL A   1      50.585  26.639  29.531  1.00  0.00     0.040 A 
ATOM     78  C   UNL A   1      49.889  25.612  31.597  1.00  0.00     0.040 A 
ATOM     79  F   UNL A   1      47.632  25.667  32.232  1.00  0.00    -0.206 F 
ATOM     80  C   UNL A   1      50.898  25.930  30.689  1.00  0.00     0.006 A 
ENDBRANCH  56  73
ENDBRANCH  30  31
ENDBRANCH  22  25
ENDBRANCH  20  21
ENDBRANCH  19  20
ENDBRANCH   1  19
TORSDOF 14
ENDMDL
