MODEL 1
REMARK VINA RESULT:     -10.1      0.000      0.000
REMARK SMILES C#CCC1(C(=O)NCCCCNC(=O)c2ccc(-c3c4nc(c(-c5c(F)cccc5F)c5ccc([nH]5)c(-c5c(F)cccc5F)c5nc(c(-c6c(F)cccc6F)c6ccc3[nH]6)C=C5)C=C4)cc2)CC[NH2+]CC1
REMARK SMILES IDX 9 1 8 2 7 3 5 4 6 5 4 7 69 8 73 9 70 10 72 11 71 12 3 15
REMARK SMILES IDX 2 16 1 17 10 18 11 19 12 20 13 21 14 23 15 24 16 25 68 26
REMARK SMILES IDX 17 27 67 28 18 29 19 30 20 31 61 32 21 33 66 34 60 35 62 36
REMARK SMILES IDX 22 37 65 38 59 39 58 40 23 42 49 43 32 44 48 45 33 46 36 47
REMARK SMILES IDX 47 48 63 49 34 50 35 51 46 53 64 54 37 55 24 56 25 57 30 58
REMARK SMILES IDX 26 59 27 60 29 61 31 62 28 63 50 64 51 65 56 66 52 67 53 68
REMARK SMILES IDX 55 69 57 70 54 71 38 72 39 73 44 74 40 75 41 76 43 77 45 78
REMARK SMILES IDX 42 79
REMARK H PARENT 7 6 71 13 71 14 12 22 62 41 36 52
REMARK Flexibility Score: inf
ROOT
ATOM      1  C   UNL A   1      38.912  22.459  26.450  1.00  0.00     0.023 C 
ENDROOT
BRANCH   1   2
ATOM      2  C   UNL A   1      37.838  23.397  25.907  1.00  0.00     0.116 C 
BRANCH   2   3
ATOM      3  N   UNL A   1      37.611  23.199  24.487  1.00  0.00    -0.356 N 
ATOM      4  C   UNL A   1      36.482  22.923  23.778  1.00  0.00     0.227 C 
ATOM      5  O   UNL A   1      36.586  23.101  22.561  1.00  0.00    -0.274 OA
ATOM      6  H   UNL A   1      38.422  23.279  23.936  1.00  0.00     0.163 HD
BRANCH   4   7
ATOM      7  C   UNL A   1      35.140  22.560  24.459  1.00  0.00     0.071 C 
ATOM      8  C   UNL A   1      33.910  22.733  23.532  1.00  0.00     0.079 C 
ATOM      9  C   UNL A   1      35.329  21.088  24.935  1.00  0.00     0.079 C 
ATOM     10  C   UNL A   1      32.710  21.874  23.940  1.00  0.00     0.261 C 
ATOM     11  C   UNL A   1      34.030  20.387  25.289  1.00  0.00     0.261 C 
ATOM     12  N   UNL A   1      33.095  20.484  24.174  1.00  0.00    -0.346 N 
ATOM     13  H   UNL A   1      33.536  20.113  23.333  1.00  0.00     0.346 HD
ATOM     14  H   UNL A   1      32.258  19.947  24.401  1.00  0.00     0.346 HD
BRANCH   7  15
ATOM     15  C   UNL A   1      34.853  23.431  25.716  1.00  0.00     0.106 C 
BRANCH  15  16
ATOM     16  C   UNL A   1      34.382  24.850  25.441  1.00  0.00    -0.106 C 
ATOM     17  C   UNL A   1      33.978  26.066  25.206  1.00  0.00     0.004 C 
ENDBRANCH  15  16
ENDBRANCH   7  15
ENDBRANCH   4   7
ENDBRANCH   2   3
ENDBRANCH   1   2
BRANCH   1  18
ATOM     18  C   UNL A   1      39.128  21.194  25.621  1.00  0.00     0.023 C 
BRANCH  18  19
ATOM     19  C   UNL A   1      39.535  19.965  26.422  1.00  0.00     0.116 C 
BRANCH  19  20
ATOM     20  N   UNL A   1      40.708  19.298  25.877  1.00  0.00    -0.352 N 
ATOM     21  C   UNL A   1      41.994  19.763  25.773  1.00  0.00     0.251 C 
ATOM     22  H   UNL A   1      40.558  18.386  25.536  1.00  0.00     0.163 HD
ATOM     23  O   UNL A   1      42.840  19.120  25.159  1.00  0.00    -0.269 OA
BRANCH  21  24
ATOM     24  C   UNL A   1      42.344  21.062  26.378  1.00  0.00     0.039 A 
ATOM     25  C   UNL A   1      42.688  22.125  25.540  1.00  0.00     0.014 A 
ATOM     26  C   UNL A   1      42.303  21.237  27.764  1.00  0.00     0.014 A 
ATOM     27  C   UNL A   1      42.937  23.381  26.092  1.00  0.00     0.010 A 
ATOM     28  C   UNL A   1      42.462  22.508  28.303  1.00  0.00     0.010 A 
ATOM     29  C   UNL A   1      42.793  23.591  27.474  1.00  0.00    -0.014 A 
BRANCH  29  30
ATOM     30  C   UNL A   1      43.003  24.932  28.071  1.00  0.00     0.031 A 
ATOM     31  C   UNL A   1      44.371  25.339  28.543  1.00  0.00     0.074 A 
ATOM     32  C   UNL A   1      41.955  25.763  28.234  1.00  0.00     0.049 A 
ATOM     33  N   UNL A   1      44.748  26.447  29.128  1.00  0.00    -0.248 NA
ATOM     34  C   UNL A   1      45.454  24.358  28.362  1.00  0.00     0.031 C 
ATOM     35  C   UNL A   1      40.570  25.463  27.864  1.00  0.00     0.029 A 
ATOM     36  N   UNL A   1      41.892  27.029  28.759  1.00  0.00    -0.354 N 
ATOM     37  C   UNL A   1      46.103  26.291  29.393  1.00  0.00     0.074 A 
ATOM     38  C   UNL A   1      46.468  24.959  28.965  1.00  0.00     0.031 C 
ATOM     39  C   UNL A   1      39.801  26.526  28.146  1.00  0.00     0.029 A 
ATOM     40  C   UNL A   1      40.628  27.566  28.750  1.00  0.00     0.049 A 
ATOM     41  H   UNL A   1      42.678  27.507  29.109  1.00  0.00     0.167 HD
ATOM     42  C   UNL A   1      46.972  27.187  29.919  1.00  0.00     0.037 A 
ATOM     43  C   UNL A   1      40.186  28.762  29.181  1.00  0.00     0.037 A 
ATOM     44  C   UNL A   1      46.609  28.519  30.324  1.00  0.00     0.049 A 
ATOM     45  C   UNL A   1      41.170  29.738  29.767  1.00  0.00     0.074 A 
ATOM     46  C   UNL A   1      47.425  29.521  30.820  1.00  0.00     0.029 A 
ATOM     47  N   UNL A   1      45.321  29.033  30.284  1.00  0.00    -0.354 N 
ATOM     48  N   UNL A   1      42.462  29.604  29.945  1.00  0.00    -0.248 NA
ATOM     49  C   UNL A   1      40.636  31.036  30.200  1.00  0.00     0.031 C 
ATOM     50  C   UNL A   1      46.622  30.626  31.123  1.00  0.00     0.029 A 
ATOM     51  C   UNL A   1      45.317  30.332  30.764  1.00  0.00     0.049 A 
ATOM     52  H   UNL A   1      44.530  28.547  29.961  1.00  0.00     0.167 HD
ATOM     53  C   UNL A   1      42.900  30.810  30.479  1.00  0.00     0.074 A 
ATOM     54  C   UNL A   1      41.737  31.667  30.580  1.00  0.00     0.031 C 
ATOM     55  C   UNL A   1      44.152  31.176  30.850  1.00  0.00     0.037 A 
BRANCH  42  56
ATOM     56  C   UNL A   1      48.400  26.751  30.080  1.00  0.00     0.057 A 
ATOM     57  C   UNL A   1      49.366  26.997  29.095  1.00  0.00     0.134 A 
ATOM     58  C   UNL A   1      48.822  26.100  31.247  1.00  0.00     0.134 A 
ATOM     59  F   UNL A   1      49.026  27.604  27.946  1.00  0.00    -0.206 F 
ATOM     60  C   UNL A   1      50.692  26.586  29.249  1.00  0.00     0.040 A 
ATOM     61  C   UNL A   1      50.152  25.712  31.426  1.00  0.00     0.040 A 
ATOM     62  F   UNL A   1      47.954  25.838  32.234  1.00  0.00    -0.206 F 
ATOM     63  C   UNL A   1      51.089  25.947  30.422  1.00  0.00     0.006 A 
ENDBRANCH  42  56
BRANCH  43  64
ATOM     64  C   UNL A   1      38.751  29.119  29.053  1.00  0.00     0.057 A 
ATOM     65  C   UNL A   1      38.222  29.562  27.834  1.00  0.00     0.134 A 
ATOM     66  C   UNL A   1      37.876  29.040  30.143  1.00  0.00     0.134 A 
ATOM     67  F   UNL A   1      39.013  29.677  26.758  1.00  0.00    -0.206 F 
ATOM     68  C   UNL A   1      36.883  29.937  27.709  1.00  0.00     0.040 A 
ATOM     69  C   UNL A   1      36.528  29.384  30.026  1.00  0.00     0.040 A 
ATOM     70  F   UNL A   1      38.316  28.613  31.335  1.00  0.00    -0.206 F 
ATOM     71  C   UNL A   1      36.031  29.843  28.808  1.00  0.00     0.006 A 
ENDBRANCH  43  64
BRANCH  55  72
ATOM     72  C   UNL A   1      44.336  32.578  31.353  1.00  0.00     0.057 A 
ATOM     73  C   UNL A   1      44.606  33.649  30.492  1.00  0.00     0.134 A 
ATOM     74  C   UNL A   1      44.210  32.863  32.719  1.00  0.00     0.134 A 
ATOM     75  F   UNL A   1      44.751  33.442  29.174  1.00  0.00    -0.206 F 
ATOM     76  C   UNL A   1      44.776  34.948  30.975  1.00  0.00     0.040 A 
ATOM     77  C   UNL A   1      44.346  34.163  33.210  1.00  0.00     0.040 A 
ATOM     78  F   UNL A   1      43.941  31.887  33.598  1.00  0.00    -0.206 F 
ATOM     79  C   UNL A   1      44.638  35.208  32.337  1.00  0.00     0.006 A 
ENDBRANCH  55  72
ENDBRANCH  29  30
ENDBRANCH  21  24
ENDBRANCH  19  20
ENDBRANCH  18  19
ENDBRANCH   1  18
TORSDOF 13
ENDMDL
MODEL 2
REMARK VINA RESULT:     -10.0      1.958      3.009
REMARK SMILES C#CCC1(C(=O)NCCCCNC(=O)c2ccc(-c3c4nc(c(-c5c(F)cccc5F)c5ccc([nH]5)c(-c5c(F)cccc5F)c5nc(c(-c6c(F)cccc6F)c6ccc3[nH]6)C=C5)C=C4)cc2)CC[NH2+]CC1
REMARK SMILES IDX 9 1 8 2 7 3 5 4 6 5 4 7 69 8 73 9 70 10 72 11 71 12 3 15
REMARK SMILES IDX 2 16 1 17 10 18 11 19 12 20 13 21 14 23 15 24 16 25 68 26
REMARK SMILES IDX 17 27 67 28 18 29 19 30 20 31 61 32 21 33 66 34 60 35 62 36
REMARK SMILES IDX 22 37 65 38 59 39 58 40 23 42 49 43 32 44 48 45 33 46 36 47
REMARK SMILES IDX 47 48 63 49 34 50 35 51 46 53 64 54 37 55 24 56 25 57 30 58
REMARK SMILES IDX 26 59 27 60 29 61 31 62 28 63 50 64 51 65 56 66 52 67 53 68
REMARK SMILES IDX 55 69 57 70 54 71 38 72 39 73 44 74 40 75 41 76 43 77 45 78
REMARK SMILES IDX 42 79
REMARK H PARENT 7 6 71 13 71 14 12 22 62 41 36 52
REMARK Flexibility Score: inf
ROOT
ATOM      1  C   UNL A   1      36.739  20.657  24.616  1.00  0.00     0.023 C 
ENDROOT
BRANCH   1   2
ATOM      2  C   UNL A   1      36.675  21.834  25.586  1.00  0.00     0.116 C 
BRANCH   2   3
ATOM      3  N   UNL A   1      35.689  21.625  26.630  1.00  0.00    -0.356 N 
ATOM      4  C   UNL A   1      34.397  22.037  26.754  1.00  0.00     0.227 C 
ATOM      5  O   UNL A   1      33.754  21.446  27.627  1.00  0.00    -0.274 OA
ATOM      6  H   UNL A   1      36.014  21.087  27.387  1.00  0.00     0.163 HD
BRANCH   4   7
ATOM      7  C   UNL A   1      33.750  23.054  25.783  1.00  0.00     0.071 C 
ATOM      8  C   UNL A   1      32.319  23.480  26.197  1.00  0.00     0.079 C 
ATOM      9  C   UNL A   1      34.747  24.251  25.751  1.00  0.00     0.079 C 
ATOM     10  C   UNL A   1      31.900  24.842  25.638  1.00  0.00     0.261 C 
ATOM     11  C   UNL A   1      34.156  25.524  25.172  1.00  0.00     0.261 C 
ATOM     12  N   UNL A   1      32.921  25.860  25.872  1.00  0.00    -0.346 N 
ATOM     13  H   UNL A   1      33.109  25.923  26.871  1.00  0.00     0.346 HD
ATOM     14  H   UNL A   1      32.578  26.754  25.519  1.00  0.00     0.346 HD
BRANCH   7  15
ATOM     15  C   UNL A   1      33.628  22.500  24.334  1.00  0.00     0.106 C 
BRANCH  15  16
ATOM     16  C   UNL A   1      33.037  21.105  24.209  1.00  0.00    -0.106 C 
ATOM     17  C   UNL A   1      32.530  19.910  24.101  1.00  0.00     0.004 C 
ENDBRANCH  15  16
ENDBRANCH   7  15
ENDBRANCH   4   7
ENDBRANCH   2   3
ENDBRANCH   1   2
BRANCH   1  18
ATOM     18  C   UNL A   1      37.753  19.580  24.994  1.00  0.00     0.023 C 
BRANCH  18  19
ATOM     19  C   UNL A   1      39.030  20.099  25.640  1.00  0.00     0.116 C 
BRANCH  19  20
ATOM     20  N   UNL A   1      40.059  19.078  25.761  1.00  0.00    -0.352 N 
ATOM     21  C   UNL A   1      41.393  19.226  26.043  1.00  0.00     0.251 C 
ATOM     22  H   UNL A   1      39.756  18.151  25.621  1.00  0.00     0.163 HD
ATOM     23  O   UNL A   1      42.154  18.266  25.972  1.00  0.00    -0.269 OA
BRANCH  21  24
ATOM     24  C   UNL A   1      41.912  20.560  26.400  1.00  0.00     0.039 A 
ATOM     25  C   UNL A   1      42.276  21.438  25.377  1.00  0.00     0.014 A 
ATOM     26  C   UNL A   1      42.010  20.952  27.738  1.00  0.00     0.014 A 
ATOM     27  C   UNL A   1      42.685  22.732  25.696  1.00  0.00     0.010 A 
ATOM     28  C   UNL A   1      42.332  22.267  28.049  1.00  0.00     0.010 A 
ATOM     29  C   UNL A   1      42.685  23.168  27.033  1.00  0.00    -0.014 A 
BRANCH  29  30
ATOM     30  C   UNL A   1      43.068  24.556  27.384  1.00  0.00     0.031 A 
ATOM     31  C   UNL A   1      44.509  24.980  27.313  1.00  0.00     0.074 A 
ATOM     32  C   UNL A   1      42.129  25.420  27.818  1.00  0.00     0.049 A 
ATOM     33  N   UNL A   1      45.049  26.132  27.619  1.00  0.00    -0.248 NA
ATOM     34  C   UNL A   1      45.477  23.964  26.866  1.00  0.00     0.031 C 
ATOM     35  C   UNL A   1      40.706  25.113  27.980  1.00  0.00     0.029 A 
ATOM     36  N   UNL A   1      42.232  26.732  28.204  1.00  0.00    -0.354 N 
ATOM     37  C   UNL A   1      46.414  25.975  27.413  1.00  0.00     0.074 A 
ATOM     38  C   UNL A   1      46.628  24.600  27.018  1.00  0.00     0.031 C 
ATOM     39  C   UNL A   1      40.066  26.215  28.405  1.00  0.00     0.029 A 
ATOM     40  C   UNL A   1      41.036  27.291  28.580  1.00  0.00     0.049 A 
ATOM     41  H   UNL A   1      43.084  27.226  28.212  1.00  0.00     0.167 HD
ATOM     42  C   UNL A   1      47.398  26.900  27.515  1.00  0.00     0.037 A 
ATOM     43  C   UNL A   1      40.753  28.533  29.018  1.00  0.00     0.037 A 
ATOM     44  C   UNL A   1      47.178  28.272  27.888  1.00  0.00     0.049 A 
ATOM     45  C   UNL A   1      41.864  29.541  29.128  1.00  0.00     0.074 A 
ATOM     46  C   UNL A   1      48.099  29.301  27.971  1.00  0.00     0.029 A 
ATOM     47  N   UNL A   1      45.948  28.805  28.245  1.00  0.00    -0.354 N 
ATOM     48  N   UNL A   1      43.140  29.399  28.861  1.00  0.00    -0.248 NA
ATOM     49  C   UNL A   1      41.494  30.885  29.589  1.00  0.00     0.031 C 
ATOM     50  C   UNL A   1      47.435  30.446  28.422  1.00  0.00     0.029 A 
ATOM     51  C   UNL A   1      46.091  30.145  28.567  1.00  0.00     0.049 A 
ATOM     52  H   UNL A   1      45.100  28.306  28.265  1.00  0.00     0.167 HD
ATOM     53  C   UNL A   1      43.717  30.642  29.090  1.00  0.00     0.074 A 
ATOM     54  C   UNL A   1      42.649  31.528  29.502  1.00  0.00     0.031 C 
ATOM     55  C   UNL A   1      45.015  31.016  28.967  1.00  0.00     0.037 A 
BRANCH  42  56
ATOM     56  C   UNL A   1      48.800  26.453  27.216  1.00  0.00     0.057 A 
ATOM     57  C   UNL A   1      49.654  25.974  28.218  1.00  0.00     0.134 A 
ATOM     58  C   UNL A   1      49.294  26.476  25.905  1.00  0.00     0.134 A 
ATOM     59  F   UNL A   1      49.250  25.938  29.497  1.00  0.00    -0.206 F 
ATOM     60  C   UNL A   1      50.959  25.563  27.934  1.00  0.00     0.040 A 
ATOM     61  C   UNL A   1      50.585  26.039  25.604  1.00  0.00     0.040 A 
ATOM     62  F   UNL A   1      48.529  26.917  24.896  1.00  0.00    -0.206 F 
ATOM     63  C   UNL A   1      51.424  25.589  26.621  1.00  0.00     0.006 A 
ENDBRANCH  42  56
BRANCH  43  64
ATOM     64  C   UNL A   1      39.356  28.904  29.359  1.00  0.00     0.057 A 
ATOM     65  C   UNL A   1      38.848  28.699  30.647  1.00  0.00     0.134 A 
ATOM     66  C   UNL A   1      38.493  29.460  28.408  1.00  0.00     0.134 A 
ATOM     67  F   UNL A   1      39.621  28.154  31.599  1.00  0.00    -0.206 F 
ATOM     68  C   UNL A   1      37.527  29.009  30.972  1.00  0.00     0.040 A 
ATOM     69  C   UNL A   1      37.177  29.801  28.725  1.00  0.00     0.040 A 
ATOM     70  F   UNL A   1      38.920  29.692  27.158  1.00  0.00    -0.206 F 
ATOM     71  C   UNL A   1      36.688  29.566  30.008  1.00  0.00     0.006 A 
ENDBRANCH  43  64
BRANCH  55  72
ATOM     72  C   UNL A   1      45.341  32.457  29.235  1.00  0.00     0.057 A 
ATOM     73  C   UNL A   1      45.723  32.910  30.504  1.00  0.00     0.134 A 
ATOM     74  C   UNL A   1      45.303  33.398  28.197  1.00  0.00     0.134 A 
ATOM     75  F   UNL A   1      45.769  32.063  31.543  1.00  0.00    -0.206 F 
ATOM     76  C   UNL A   1      46.023  34.253  30.739  1.00  0.00     0.040 A 
ATOM     77  C   UNL A   1      45.632  34.737  28.413  1.00  0.00     0.040 A 
ATOM     78  F   UNL A   1      44.956  33.030  26.955  1.00  0.00    -0.206 F 
ATOM     79  C   UNL A   1      45.986  35.169  29.689  1.00  0.00     0.006 A 
ENDBRANCH  55  72
ENDBRANCH  29  30
ENDBRANCH  21  24
ENDBRANCH  19  20
ENDBRANCH  18  19
ENDBRANCH   1  18
TORSDOF 13
ENDMDL
MODEL 3
REMARK VINA RESULT:      -9.9      4.695      9.499
REMARK SMILES C#CCC1(C(=O)NCCCCNC(=O)c2ccc(-c3c4nc(c(-c5c(F)cccc5F)c5ccc([nH]5)c(-c5c(F)cccc5F)c5nc(c(-c6c(F)cccc6F)c6ccc3[nH]6)C=C5)C=C4)cc2)CC[NH2+]CC1
REMARK SMILES IDX 9 1 8 2 7 3 5 4 6 5 4 7 69 8 73 9 70 10 72 11 71 12 3 15
REMARK SMILES IDX 2 16 1 17 10 18 11 19 12 20 13 21 14 23 15 24 16 25 68 26
REMARK SMILES IDX 17 27 67 28 18 29 19 30 20 31 61 32 21 33 66 34 60 35 62 36
REMARK SMILES IDX 22 37 65 38 59 39 58 40 23 42 49 43 32 44 48 45 33 46 36 47
REMARK SMILES IDX 47 48 63 49 34 50 35 51 46 53 64 54 37 55 24 56 25 57 30 58
REMARK SMILES IDX 26 59 27 60 29 61 31 62 28 63 50 64 51 65 56 66 52 67 53 68
REMARK SMILES IDX 55 69 57 70 54 71 38 72 39 73 44 74 40 75 41 76 43 77 45 78
REMARK SMILES IDX 42 79
REMARK H PARENT 7 6 71 13 71 14 12 22 62 41 36 52
REMARK Flexibility Score: inf
ROOT
ATOM      1  C   UNL A   1      31.403  30.494  26.415  1.00  0.00     0.023 C 
ENDROOT
BRANCH   1   2
ATOM      2  C   UNL A   1      31.220  29.944  25.004  1.00  0.00     0.116 C 
BRANCH   2   3
ATOM      3  N   UNL A   1      32.492  29.703  24.346  1.00  0.00    -0.356 N 
ATOM      4  C   UNL A   1      33.248  28.578  24.217  1.00  0.00     0.227 C 
ATOM      5  O   UNL A   1      34.129  28.651  23.354  1.00  0.00    -0.274 OA
ATOM      6  H   UNL A   1      32.878  30.499  23.915  1.00  0.00     0.163 HD
BRANCH   4   7
ATOM      7  C   UNL A   1      32.932  27.270  24.982  1.00  0.00     0.071 C 
ATOM      8  C   UNL A   1      31.446  26.842  24.887  1.00  0.00     0.079 C 
ATOM      9  C   UNL A   1      33.900  26.215  24.366  1.00  0.00     0.079 C 
ATOM     10  C   UNL A   1      31.226  25.343  25.108  1.00  0.00     0.261 C 
ATOM     11  C   UNL A   1      33.521  24.779  24.681  1.00  0.00     0.261 C 
ATOM     12  N   UNL A   1      32.135  24.537  24.297  1.00  0.00    -0.346 N 
ATOM     13  H   UNL A   1      32.012  24.779  23.315  1.00  0.00     0.346 HD
ATOM     14  H   UNL A   1      31.921  23.551  24.449  1.00  0.00     0.346 HD
BRANCH   7  15
ATOM     15  C   UNL A   1      33.250  27.375  26.501  1.00  0.00     0.106 C 
BRANCH  15  16
ATOM     16  C   UNL A   1      34.173  28.514  26.904  1.00  0.00    -0.106 C 
ATOM     17  C   UNL A   1      34.964  29.490  27.249  1.00  0.00     0.004 C 
ENDBRANCH  15  16
ENDBRANCH   7  15
ENDBRANCH   4   7
ENDBRANCH   2   3
ENDBRANCH   1   2
BRANCH   1  18
ATOM     18  C   UNL A   1      31.456  32.018  26.500  1.00  0.00     0.023 C 
BRANCH  18  19
ATOM     19  C   UNL A   1      32.690  32.579  27.193  1.00  0.00     0.116 C 
BRANCH  19  20
ATOM     20  N   UNL A   1      32.519  33.957  27.626  1.00  0.00    -0.352 N 
ATOM     21  C   UNL A   1      33.201  34.649  28.594  1.00  0.00     0.251 C 
ATOM     22  H   UNL A   1      31.815  34.464  27.159  1.00  0.00     0.163 HD
ATOM     23  O   UNL A   1      32.836  35.770  28.932  1.00  0.00    -0.269 OA
BRANCH  21  24
ATOM     24  C   UNL A   1      34.360  34.016  29.253  1.00  0.00     0.039 A 
ATOM     25  C   UNL A   1      34.135  33.138  30.315  1.00  0.00     0.014 A 
ATOM     26  C   UNL A   1      35.659  34.267  28.804  1.00  0.00     0.014 A 
ATOM     27  C   UNL A   1      35.213  32.467  30.890  1.00  0.00     0.010 A 
ATOM     28  C   UNL A   1      36.720  33.530  29.318  1.00  0.00     0.010 A 
ATOM     29  C   UNL A   1      36.510  32.632  30.374  1.00  0.00    -0.014 A 
BRANCH  29  30
ATOM     30  C   UNL A   1      37.659  31.886  30.941  1.00  0.00     0.031 A 
ATOM     31  C   UNL A   1      38.153  32.204  32.325  1.00  0.00     0.074 A 
ATOM     32  C   UNL A   1      38.291  30.960  30.192  1.00  0.00     0.049 A 
ATOM     33  N   UNL A   1      39.166  31.695  32.979  1.00  0.00    -0.248 NA
ATOM     34  C   UNL A   1      37.431  33.254  33.061  1.00  0.00     0.031 C 
ATOM     35  C   UNL A   1      37.939  30.599  28.817  1.00  0.00     0.029 A 
ATOM     36  N   UNL A   1      39.364  30.157  30.482  1.00  0.00    -0.354 N 
ATOM     37  C   UNL A   1      39.208  32.369  34.193  1.00  0.00     0.074 A 
ATOM     38  C   UNL A   1      38.162  33.366  34.160  1.00  0.00     0.031 C 
ATOM     39  C   UNL A   1      38.763  29.626  28.395  1.00  0.00     0.029 A 
ATOM     40  C   UNL A   1      39.721  29.322  29.452  1.00  0.00     0.049 A 
ATOM     41  H   UNL A   1      39.834  30.178  31.347  1.00  0.00     0.167 HD
ATOM     42  C   UNL A   1      40.026  32.158  35.251  1.00  0.00     0.037 A 
ATOM     43  C   UNL A   1      40.712  28.414  29.370  1.00  0.00     0.037 A 
ATOM     44  C   UNL A   1      41.053  31.151  35.288  1.00  0.00     0.049 A 
ATOM     45  C   UNL A   1      41.611  28.201  30.558  1.00  0.00     0.074 A 
ATOM     46  C   UNL A   1      41.900  30.822  36.330  1.00  0.00     0.029 A 
ATOM     47  N   UNL A   1      41.374  30.312  34.230  1.00  0.00    -0.354 N 
ATOM     48  N   UNL A   1      41.594  28.797  31.725  1.00  0.00    -0.248 NA
ATOM     49  C   UNL A   1      42.660  27.183  30.419  1.00  0.00     0.031 C 
ATOM     50  C   UNL A   1      42.766  29.815  35.888  1.00  0.00     0.029 A 
ATOM     51  C   UNL A   1      42.419  29.479  34.590  1.00  0.00     0.049 A 
ATOM     52  H   UNL A   1      40.924  30.310  33.355  1.00  0.00     0.167 HD
ATOM     53  C   UNL A   1      42.604  28.202  32.471  1.00  0.00     0.074 A 
ATOM     54  C   UNL A   1      43.204  27.190  31.627  1.00  0.00     0.031 C 
ATOM     55  C   UNL A   1      42.999  28.469  33.740  1.00  0.00     0.037 A 
BRANCH  42  56
ATOM     56  C   UNL A   1      39.837  33.035  36.456  1.00  0.00     0.057 A 
ATOM     57  C   UNL A   1      38.921  32.716  37.467  1.00  0.00     0.134 A 
ATOM     58  C   UNL A   1      40.599  34.199  36.621  1.00  0.00     0.134 A 
ATOM     59  F   UNL A   1      38.148  31.623  37.365  1.00  0.00    -0.206 F 
ATOM     60  C   UNL A   1      38.746  33.537  38.583  1.00  0.00     0.040 A 
ATOM     61  C   UNL A   1      40.456  35.011  37.748  1.00  0.00     0.040 A 
ATOM     62  F   UNL A   1      41.499  34.561  35.696  1.00  0.00    -0.206 F 
ATOM     63  C   UNL A   1      39.522  34.686  38.728  1.00  0.00     0.006 A 
ENDBRANCH  42  56
BRANCH  43  64
ATOM     64  C   UNL A   1      40.893  27.616  28.131  1.00  0.00     0.057 A 
ATOM     65  C   UNL A   1      41.690  28.084  27.079  1.00  0.00     0.134 A 
ATOM     66  C   UNL A   1      40.266  26.376  27.960  1.00  0.00     0.134 A 
ATOM     67  F   UNL A   1      42.302  29.273  27.175  1.00  0.00    -0.206 F 
ATOM     68  C   UNL A   1      41.838  27.362  25.894  1.00  0.00     0.040 A 
ATOM     69  C   UNL A   1      40.428  25.629  26.792  1.00  0.00     0.040 A 
ATOM     70  F   UNL A   1      39.498  25.865  28.933  1.00  0.00    -0.206 F 
ATOM     71  C   UNL A   1      41.208  26.127  25.751  1.00  0.00     0.006 A 
ENDBRANCH  43  64
BRANCH  55  72
ATOM     72  C   UNL A   1      44.099  27.620  34.309  1.00  0.00     0.057 A 
ATOM     73  C   UNL A   1      43.846  26.388  34.927  1.00  0.00     0.134 A 
ATOM     74  C   UNL A   1      45.436  28.030  34.208  1.00  0.00     0.134 A 
ATOM     75  F   UNL A   1      42.589  25.943  35.066  1.00  0.00    -0.206 F 
ATOM     76  C   UNL A   1      44.880  25.611  35.451  1.00  0.00     0.040 A 
ATOM     77  C   UNL A   1      46.479  27.246  34.701  1.00  0.00     0.040 A 
ATOM     78  F   UNL A   1      45.749  29.194  33.619  1.00  0.00    -0.206 F 
ATOM     79  C   UNL A   1      46.202  26.036  35.332  1.00  0.00     0.006 A 
ENDBRANCH  55  72
ENDBRANCH  29  30
ENDBRANCH  21  24
ENDBRANCH  19  20
ENDBRANCH  18  19
ENDBRANCH   1  18
TORSDOF 13
ENDMDL
