MODEL 1
REMARK VINA RESULT:     -12.2      0.000      0.000
REMARK SMILES O=CN1CCN(S(=O)(=O)c2ccc(C(=O)NCCCCNC(=O)c3ccc(-c4c5nc(c(-c6c(F)cccc6F)c6ccc([nH]6)c(-c6c(F)cccc6F)c6nc(c(-c7c(F)cccc7F)c7ccc4[nH]7)C=C6)C=C5)cc3)cc2)CC1
REMARK SMILES IDX 18 1 17 2 16 3 14 4 15 5 13 7 10 8 11 9 79 10 12 11 78 12
REMARK SMILES IDX 7 13 8 14 9 15 6 16 1 17 2 18 3 19 4 20 81 21 5 22 80 23
REMARK SMILES IDX 19 24 20 25 21 26 22 27 23 29 24 30 25 31 77 32 26 33 76 34
REMARK SMILES IDX 27 35 28 36 29 37 70 38 30 39 75 40 69 41 71 42 31 43 74 44
REMARK SMILES IDX 68 45 67 46 32 48 58 49 41 50 57 51 42 52 45 53 56 54 72 55
REMARK SMILES IDX 43 56 44 57 55 59 73 60 46 61 33 62 34 63 39 64 35 65 36 66
REMARK SMILES IDX 38 67 40 68 37 69 59 70 60 71 65 72 61 73 62 74 64 75 66 76
REMARK SMILES IDX 63 77 47 78 48 79 53 80 49 81 50 82 52 83 54 84 51 85
REMARK H PARENT 16 6 21 28 71 47 45 58
REMARK Flexibility Score: inf
ROOT
ATOM      1  C   UNL A   1      37.049  21.061  24.824  1.00  0.00     0.023 C 
ENDROOT
BRANCH   1   2
ATOM      2  C   UNL A   1      35.580  20.674  25.001  1.00  0.00     0.116 C 
BRANCH   2   3
ATOM      3  N   UNL A   1      35.073  21.078  26.300  1.00  0.00    -0.352 N 
ATOM      4  C   UNL A   1      34.275  22.137  26.660  1.00  0.00     0.251 C 
ATOM      5  O   UNL A   1      33.850  22.194  27.811  1.00  0.00    -0.269 OA
ATOM      6  H   UNL A   1      35.346  20.496  27.045  1.00  0.00     0.163 HD
BRANCH   4   7
ATOM      7  C   UNL A   1      33.884  23.192  25.690  1.00  0.00     0.039 A 
ATOM      8  C   UNL A   1      33.045  25.136  23.858  1.00  0.00     0.082 A 
ATOM      9  C   UNL A   1      32.345  23.932  23.954  1.00  0.00     0.022 A 
ATOM     10  C   UNL A   1      34.119  25.398  24.714  1.00  0.00     0.022 A 
ATOM     11  C   UNL A   1      32.766  22.963  24.872  1.00  0.00     0.015 A 
ATOM     12  C   UNL A   1      34.530  24.431  25.629  1.00  0.00     0.015 A 
BRANCH   8  13
ATOM     13  S   UNL A   1      32.494  26.422  22.763  1.00  0.00     0.243 S 
ATOM     14  O   UNL A   1      31.393  25.882  21.989  1.00  0.00    -0.207 OA
ATOM     15  O   UNL A   1      33.652  26.973  22.100  1.00  0.00    -0.207 OA
BRANCH  13  16
ATOM     16  N   UNL A   1      31.875  27.631  23.797  1.00  0.00    -0.194 NA
ATOM     17  O   UNL A   1      27.014  28.903  23.126  1.00  0.00    -0.279 OA
ATOM     18  C   UNL A   1      28.091  29.265  22.670  1.00  0.00     0.340 C 
ATOM     19  N   UNL A   1      29.305  28.666  22.917  1.00  0.00    -0.343 N 
ATOM     20  C   UNL A   1      30.527  29.086  22.231  1.00  0.00     0.136 C 
ATOM     21  C   UNL A   1      29.364  27.424  23.684  1.00  0.00     0.136 C 
ATOM     22  C   UNL A   1      31.770  28.980  23.133  1.00  0.00     0.124 C 
ATOM     23  C   UNL A   1      30.617  27.353  24.561  1.00  0.00     0.124 C 
ENDBRANCH  13  16
ENDBRANCH   8  13
ENDBRANCH   4   7
ENDBRANCH   2   3
ENDBRANCH   1   2
BRANCH   1  24
ATOM     24  C   UNL A   1      38.043  19.909  24.987  1.00  0.00     0.023 C 
BRANCH  24  25
ATOM     25  C   UNL A   1      39.274  20.230  25.824  1.00  0.00     0.116 C 
BRANCH  25  26
ATOM     26  N   UNL A   1      40.236  19.140  25.879  1.00  0.00    -0.352 N 
ATOM     27  C   UNL A   1      41.588  19.203  26.115  1.00  0.00     0.251 C 
ATOM     28  H   UNL A   1      39.870  18.239  25.726  1.00  0.00     0.163 HD
ATOM     29  O   UNL A   1      42.280  18.194  26.032  1.00  0.00    -0.269 OA
BRANCH  27  30
ATOM     30  C   UNL A   1      42.211  20.507  26.427  1.00  0.00     0.039 A 
ATOM     31  C   UNL A   1      42.709  21.281  25.376  1.00  0.00     0.014 A 
ATOM     32  C   UNL A   1      42.279  20.971  27.743  1.00  0.00     0.014 A 
ATOM     33  C   UNL A   1      43.220  22.553  25.638  1.00  0.00     0.010 A 
ATOM     34  C   UNL A   1      42.728  22.263  27.995  1.00  0.00     0.010 A 
ATOM     35  C   UNL A   1      43.202  23.065  26.946  1.00  0.00    -0.014 A 
BRANCH  35  36
ATOM     36  C   UNL A   1      43.683  24.436  27.240  1.00  0.00     0.031 A 
ATOM     37  C   UNL A   1      42.710  25.499  27.659  1.00  0.00     0.074 A 
ATOM     38  C   UNL A   1      44.983  24.740  27.061  1.00  0.00     0.049 A 
ATOM     39  N   UNL A   1      42.920  26.771  27.886  1.00  0.00    -0.248 NA
ATOM     40  C   UNL A   1      41.306  25.084  27.817  1.00  0.00     0.031 C 
ATOM     41  C   UNL A   1      46.017  23.807  26.609  1.00  0.00     0.029 A 
ATOM     42  N   UNL A   1      45.653  25.925  27.227  1.00  0.00    -0.354 N 
ATOM     43  C   UNL A   1      41.678  27.309  28.193  1.00  0.00     0.074 A 
ATOM     44  C   UNL A   1      40.711  26.238  28.078  1.00  0.00     0.031 C 
ATOM     45  C   UNL A   1      47.194  24.451  26.553  1.00  0.00     0.029 A 
ATOM     46  C   UNL A   1      46.993  25.844  26.935  1.00  0.00     0.049 A 
ATOM     47  H   UNL A   1      45.215  26.755  27.526  1.00  0.00     0.167 HD
ATOM     48  C   UNL A   1      41.372  28.576  28.559  1.00  0.00     0.037 A 
ATOM     49  C   UNL A   1      47.949  26.791  26.972  1.00  0.00     0.037 A 
ATOM     50  C   UNL A   1      42.339  29.632  28.705  1.00  0.00     0.049 A 
ATOM     51  C   UNL A   1      47.588  28.187  27.397  1.00  0.00     0.074 A 
ATOM     52  C   UNL A   1      42.138  30.933  29.132  1.00  0.00     0.029 A 
ATOM     53  N   UNL A   1      43.691  29.504  28.430  1.00  0.00    -0.354 N 
ATOM     54  N   UNL A   1      46.420  28.668  27.745  1.00  0.00    -0.248 NA
ATOM     55  C   UNL A   1      48.681  29.169  27.440  1.00  0.00     0.031 C 
ATOM     56  C   UNL A   1      43.367  31.602  29.086  1.00  0.00     0.029 A 
ATOM     57  C   UNL A   1      44.337  30.707  28.664  1.00  0.00     0.049 A 
ATOM     58  H   UNL A   1      44.128  28.681  28.114  1.00  0.00     0.167 HD
ATOM     59  C   UNL A   1      46.639  29.999  28.073  1.00  0.00     0.074 A 
ATOM     60  C   UNL A   1      48.054  30.247  27.891  1.00  0.00     0.031 C 
ATOM     61  C   UNL A   1      45.748  30.932  28.486  1.00  0.00     0.037 A 
BRANCH  48  62
ATOM     62  C   UNL A   1      39.930  28.883  28.833  1.00  0.00     0.057 A 
ATOM     63  C   UNL A   1      39.396  28.812  30.127  1.00  0.00     0.134 A 
ATOM     64  C   UNL A   1      39.069  29.268  27.799  1.00  0.00     0.134 A 
ATOM     65  F   UNL A   1      40.164  28.436  31.160  1.00  0.00    -0.206 F 
ATOM     66  C   UNL A   1      38.050  29.087  30.377  1.00  0.00     0.040 A 
ATOM     67  C   UNL A   1      37.729  29.568  28.040  1.00  0.00     0.040 A 
ATOM     68  F   UNL A   1      39.518  29.358  26.538  1.00  0.00    -0.206 F 
ATOM     69  C   UNL A   1      37.213  29.472  29.331  1.00  0.00     0.006 A 
ENDBRANCH  48  62
BRANCH  49  70
ATOM     70  C   UNL A   1      49.349  26.443  26.628  1.00  0.00     0.057 A 
ATOM     71  C   UNL A   1      49.843  26.651  25.335  1.00  0.00     0.134 A 
ATOM     72  C   UNL A   1      50.224  25.900  27.576  1.00  0.00     0.134 A 
ATOM     73  F   UNL A   1      49.045  27.153  24.382  1.00  0.00    -0.206 F 
ATOM     74  C   UNL A   1      51.153  26.316  24.991  1.00  0.00     0.040 A 
ATOM     75  C   UNL A   1      51.543  25.579  27.251  1.00  0.00     0.040 A 
ATOM     76  F   UNL A   1      49.811  25.684  28.833  1.00  0.00    -0.206 F 
ATOM     77  C   UNL A   1      52.009  25.781  25.953  1.00  0.00     0.006 A 
ENDBRANCH  49  70
BRANCH  61  78
ATOM     78  C   UNL A   1      46.283  32.296  28.803  1.00  0.00     0.057 A 
ATOM     79  C   UNL A   1      46.425  33.278  27.815  1.00  0.00     0.134 A 
ATOM     80  C   UNL A   1      46.623  32.640  30.116  1.00  0.00     0.134 A 
ATOM     81  F   UNL A   1      46.128  33.004  26.536  1.00  0.00    -0.206 F 
ATOM     82  C   UNL A   1      46.902  34.553  28.122  1.00  0.00     0.040 A 
ATOM     83  C   UNL A   1      47.083  33.917  30.438  1.00  0.00     0.040 A 
ATOM     84  F   UNL A   1      46.505  31.745  31.108  1.00  0.00    -0.206 F 
ATOM     85  C   UNL A   1      47.227  34.877  29.438  1.00  0.00     0.006 A 
ENDBRANCH  61  78
ENDBRANCH  35  36
ENDBRANCH  27  30
ENDBRANCH  25  26
ENDBRANCH  24  25
ENDBRANCH   1  24
TORSDOF 13
ENDMDL
MODEL 2
REMARK VINA RESULT:     -12.2      1.702      6.355
REMARK SMILES O=CN1CCN(S(=O)(=O)c2ccc(C(=O)NCCCCNC(=O)c3ccc(-c4c5nc(c(-c6c(F)cccc6F)c6ccc([nH]6)c(-c6c(F)cccc6F)c6nc(c(-c7c(F)cccc7F)c7ccc4[nH]7)C=C6)C=C5)cc3)cc2)CC1
REMARK SMILES IDX 18 1 17 2 16 3 14 4 15 5 13 7 10 8 11 9 79 10 12 11 78 12
REMARK SMILES IDX 7 13 8 14 9 15 6 16 1 17 2 18 3 19 4 20 81 21 5 22 80 23
REMARK SMILES IDX 19 24 20 25 21 26 22 27 23 29 24 30 25 31 77 32 26 33 76 34
REMARK SMILES IDX 27 35 28 36 29 37 70 38 30 39 75 40 69 41 71 42 31 43 74 44
REMARK SMILES IDX 68 45 67 46 32 48 58 49 41 50 57 51 42 52 45 53 56 54 72 55
REMARK SMILES IDX 43 56 44 57 55 59 73 60 46 61 33 62 34 63 39 64 35 65 36 66
REMARK SMILES IDX 38 67 40 68 37 69 59 70 60 71 65 72 61 73 62 74 64 75 66 76
REMARK SMILES IDX 63 77 47 78 48 79 53 80 49 81 50 82 52 83 54 84 51 85
REMARK H PARENT 16 6 21 28 71 47 45 58
REMARK Flexibility Score: inf
ROOT
ATOM      1  C   UNL A   1      37.035  20.993  24.601  1.00  0.00     0.023 C 
ENDROOT
BRANCH   1   2
ATOM      2  C   UNL A   1      36.119  21.444  25.741  1.00  0.00     0.116 C 
BRANCH   2   3
ATOM      3  N   UNL A   1      34.852  20.737  25.721  1.00  0.00    -0.352 N 
ATOM      4  C   UNL A   1      33.657  21.060  25.126  1.00  0.00     0.251 C 
ATOM      5  O   UNL A   1      32.753  20.228  25.123  1.00  0.00    -0.269 OA
ATOM      6  H   UNL A   1      34.849  19.886  26.216  1.00  0.00     0.163 HD
BRANCH   4   7
ATOM      7  C   UNL A   1      33.438  22.369  24.458  1.00  0.00     0.039 A 
ATOM      8  C   UNL A   1      32.955  24.786  23.131  1.00  0.00     0.082 A 
ATOM      9  C   UNL A   1      32.650  23.580  22.497  1.00  0.00     0.022 A 
ATOM     10  C   UNL A   1      33.438  24.792  24.443  1.00  0.00     0.022 A 
ATOM     11  C   UNL A   1      32.892  22.372  23.164  1.00  0.00     0.015 A 
ATOM     12  C   UNL A   1      33.671  23.588  25.102  1.00  0.00     0.015 A 
BRANCH   8  13
ATOM     13  S   UNL A   1      32.589  26.339  22.349  1.00  0.00     0.243 S 
ATOM     14  O   UNL A   1      31.526  26.096  21.393  1.00  0.00    -0.207 OA
ATOM     15  O   UNL A   1      33.834  26.931  21.922  1.00  0.00    -0.207 OA
BRANCH  13  16
ATOM     16  N   UNL A   1      31.963  27.314  23.603  1.00  0.00    -0.194 NA
ATOM     17  O   UNL A   1      27.180  28.902  23.055  1.00  0.00    -0.279 OA
ATOM     18  C   UNL A   1      28.287  29.311  22.731  1.00  0.00     0.340 C 
ATOM     19  N   UNL A   1      29.469  28.622  22.882  1.00  0.00    -0.343 N 
ATOM     20  C   UNL A   1      30.733  29.133  22.352  1.00  0.00     0.136 C 
ATOM     21  C   UNL A   1      29.454  27.241  23.356  1.00  0.00     0.136 C 
ATOM     22  C   UNL A   1      31.931  28.779  23.252  1.00  0.00     0.124 C 
ATOM     23  C   UNL A   1      30.664  26.926  24.240  1.00  0.00     0.124 C 
ENDBRANCH  13  16
ENDBRANCH   8  13
ENDBRANCH   4   7
ENDBRANCH   2   3
ENDBRANCH   1   2
BRANCH   1  24
ATOM     24  C   UNL A   1      37.981  19.842  24.951  1.00  0.00     0.023 C 
BRANCH  24  25
ATOM     25  C   UNL A   1      39.141  20.213  25.866  1.00  0.00     0.116 C 
BRANCH  25  26
ATOM     26  N   UNL A   1      40.253  19.278  25.797  1.00  0.00    -0.352 N 
ATOM     27  C   UNL A   1      41.578  19.502  26.084  1.00  0.00     0.251 C 
ATOM     28  H   UNL A   1      40.027  18.365  25.507  1.00  0.00     0.163 HD
ATOM     29  O   UNL A   1      42.413  18.627  25.881  1.00  0.00    -0.269 OA
BRANCH  27  30
ATOM     30  C   UNL A   1      41.997  20.823  26.597  1.00  0.00     0.039 A 
ATOM     31  C   UNL A   1      42.406  21.798  25.684  1.00  0.00     0.014 A 
ATOM     32  C   UNL A   1      41.962  21.104  27.965  1.00  0.00     0.014 A 
ATOM     33  C   UNL A   1      42.720  23.080  26.139  1.00  0.00     0.010 A 
ATOM     34  C   UNL A   1      42.212  22.398  28.409  1.00  0.00     0.010 A 
ATOM     35  C   UNL A   1      42.594  23.397  27.501  1.00  0.00    -0.014 A 
BRANCH  35  36
ATOM     36  C   UNL A   1      42.862  24.767  27.999  1.00  0.00     0.031 A 
ATOM     37  C   UNL A   1      44.257  25.167  28.381  1.00  0.00     0.074 A 
ATOM     38  C   UNL A   1      41.839  25.626  28.172  1.00  0.00     0.049 A 
ATOM     39  N   UNL A   1      44.683  26.289  28.906  1.00  0.00    -0.248 NA
ATOM     40  C   UNL A   1      45.313  24.163  28.172  1.00  0.00     0.031 C 
ATOM     41  C   UNL A   1      40.433  25.338  27.885  1.00  0.00     0.029 A 
ATOM     42  N   UNL A   1      41.826  26.913  28.645  1.00  0.00    -0.354 N 
ATOM     43  C   UNL A   1      46.045  26.117  29.108  1.00  0.00     0.074 A 
ATOM     44  C   UNL A   1      46.369  24.769  28.692  1.00  0.00     0.031 C 
ATOM     45  C   UNL A   1      39.696  26.425  28.168  1.00  0.00     0.029 A 
ATOM     46  C   UNL A   1      40.571  27.472  28.684  1.00  0.00     0.049 A 
ATOM     47  H   UNL A   1      42.638  27.392  28.930  1.00  0.00     0.167 HD
ATOM     48  C   UNL A   1      46.950  27.009  29.576  1.00  0.00     0.037 A 
ATOM     49  C   UNL A   1      40.175  28.691  29.092  1.00  0.00     0.037 A 
ATOM     50  C   UNL A   1      46.632  28.360  29.957  1.00  0.00     0.049 A 
ATOM     51  C   UNL A   1      41.200  29.670  29.593  1.00  0.00     0.074 A 
ATOM     52  C   UNL A   1      47.488  29.360  30.383  1.00  0.00     0.029 A 
ATOM     53  N   UNL A   1      45.355  28.898  29.954  1.00  0.00    -0.354 N 
ATOM     54  N   UNL A   1      42.495  29.516  29.719  1.00  0.00    -0.248 NA
ATOM     55  C   UNL A   1      40.707  30.993  30.001  1.00  0.00     0.031 C 
ATOM     56  C   UNL A   1      46.722  30.497  30.667  1.00  0.00     0.029 A 
ATOM     57  C   UNL A   1      45.396  30.214  30.385  1.00  0.00     0.049 A 
ATOM     58  H   UNL A   1      44.539  28.417  29.686  1.00  0.00     0.167 HD
ATOM     59  C   UNL A   1      42.977  30.728  30.196  1.00  0.00     0.074 A 
ATOM     60  C   UNL A   1      41.835  31.610  30.327  1.00  0.00     0.031 C 
ATOM     61  C   UNL A   1      44.250  31.079  30.499  1.00  0.00     0.037 A 
BRANCH  48  62
ATOM     62  C   UNL A   1      48.372  26.548  29.693  1.00  0.00     0.057 A 
ATOM     63  C   UNL A   1      48.838  25.882  30.835  1.00  0.00     0.134 A 
ATOM     64  C   UNL A   1      49.282  26.756  28.650  1.00  0.00     0.134 A 
ATOM     65  F   UNL A   1      48.019  25.665  31.876  1.00  0.00    -0.206 F 
ATOM     66  C   UNL A   1      50.165  25.465  30.946  1.00  0.00     0.040 A 
ATOM     67  C   UNL A   1      50.605  26.322  28.739  1.00  0.00     0.040 A 
ATOM     68  F   UNL A   1      48.900  27.384  27.528  1.00  0.00    -0.206 F 
ATOM     69  C   UNL A   1      51.052  25.680  29.893  1.00  0.00     0.006 A 
ENDBRANCH  48  62
BRANCH  49  70
ATOM     70  C   UNL A   1      38.743  29.070  29.013  1.00  0.00     0.057 A 
ATOM     71  C   UNL A   1      38.192  29.544  27.817  1.00  0.00     0.134 A 
ATOM     72  C   UNL A   1      37.894  28.966  30.120  1.00  0.00     0.134 A 
ATOM     73  F   UNL A   1      38.961  29.680  26.727  1.00  0.00    -0.206 F 
ATOM     74  C   UNL A   1      36.851  29.918  27.728  1.00  0.00     0.040 A 
ATOM     75  C   UNL A   1      36.546  29.318  30.041  1.00  0.00     0.040 A 
ATOM     76  F   UNL A   1      38.362  28.512  31.292  1.00  0.00    -0.206 F 
ATOM     77  C   UNL A   1      36.022  29.801  28.843  1.00  0.00     0.006 A 
ENDBRANCH  49  70
BRANCH  61  78
ATOM     78  C   UNL A   1      44.479  32.483  30.968  1.00  0.00     0.057 A 
ATOM     79  C   UNL A   1      44.457  32.819  32.328  1.00  0.00     0.134 A 
ATOM     80  C   UNL A   1      44.764  33.503  30.052  1.00  0.00     0.134 A 
ATOM     81  F   UNL A   1      44.177  31.888  33.253  1.00  0.00    -0.206 F 
ATOM     82  C   UNL A   1      44.694  34.124  32.759  1.00  0.00     0.040 A 
ATOM     83  C   UNL A   1      45.022  34.808  30.472  1.00  0.00     0.040 A 
ATOM     84  F   UNL A   1      44.805  33.245  28.736  1.00  0.00    -0.206 F 
ATOM     85  C   UNL A   1      44.984  35.122  31.829  1.00  0.00     0.006 A 
ENDBRANCH  61  78
ENDBRANCH  35  36
ENDBRANCH  27  30
ENDBRANCH  25  26
ENDBRANCH  24  25
ENDBRANCH   1  24
TORSDOF 13
ENDMDL
MODEL 3
REMARK VINA RESULT:     -12.1      1.046      6.310
REMARK SMILES O=CN1CCN(S(=O)(=O)c2ccc(C(=O)NCCCCNC(=O)c3ccc(-c4c5nc(c(-c6c(F)cccc6F)c6ccc([nH]6)c(-c6c(F)cccc6F)c6nc(c(-c7c(F)cccc7F)c7ccc4[nH]7)C=C6)C=C5)cc3)cc2)CC1
REMARK SMILES IDX 18 1 17 2 16 3 14 4 15 5 13 7 10 8 11 9 79 10 12 11 78 12
REMARK SMILES IDX 7 13 8 14 9 15 6 16 1 17 2 18 3 19 4 20 81 21 5 22 80 23
REMARK SMILES IDX 19 24 20 25 21 26 22 27 23 29 24 30 25 31 77 32 26 33 76 34
REMARK SMILES IDX 27 35 28 36 29 37 70 38 30 39 75 40 69 41 71 42 31 43 74 44
REMARK SMILES IDX 68 45 67 46 32 48 58 49 41 50 57 51 42 52 45 53 56 54 72 55
REMARK SMILES IDX 43 56 44 57 55 59 73 60 46 61 33 62 34 63 39 64 35 65 36 66
REMARK SMILES IDX 38 67 40 68 37 69 59 70 60 71 65 72 61 73 62 74 64 75 66 76
REMARK SMILES IDX 63 77 47 78 48 79 53 80 49 81 50 82 52 83 54 84 51 85
REMARK H PARENT 16 6 21 28 71 47 45 58
REMARK Flexibility Score: inf
ROOT
ATOM      1  C   UNL A   1      37.069  20.692  24.557  1.00  0.00     0.023 C 
ENDROOT
BRANCH   1   2
ATOM      2  C   UNL A   1      36.914  21.824  25.574  1.00  0.00     0.116 C 
BRANCH   2   3
ATOM      3  N   UNL A   1      35.834  21.562  26.507  1.00  0.00    -0.352 N 
ATOM      4  C   UNL A   1      34.554  22.059  26.557  1.00  0.00     0.251 C 
ATOM      5  O   UNL A   1      33.762  21.575  27.362  1.00  0.00    -0.269 OA
ATOM      6  H   UNL A   1      36.056  20.922  27.222  1.00  0.00     0.163 HD
BRANCH   4   7
ATOM      7  C   UNL A   1      34.091  23.135  25.644  1.00  0.00     0.039 A 
ATOM      8  C   UNL A   1      33.145  25.094  23.881  1.00  0.00     0.082 A 
ATOM      9  C   UNL A   1      32.898  23.747  23.611  1.00  0.00     0.022 A 
ATOM     10  C   UNL A   1      33.804  25.469  25.056  1.00  0.00     0.022 A 
ATOM     11  C   UNL A   1      33.372  22.770  24.495  1.00  0.00     0.015 A 
ATOM     12  C   UNL A   1      34.268  24.492  25.934  1.00  0.00     0.015 A 
BRANCH   8  13
ATOM     13  S   UNL A   1      32.492  26.366  22.827  1.00  0.00     0.243 S 
ATOM     14  O   UNL A   1      31.422  25.770  22.051  1.00  0.00    -0.207 OA
ATOM     15  O   UNL A   1      33.601  27.013  22.166  1.00  0.00    -0.207 OA
BRANCH  13  16
ATOM     16  N   UNL A   1      31.803  27.502  23.900  1.00  0.00    -0.194 NA
ATOM     17  O   UNL A   1      26.960  28.743  23.068  1.00  0.00    -0.279 OA
ATOM     18  C   UNL A   1      28.051  29.147  22.687  1.00  0.00     0.340 C 
ATOM     19  N   UNL A   1      29.262  28.551  22.957  1.00  0.00    -0.343 N 
ATOM     20  C   UNL A   1      30.508  29.029  22.358  1.00  0.00     0.136 C 
ATOM     21  C   UNL A   1      29.304  27.267  23.652  1.00  0.00     0.136 C 
ATOM     22  C   UNL A   1      31.708  28.887  23.312  1.00  0.00     0.124 C 
ATOM     23  C   UNL A   1      30.515  27.161  24.583  1.00  0.00     0.124 C 
ENDBRANCH  13  16
ENDBRANCH   8  13
ENDBRANCH   4   7
ENDBRANCH   2   3
ENDBRANCH   1   2
BRANCH   1  24
ATOM     24  C   UNL A   1      38.048  19.588  24.964  1.00  0.00     0.023 C 
BRANCH  24  25
ATOM     25  C   UNL A   1      39.231  20.051  25.804  1.00  0.00     0.116 C 
BRANCH  25  26
ATOM     26  N   UNL A   1      40.294  19.063  25.898  1.00  0.00    -0.352 N 
ATOM     27  C   UNL A   1      41.616  19.257  26.219  1.00  0.00     0.251 C 
ATOM     28  H   UNL A   1      40.033  18.134  25.704  1.00  0.00     0.163 HD
ATOM     29  O   UNL A   1      42.412  18.325  26.160  1.00  0.00    -0.269 OA
BRANCH  27  30
ATOM     30  C   UNL A   1      42.082  20.608  26.595  1.00  0.00     0.039 A 
ATOM     31  C   UNL A   1      42.353  21.530  25.582  1.00  0.00     0.014 A 
ATOM     32  C   UNL A   1      42.225  20.968  27.938  1.00  0.00     0.014 A 
ATOM     33  C   UNL A   1      42.707  22.838  25.916  1.00  0.00     0.010 A 
ATOM     34  C   UNL A   1      42.515  22.288  28.270  1.00  0.00     0.010 A 
ATOM     35  C   UNL A   1      42.759  23.234  27.263  1.00  0.00    -0.014 A 
BRANCH  35  36
ATOM     36  C   UNL A   1      43.073  24.632  27.641  1.00  0.00     0.031 A 
ATOM     37  C   UNL A   1      44.502  25.080  27.744  1.00  0.00     0.074 A 
ATOM     38  C   UNL A   1      42.073  25.477  27.959  1.00  0.00     0.049 A 
ATOM     39  N   UNL A   1      44.982  26.234  28.132  1.00  0.00    -0.248 NA
ATOM     40  C   UNL A   1      45.531  24.088  27.392  1.00  0.00     0.031 C 
ATOM     41  C   UNL A   1      40.647  25.147  27.945  1.00  0.00     0.029 A 
ATOM     42  N   UNL A   1      42.108  26.785  28.368  1.00  0.00    -0.354 N 
ATOM     43  C   UNL A   1      46.362  26.101  28.089  1.00  0.00     0.074 A 
ATOM     44  C   UNL A   1      46.646  24.741  27.683  1.00  0.00     0.031 C 
ATOM     45  C   UNL A   1      39.942  26.231  28.309  1.00  0.00     0.029 A 
ATOM     46  C   UNL A   1      40.865  27.319  28.609  1.00  0.00     0.049 A 
ATOM     47  H   UNL A   1      42.944  27.295  28.478  1.00  0.00     0.167 HD
ATOM     48  C   UNL A   1      47.311  27.034  28.344  1.00  0.00     0.037 A 
ATOM     49  C   UNL A   1      40.513  28.550  29.027  1.00  0.00     0.037 A 
ATOM     50  C   UNL A   1      47.027  28.395  28.715  1.00  0.00     0.049 A 
ATOM     51  C   UNL A   1      41.583  29.573  29.288  1.00  0.00     0.074 A 
ATOM     52  C   UNL A   1      47.916  29.433  28.933  1.00  0.00     0.029 A 
ATOM     53  N   UNL A   1      45.755  28.906  28.921  1.00  0.00    -0.354 N 
ATOM     54  N   UNL A   1      42.884  29.452  29.183  1.00  0.00    -0.248 NA
ATOM     55  C   UNL A   1      41.134  30.904  29.719  1.00  0.00     0.031 C 
ATOM     56  C   UNL A   1      47.182  30.566  29.300  1.00  0.00     0.029 A 
ATOM     57  C   UNL A   1      45.835  30.242  29.277  1.00  0.00     0.049 A 
ATOM     58  H   UNL A   1      44.919  28.395  28.828  1.00  0.00     0.167 HD
ATOM     59  C   UNL A   1      43.408  30.696  29.509  1.00  0.00     0.074 A 
ATOM     60  C   UNL A   1      42.284  31.560  29.806  1.00  0.00     0.031 C 
ATOM     61  C   UNL A   1      44.705  31.088  29.559  1.00  0.00     0.037 A 
BRANCH  48  62
ATOM     62  C   UNL A   1      48.743  26.609  28.221  1.00  0.00     0.057 A 
ATOM     63  C   UNL A   1      49.437  26.703  27.006  1.00  0.00     0.134 A 
ATOM     64  C   UNL A   1      49.443  26.115  29.328  1.00  0.00     0.134 A 
ATOM     65  F   UNL A   1      48.819  27.154  25.904  1.00  0.00    -0.206 F 
ATOM     66  C   UNL A   1      50.767  26.295  26.892  1.00  0.00     0.040 A 
ATOM     67  C   UNL A   1      50.779  25.727  29.232  1.00  0.00     0.040 A 
ATOM     68  F   UNL A   1      48.838  26.002  30.520  1.00  0.00    -0.206 F 
ATOM     69  C   UNL A   1      51.443  25.810  28.009  1.00  0.00     0.006 A 
ENDBRANCH  48  62
BRANCH  49  70
ATOM     70  C   UNL A   1      39.081  28.894  29.193  1.00  0.00     0.057 A 
ATOM     71  C   UNL A   1      38.443  28.735  30.428  1.00  0.00     0.134 A 
ATOM     72  C   UNL A   1      38.317  29.389  28.130  1.00  0.00     0.134 A 
ATOM     73  F   UNL A   1      39.120  28.249  31.479  1.00  0.00    -0.206 F 
ATOM     74  C   UNL A   1      37.092  29.040  30.598  1.00  0.00     0.040 A 
ATOM     75  C   UNL A   1      36.971  29.718  28.290  1.00  0.00     0.040 A 
ATOM     76  F   UNL A   1      38.874  29.570  26.923  1.00  0.00    -0.206 F 
ATOM     77  C   UNL A   1      36.353  29.538  29.526  1.00  0.00     0.006 A 
ENDBRANCH  49  70
BRANCH  61  78
ATOM     78  C   UNL A   1      44.973  32.518  29.915  1.00  0.00     0.057 A 
ATOM     79  C   UNL A   1      45.000  33.526  28.943  1.00  0.00     0.134 A 
ATOM     80  C   UNL A   1      45.168  32.896  31.249  1.00  0.00     0.134 A 
ATOM     81  F   UNL A   1      44.834  33.225  27.647  1.00  0.00    -0.206 F 
ATOM     82  C   UNL A   1      45.228  34.860  29.285  1.00  0.00     0.040 A 
ATOM     83  C   UNL A   1      45.376  34.229  31.605  1.00  0.00     0.040 A 
ATOM     84  F   UNL A   1      45.148  31.978  32.227  1.00  0.00    -0.206 F 
ATOM     85  C   UNL A   1      45.411  35.215  30.621  1.00  0.00     0.006 A 
ENDBRANCH  61  78
ENDBRANCH  35  36
ENDBRANCH  27  30
ENDBRANCH  25  26
ENDBRANCH  24  25
ENDBRANCH   1  24
TORSDOF 13
ENDMDL
