MODEL 1
REMARK VINA RESULT:     -12.1      0.000      0.000
REMARK SMILES O=C1Nc2ccccc2/C1=C/c1cccc(C(=O)NCCCCNC(=O)c2ccc(-c3c4nc(c(-c5c(F)cccc5F)c5ccc([nH]5)c(-c5c(F)cccc5F)c5nc(c(-c6c(F)cccc6F)c6ccc3[nH]6)C=C5)C=C4)cc2)c1
REMARK SMILES IDX 22 1 21 2 20 3 19 4 17 5 18 6 16 8 12 9 13 10 81 11 14 12
REMARK SMILES IDX 15 13 11 14 1 15 2 16 3 17 10 18 4 19 9 21 5 22 8 23 6 24
REMARK SMILES IDX 7 25 23 26 24 27 25 28 26 30 27 31 28 32 80 33 29 34 79 35
REMARK SMILES IDX 30 36 31 37 32 38 73 39 33 40 78 41 72 42 74 43 34 44 77 45
REMARK SMILES IDX 71 46 70 47 35 49 61 50 44 51 60 52 45 53 48 54 59 55 75 56
REMARK SMILES IDX 46 57 47 58 58 60 76 61 49 62 36 63 37 64 42 65 38 66 39 67
REMARK SMILES IDX 41 68 43 69 40 70 62 71 63 72 68 73 64 74 65 75 67 76 69 77
REMARK SMILES IDX 66 78 50 79 51 80 56 81 52 82 53 83 55 84 57 85 54 86
REMARK H PARENT 19 7 3 20 24 29 74 48 48 59
REMARK Flexibility Score: inf
ROOT
ATOM      1  C   UNL A   1      32.607  28.797  26.501  1.00  0.00     0.023 C 
ENDROOT
BRANCH   1   2
ATOM      2  C   UNL A   1      32.504  29.611  25.208  1.00  0.00     0.023 C 
BRANCH   2   3
ATOM      3  C   UNL A   1      31.066  29.786  24.710  1.00  0.00     0.116 C 
BRANCH   3   4
ATOM      4  N   UNL A   1      30.860  29.039  23.485  1.00  0.00    -0.352 N 
ATOM      5  C   UNL A   1      30.996  27.713  23.153  1.00  0.00     0.251 C 
ATOM      6  O   UNL A   1      30.726  27.410  21.988  1.00  0.00    -0.269 OA
ATOM      7  H   UNL A   1      30.559  29.600  22.734  1.00  0.00     0.163 HD
BRANCH   5   8
ATOM      8  C   UNL A   1      31.401  26.635  24.104  1.00  0.00     0.040 A 
ATOM      9  C   UNL A   1      33.045  25.235  25.238  1.00  0.00    -0.024 A 
ATOM     10  C   UNL A   1      32.070  24.769  26.117  1.00  0.00     0.008 A 
ATOM     11  C   UNL A   1      32.678  26.085  24.185  1.00  0.00     0.022 A 
ATOM     12  C   UNL A   1      30.752  25.209  25.976  1.00  0.00     0.001 A 
ATOM     13  C   UNL A   1      30.430  26.157  24.998  1.00  0.00     0.014 A 
BRANCH   9  14
ATOM     14  C   UNL A   1      34.467  24.904  25.389  1.00  0.00     0.022 C 
ATOM     15  O   UNL A   1      33.142  22.492  23.954  1.00  0.00    -0.269 OA
ATOM     16  C   UNL A   1      34.280  22.555  24.367  1.00  0.00     0.256 C 
ATOM     17  N   UNL A   1      35.227  21.544  24.296  1.00  0.00    -0.321 N 
ATOM     18  C   UNL A   1      34.983  23.703  25.069  1.00  0.00     0.050 C 
ATOM     19  C   UNL A   1      36.424  21.924  24.890  1.00  0.00     0.049 A 
ATOM     20  H   UNL A   1      35.070  20.667  23.878  1.00  0.00     0.170 HD
ATOM     21  C   UNL A   1      36.339  23.233  25.379  1.00  0.00     0.011 A 
ATOM     22  C   UNL A   1      37.551  21.142  25.037  1.00  0.00     0.027 A 
ATOM     23  C   UNL A   1      37.401  23.787  26.070  1.00  0.00     0.011 A 
ATOM     24  C   UNL A   1      38.628  21.700  25.726  1.00  0.00     0.002 A 
ATOM     25  C   UNL A   1      38.552  23.008  26.243  1.00  0.00     0.001 A 
ENDBRANCH   9  14
ENDBRANCH   5   8
ENDBRANCH   3   4
ENDBRANCH   2   3
ENDBRANCH   1   2
BRANCH   1  26
ATOM     26  C   UNL A   1      33.854  29.079  27.333  1.00  0.00     0.116 C 
BRANCH  26  27
ATOM     27  N   UNL A   1      33.820  30.370  28.007  1.00  0.00    -0.352 N 
ATOM     28  C   UNL A   1      34.819  30.976  28.730  1.00  0.00     0.251 C 
ATOM     29  H   UNL A   1      32.975  30.870  27.936  1.00  0.00     0.163 HD
ATOM     30  O   UNL A   1      34.609  32.018  29.341  1.00  0.00    -0.269 OA
BRANCH  28  31
ATOM     31  C   UNL A   1      36.142  30.328  28.791  1.00  0.00     0.039 A 
ATOM     32  C   UNL A   1      37.004  30.450  27.701  1.00  0.00     0.014 A 
ATOM     33  C   UNL A   1      36.549  29.663  29.952  1.00  0.00     0.014 A 
ATOM     34  C   UNL A   1      38.307  29.960  27.803  1.00  0.00     0.010 A 
ATOM     35  C   UNL A   1      37.871  29.256  30.082  1.00  0.00     0.010 A 
ATOM     36  C   UNL A   1      38.763  29.397  29.007  1.00  0.00    -0.014 A 
BRANCH  36  37
ATOM     37  C   UNL A   1      40.171  28.954  29.160  1.00  0.00     0.031 A 
ATOM     38  C   UNL A   1      41.199  29.891  29.733  1.00  0.00     0.074 A 
ATOM     39  C   UNL A   1      40.535  27.729  28.733  1.00  0.00     0.049 A 
ATOM     40  N   UNL A   1      42.482  29.701  29.909  1.00  0.00    -0.248 NA
ATOM     41  C   UNL A   1      40.731  31.227  30.134  1.00  0.00     0.031 C 
ATOM     42  C   UNL A   1      39.642  26.750  28.108  1.00  0.00     0.029 A 
ATOM     43  N   UNL A   1      41.752  27.098  28.755  1.00  0.00    -0.354 N 
ATOM     44  C   UNL A   1      42.972  30.893  30.428  1.00  0.00     0.074 A 
ATOM     45  C   UNL A   1      41.863  31.819  30.481  1.00  0.00     0.031 C 
ATOM     46  C   UNL A   1      40.336  25.634  27.832  1.00  0.00     0.029 A 
ATOM     47  C   UNL A   1      41.728  25.832  28.221  1.00  0.00     0.049 A 
ATOM     48  H   UNL A   1      42.568  27.514  29.118  1.00  0.00     0.167 HD
ATOM     49  C   UNL A   1      44.227  31.180  30.848  1.00  0.00     0.037 A 
ATOM     50  C   UNL A   1      42.718  24.935  28.056  1.00  0.00     0.037 A 
ATOM     51  C   UNL A   1      45.321  30.247  30.811  1.00  0.00     0.049 A 
ATOM     52  C   UNL A   1      44.106  25.283  28.523  1.00  0.00     0.074 A 
ATOM     53  C   UNL A   1      46.614  30.420  31.272  1.00  0.00     0.029 A 
ATOM     54  N   UNL A   1      45.254  28.970  30.276  1.00  0.00    -0.354 N 
ATOM     55  N   UNL A   1      44.536  26.384  29.090  1.00  0.00    -0.248 NA
ATOM     56  C   UNL A   1      45.144  24.260  28.334  1.00  0.00     0.031 C 
ATOM     57  C   UNL A   1      47.345  29.270  30.962  1.00  0.00     0.029 A 
ATOM     58  C   UNL A   1      46.492  28.355  30.368  1.00  0.00     0.049 A 
ATOM     59  H   UNL A   1      44.447  28.561  29.889  1.00  0.00     0.167 HD
ATOM     60  C   UNL A   1      45.884  26.175  29.353  1.00  0.00     0.074 A 
ATOM     61  C   UNL A   1      46.195  24.835  28.900  1.00  0.00     0.031 C 
ATOM     62  C   UNL A   1      46.784  27.017  29.919  1.00  0.00     0.037 A 
BRANCH  49  63
ATOM     63  C   UNL A   1      44.482  32.560  31.383  1.00  0.00     0.057 A 
ATOM     64  C   UNL A   1      44.883  33.616  30.553  1.00  0.00     0.134 A 
ATOM     65  C   UNL A   1      44.280  32.847  32.740  1.00  0.00     0.134 A 
ATOM     66  F   UNL A   1      45.106  33.408  29.247  1.00  0.00    -0.206 F 
ATOM     67  C   UNL A   1      45.100  34.900  31.057  1.00  0.00     0.040 A 
ATOM     68  C   UNL A   1      44.464  34.133  33.249  1.00  0.00     0.040 A 
ATOM     69  F   UNL A   1      43.892  31.885  33.589  1.00  0.00    -0.206 F 
ATOM     70  C   UNL A   1      44.881  35.163  32.408  1.00  0.00     0.006 A 
ENDBRANCH  49  63
BRANCH  50  71
ATOM     71  C   UNL A   1      42.437  23.615  27.433  1.00  0.00     0.057 A 
ATOM     72  C   UNL A   1      42.081  22.506  28.210  1.00  0.00     0.134 A 
ATOM     73  C   UNL A   1      42.539  23.424  26.049  1.00  0.00     0.134 A 
ATOM     74  F   UNL A   1      41.983  22.618  29.543  1.00  0.00    -0.206 F 
ATOM     75  C   UNL A   1      41.865  21.250  27.639  1.00  0.00     0.040 A 
ATOM     76  C   UNL A   1      42.295  22.181  25.462  1.00  0.00     0.040 A 
ATOM     77  F   UNL A   1      42.867  24.446  25.247  1.00  0.00    -0.206 F 
ATOM     78  C   UNL A   1      41.968  21.086  26.260  1.00  0.00     0.006 A 
ENDBRANCH  50  71
BRANCH  62  79
ATOM     79  C   UNL A   1      48.180  26.499  30.119  1.00  0.00     0.057 A 
ATOM     80  C   UNL A   1      49.173  26.639  29.141  1.00  0.00     0.134 A 
ATOM     81  C   UNL A   1      48.543  25.884  31.325  1.00  0.00     0.134 A 
ATOM     82  F   UNL A   1      48.889  27.208  27.960  1.00  0.00    -0.206 F 
ATOM     83  C   UNL A   1      50.469  26.159  29.343  1.00  0.00     0.040 A 
ATOM     84  C   UNL A   1      49.843  25.431  31.552  1.00  0.00     0.040 A 
ATOM     85  F   UNL A   1      47.645  25.728  32.308  1.00  0.00    -0.206 F 
ATOM     86  C   UNL A   1      50.808  25.559  30.555  1.00  0.00     0.006 A 
ENDBRANCH  62  79
ENDBRANCH  36  37
ENDBRANCH  28  31
ENDBRANCH  26  27
ENDBRANCH   1  26
TORSDOF 12
ENDMDL
MODEL 2
REMARK VINA RESULT:     -12.1      2.216      7.631
REMARK SMILES O=C1Nc2ccccc2/C1=C/c1cccc(C(=O)NCCCCNC(=O)c2ccc(-c3c4nc(c(-c5c(F)cccc5F)c5ccc([nH]5)c(-c5c(F)cccc5F)c5nc(c(-c6c(F)cccc6F)c6ccc3[nH]6)C=C5)C=C4)cc2)c1
REMARK SMILES IDX 22 1 21 2 20 3 19 4 17 5 18 6 16 8 12 9 13 10 81 11 14 12
REMARK SMILES IDX 15 13 11 14 1 15 2 16 3 17 10 18 4 19 9 21 5 22 8 23 6 24
REMARK SMILES IDX 7 25 23 26 24 27 25 28 26 30 27 31 28 32 80 33 29 34 79 35
REMARK SMILES IDX 30 36 31 37 32 38 73 39 33 40 78 41 72 42 74 43 34 44 77 45
REMARK SMILES IDX 71 46 70 47 35 49 61 50 44 51 60 52 45 53 48 54 59 55 75 56
REMARK SMILES IDX 46 57 47 58 58 60 76 61 49 62 36 63 37 64 42 65 38 66 39 67
REMARK SMILES IDX 41 68 43 69 40 70 62 71 63 72 68 73 64 74 65 75 67 76 69 77
REMARK SMILES IDX 66 78 50 79 51 80 56 81 52 82 53 83 55 84 57 85 54 86
REMARK H PARENT 19 7 3 20 24 29 74 48 48 59
REMARK Flexibility Score: inf
ROOT
ATOM      1  C   UNL A   1      37.425  20.804  24.677  1.00  0.00     0.023 C 
ENDROOT
BRANCH   1   2
ATOM      2  C   UNL A   1      36.097  20.249  25.199  1.00  0.00     0.023 C 
BRANCH   2   3
ATOM      3  C   UNL A   1      35.730  18.886  24.607  1.00  0.00     0.116 C 
BRANCH   3   4
ATOM      4  N   UNL A   1      34.440  18.449  25.104  1.00  0.00    -0.352 N 
ATOM      5  C   UNL A   1      33.180  18.995  25.068  1.00  0.00     0.251 C 
ATOM      6  O   UNL A   1      32.282  18.336  25.599  1.00  0.00    -0.269 OA
ATOM      7  H   UNL A   1      34.475  17.578  25.562  1.00  0.00     0.163 HD
BRANCH   5   8
ATOM      8  C   UNL A   1      32.831  20.287  24.405  1.00  0.00     0.040 A 
ATOM      9  C   UNL A   1      32.867  22.719  24.218  1.00  0.00    -0.024 A 
ATOM     10  C   UNL A   1      32.340  22.646  22.931  1.00  0.00     0.008 A 
ATOM     11  C   UNL A   1      33.013  21.546  24.972  1.00  0.00     0.022 A 
ATOM     12  C   UNL A   1      32.029  21.398  22.386  1.00  0.00     0.001 A 
ATOM     13  C   UNL A   1      32.302  20.230  23.106  1.00  0.00     0.014 A 
BRANCH   9  14
ATOM     14  C   UNL A   1      33.319  23.980  24.817  1.00  0.00     0.022 C 
ATOM     15  O   UNL A   1      30.409  23.527  25.795  1.00  0.00    -0.269 OA
ATOM     16  C   UNL A   1      31.088  24.516  25.971  1.00  0.00     0.256 C 
ATOM     17  N   UNL A   1      30.691  25.665  26.638  1.00  0.00    -0.321 N 
ATOM     18  C   UNL A   1      32.511  24.793  25.522  1.00  0.00     0.050 C 
ATOM     19  C   UNL A   1      31.694  26.627  26.637  1.00  0.00     0.049 A 
ATOM     20  H   UNL A   1      29.810  25.784  27.059  1.00  0.00     0.170 HD
ATOM     21  C   UNL A   1      32.832  26.153  25.973  1.00  0.00     0.011 A 
ATOM     22  C   UNL A   1      31.612  27.898  27.166  1.00  0.00     0.027 A 
ATOM     23  C   UNL A   1      33.927  26.978  25.796  1.00  0.00     0.011 A 
ATOM     24  C   UNL A   1      32.718  28.731  26.998  1.00  0.00     0.002 A 
ATOM     25  C   UNL A   1      33.862  28.278  26.314  1.00  0.00     0.001 A 
ENDBRANCH   9  14
ENDBRANCH   5   8
ENDBRANCH   3   4
ENDBRANCH   2   3
ENDBRANCH   1   2
BRANCH   1  26
ATOM     26  C   UNL A   1      38.537  20.879  25.718  1.00  0.00     0.116 C 
BRANCH  26  27
ATOM     27  N   UNL A   1      39.456  19.750  25.665  1.00  0.00    -0.352 N 
ATOM     28  C   UNL A   1      40.789  19.724  26.000  1.00  0.00     0.251 C 
ATOM     29  H   UNL A   1      39.075  18.899  25.349  1.00  0.00     0.163 HD
ATOM     30  O   UNL A   1      41.469  18.725  25.797  1.00  0.00    -0.269 OA
BRANCH  28  31
ATOM     31  C   UNL A   1      41.397  20.938  26.576  1.00  0.00     0.039 A 
ATOM     32  C   UNL A   1      41.961  21.883  25.719  1.00  0.00     0.014 A 
ATOM     33  C   UNL A   1      41.345  21.167  27.955  1.00  0.00     0.014 A 
ATOM     34  C   UNL A   1      42.413  23.095  26.241  1.00  0.00     0.010 A 
ATOM     35  C   UNL A   1      41.715  22.408  28.458  1.00  0.00     0.010 A 
ATOM     36  C   UNL A   1      42.256  23.384  27.606  1.00  0.00    -0.014 A 
BRANCH  36  37
ATOM     37  C   UNL A   1      42.650  24.703  28.160  1.00  0.00     0.031 A 
ATOM     38  C   UNL A   1      41.611  25.769  28.382  1.00  0.00     0.074 A 
ATOM     39  C   UNL A   1      43.948  24.961  28.411  1.00  0.00     0.049 A 
ATOM     40  N   UNL A   1      41.765  26.993  28.820  1.00  0.00    -0.248 NA
ATOM     41  C   UNL A   1      40.221  25.425  28.041  1.00  0.00     0.031 C 
ATOM     42  C   UNL A   1      45.056  24.029  28.183  1.00  0.00     0.029 A 
ATOM     43  N   UNL A   1      44.559  26.084  28.909  1.00  0.00    -0.354 N 
ATOM     44  C   UNL A   1      40.499  27.564  28.795  1.00  0.00     0.074 A 
ATOM     45  C   UNL A   1      39.599  26.576  28.242  1.00  0.00     0.031 C 
ATOM     46  C   UNL A   1      46.204  24.609  28.566  1.00  0.00     0.029 A 
ATOM     47  C   UNL A   1      45.923  25.965  29.027  1.00  0.00     0.049 A 
ATOM     48  H   UNL A   1      44.066  26.899  29.157  1.00  0.00     0.167 HD
ATOM     49  C   UNL A   1      40.115  28.791  29.219  1.00  0.00     0.037 A 
ATOM     50  C   UNL A   1      46.843  26.852  29.450  1.00  0.00     0.037 A 
ATOM     51  C   UNL A   1      41.012  29.763  29.786  1.00  0.00     0.049 A 
ATOM     52  C   UNL A   1      46.392  28.212  29.907  1.00  0.00     0.074 A 
ATOM     53  C   UNL A   1      40.712  31.009  30.306  1.00  0.00     0.029 A 
ATOM     54  N   UNL A   1      42.384  29.601  29.902  1.00  0.00    -0.354 N 
ATOM     55  N   UNL A   1      45.178  28.708  29.956  1.00  0.00    -0.248 NA
ATOM     56  C   UNL A   1      47.436  29.134  30.374  1.00  0.00     0.031 C 
ATOM     57  C   UNL A   1      41.910  31.626  30.680  1.00  0.00     0.029 A 
ATOM     58  C   UNL A   1      42.948  30.737  30.456  1.00  0.00     0.049 A 
ATOM     59  H   UNL A   1      42.883  28.797  29.630  1.00  0.00     0.167 HD
ATOM     60  C   UNL A   1      45.311  29.985  30.489  1.00  0.00     0.074 A 
ATOM     61  C   UNL A   1      46.720  30.179  30.762  1.00  0.00     0.031 C 
ATOM     62  C   UNL A   1      44.353  30.913  30.729  1.00  0.00     0.037 A 
BRANCH  49  63
ATOM     63  C   UNL A   1      38.664  29.152  29.085  1.00  0.00     0.057 A 
ATOM     64  C   UNL A   1      37.776  29.071  30.166  1.00  0.00     0.134 A 
ATOM     65  C   UNL A   1      38.157  29.628  27.868  1.00  0.00     0.134 A 
ATOM     66  F   UNL A   1      38.192  28.612  31.356  1.00  0.00    -0.206 F 
ATOM     67  C   UNL A   1      36.432  29.426  30.036  1.00  0.00     0.040 A 
ATOM     68  C   UNL A   1      36.823  30.016  27.735  1.00  0.00     0.040 A 
ATOM     69  F   UNL A   1      38.952  29.735  26.794  1.00  0.00    -0.206 F 
ATOM     70  C   UNL A   1      35.955  29.909  28.819  1.00  0.00     0.006 A 
ENDBRANCH  49  63
BRANCH  50  71
ATOM     71  C   UNL A   1      48.283  26.483  29.475  1.00  0.00     0.057 A 
ATOM     72  C   UNL A   1      48.845  25.826  30.577  1.00  0.00     0.134 A 
ATOM     73  C   UNL A   1      49.136  26.796  28.409  1.00  0.00     0.134 A 
ATOM     74  F   UNL A   1      48.085  25.514  31.636  1.00  0.00    -0.206 F 
ATOM     75  C   UNL A   1      50.207  25.521  30.631  1.00  0.00     0.040 A 
ATOM     76  C   UNL A   1      50.493  26.469  28.438  1.00  0.00     0.040 A 
ATOM     77  F   UNL A   1      48.660  27.415  27.320  1.00  0.00    -0.206 F 
ATOM     78  C   UNL A   1      51.034  25.840  29.557  1.00  0.00     0.006 A 
ENDBRANCH  50  71
BRANCH  62  79
ATOM     79  C   UNL A   1      44.789  32.207  31.357  1.00  0.00     0.057 A 
ATOM     80  C   UNL A   1      45.149  33.322  30.590  1.00  0.00     0.134 A 
ATOM     81  C   UNL A   1      44.812  32.347  32.751  1.00  0.00     0.134 A 
ATOM     82  F   UNL A   1      45.160  33.251  29.250  1.00  0.00    -0.206 F 
ATOM     83  C   UNL A   1      45.546  34.520  31.186  1.00  0.00     0.040 A 
ATOM     84  C   UNL A   1      45.174  33.549  33.359  1.00  0.00     0.040 A 
ATOM     85  F   UNL A   1      44.467  31.323  33.545  1.00  0.00    -0.206 F 
ATOM     86  C   UNL A   1      45.551  34.638  32.576  1.00  0.00     0.006 A 
ENDBRANCH  62  79
ENDBRANCH  36  37
ENDBRANCH  28  31
ENDBRANCH  26  27
ENDBRANCH   1  26
TORSDOF 12
ENDMDL
MODEL 3
REMARK VINA RESULT:     -11.9      1.973      6.557
REMARK SMILES O=C1Nc2ccccc2/C1=C/c1cccc(C(=O)NCCCCNC(=O)c2ccc(-c3c4nc(c(-c5c(F)cccc5F)c5ccc([nH]5)c(-c5c(F)cccc5F)c5nc(c(-c6c(F)cccc6F)c6ccc3[nH]6)C=C5)C=C4)cc2)c1
REMARK SMILES IDX 22 1 21 2 20 3 19 4 17 5 18 6 16 8 12 9 13 10 81 11 14 12
REMARK SMILES IDX 15 13 11 14 1 15 2 16 3 17 10 18 4 19 9 21 5 22 8 23 6 24
REMARK SMILES IDX 7 25 23 26 24 27 25 28 26 30 27 31 28 32 80 33 29 34 79 35
REMARK SMILES IDX 30 36 31 37 32 38 73 39 33 40 78 41 72 42 74 43 34 44 77 45
REMARK SMILES IDX 71 46 70 47 35 49 61 50 44 51 60 52 45 53 48 54 59 55 75 56
REMARK SMILES IDX 46 57 47 58 58 60 76 61 49 62 36 63 37 64 42 65 38 66 39 67
REMARK SMILES IDX 41 68 43 69 40 70 62 71 63 72 68 73 64 74 65 75 67 76 69 77
REMARK SMILES IDX 66 78 50 79 51 80 56 81 52 82 53 83 55 84 57 85 54 86
REMARK H PARENT 19 7 3 20 24 29 74 48 48 59
REMARK Flexibility Score: inf
ROOT
ATOM      1  C   UNL A   1      33.593  29.172  27.026  1.00  0.00     0.023 C 
ENDROOT
BRANCH   1   2
ATOM      2  C   UNL A   1      33.027  30.398  26.304  1.00  0.00     0.023 C 
BRANCH   2   3
ATOM      3  C   UNL A   1      31.541  30.272  25.959  1.00  0.00     0.116 C 
BRANCH   3   4
ATOM      4  N   UNL A   1      31.375  29.847  24.583  1.00  0.00    -0.352 N 
ATOM      5  C   UNL A   1      31.469  28.630  23.952  1.00  0.00     0.251 C 
ATOM      6  O   UNL A   1      31.257  28.625  22.737  1.00  0.00    -0.269 OA
ATOM      7  H   UNL A   1      31.147  30.586  23.973  1.00  0.00     0.163 HD
BRANCH   5   8
ATOM      8  C   UNL A   1      31.765  27.337  24.638  1.00  0.00     0.040 A 
ATOM      9  C   UNL A   1      33.267  25.594  25.448  1.00  0.00    -0.024 A 
ATOM     10  C   UNL A   1      32.234  25.018  26.182  1.00  0.00     0.008 A 
ATOM     11  C   UNL A   1      32.996  26.686  24.611  1.00  0.00     0.022 A 
ATOM     12  C   UNL A   1      30.956  25.579  26.126  1.00  0.00     0.001 A 
ATOM     13  C   UNL A   1      30.734  26.746  25.385  1.00  0.00     0.014 A 
BRANCH   9  14
ATOM     14  C   UNL A   1      34.656  25.129  25.540  1.00  0.00     0.022 C 
ATOM     15  O   UNL A   1      33.117  23.002  23.886  1.00  0.00    -0.269 OA
ATOM     16  C   UNL A   1      34.259  22.924  24.284  1.00  0.00     0.256 C 
ATOM     17  N   UNL A   1      35.114  21.849  24.094  1.00  0.00    -0.321 N 
ATOM     18  C   UNL A   1      35.064  23.928  25.090  1.00  0.00     0.050 C 
ATOM     19  C   UNL A   1      36.345  22.062  24.704  1.00  0.00     0.049 A 
ATOM     20  H   UNL A   1      34.879  21.037  23.590  1.00  0.00     0.170 HD
ATOM     21  C   UNL A   1      36.377  23.315  25.327  1.00  0.00     0.011 A 
ATOM     22  C   UNL A   1      37.400  21.175  24.752  1.00  0.00     0.027 A 
ATOM     23  C   UNL A   1      37.487  23.701  26.054  1.00  0.00     0.011 A 
ATOM     24  C   UNL A   1      38.526  21.564  25.477  1.00  0.00     0.002 A 
ATOM     25  C   UNL A   1      38.568  22.812  26.127  1.00  0.00     0.001 A 
ENDBRANCH   9  14
ENDBRANCH   5   8
ENDBRANCH   3   4
ENDBRANCH   2   3
ENDBRANCH   1   2
BRANCH   1  26
ATOM     26  C   UNL A   1      35.011  29.346  27.559  1.00  0.00     0.116 C 
BRANCH  26  27
ATOM     27  N   UNL A   1      35.080  30.164  28.762  1.00  0.00    -0.352 N 
ATOM     28  C   UNL A   1      36.151  30.346  29.604  1.00  0.00     0.251 C 
ATOM     29  H   UNL A   1      34.257  30.648  29.001  1.00  0.00     0.163 HD
ATOM     30  O   UNL A   1      36.030  30.978  30.648  1.00  0.00    -0.269 OA
BRANCH  28  31
ATOM     31  C   UNL A   1      37.444  29.732  29.248  1.00  0.00     0.039 A 
ATOM     32  C   UNL A   1      37.891  29.816  27.930  1.00  0.00     0.014 A 
ATOM     33  C   UNL A   1      38.238  29.138  30.235  1.00  0.00     0.014 A 
ATOM     34  C   UNL A   1      39.172  29.362  27.613  1.00  0.00     0.010 A 
ATOM     35  C   UNL A   1      39.542  28.769  29.934  1.00  0.00     0.010 A 
ATOM     36  C   UNL A   1      40.022  28.874  28.619  1.00  0.00    -0.014 A 
BRANCH  36  37
ATOM     37  C   UNL A   1      41.418  28.471  28.314  1.00  0.00     0.031 A 
ATOM     38  C   UNL A   1      41.734  27.039  27.979  1.00  0.00     0.074 A 
ATOM     39  C   UNL A   1      42.407  29.383  28.390  1.00  0.00     0.049 A 
ATOM     40  N   UNL A   1      42.893  26.488  27.722  1.00  0.00    -0.248 NA
ATOM     41  C   UNL A   1      40.604  26.096  27.960  1.00  0.00     0.031 C 
ATOM     42  C   UNL A   1      42.235  30.790  28.761  1.00  0.00     0.029 A 
ATOM     43  N   UNL A   1      43.755  29.262  28.167  1.00  0.00    -0.354 N 
ATOM     44  C   UNL A   1      42.632  25.138  27.522  1.00  0.00     0.074 A 
ATOM     45  C   UNL A   1      41.218  24.941  27.749  1.00  0.00     0.031 C 
ATOM     46  C   UNL A   1      43.427  31.406  28.711  1.00  0.00     0.029 A 
ATOM     47  C   UNL A   1      44.451  30.433  28.347  1.00  0.00     0.049 A 
ATOM     48  H   UNL A   1      44.184  28.416  27.903  1.00  0.00     0.167 HD
ATOM     49  C   UNL A   1      43.490  24.156  27.157  1.00  0.00     0.037 A 
ATOM     50  C   UNL A   1      45.768  30.691  28.240  1.00  0.00     0.037 A 
ATOM     51  C   UNL A   1      44.893  24.362  26.914  1.00  0.00     0.049 A 
ATOM     52  C   UNL A   1      46.701  29.580  27.842  1.00  0.00     0.074 A 
ATOM     53  C   UNL A   1      45.833  23.446  26.477  1.00  0.00     0.029 A 
ATOM     54  N   UNL A   1      45.559  25.564  27.094  1.00  0.00    -0.354 N 
ATOM     55  N   UNL A   1      46.427  28.325  27.574  1.00  0.00    -0.248 NA
ATOM     56  C   UNL A   1      48.126  29.921  27.724  1.00  0.00     0.031 C 
ATOM     57  C   UNL A   1      47.079  24.079  26.451  1.00  0.00     0.029 A 
ATOM     58  C   UNL A   1      46.904  25.406  26.806  1.00  0.00     0.049 A 
ATOM     59  H   UNL A   1      45.138  26.406  27.383  1.00  0.00     0.167 HD
ATOM     60  C   UNL A   1      47.637  27.738  27.226  1.00  0.00     0.074 A 
ATOM     61  C   UNL A   1      48.642  28.777  27.299  1.00  0.00     0.031 C 
ATOM     62  C   UNL A   1      47.893  26.453  26.877  1.00  0.00     0.037 A 
BRANCH  49  63
ATOM     63  C   UNL A   1      42.934  22.770  26.999  1.00  0.00     0.057 A 
ATOM     64  C   UNL A   1      42.581  21.981  28.102  1.00  0.00     0.134 A 
ATOM     65  C   UNL A   1      42.706  22.235  25.724  1.00  0.00     0.134 A 
ATOM     66  F   UNL A   1      42.784  22.427  29.351  1.00  0.00    -0.206 F 
ATOM     67  C   UNL A   1      42.047  20.701  27.944  1.00  0.00     0.040 A 
ATOM     68  C   UNL A   1      42.144  20.969  25.553  1.00  0.00     0.040 A 
ATOM     69  F   UNL A   1      43.016  22.937  24.624  1.00  0.00    -0.206 F 
ATOM     70  C   UNL A   1      41.818  20.195  26.665  1.00  0.00     0.006 A 
ENDBRANCH  49  63
BRANCH  50  71
ATOM     71  C   UNL A   1      46.287  32.060  28.500  1.00  0.00     0.057 A 
ATOM     72  C   UNL A   1      46.678  32.456  29.785  1.00  0.00     0.134 A 
ATOM     73  C   UNL A   1      46.386  33.010  27.476  1.00  0.00     0.134 A 
ATOM     74  F   UNL A   1      46.591  31.599  30.812  1.00  0.00    -0.206 F 
ATOM     75  C   UNL A   1      47.118  33.756  30.048  1.00  0.00     0.040 A 
ATOM     76  C   UNL A   1      46.855  34.303  27.719  1.00  0.00     0.040 A 
ATOM     77  F   UNL A   1      46.038  32.692  26.221  1.00  0.00    -0.206 F 
ATOM     78  C   UNL A   1      47.212  34.682  29.012  1.00  0.00     0.006 A 
ENDBRANCH  50  71
BRANCH  62  79
ATOM     79  C   UNL A   1      49.307  26.108  26.507  1.00  0.00     0.057 A 
ATOM     80  C   UNL A   1      50.195  25.525  27.420  1.00  0.00     0.134 A 
ATOM     81  C   UNL A   1      49.774  26.331  25.204  1.00  0.00     0.134 A 
ATOM     82  F   UNL A   1      49.815  25.296  28.686  1.00  0.00    -0.206 F 
ATOM     83  C   UNL A   1      51.505  25.204  27.060  1.00  0.00     0.040 A 
ATOM     84  C   UNL A   1      51.071  25.983  24.823  1.00  0.00     0.040 A 
ATOM     85  F   UNL A   1      48.973  26.875  24.276  1.00  0.00    -0.206 F 
ATOM     86  C   UNL A   1      51.943  25.426  25.755  1.00  0.00     0.006 A 
ENDBRANCH  62  79
ENDBRANCH  36  37
ENDBRANCH  28  31
ENDBRANCH  26  27
ENDBRANCH   1  26
TORSDOF 12
ENDMDL
