MODEL 1
REMARK VINA RESULT:     -12.5      0.000      0.000
REMARK SMILES O=C(CCOc1cc(-c2ccncc2)nc(-c2ccc(C(F)(F)F)cc2)n1)NCCCCNC(=O)c1ccc(-c2c3nc(c(-c4c(F)cccc4F)c4ccc([nH]4)c(-c4c(F)cccc4F)c4nc(c(-c5c(F)cccc5F)c5ccc2[nH]5)C=C4)C=C3)cc1
REMARK SMILES IDX 29 1 28 2 1 3 2 4 3 6 4 7 5 8 6 9 7 10 27 11 8 12 16 13
REMARK SMILES IDX 15 14 9 15 10 16 14 17 11 18 13 19 12 20 17 21 18 22 26 23
REMARK SMILES IDX 19 24 25 25 20 26 21 27 22 28 23 29 24 30 30 31 31 32 32 33
REMARK SMILES IDX 33 34 34 35 35 37 36 38 37 39 89 40 38 41 88 42 39 43 40 44
REMARK SMILES IDX 41 45 82 46 42 47 87 48 81 49 83 50 43 51 86 52 80 53 79 54
REMARK SMILES IDX 44 56 70 57 53 58 69 59 54 60 57 61 68 62 84 63 55 64 56 65
REMARK SMILES IDX 67 67 85 68 58 69 45 70 46 71 51 72 47 73 48 74 50 75 52 76
REMARK SMILES IDX 49 77 71 78 72 79 77 80 73 81 74 82 76 83 78 84 75 85 59 86
REMARK SMILES IDX 60 87 65 88 61 89 62 90 64 91 66 92 63 93
REMARK H PARENT 28 5 33 36 83 55 57 66
REMARK Flexibility Score: inf
ROOT
ATOM      1  C   UNL A   1      33.731  22.927  25.889  1.00  0.00     0.116 C 
ENDROOT
BRANCH   1   2
ATOM      2  N   UNL A   1      32.426  23.404  25.497  1.00  0.00    -0.356 N 
ATOM      3  O   UNL A   1      31.553  23.353  27.625  1.00  0.00    -0.275 OA
ATOM      4  C   UNL A   1      31.439  23.634  26.434  1.00  0.00     0.223 C 
ATOM      5  H   UNL A   1      32.237  23.567  24.544  1.00  0.00     0.163 HD
BRANCH   4   6
ATOM      6  C   UNL A   1      30.263  24.425  25.920  1.00  0.00     0.141 C 
BRANCH   6   7
ATOM      7  C   UNL A   1      30.576  24.894  24.499  1.00  0.00     0.241 C 
BRANCH   7   8
ATOM      8  O   UNL A   1      29.627  25.885  24.096  1.00  0.00    -0.477 OA
BRANCH   8   9
ATOM      9  C   UNL A   1      30.138  27.140  23.882  1.00  0.00     0.217 A 
ATOM     10  C   UNL A   1      29.463  28.097  23.156  1.00  0.00     0.097 A 
ATOM     11  N   UNL A   1      31.186  27.428  24.662  1.00  0.00    -0.193 NA
ATOM     12  C   UNL A   1      29.892  29.405  23.288  1.00  0.00     0.078 A 
ATOM     13  C   UNL A   1      31.561  28.718  24.706  1.00  0.00     0.163 A 
ATOM     14  N   UNL A   1      30.950  29.724  24.052  1.00  0.00    -0.228 NA
BRANCH  12  15
ATOM     15  C   UNL A   1      29.166  30.541  22.689  1.00  0.00     0.003 A 
ATOM     16  C   UNL A   1      28.661  30.483  21.384  1.00  0.00     0.030 A 
ATOM     17  C   UNL A   1      28.929  31.718  23.398  1.00  0.00     0.030 A 
ATOM     18  C   UNL A   1      28.026  31.580  20.828  1.00  0.00     0.111 A 
ATOM     19  C   UNL A   1      28.273  32.768  22.768  1.00  0.00     0.111 A 
ATOM     20  N   UNL A   1      27.833  32.731  21.492  1.00  0.00    -0.265 NA
ENDBRANCH  12  15
BRANCH  13  21
ATOM     21  C   UNL A   1      32.569  29.071  25.711  1.00  0.00     0.019 A 
ATOM     22  C   UNL A   1      32.542  30.308  26.377  1.00  0.00     0.012 A 
ATOM     23  C   UNL A   1      33.644  28.207  25.976  1.00  0.00     0.012 A 
ATOM     24  C   UNL A   1      33.572  30.682  27.248  1.00  0.00     0.014 A 
ATOM     25  C   UNL A   1      34.691  28.590  26.819  1.00  0.00     0.014 A 
ATOM     26  C   UNL A   1      34.672  29.838  27.453  1.00  0.00     0.056 A 
BRANCH  26  27
ATOM     27  C   UNL A   1      35.804  30.262  28.353  1.00  0.00     0.416 C 
ATOM     28  F   UNL A   1      37.023  30.168  27.747  1.00  0.00    -0.166 F 
ATOM     29  F   UNL A   1      35.690  31.550  28.771  1.00  0.00    -0.166 F 
ATOM     30  F   UNL A   1      35.903  29.507  29.484  1.00  0.00    -0.166 F 
ENDBRANCH  26  27
ENDBRANCH  13  21
ENDBRANCH   8   9
ENDBRANCH   7   8
ENDBRANCH   6   7
ENDBRANCH   4   6
ENDBRANCH   1   2
BRANCH   1  31
ATOM     31  C   UNL A   1      34.390  21.859  24.993  1.00  0.00     0.023 C 
BRANCH  31  32
ATOM     32  C   UNL A   1      35.673  21.145  25.432  1.00  0.00     0.023 C 
BRANCH  32  33
ATOM     33  C   UNL A   1      37.063  21.603  24.971  1.00  0.00     0.116 C 
BRANCH  33  34
ATOM     34  N   UNL A   1      38.219  20.785  25.293  1.00  0.00    -0.352 N 
ATOM     35  C   UNL A   1      39.325  21.053  26.084  1.00  0.00     0.251 C 
ATOM     36  H   UNL A   1      38.217  19.890  24.881  1.00  0.00     0.163 HD
ATOM     37  O   UNL A   1      40.108  20.135  26.326  1.00  0.00    -0.269 OA
BRANCH  35  38
ATOM     38  C   UNL A   1      39.648  22.414  26.603  1.00  0.00     0.039 A 
ATOM     39  C   UNL A   1      40.607  22.522  27.626  1.00  0.00     0.014 A 
ATOM     40  C   UNL A   1      39.050  23.581  26.129  1.00  0.00     0.014 A 
ATOM     41  C   UNL A   1      41.068  23.778  28.046  1.00  0.00     0.010 A 
ATOM     42  C   UNL A   1      39.544  24.832  26.501  1.00  0.00     0.010 A 
ATOM     43  C   UNL A   1      40.592  24.940  27.424  1.00  0.00    -0.014 A 
BRANCH  43  44
ATOM     44  C   UNL A   1      41.268  26.254  27.577  1.00  0.00     0.031 A 
ATOM     45  C   UNL A   1      42.678  26.471  27.111  1.00  0.00     0.074 A 
ATOM     46  C   UNL A   1      40.650  27.196  28.318  1.00  0.00     0.049 A 
ATOM     47  N   UNL A   1      43.461  27.504  27.293  1.00  0.00    -0.248 NA
ATOM     48  C   UNL A   1      43.297  25.366  26.370  1.00  0.00     0.031 C 
ATOM     49  C   UNL A   1      39.313  27.063  28.902  1.00  0.00     0.029 A 
ATOM     50  N   UNL A   1      41.081  28.423  28.754  1.00  0.00    -0.354 N 
ATOM     51  C   UNL A   1      44.666  27.176  26.682  1.00  0.00     0.074 A 
ATOM     52  C   UNL A   1      44.526  25.826  26.176  1.00  0.00     0.031 C 
ATOM     53  C   UNL A   1      39.042  28.152  29.637  1.00  0.00     0.029 A 
ATOM     54  C   UNL A   1      40.191  29.048  29.595  1.00  0.00     0.049 A 
ATOM     55  H   UNL A   1      41.943  28.818  28.490  1.00  0.00     0.167 HD
ATOM     56  C   UNL A   1      45.779  27.941  26.546  1.00  0.00     0.037 A 
ATOM     57  C   UNL A   1      40.294  30.207  30.272  1.00  0.00     0.037 A 
ATOM     58  C   UNL A   1      45.912  29.273  27.080  1.00  0.00     0.049 A 
ATOM     59  C   UNL A   1      41.535  31.036  30.113  1.00  0.00     0.074 A 
ATOM     60  C   UNL A   1      46.968  30.158  26.947  1.00  0.00     0.029 A 
ATOM     61  N   UNL A   1      44.962  29.906  27.871  1.00  0.00    -0.354 N 
ATOM     62  N   UNL A   1      42.626  30.765  29.436  1.00  0.00    -0.248 NA
ATOM     63  C   UNL A   1      41.554  32.339  30.790  1.00  0.00     0.031 C 
ATOM     64  C   UNL A   1      46.679  31.304  27.699  1.00  0.00     0.029 A 
ATOM     65  C   UNL A   1      45.418  31.156  28.254  1.00  0.00     0.049 A 
ATOM     66  H   UNL A   1      44.091  29.521  28.122  1.00  0.00     0.167 HD
ATOM     67  C   UNL A   1      43.447  31.875  29.579  1.00  0.00     0.074 A 
ATOM     68  C   UNL A   1      42.721  32.826  30.398  1.00  0.00     0.031 C 
ATOM     69  C   UNL A   1      44.686  32.090  29.073  1.00  0.00     0.037 A 
BRANCH  56  70
ATOM     70  C   UNL A   1      46.936  27.357  25.782  1.00  0.00     0.057 A 
ATOM     71  C   UNL A   1      47.070  27.539  24.399  1.00  0.00     0.134 A 
ATOM     72  C   UNL A   1      47.952  26.649  26.436  1.00  0.00     0.134 A 
ATOM     73  F   UNL A   1      46.135  28.207  23.706  1.00  0.00    -0.206 F 
ATOM     74  C   UNL A   1      48.155  27.015  23.691  1.00  0.00     0.040 A 
ATOM     75  C   UNL A   1      49.056  26.144  25.744  1.00  0.00     0.040 A 
ATOM     76  F   UNL A   1      47.899  26.447  27.762  1.00  0.00    -0.206 F 
ATOM     77  C   UNL A   1      49.155  26.319  24.366  1.00  0.00     0.006 A 
ENDBRANCH  56  70
BRANCH  57  78
ATOM     78  C   UNL A   1      39.165  30.664  31.121  1.00  0.00     0.057 A 
ATOM     79  C   UNL A   1      38.271  31.636  30.661  1.00  0.00     0.134 A 
ATOM     80  C   UNL A   1      38.931  30.119  32.389  1.00  0.00     0.134 A 
ATOM     81  F   UNL A   1      38.451  32.203  29.458  1.00  0.00    -0.206 F 
ATOM     82  C   UNL A   1      37.191  32.063  31.436  1.00  0.00     0.040 A 
ATOM     83  C   UNL A   1      37.842  30.519  33.166  1.00  0.00     0.040 A 
ATOM     84  F   UNL A   1      39.743  29.171  32.881  1.00  0.00    -0.206 F 
ATOM     85  C   UNL A   1      36.971  31.498  32.691  1.00  0.00     0.006 A 
ENDBRANCH  57  78
BRANCH  69  86
ATOM     86  C   UNL A   1      45.320  33.418  29.366  1.00  0.00     0.057 A 
ATOM     87  C   UNL A   1      45.121  34.534  28.544  1.00  0.00     0.134 A 
ATOM     88  C   UNL A   1      46.121  33.587  30.504  1.00  0.00     0.134 A 
ATOM     89  F   UNL A   1      44.379  34.435  27.432  1.00  0.00    -0.206 F 
ATOM     90  C   UNL A   1      45.718  35.764  28.828  1.00  0.00     0.040 A 
ATOM     91  C   UNL A   1      46.699  34.819  30.813  1.00  0.00     0.040 A 
ATOM     92  F   UNL A   1      46.347  32.561  31.338  1.00  0.00    -0.206 F 
ATOM     93  C   UNL A   1      46.503  35.911  29.969  1.00  0.00     0.006 A 
ENDBRANCH  69  86
ENDBRANCH  43  44
ENDBRANCH  35  38
ENDBRANCH  33  34
ENDBRANCH  32  33
ENDBRANCH  31  32
ENDBRANCH   1  31
TORSDOF 17
ENDMDL
MODEL 2
REMARK VINA RESULT:     -12.0      0.755      5.955
REMARK SMILES O=C(CCOc1cc(-c2ccncc2)nc(-c2ccc(C(F)(F)F)cc2)n1)NCCCCNC(=O)c1ccc(-c2c3nc(c(-c4c(F)cccc4F)c4ccc([nH]4)c(-c4c(F)cccc4F)c4nc(c(-c5c(F)cccc5F)c5ccc2[nH]5)C=C4)C=C3)cc1
REMARK SMILES IDX 29 1 28 2 1 3 2 4 3 6 4 7 5 8 6 9 7 10 27 11 8 12 16 13
REMARK SMILES IDX 15 14 9 15 10 16 14 17 11 18 13 19 12 20 17 21 18 22 26 23
REMARK SMILES IDX 19 24 25 25 20 26 21 27 22 28 23 29 24 30 30 31 31 32 32 33
REMARK SMILES IDX 33 34 34 35 35 37 36 38 37 39 89 40 38 41 88 42 39 43 40 44
REMARK SMILES IDX 41 45 82 46 42 47 87 48 81 49 83 50 43 51 86 52 80 53 79 54
REMARK SMILES IDX 44 56 70 57 53 58 69 59 54 60 57 61 68 62 84 63 55 64 56 65
REMARK SMILES IDX 67 67 85 68 58 69 45 70 46 71 51 72 47 73 48 74 50 75 52 76
REMARK SMILES IDX 49 77 71 78 72 79 77 80 73 81 74 82 76 83 78 84 75 85 59 86
REMARK SMILES IDX 60 87 65 88 61 89 62 90 64 91 66 92 63 93
REMARK H PARENT 28 5 33 36 83 55 57 66
REMARK Flexibility Score: inf
ROOT
ATOM      1  C   UNL A   1      34.459  24.134  23.531  1.00  0.00     0.116 C 
ENDROOT
BRANCH   1   2
ATOM      2  N   UNL A   1      33.051  23.891  23.733  1.00  0.00    -0.356 N 
ATOM      3  O   UNL A   1      33.196  23.809  26.028  1.00  0.00    -0.275 OA
ATOM      4  C   UNL A   1      32.517  23.802  25.003  1.00  0.00     0.223 C 
ATOM      5  H   UNL A   1      32.460  23.788  22.952  1.00  0.00     0.163 HD
BRANCH   4   6
ATOM      6  C   UNL A   1      31.012  23.872  25.055  1.00  0.00     0.141 C 
BRANCH   6   7
ATOM      7  C   UNL A   1      30.528  24.768  23.914  1.00  0.00     0.241 C 
BRANCH   7   8
ATOM      8  O   UNL A   1      29.787  25.870  24.444  1.00  0.00    -0.477 OA
BRANCH   8   9
ATOM      9  C   UNL A   1      30.260  27.114  24.112  1.00  0.00     0.217 A 
ATOM     10  C   UNL A   1      29.517  28.013  23.379  1.00  0.00     0.097 A 
ATOM     11  N   UNL A   1      31.358  27.465  24.790  1.00  0.00    -0.193 NA
ATOM     12  C   UNL A   1      29.933  29.332  23.393  1.00  0.00     0.078 A 
ATOM     13  C   UNL A   1      31.714  28.759  24.722  1.00  0.00     0.163 A 
ATOM     14  N   UNL A   1      31.040  29.713  24.053  1.00  0.00    -0.228 NA
BRANCH  12  15
ATOM     15  C   UNL A   1      29.146  30.417  22.778  1.00  0.00     0.003 A 
ATOM     16  C   UNL A   1      28.723  30.353  21.445  1.00  0.00     0.030 A 
ATOM     17  C   UNL A   1      28.766  31.549  23.499  1.00  0.00     0.030 A 
ATOM     18  C   UNL A   1      28.027  31.407  20.877  1.00  0.00     0.111 A 
ATOM     19  C   UNL A   1      28.058  32.556  22.855  1.00  0.00     0.111 A 
ATOM     20  N   UNL A   1      27.696  32.518  21.555  1.00  0.00    -0.265 NA
ENDBRANCH  12  15
BRANCH  13  21
ATOM     21  C   UNL A   1      32.789  29.190  25.623  1.00  0.00     0.019 A 
ATOM     22  C   UNL A   1      33.899  28.371  25.888  1.00  0.00     0.012 A 
ATOM     23  C   UNL A   1      32.693  30.408  26.315  1.00  0.00     0.012 A 
ATOM     24  C   UNL A   1      34.859  28.740  26.837  1.00  0.00     0.014 A 
ATOM     25  C   UNL A   1      33.631  30.766  27.287  1.00  0.00     0.014 A 
ATOM     26  C   UNL A   1      34.717  29.928  27.567  1.00  0.00     0.056 A 
BRANCH  26  27
ATOM     27  C   UNL A   1      35.725  30.302  28.624  1.00  0.00     0.416 C 
ATOM     28  F   UNL A   1      36.966  30.537  28.108  1.00  0.00    -0.166 F 
ATOM     29  F   UNL A   1      35.382  31.426  29.305  1.00  0.00    -0.166 F 
ATOM     30  F   UNL A   1      35.903  29.331  29.564  1.00  0.00    -0.166 F 
ENDBRANCH  26  27
ENDBRANCH  13  21
ENDBRANCH   8   9
ENDBRANCH   7   8
ENDBRANCH   6   7
ENDBRANCH   4   6
ENDBRANCH   1   2
BRANCH   1  31
ATOM     31  C   UNL A   1      35.349  22.910  23.229  1.00  0.00     0.023 C 
BRANCH  31  32
ATOM     32  C   UNL A   1      35.822  21.984  24.356  1.00  0.00     0.023 C 
BRANCH  32  33
ATOM     33  C   UNL A   1      36.995  22.348  25.275  1.00  0.00     0.116 C 
BRANCH  33  34
ATOM     34  N   UNL A   1      38.116  21.430  25.385  1.00  0.00    -0.352 N 
ATOM     35  C   UNL A   1      39.288  21.519  26.119  1.00  0.00     0.251 C 
ATOM     36  H   UNL A   1      38.030  20.609  24.849  1.00  0.00     0.163 HD
ATOM     37  O   UNL A   1      40.027  20.535  26.164  1.00  0.00    -0.269 OA
BRANCH  35  38
ATOM     38  C   UNL A   1      39.732  22.768  26.804  1.00  0.00     0.039 A 
ATOM     39  C   UNL A   1      40.713  22.661  27.805  1.00  0.00     0.014 A 
ATOM     40  C   UNL A   1      39.224  24.032  26.506  1.00  0.00     0.014 A 
ATOM     41  C   UNL A   1      41.284  23.809  28.375  1.00  0.00     0.010 A 
ATOM     42  C   UNL A   1      39.826  25.178  27.025  1.00  0.00     0.010 A 
ATOM     43  C   UNL A   1      40.895  25.078  27.925  1.00  0.00    -0.014 A 
BRANCH  43  44
ATOM     44  C   UNL A   1      41.680  26.302  28.231  1.00  0.00     0.031 A 
ATOM     45  C   UNL A   1      41.059  27.481  28.919  1.00  0.00     0.074 A 
ATOM     46  C   UNL A   1      42.917  26.403  27.704  1.00  0.00     0.049 A 
ATOM     47  N   UNL A   1      41.557  28.673  29.134  1.00  0.00    -0.248 NA
ATOM     48  C   UNL A   1      39.683  27.306  29.400  1.00  0.00     0.031 C 
ATOM     49  C   UNL A   1      43.592  25.353  26.936  1.00  0.00     0.029 A 
ATOM     50  N   UNL A   1      43.804  27.449  27.684  1.00  0.00    -0.354 N 
ATOM     51  C   UNL A   1      40.558  29.389  29.783  1.00  0.00     0.074 A 
ATOM     52  C   UNL A   1      39.407  28.514  29.874  1.00  0.00     0.031 C 
ATOM     53  C   UNL A   1      44.774  25.815  26.502  1.00  0.00     0.029 A 
ATOM     54  C   UNL A   1      44.931  27.197  26.940  1.00  0.00     0.049 A 
ATOM     55  H   UNL A   1      43.648  28.298  28.159  1.00  0.00     0.167 HD
ATOM     56  C   UNL A   1      40.607  30.654  30.270  1.00  0.00     0.037 A 
ATOM     57  C   UNL A   1      45.971  27.994  26.629  1.00  0.00     0.037 A 
ATOM     58  C   UNL A   1      41.752  31.522  30.147  1.00  0.00     0.049 A 
ATOM     59  C   UNL A   1      46.004  29.393  27.172  1.00  0.00     0.074 A 
ATOM     60  C   UNL A   1      41.931  32.797  30.657  1.00  0.00     0.029 A 
ATOM     61  N   UNL A   1      42.908  31.209  29.444  1.00  0.00    -0.354 N 
ATOM     62  N   UNL A   1      45.100  30.022  27.885  1.00  0.00    -0.248 NA
ATOM     63  C   UNL A   1      47.207  30.185  26.890  1.00  0.00     0.031 C 
ATOM     64  C   UNL A   1      43.173  33.274  30.219  1.00  0.00     0.029 A 
ATOM     65  C   UNL A   1      43.792  32.275  29.484  1.00  0.00     0.049 A 
ATOM     66  H   UNL A   1      43.075  30.355  28.985  1.00  0.00     0.167 HD
ATOM     67  C   UNL A   1      45.637  31.271  28.163  1.00  0.00     0.074 A 
ATOM     68  C   UNL A   1      46.951  31.304  27.551  1.00  0.00     0.031 C 
ATOM     69  C   UNL A   1      45.095  32.295  28.867  1.00  0.00     0.037 A 
BRANCH  56  70
ATOM     70  C   UNL A   1      39.390  31.172  30.987  1.00  0.00     0.057 A 
ATOM     71  C   UNL A   1      39.099  30.797  32.306  1.00  0.00     0.134 A 
ATOM     72  C   UNL A   1      38.526  32.091  30.378  1.00  0.00     0.134 A 
ATOM     73  F   UNL A   1      39.884  29.920  32.953  1.00  0.00    -0.206 F 
ATOM     74  C   UNL A   1      37.981  31.292  32.981  1.00  0.00     0.040 A 
ATOM     75  C   UNL A   1      37.420  32.615  31.052  1.00  0.00     0.040 A 
ATOM     76  F   UNL A   1      38.748  32.507  29.122  1.00  0.00    -0.206 F 
ATOM     77  C   UNL A   1      37.140  32.209  32.355  1.00  0.00     0.006 A 
ENDBRANCH  56  70
BRANCH  57  78
ATOM     78  C   UNL A   1      47.081  27.463  25.799  1.00  0.00     0.057 A 
ATOM     79  C   UNL A   1      47.070  27.611  24.408  1.00  0.00     0.134 A 
ATOM     80  C   UNL A   1      48.191  26.830  26.373  1.00  0.00     0.134 A 
ATOM     81  F   UNL A   1      46.028  28.198  23.801  1.00  0.00    -0.206 F 
ATOM     82  C   UNL A   1      48.115  27.137  23.614  1.00  0.00     0.040 A 
ATOM     83  C   UNL A   1      49.254  26.373  25.593  1.00  0.00     0.040 A 
ATOM     84  F   UNL A   1      48.270  26.672  27.703  1.00  0.00    -0.206 F 
ATOM     85  C   UNL A   1      49.215  26.521  24.207  1.00  0.00     0.006 A 
ENDBRANCH  57  78
BRANCH  69  86
ATOM     86  C   UNL A   1      45.937  33.525  29.038  1.00  0.00     0.057 A 
ATOM     87  C   UNL A   1      45.870  34.600  28.143  1.00  0.00     0.134 A 
ATOM     88  C   UNL A   1      46.808  33.644  30.129  1.00  0.00     0.134 A 
ATOM     89  F   UNL A   1      45.068  34.543  27.070  1.00  0.00    -0.206 F 
ATOM     90  C   UNL A   1      46.660  35.740  28.313  1.00  0.00     0.040 A 
ATOM     91  C   UNL A   1      47.581  34.789  30.324  1.00  0.00     0.040 A 
ATOM     92  F   UNL A   1      46.915  32.654  31.027  1.00  0.00    -0.206 F 
ATOM     93  C   UNL A   1      47.513  35.839  29.410  1.00  0.00     0.006 A 
ENDBRANCH  69  86
ENDBRANCH  43  44
ENDBRANCH  35  38
ENDBRANCH  33  34
ENDBRANCH  32  33
ENDBRANCH  31  32
ENDBRANCH   1  31
TORSDOF 17
ENDMDL
MODEL 3
REMARK VINA RESULT:     -12.0      4.366      8.134
REMARK SMILES O=C(CCOc1cc(-c2ccncc2)nc(-c2ccc(C(F)(F)F)cc2)n1)NCCCCNC(=O)c1ccc(-c2c3nc(c(-c4c(F)cccc4F)c4ccc([nH]4)c(-c4c(F)cccc4F)c4nc(c(-c5c(F)cccc5F)c5ccc2[nH]5)C=C4)C=C3)cc1
REMARK SMILES IDX 29 1 28 2 1 3 2 4 3 6 4 7 5 8 6 9 7 10 27 11 8 12 16 13
REMARK SMILES IDX 15 14 9 15 10 16 14 17 11 18 13 19 12 20 17 21 18 22 26 23
REMARK SMILES IDX 19 24 25 25 20 26 21 27 22 28 23 29 24 30 30 31 31 32 32 33
REMARK SMILES IDX 33 34 34 35 35 37 36 38 37 39 89 40 38 41 88 42 39 43 40 44
REMARK SMILES IDX 41 45 82 46 42 47 87 48 81 49 83 50 43 51 86 52 80 53 79 54
REMARK SMILES IDX 44 56 70 57 53 58 69 59 54 60 57 61 68 62 84 63 55 64 56 65
REMARK SMILES IDX 67 67 85 68 58 69 45 70 46 71 51 72 47 73 48 74 50 75 52 76
REMARK SMILES IDX 49 77 71 78 72 79 77 80 73 81 74 82 76 83 78 84 75 85 59 86
REMARK SMILES IDX 60 87 65 88 61 89 62 90 64 91 66 92 63 93
REMARK H PARENT 28 5 33 36 83 55 57 66
REMARK Flexibility Score: inf
ROOT
ATOM      1  C   UNL A   1      41.114  19.986  26.142  1.00  0.00     0.116 C 
ENDROOT
BRANCH   1   2
ATOM      2  N   UNL A   1      40.311  21.168  25.937  1.00  0.00    -0.356 N 
ATOM      3  O   UNL A   1      40.415  21.856  28.131  1.00  0.00    -0.275 OA
ATOM      4  C   UNL A   1      40.070  22.054  26.968  1.00  0.00     0.223 C 
ATOM      5  H   UNL A   1      39.928  21.345  25.047  1.00  0.00     0.163 HD
BRANCH   4   6
ATOM      6  C   UNL A   1      39.501  23.380  26.531  1.00  0.00     0.141 C 
BRANCH   6   7
ATOM      7  C   UNL A   1      38.039  23.175  26.133  1.00  0.00     0.241 C 
BRANCH   7   8
ATOM      8  O   UNL A   1      37.827  21.814  25.750  1.00  0.00    -0.477 OA
BRANCH   8   9
ATOM      9  C   UNL A   1      36.608  21.542  25.183  1.00  0.00     0.217 A 
ATOM     10  C   UNL A   1      36.155  20.256  24.989  1.00  0.00     0.097 A 
ATOM     11  N   UNL A   1      35.807  22.611  25.106  1.00  0.00    -0.193 NA
ATOM     12  C   UNL A   1      34.804  20.095  24.738  1.00  0.00     0.078 A 
ATOM     13  C   UNL A   1      34.516  22.371  24.821  1.00  0.00     0.163 A 
ATOM     14  N   UNL A   1      33.977  21.150  24.639  1.00  0.00    -0.228 NA
BRANCH  12  15
ATOM     15  C   UNL A   1      34.165  18.768  24.662  1.00  0.00     0.003 A 
ATOM     16  C   UNL A   1      32.789  18.604  24.857  1.00  0.00     0.030 A 
ATOM     17  C   UNL A   1      34.897  17.617  24.371  1.00  0.00     0.030 A 
ATOM     18  C   UNL A   1      32.222  17.341  24.829  1.00  0.00     0.111 A 
ATOM     19  C   UNL A   1      34.246  16.389  24.351  1.00  0.00     0.111 A 
ATOM     20  N   UNL A   1      32.928  16.224  24.593  1.00  0.00    -0.265 NA
ENDBRANCH  12  15
BRANCH  13  21
ATOM     21  C   UNL A   1      33.598  23.509  24.939  1.00  0.00     0.019 A 
ATOM     22  C   UNL A   1      33.712  24.441  25.983  1.00  0.00     0.012 A 
ATOM     23  C   UNL A   1      32.521  23.652  24.048  1.00  0.00     0.012 A 
ATOM     24  C   UNL A   1      32.763  25.456  26.153  1.00  0.00     0.014 A 
ATOM     25  C   UNL A   1      31.554  24.643  24.232  1.00  0.00     0.014 A 
ATOM     26  C   UNL A   1      31.658  25.546  25.296  1.00  0.00     0.056 A 
BRANCH  26  27
ATOM     27  C   UNL A   1      30.610  26.610  25.508  1.00  0.00     0.416 C 
ATOM     28  F   UNL A   1      29.343  26.148  25.306  1.00  0.00    -0.166 F 
ATOM     29  F   UNL A   1      30.628  27.122  26.767  1.00  0.00    -0.166 F 
ATOM     30  F   UNL A   1      30.746  27.673  24.666  1.00  0.00    -0.166 F 
ENDBRANCH  26  27
ENDBRANCH  13  21
ENDBRANCH   8   9
ENDBRANCH   7   8
ENDBRANCH   6   7
ENDBRANCH   4   6
ENDBRANCH   1   2
BRANCH   1  31
ATOM     31  C   UNL A   1      42.620  20.095  25.829  1.00  0.00     0.023 C 
BRANCH  31  32
ATOM     32  C   UNL A   1      43.358  21.432  25.966  1.00  0.00     0.023 C 
BRANCH  32  33
ATOM     33  C   UNL A   1      43.064  22.627  25.051  1.00  0.00     0.116 C 
BRANCH  33  34
ATOM     34  N   UNL A   1      44.165  23.465  24.607  1.00  0.00    -0.352 N 
ATOM     35  C   UNL A   1      44.567  24.724  25.023  1.00  0.00     0.251 C 
ATOM     36  H   UNL A   1      44.717  23.073  23.892  1.00  0.00     0.163 HD
ATOM     37  O   UNL A   1      45.632  25.169  24.594  1.00  0.00    -0.269 OA
BRANCH  35  38
ATOM     38  C   UNL A   1      43.745  25.594  25.913  1.00  0.00     0.039 A 
ATOM     39  C   UNL A   1      42.958  24.976  26.901  1.00  0.00     0.014 A 
ATOM     40  C   UNL A   1      43.716  26.985  25.815  1.00  0.00     0.014 A 
ATOM     41  C   UNL A   1      42.288  25.742  27.866  1.00  0.00     0.010 A 
ATOM     42  C   UNL A   1      43.099  27.751  26.805  1.00  0.00     0.010 A 
ATOM     43  C   UNL A   1      42.424  27.137  27.868  1.00  0.00    -0.014 A 
BRANCH  43  44
ATOM     44  C   UNL A   1      42.031  27.969  29.033  1.00  0.00     0.031 A 
ATOM     45  C   UNL A   1      42.691  27.810  30.370  1.00  0.00     0.074 A 
ATOM     46  C   UNL A   1      40.932  28.741  28.911  1.00  0.00     0.049 A 
ATOM     47  N   UNL A   1      42.377  28.352  31.520  1.00  0.00    -0.248 NA
ATOM     48  C   UNL A   1      43.839  26.897  30.427  1.00  0.00     0.031 C 
ATOM     49  C   UNL A   1      40.151  28.904  27.682  1.00  0.00     0.029 A 
ATOM     50  N   UNL A   1      40.249  29.488  29.837  1.00  0.00    -0.354 N 
ATOM     51  C   UNL A   1      43.292  27.849  32.438  1.00  0.00     0.074 A 
ATOM     52  C   UNL A   1      44.136  26.917  31.719  1.00  0.00     0.031 C 
ATOM     53  C   UNL A   1      39.087  29.680  27.935  1.00  0.00     0.029 A 
ATOM     54  C   UNL A   1      39.096  30.051  29.345  1.00  0.00     0.049 A 
ATOM     55  H   UNL A   1      40.557  29.610  30.765  1.00  0.00     0.167 HD
ATOM     56  C   UNL A   1      43.421  28.153  33.754  1.00  0.00     0.037 A 
ATOM     57  C   UNL A   1      38.142  30.772  29.962  1.00  0.00     0.037 A 
ATOM     58  C   UNL A   1      42.555  29.064  34.460  1.00  0.00     0.049 A 
ATOM     59  C   UNL A   1      38.300  31.093  31.420  1.00  0.00     0.074 A 
ATOM     60  C   UNL A   1      42.634  29.490  35.775  1.00  0.00     0.029 A 
ATOM     61  N   UNL A   1      41.434  29.672  33.912  1.00  0.00    -0.354 N 
ATOM     62  N   UNL A   1      39.236  30.704  32.252  1.00  0.00    -0.248 NA
ATOM     63  C   UNL A   1      37.285  31.968  32.020  1.00  0.00     0.031 C 
ATOM     64  C   UNL A   1      41.532  30.315  36.036  1.00  0.00     0.029 A 
ATOM     65  C   UNL A   1      40.799  30.448  34.868  1.00  0.00     0.049 A 
ATOM     66  H   UNL A   1      41.134  29.568  32.980  1.00  0.00     0.167 HD
ATOM     67  C   UNL A   1      38.943  31.312  33.465  1.00  0.00     0.074 A 
ATOM     68  C   UNL A   1      37.747  32.104  33.254  1.00  0.00     0.031 C 
ATOM     69  C   UNL A   1      39.607  31.228  34.644  1.00  0.00     0.037 A 
BRANCH  56  70
ATOM     70  C   UNL A   1      44.546  27.502  34.512  1.00  0.00     0.057 A 
ATOM     71  C   UNL A   1      44.378  26.270  35.160  1.00  0.00     0.134 A 
ATOM     72  C   UNL A   1      45.820  28.080  34.556  1.00  0.00     0.134 A 
ATOM     73  F   UNL A   1      43.184  25.657  35.158  1.00  0.00    -0.206 F 
ATOM     74  C   UNL A   1      45.426  25.653  35.848  1.00  0.00     0.040 A 
ATOM     75  C   UNL A   1      46.884  27.459  35.216  1.00  0.00     0.040 A 
ATOM     76  F   UNL A   1      46.060  29.251  33.947  1.00  0.00    -0.206 F 
ATOM     77  C   UNL A   1      46.686  26.246  35.872  1.00  0.00     0.006 A 
ENDBRANCH  56  70
BRANCH  57  78
ATOM     78  C   UNL A   1      36.982  31.274  29.184  1.00  0.00     0.057 A 
ATOM     79  C   UNL A   1      36.934  32.601  28.744  1.00  0.00     0.134 A 
ATOM     80  C   UNL A   1      35.916  30.437  28.830  1.00  0.00     0.134 A 
ATOM     81  F   UNL A   1      37.921  33.452  29.062  1.00  0.00    -0.206 F 
ATOM     82  C   UNL A   1      35.862  33.084  27.993  1.00  0.00     0.040 A 
ATOM     83  C   UNL A   1      34.849  30.901  28.060  1.00  0.00     0.040 A 
ATOM     84  F   UNL A   1      35.909  29.150  29.207  1.00  0.00    -0.206 F 
ATOM     85  C   UNL A   1      34.818  32.231  27.643  1.00  0.00     0.006 A 
ENDBRANCH  57  78
BRANCH  69  86
ATOM     86  C   UNL A   1      39.069  32.038  35.788  1.00  0.00     0.057 A 
ATOM     87  C   UNL A   1      39.371  33.396  35.941  1.00  0.00     0.134 A 
ATOM     88  C   UNL A   1      38.216  31.453  36.733  1.00  0.00     0.134 A 
ATOM     89  F   UNL A   1      40.194  34.012  35.079  1.00  0.00    -0.206 F 
ATOM     90  C   UNL A   1      38.865  34.139  37.010  1.00  0.00     0.040 A 
ATOM     91  C   UNL A   1      37.681  32.193  37.789  1.00  0.00     0.040 A 
ATOM     92  F   UNL A   1      37.881  30.158  36.641  1.00  0.00    -0.206 F 
ATOM     93  C   UNL A   1      38.012  33.539  37.933  1.00  0.00     0.006 A 
ENDBRANCH  69  86
ENDBRANCH  43  44
ENDBRANCH  35  38
ENDBRANCH  33  34
ENDBRANCH  32  33
ENDBRANCH  31  32
ENDBRANCH   1  31
TORSDOF 17
ENDMDL
