MODEL 1
REMARK VINA RESULT:     -11.9      0.000      0.000
REMARK SMILES CC(C)(C)OC(=O)N1CCC[C@H]1C(=O)N1CCC[C@H]1C(=O)N1CCC[C@@H]1C(=O)NCCCCNC(=O)c1ccc(-c2c3nc(c(-c4c(F)cccc4F)c4ccc([nH]4)c(-c4c(F)cccc4F)c4nc(c(-c5c(F)cccc5F)c5ccc2[nH]5)C=C4)C=C3)cc1
REMARK SMILES IDX 27 1 28 2 29 3 26 5 22 6 23 7 24 8 25 9 20 10 21 11 19 12
REMARK SMILES IDX 15 13 16 14 17 15 18 16 13 17 14 18 12 19 8 20 9 21 10 22
REMARK SMILES IDX 11 23 6 24 7 25 5 26 2 27 1 28 3 29 4 30 30 31 31 32 32 33
REMARK SMILES IDX 33 34 34 35 35 36 36 38 37 39 38 40 90 41 39 42 89 43 40 44
REMARK SMILES IDX 41 45 42 46 83 47 43 48 88 49 82 50 84 51 44 52 87 53 81 54
REMARK SMILES IDX 80 55 45 57 71 58 54 59 70 60 55 61 58 62 69 63 85 64 56 65
REMARK SMILES IDX 57 66 68 68 86 69 59 70 46 71 47 72 52 73 48 74 49 75 51 76
REMARK SMILES IDX 53 77 50 78 72 79 73 80 78 81 74 82 75 83 77 84 79 85 76 86
REMARK SMILES IDX 60 87 61 88 66 89 62 90 63 91 65 92 67 93 64 94
REMARK H PARENT 29 4 34 37 84 56 58 67
REMARK Flexibility Score: inf
ROOT
ATOM      1  C   UNL A   1      33.256  28.654  23.937  1.00  0.00     0.242 C 
ATOM      2  O   UNL A   1      33.593  29.028  22.808  1.00  0.00    -0.273 OA
ATOM      3  N   UNL A   1      34.038  29.076  24.970  1.00  0.00    -0.354 N 
ATOM      4  H   UNL A   1      34.714  29.751  24.731  1.00  0.00     0.163 HD
ENDROOT
BRANCH   1   5
ATOM      5  C   UNL A   1      32.102  27.649  24.116  1.00  0.00     0.174 C 
ATOM      6  N   UNL A   1      31.963  26.636  23.078  1.00  0.00    -0.329 N 
ATOM      7  C   UNL A   1      30.583  26.183  23.111  1.00  0.00     0.120 C 
ATOM      8  C   UNL A   1      29.818  27.485  23.246  1.00  0.00     0.024 C 
ATOM      9  C   UNL A   1      30.719  28.327  24.162  1.00  0.00     0.037 C 
BRANCH   6  10
ATOM     10  C   UNL A   1      32.993  25.758  22.829  1.00  0.00     0.246 C 
ATOM     11  O   UNL A   1      33.654  25.865  21.793  1.00  0.00    -0.272 OA
BRANCH  10  12
ATOM     12  C   UNL A   1      33.375  24.735  23.947  1.00  0.00     0.174 C 
ATOM     13  N   UNL A   1      33.756  23.356  23.557  1.00  0.00    -0.329 N 
ATOM     14  C   UNL A   1      35.190  23.177  23.638  1.00  0.00     0.120 C 
ATOM     15  C   UNL A   1      35.619  24.095  24.757  1.00  0.00     0.024 C 
ATOM     16  C   UNL A   1      34.626  25.253  24.702  1.00  0.00     0.037 C 
BRANCH  13  17
ATOM     17  C   UNL A   1      32.804  22.388  23.328  1.00  0.00     0.246 C 
ATOM     18  O   UNL A   1      32.527  22.041  22.180  1.00  0.00    -0.272 OA
BRANCH  17  19
ATOM     19  C   UNL A   1      32.030  21.752  24.506  1.00  0.00     0.178 C 
ATOM     20  N   UNL A   1      33.028  21.293  25.477  1.00  0.00    -0.296 N 
ATOM     21  C   UNL A   1      33.103  22.162  26.617  1.00  0.00     0.124 C 
ATOM     22  C   UNL A   1      31.673  22.578  26.759  1.00  0.00     0.024 C 
ATOM     23  C   UNL A   1      31.197  22.749  25.314  1.00  0.00     0.037 C 
BRANCH  20  24
ATOM     24  C   UNL A   1      33.844  20.217  25.274  1.00  0.00     0.410 C 
ATOM     25  O   UNL A   1      35.027  20.301  25.003  1.00  0.00    -0.224 OA
BRANCH  24  26
ATOM     26  O   UNL A   1      33.122  19.079  25.382  1.00  0.00    -0.444 OA
BRANCH  26  27
ATOM     27  C   UNL A   1      33.092  18.031  24.392  1.00  0.00     0.106 C 
ATOM     28  C   UNL A   1      32.160  16.974  25.001  1.00  0.00     0.056 C 
ATOM     29  C   UNL A   1      34.508  17.469  24.271  1.00  0.00     0.056 C 
ATOM     30  C   UNL A   1      32.529  18.468  23.040  1.00  0.00     0.056 C 
ENDBRANCH  26  27
ENDBRANCH  24  26
ENDBRANCH  20  24
ENDBRANCH  17  19
ENDBRANCH  13  17
ENDBRANCH  10  12
ENDBRANCH   6  10
ENDBRANCH   1   5
BRANCH   3  31
ATOM     31  C   UNL A   1      34.033  28.685  26.361  1.00  0.00     0.116 C 
BRANCH  31  32
ATOM     32  C   UNL A   1      34.928  29.585  27.211  1.00  0.00     0.023 C 
BRANCH  32  33
ATOM     33  C   UNL A   1      34.502  31.061  27.251  1.00  0.00     0.023 C 
BRANCH  33  34
ATOM     34  C   UNL A   1      33.040  31.303  27.626  1.00  0.00     0.116 C 
BRANCH  34  35
ATOM     35  N   UNL A   1      32.675  32.707  27.541  1.00  0.00    -0.352 N 
ATOM     36  C   UNL A   1      33.200  33.829  28.127  1.00  0.00     0.251 C 
ATOM     37  H   UNL A   1      31.906  32.884  26.952  1.00  0.00     0.163 HD
ATOM     38  O   UNL A   1      32.657  34.915  27.928  1.00  0.00    -0.269 OA
BRANCH  36  39
ATOM     39  C   UNL A   1      34.319  33.773  29.081  1.00  0.00     0.039 A 
ATOM     40  C   UNL A   1      34.028  33.148  30.300  1.00  0.00     0.014 A 
ATOM     41  C   UNL A   1      35.621  34.177  28.787  1.00  0.00     0.014 A 
ATOM     42  C   UNL A   1      35.059  32.752  31.130  1.00  0.00     0.010 A 
ATOM     43  C   UNL A   1      36.663  33.708  29.575  1.00  0.00     0.010 A 
ATOM     44  C   UNL A   1      36.378  32.938  30.708  1.00  0.00    -0.014 A 
BRANCH  44  45
ATOM     45  C   UNL A   1      37.441  32.202  31.406  1.00  0.00     0.031 A 
ATOM     46  C   UNL A   1      38.125  31.070  30.727  1.00  0.00     0.074 A 
ATOM     47  C   UNL A   1      37.770  32.612  32.646  1.00  0.00     0.049 A 
ATOM     48  N   UNL A   1      39.139  30.362  31.140  1.00  0.00    -0.248 NA
ATOM     49  C   UNL A   1      37.594  30.668  29.415  1.00  0.00     0.031 C 
ATOM     50  C   UNL A   1      37.103  33.695  33.381  1.00  0.00     0.029 A 
ATOM     51  N   UNL A   1      38.756  32.197  33.496  1.00  0.00    -0.354 N 
ATOM     52  C   UNL A   1      39.375  29.435  30.139  1.00  0.00     0.074 A 
ATOM     53  C   UNL A   1      38.364  29.630  29.124  1.00  0.00     0.031 C 
ATOM     54  C   UNL A   1      37.735  33.891  34.548  1.00  0.00     0.029 A 
ATOM     55  C   UNL A   1      38.821  32.927  34.659  1.00  0.00     0.049 A 
ATOM     56  H   UNL A   1      39.362  31.447  33.296  1.00  0.00     0.167 HD
ATOM     57  C   UNL A   1      40.368  28.521  30.075  1.00  0.00     0.037 A 
ATOM     58  C   UNL A   1      39.675  32.825  35.692  1.00  0.00     0.037 A 
ATOM     59  C   UNL A   1      41.353  28.356  31.112  1.00  0.00     0.049 A 
ATOM     60  C   UNL A   1      40.760  31.790  35.596  1.00  0.00     0.074 A 
ATOM     61  C   UNL A   1      42.418  27.479  31.163  1.00  0.00     0.029 A 
ATOM     62  N   UNL A   1      41.381  29.094  32.291  1.00  0.00    -0.354 N 
ATOM     63  N   UNL A   1      41.015  30.952  34.618  1.00  0.00    -0.248 NA
ATOM     64  C   UNL A   1      41.678  31.689  36.734  1.00  0.00     0.031 C 
ATOM     65  C   UNL A   1      43.061  27.650  32.393  1.00  0.00     0.029 A 
ATOM     66  C   UNL A   1      42.432  28.674  33.088  1.00  0.00     0.049 A 
ATOM     67  H   UNL A   1      40.747  29.810  32.525  1.00  0.00     0.167 HD
ATOM     68  C   UNL A   1      42.132  30.232  35.014  1.00  0.00     0.074 A 
ATOM     69  C   UNL A   1      42.521  30.758  36.310  1.00  0.00     0.031 C 
ATOM     70  C   UNL A   1      42.777  29.223  34.376  1.00  0.00     0.037 A 
BRANCH  57  71
ATOM     71  C   UNL A   1      40.405  27.634  28.867  1.00  0.00     0.057 A 
ATOM     72  C   UNL A   1      41.163  27.957  27.733  1.00  0.00     0.134 A 
ATOM     73  C   UNL A   1      39.656  26.451  28.827  1.00  0.00     0.134 A 
ATOM     74  F   UNL A   1      41.881  29.089  27.694  1.00  0.00    -0.206 F 
ATOM     75  C   UNL A   1      41.152  27.151  26.592  1.00  0.00     0.040 A 
ATOM     76  C   UNL A   1      39.660  25.623  27.704  1.00  0.00     0.040 A 
ATOM     77  F   UNL A   1      38.903  26.086  29.875  1.00  0.00    -0.206 F 
ATOM     78  C   UNL A   1      40.403  25.977  26.579  1.00  0.00     0.006 A 
ENDBRANCH  57  71
BRANCH  58  79
ATOM     79  C   UNL A   1      39.548  33.719  36.871  1.00  0.00     0.057 A 
ATOM     80  C   UNL A   1      38.795  33.350  37.992  1.00  0.00     0.134 A 
ATOM     81  C   UNL A   1      40.176  34.972  36.907  1.00  0.00     0.134 A 
ATOM     82  F   UNL A   1      38.161  32.169  38.019  1.00  0.00    -0.206 F 
ATOM     83  C   UNL A   1      38.650  34.200  39.092  1.00  0.00     0.040 A 
ATOM     84  C   UNL A   1      40.063  35.820  38.011  1.00  0.00     0.040 A 
ATOM     85  F   UNL A   1      40.925  35.384  35.873  1.00  0.00    -0.206 F 
ATOM     86  C   UNL A   1      39.289  35.439  39.104  1.00  0.00     0.006 A 
ENDBRANCH  58  79
BRANCH  70  87
ATOM     87  C   UNL A   1      43.972  28.649  35.076  1.00  0.00     0.057 A 
ATOM     88  C   UNL A   1      45.261  29.160  34.874  1.00  0.00     0.134 A 
ATOM     89  C   UNL A   1      43.826  27.588  35.978  1.00  0.00     0.134 A 
ATOM     90  F   UNL A   1      45.467  30.166  34.012  1.00  0.00    -0.206 F 
ATOM     91  C   UNL A   1      46.368  28.614  35.522  1.00  0.00     0.040 A 
ATOM     92  C   UNL A   1      44.921  27.056  36.657  1.00  0.00     0.040 A 
ATOM     93  F   UNL A   1      42.617  27.062  36.221  1.00  0.00    -0.206 F 
ATOM     94  C   UNL A   1      46.197  27.563  36.422  1.00  0.00     0.006 A 
ENDBRANCH  70  87
ENDBRANCH  44  45
ENDBRANCH  36  39
ENDBRANCH  34  35
ENDBRANCH  33  34
ENDBRANCH  32  33
ENDBRANCH  31  32
ENDBRANCH   3  31
TORSDOF 18
ENDMDL
MODEL 2
REMARK VINA RESULT:     -11.9      1.209      6.224
REMARK SMILES CC(C)(C)OC(=O)N1CCC[C@H]1C(=O)N1CCC[C@H]1C(=O)N1CCC[C@@H]1C(=O)NCCCCNC(=O)c1ccc(-c2c3nc(c(-c4c(F)cccc4F)c4ccc([nH]4)c(-c4c(F)cccc4F)c4nc(c(-c5c(F)cccc5F)c5ccc2[nH]5)C=C4)C=C3)cc1
REMARK SMILES IDX 27 1 28 2 29 3 26 5 22 6 23 7 24 8 25 9 20 10 21 11 19 12
REMARK SMILES IDX 15 13 16 14 17 15 18 16 13 17 14 18 12 19 8 20 9 21 10 22
REMARK SMILES IDX 11 23 6 24 7 25 5 26 2 27 1 28 3 29 4 30 30 31 31 32 32 33
REMARK SMILES IDX 33 34 34 35 35 36 36 38 37 39 38 40 90 41 39 42 89 43 40 44
REMARK SMILES IDX 41 45 42 46 83 47 43 48 88 49 82 50 84 51 44 52 87 53 81 54
REMARK SMILES IDX 80 55 45 57 71 58 54 59 70 60 55 61 58 62 69 63 85 64 56 65
REMARK SMILES IDX 57 66 68 68 86 69 59 70 46 71 47 72 52 73 48 74 49 75 51 76
REMARK SMILES IDX 53 77 50 78 72 79 73 80 78 81 74 82 75 83 77 84 79 85 76 86
REMARK SMILES IDX 60 87 61 88 66 89 62 90 63 91 65 92 67 93 64 94
REMARK H PARENT 29 4 34 37 84 56 58 67
REMARK Flexibility Score: inf
ROOT
ATOM      1  C   UNL A   1      33.191  28.829  24.244  1.00  0.00     0.242 C 
ATOM      2  O   UNL A   1      33.436  29.051  23.052  1.00  0.00    -0.273 OA
ATOM      3  N   UNL A   1      34.237  28.962  25.108  1.00  0.00    -0.354 N 
ATOM      4  H   UNL A   1      35.050  29.358  24.718  1.00  0.00     0.163 HD
ENDROOT
BRANCH   1   5
ATOM      5  C   UNL A   1      31.814  28.291  24.673  1.00  0.00     0.174 C 
ATOM      6  N   UNL A   1      31.580  26.870  24.453  1.00  0.00    -0.329 N 
ATOM      7  C   UNL A   1      30.140  26.683  24.383  1.00  0.00     0.120 C 
ATOM      8  C   UNL A   1      29.706  27.842  23.507  1.00  0.00     0.024 C 
ATOM      9  C   UNL A   1      30.646  28.978  23.938  1.00  0.00     0.037 C 
BRANCH   6  10
ATOM     10  C   UNL A   1      32.388  25.936  25.060  1.00  0.00     0.246 C 
ATOM     11  O   UNL A   1      32.403  25.845  26.290  1.00  0.00    -0.272 OA
BRANCH  10  12
ATOM     12  C   UNL A   1      33.159  24.925  24.150  1.00  0.00     0.174 C 
ATOM     13  N   UNL A   1      32.469  23.691  23.705  1.00  0.00    -0.329 N 
ATOM     14  C   UNL A   1      32.053  23.803  22.324  1.00  0.00     0.120 C 
ATOM     15  C   UNL A   1      33.093  24.697  21.691  1.00  0.00     0.024 C 
ATOM     16  C   UNL A   1      33.534  25.627  22.819  1.00  0.00     0.037 C 
BRANCH  13  17
ATOM     17  C   UNL A   1      32.423  22.570  24.504  1.00  0.00     0.246 C 
ATOM     18  O   UNL A   1      31.745  22.561  25.532  1.00  0.00    -0.272 OA
BRANCH  17  19
ATOM     19  C   UNL A   1      33.258  21.318  24.151  1.00  0.00     0.178 C 
ATOM     20  N   UNL A   1      33.736  20.749  25.415  1.00  0.00    -0.296 N 
ATOM     21  C   UNL A   1      33.001  19.572  25.783  1.00  0.00     0.124 C 
ATOM     22  C   UNL A   1      32.734  18.967  24.441  1.00  0.00     0.024 C 
ATOM     23  C   UNL A   1      32.440  20.175  23.547  1.00  0.00     0.037 C 
BRANCH  20  24
ATOM     24  C   UNL A   1      34.705  21.325  26.187  1.00  0.00     0.410 C 
ATOM     25  O   UNL A   1      34.504  21.797  27.290  1.00  0.00    -0.224 OA
BRANCH  24  26
ATOM     26  O   UNL A   1      35.878  21.317  25.515  1.00  0.00    -0.444 OA
BRANCH  26  27
ATOM     27  C   UNL A   1      36.640  22.495  25.183  1.00  0.00     0.106 C 
ATOM     28  C   UNL A   1      36.603  22.539  23.649  1.00  0.00     0.056 C 
ATOM     29  C   UNL A   1      38.073  22.269  25.663  1.00  0.00     0.056 C 
ATOM     30  C   UNL A   1      36.048  23.793  25.731  1.00  0.00     0.056 C 
ENDBRANCH  26  27
ENDBRANCH  24  26
ENDBRANCH  20  24
ENDBRANCH  17  19
ENDBRANCH  13  17
ENDBRANCH  10  12
ENDBRANCH   6  10
ENDBRANCH   1   5
BRANCH   3  31
ATOM     31  C   UNL A   1      34.340  28.612  26.506  1.00  0.00     0.116 C 
BRANCH  31  32
ATOM     32  C   UNL A   1      35.223  29.591  27.278  1.00  0.00     0.023 C 
BRANCH  32  33
ATOM     33  C   UNL A   1      34.702  31.035  27.315  1.00  0.00     0.023 C 
BRANCH  33  34
ATOM     34  C   UNL A   1      33.231  31.183  27.703  1.00  0.00     0.116 C 
BRANCH  34  35
ATOM     35  N   UNL A   1      32.794  32.568  27.692  1.00  0.00    -0.352 N 
ATOM     36  C   UNL A   1      33.308  33.697  28.276  1.00  0.00     0.251 C 
ATOM     37  H   UNL A   1      31.976  32.725  27.167  1.00  0.00     0.163 HD
ATOM     38  O   UNL A   1      32.700  34.760  28.154  1.00  0.00    -0.269 OA
BRANCH  36  39
ATOM     39  C   UNL A   1      34.495  33.668  29.145  1.00  0.00     0.039 A 
ATOM     40  C   UNL A   1      34.370  32.878  30.294  1.00  0.00     0.014 A 
ATOM     41  C   UNL A   1      35.718  34.254  28.821  1.00  0.00     0.014 A 
ATOM     42  C   UNL A   1      35.498  32.518  31.005  1.00  0.00     0.010 A 
ATOM     43  C   UNL A   1      36.863  33.828  29.479  1.00  0.00     0.010 A 
ATOM     44  C   UNL A   1      36.752  32.907  30.526  1.00  0.00    -0.014 A 
BRANCH  44  45
ATOM     45  C   UNL A   1      37.941  32.228  31.062  1.00  0.00     0.031 A 
ATOM     46  C   UNL A   1      38.438  32.570  32.420  1.00  0.00     0.074 A 
ATOM     47  C   UNL A   1      38.522  31.291  30.289  1.00  0.00     0.049 A 
ATOM     48  N   UNL A   1      39.408  32.021  33.097  1.00  0.00    -0.248 NA
ATOM     49  C   UNL A   1      37.767  33.684  33.109  1.00  0.00     0.031 C 
ATOM     50  C   UNL A   1      38.102  30.941  28.926  1.00  0.00     0.029 A 
ATOM     51  N   UNL A   1      39.564  30.442  30.539  1.00  0.00    -0.354 N 
ATOM     52  C   UNL A   1      39.463  32.715  34.294  1.00  0.00     0.074 A 
ATOM     53  C   UNL A   1      38.467  33.763  34.231  1.00  0.00     0.031 C 
ATOM     54  C   UNL A   1      38.844  29.915  28.483  1.00  0.00     0.029 A 
ATOM     55  C   UNL A   1      39.814  29.564  29.511  1.00  0.00     0.049 A 
ATOM     56  H   UNL A   1      40.085  30.458  31.373  1.00  0.00     0.167 HD
ATOM     57  C   UNL A   1      40.264  32.474  35.355  1.00  0.00     0.037 A 
ATOM     58  C   UNL A   1      40.725  28.579  29.425  1.00  0.00     0.037 A 
ATOM     59  C   UNL A   1      41.247  31.422  35.374  1.00  0.00     0.049 A 
ATOM     60  C   UNL A   1      41.609  28.344  30.616  1.00  0.00     0.074 A 
ATOM     61  C   UNL A   1      42.109  31.063  36.391  1.00  0.00     0.029 A 
ATOM     62  N   UNL A   1      41.495  30.561  34.311  1.00  0.00    -0.354 N 
ATOM     63  N   UNL A   1      41.617  28.968  31.772  1.00  0.00    -0.248 NA
ATOM     64  C   UNL A   1      42.601  27.270  30.500  1.00  0.00     0.031 C 
ATOM     65  C   UNL A   1      42.914  30.018  35.925  1.00  0.00     0.029 A 
ATOM     66  C   UNL A   1      42.516  29.686  34.638  1.00  0.00     0.049 A 
ATOM     67  H   UNL A   1      41.015  30.572  33.451  1.00  0.00     0.167 HD
ATOM     68  C   UNL A   1      42.604  28.355  32.529  1.00  0.00     0.074 A 
ATOM     69  C   UNL A   1      43.148  27.288  31.708  1.00  0.00     0.031 C 
ATOM     70  C   UNL A   1      43.031  28.644  33.783  1.00  0.00     0.037 A 
BRANCH  57  71
ATOM     71  C   UNL A   1      40.116  33.376  36.543  1.00  0.00     0.057 A 
ATOM     72  C   UNL A   1      40.925  34.506  36.721  1.00  0.00     0.134 A 
ATOM     73  C   UNL A   1      39.165  33.101  37.534  1.00  0.00     0.134 A 
ATOM     74  F   UNL A   1      41.875  34.812  35.824  1.00  0.00    -0.206 F 
ATOM     75  C   UNL A   1      40.816  35.313  37.856  1.00  0.00     0.040 A 
ATOM     76  C   UNL A   1      39.026  33.916  38.658  1.00  0.00     0.040 A 
ATOM     77  F   UNL A   1      38.363  32.031  37.430  1.00  0.00    -0.206 F 
ATOM     78  C   UNL A   1      39.859  35.021  38.825  1.00  0.00     0.006 A 
ENDBRANCH  57  71
BRANCH  58  79
ATOM     79  C   UNL A   1      40.831  27.752  28.195  1.00  0.00     0.057 A 
ATOM     80  C   UNL A   1      40.166  26.526  28.078  1.00  0.00     0.134 A 
ATOM     81  C   UNL A   1      41.605  28.167  27.102  1.00  0.00     0.134 A 
ATOM     82  F   UNL A   1      39.416  26.067  29.089  1.00  0.00    -0.206 F 
ATOM     83  C   UNL A   1      40.285  25.732  26.933  1.00  0.00     0.040 A 
ATOM     84  C   UNL A   1      41.711  27.397  25.942  1.00  0.00     0.040 A 
ATOM     85  F   UNL A   1      42.259  29.338  27.141  1.00  0.00    -0.206 F 
ATOM     86  C   UNL A   1      41.057  26.170  25.859  1.00  0.00     0.006 A 
ENDBRANCH  58  79
BRANCH  70  87
ATOM     87  C   UNL A   1      44.127  27.779  34.330  1.00  0.00     0.057 A 
ATOM     88  C   UNL A   1      43.856  26.557  34.960  1.00  0.00     0.134 A 
ATOM     89  C   UNL A   1      45.467  28.164  34.205  1.00  0.00     0.134 A 
ATOM     90  F   UNL A   1      42.592  26.140  35.123  1.00  0.00    -0.206 F 
ATOM     91  C   UNL A   1      44.881  25.763  35.474  1.00  0.00     0.040 A 
ATOM     92  C   UNL A   1      46.501  27.363  34.685  1.00  0.00     0.040 A 
ATOM     93  F   UNL A   1      45.791  29.319  33.604  1.00  0.00    -0.206 F 
ATOM     94  C   UNL A   1      46.208  26.163  35.331  1.00  0.00     0.006 A 
ENDBRANCH  70  87
ENDBRANCH  44  45
ENDBRANCH  36  39
ENDBRANCH  34  35
ENDBRANCH  33  34
ENDBRANCH  32  33
ENDBRANCH  31  32
ENDBRANCH   3  31
TORSDOF 18
ENDMDL
MODEL 3
REMARK VINA RESULT:     -11.9      4.806     10.164
REMARK SMILES CC(C)(C)OC(=O)N1CCC[C@H]1C(=O)N1CCC[C@H]1C(=O)N1CCC[C@@H]1C(=O)NCCCCNC(=O)c1ccc(-c2c3nc(c(-c4c(F)cccc4F)c4ccc([nH]4)c(-c4c(F)cccc4F)c4nc(c(-c5c(F)cccc5F)c5ccc2[nH]5)C=C4)C=C3)cc1
REMARK SMILES IDX 27 1 28 2 29 3 26 5 22 6 23 7 24 8 25 9 20 10 21 11 19 12
REMARK SMILES IDX 15 13 16 14 17 15 18 16 13 17 14 18 12 19 8 20 9 21 10 22
REMARK SMILES IDX 11 23 6 24 7 25 5 26 2 27 1 28 3 29 4 30 30 31 31 32 32 33
REMARK SMILES IDX 33 34 34 35 35 36 36 38 37 39 38 40 90 41 39 42 89 43 40 44
REMARK SMILES IDX 41 45 42 46 83 47 43 48 88 49 82 50 84 51 44 52 87 53 81 54
REMARK SMILES IDX 80 55 45 57 71 58 54 59 70 60 55 61 58 62 69 63 85 64 56 65
REMARK SMILES IDX 57 66 68 68 86 69 59 70 46 71 47 72 52 73 48 74 49 75 51 76
REMARK SMILES IDX 53 77 50 78 72 79 73 80 78 81 74 82 75 83 77 84 79 85 76 86
REMARK SMILES IDX 60 87 61 88 66 89 62 90 63 91 65 92 67 93 64 94
REMARK H PARENT 29 4 34 37 84 56 58 67
REMARK Flexibility Score: inf
ROOT
ATOM      1  C   UNL A   1      34.964  21.881  26.331  1.00  0.00     0.242 C 
ATOM      2  O   UNL A   1      34.280  21.450  27.267  1.00  0.00    -0.273 OA
ATOM      3  N   UNL A   1      36.037  22.648  26.673  1.00  0.00    -0.354 N 
ATOM      4  H   UNL A   1      36.244  22.669  27.635  1.00  0.00     0.163 HD
ENDROOT
BRANCH   1   5
ATOM      5  C   UNL A   1      34.516  21.668  24.873  1.00  0.00     0.174 C 
ATOM      6  N   UNL A   1      33.463  22.549  24.387  1.00  0.00    -0.329 N 
ATOM      7  C   UNL A   1      32.820  21.868  23.276  1.00  0.00     0.120 C 
ATOM      8  C   UNL A   1      32.678  20.453  23.801  1.00  0.00     0.024 C 
ATOM      9  C   UNL A   1      33.965  20.252  24.616  1.00  0.00     0.037 C 
BRANCH   6  10
ATOM     10  C   UNL A   1      33.657  23.911  24.369  1.00  0.00     0.246 C 
ATOM     11  O   UNL A   1      34.542  24.395  23.659  1.00  0.00    -0.272 OA
BRANCH  10  12
ATOM     12  C   UNL A   1      32.646  24.810  25.152  1.00  0.00     0.174 C 
ATOM     13  N   UNL A   1      31.301  25.048  24.574  1.00  0.00    -0.329 N 
ATOM     14  C   UNL A   1      30.302  24.249  25.252  1.00  0.00     0.120 C 
ATOM     15  C   UNL A   1      30.818  24.126  26.666  1.00  0.00     0.024 C 
ATOM     16  C   UNL A   1      32.338  24.151  26.521  1.00  0.00     0.037 C 
BRANCH  13  17
ATOM     17  C   UNL A   1      31.089  26.036  23.639  1.00  0.00     0.246 C 
ATOM     18  O   UNL A   1      31.446  25.879  22.471  1.00  0.00    -0.272 OA
BRANCH  17  19
ATOM     19  C   UNL A   1      30.441  27.378  24.047  1.00  0.00     0.178 C 
ATOM     20  N   UNL A   1      31.338  28.445  23.591  1.00  0.00    -0.296 N 
ATOM     21  C   UNL A   1      30.834  29.102  22.418  1.00  0.00     0.124 C 
ATOM     22  C   UNL A   1      29.360  29.063  22.676  1.00  0.00     0.024 C 
ATOM     23  C   UNL A   1      29.136  27.688  23.311  1.00  0.00     0.037 C 
BRANCH  20  24
ATOM     24  C   UNL A   1      32.547  28.716  24.165  1.00  0.00     0.410 C 
ATOM     25  O   UNL A   1      33.460  29.281  23.594  1.00  0.00    -0.224 OA
BRANCH  24  26
ATOM     26  O   UNL A   1      32.565  28.225  25.425  1.00  0.00    -0.444 OA
BRANCH  26  27
ATOM     27  C   UNL A   1      32.450  29.027  26.618  1.00  0.00     0.106 C 
ATOM     28  C   UNL A   1      33.890  29.113  27.144  1.00  0.00     0.056 C 
ATOM     29  C   UNL A   1      31.579  28.257  27.610  1.00  0.00     0.056 C 
ATOM     30  C   UNL A   1      31.927  30.441  26.369  1.00  0.00     0.056 C 
ENDBRANCH  26  27
ENDBRANCH  24  26
ENDBRANCH  20  24
ENDBRANCH  17  19
ENDBRANCH  13  17
ENDBRANCH  10  12
ENDBRANCH   6  10
ENDBRANCH   1   5
BRANCH   3  31
ATOM     31  C   UNL A   1      36.918  23.437  25.843  1.00  0.00     0.116 C 
BRANCH  31  32
ATOM     32  C   UNL A   1      38.289  23.633  26.489  1.00  0.00     0.023 C 
BRANCH  32  33
ATOM     33  C   UNL A   1      39.121  22.350  26.633  1.00  0.00     0.023 C 
BRANCH  33  34
ATOM     34  C   UNL A   1      39.098  21.424  25.416  1.00  0.00     0.116 C 
BRANCH  34  35
ATOM     35  N   UNL A   1      39.731  20.145  25.686  1.00  0.00    -0.352 N 
ATOM     36  C   UNL A   1      40.961  19.820  26.196  1.00  0.00     0.251 C 
ATOM     37  H   UNL A   1      39.173  19.367  25.458  1.00  0.00     0.163 HD
ATOM     38  O   UNL A   1      41.281  18.633  26.271  1.00  0.00    -0.269 OA
BRANCH  36  39
ATOM     39  C   UNL A   1      41.966  20.836  26.549  1.00  0.00     0.039 A 
ATOM     40  C   UNL A   1      42.504  21.538  25.464  1.00  0.00     0.014 A 
ATOM     41  C   UNL A   1      42.287  21.199  27.856  1.00  0.00     0.014 A 
ATOM     42  C   UNL A   1      43.198  22.712  25.685  1.00  0.00     0.010 A 
ATOM     43  C   UNL A   1      42.910  22.419  28.080  1.00  0.00     0.010 A 
ATOM     44  C   UNL A   1      43.302  23.203  26.989  1.00  0.00    -0.014 A 
BRANCH  44  45
ATOM     45  C   UNL A   1      43.708  24.603  27.175  1.00  0.00     0.031 A 
ATOM     46  C   UNL A   1      42.702  25.617  27.584  1.00  0.00     0.074 A 
ATOM     47  C   UNL A   1      45.007  24.903  26.985  1.00  0.00     0.049 A 
ATOM     48  N   UNL A   1      42.884  26.873  27.882  1.00  0.00    -0.248 NA
ATOM     49  C   UNL A   1      41.302  25.169  27.655  1.00  0.00     0.031 C 
ATOM     50  C   UNL A   1      46.037  23.953  26.542  1.00  0.00     0.029 A 
ATOM     51  N   UNL A   1      45.694  26.070  27.165  1.00  0.00    -0.354 N 
ATOM     52  C   UNL A   1      41.626  27.367  28.185  1.00  0.00     0.074 A 
ATOM     53  C   UNL A   1      40.680  26.292  27.979  1.00  0.00     0.031 C 
ATOM     54  C   UNL A   1      47.231  24.564  26.537  1.00  0.00     0.029 A 
ATOM     55  C   UNL A   1      47.045  25.953  26.936  1.00  0.00     0.049 A 
ATOM     56  H   UNL A   1      45.264  26.914  27.432  1.00  0.00     0.167 HD
ATOM     57  C   UNL A   1      41.305  28.606  28.618  1.00  0.00     0.037 A 
ATOM     58  C   UNL A   1      48.019  26.872  27.050  1.00  0.00     0.037 A 
ATOM     59  C   UNL A   1      42.278  29.650  28.806  1.00  0.00     0.049 A 
ATOM     60  C   UNL A   1      47.629  28.244  27.522  1.00  0.00     0.074 A 
ATOM     61  C   UNL A   1      42.087  30.941  29.254  1.00  0.00     0.029 A 
ATOM     62  N   UNL A   1      43.638  29.510  28.545  1.00  0.00    -0.354 N 
ATOM     63  N   UNL A   1      46.442  28.690  27.864  1.00  0.00    -0.248 NA
ATOM     64  C   UNL A   1      48.703  29.234  27.633  1.00  0.00     0.031 C 
ATOM     65  C   UNL A   1      43.320  31.599  29.217  1.00  0.00     0.029 A 
ATOM     66  C   UNL A   1      44.293  30.702  28.799  1.00  0.00     0.049 A 
ATOM     67  H   UNL A   1      44.070  28.686  28.226  1.00  0.00     0.167 HD
ATOM     68  C   UNL A   1      46.626  30.011  28.245  1.00  0.00     0.074 A 
ATOM     69  C   UNL A   1      48.048  30.279  28.121  1.00  0.00     0.031 C 
ATOM     70  C   UNL A   1      45.712  30.925  28.654  1.00  0.00     0.037 A 
BRANCH  57  71
ATOM     71  C   UNL A   1      39.856  28.884  28.885  1.00  0.00     0.057 A 
ATOM     72  C   UNL A   1      39.287  28.706  30.153  1.00  0.00     0.134 A 
ATOM     73  C   UNL A   1      39.012  29.316  27.854  1.00  0.00     0.134 A 
ATOM     74  F   UNL A   1      40.034  28.267  31.178  1.00  0.00    -0.206 F 
ATOM     75  C   UNL A   1      37.926  28.918  30.381  1.00  0.00     0.040 A 
ATOM     76  C   UNL A   1      37.656  29.560  28.077  1.00  0.00     0.040 A 
ATOM     77  F   UNL A   1      39.488  29.500  26.615  1.00  0.00    -0.206 F 
ATOM     78  C   UNL A   1      37.108  29.352  29.341  1.00  0.00     0.006 A 
ENDBRANCH  57  71
BRANCH  58  79
ATOM     79  C   UNL A   1      49.428  26.525  26.731  1.00  0.00     0.057 A 
ATOM     80  C   UNL A   1      49.939  26.656  25.434  1.00  0.00     0.134 A 
ATOM     81  C   UNL A   1      50.303  26.050  27.717  1.00  0.00     0.134 A 
ATOM     82  F   UNL A   1      49.153  27.097  24.441  1.00  0.00    -0.206 F 
ATOM     83  C   UNL A   1      51.256  26.306  25.124  1.00  0.00     0.040 A 
ATOM     84  C   UNL A   1      51.630  25.722  27.428  1.00  0.00     0.040 A 
ATOM     85  F   UNL A   1      49.885  25.913  28.985  1.00  0.00    -0.206 F 
ATOM     86  C   UNL A   1      52.106  25.840  26.125  1.00  0.00     0.006 A 
ENDBRANCH  58  79
BRANCH  70  87
ATOM     87  C   UNL A   1      46.238  32.284  29.005  1.00  0.00     0.057 A 
ATOM     88  C   UNL A   1      46.653  32.600  30.305  1.00  0.00     0.134 A 
ATOM     89  C   UNL A   1      46.351  33.278  28.025  1.00  0.00     0.134 A 
ATOM     90  F   UNL A   1      46.556  31.695  31.290  1.00  0.00    -0.206 F 
ATOM     91  C   UNL A   1      47.133  33.869  30.625  1.00  0.00     0.040 A 
ATOM     92  C   UNL A   1      46.861  34.539  28.326  1.00  0.00     0.040 A 
ATOM     93  F   UNL A   1      45.980  33.033  26.760  1.00  0.00    -0.206 F 
ATOM     94  C   UNL A   1      47.244  34.841  29.632  1.00  0.00     0.006 A 
ENDBRANCH  70  87
ENDBRANCH  44  45
ENDBRANCH  36  39
ENDBRANCH  34  35
ENDBRANCH  33  34
ENDBRANCH  32  33
ENDBRANCH  31  32
ENDBRANCH   3  31
TORSDOF 18
ENDMDL
