MODEL 1
REMARK VINA RESULT:     -12.5      0.000      0.000
REMARK SMILES O=C(NCCCCNC(=O)c1ccc(-c2c3nc(c(-c4c(F)cccc4F)c4ccc([nH]4)c(-c4c(F)cccc4F)c4nc(c(-c5c(F)cccc5F)c5ccc2[nH]5)C=C4)C=C3)cc1)C1=Cc2cc(Cl)cc(-c3ccc(CO)cc3)c2O[C@@H]1C(F)(F)F
REMARK SMILES IDX 5 1 4 2 3 3 1 4 2 5 65 7 66 8 83 9 67 10 82 11 68 12 81 13
REMARK SMILES IDX 69 14 72 15 70 16 71 17 84 18 85 19 86 20 87 21 73 22 74 23
REMARK SMILES IDX 80 24 75 25 79 26 76 27 77 28 78 29 6 31 7 32 8 33 9 34
REMARK SMILES IDX 10 36 11 37 12 38 64 39 13 40 63 41 14 42 15 43 16 44 57 45
REMARK SMILES IDX 17 46 62 47 56 48 58 49 18 50 61 51 55 52 54 53 19 55 45 56
REMARK SMILES IDX 28 57 44 58 29 59 32 60 43 61 59 62 30 63 31 64 42 66 60 67
REMARK SMILES IDX 33 68 20 69 21 70 26 71 22 72 23 73 25 74 27 75 24 76 46 77
REMARK SMILES IDX 47 78 52 79 48 80 49 81 51 82 53 83 50 84 34 85 35 86 40 87
REMARK SMILES IDX 36 88 37 89 39 90 41 91 38 92
REMARK H PARENT 3 6 78 30 8 35 58 54 32 65
REMARK Flexibility Score: inf
ROOT
ATOM      1  C   UNL A   1      35.289  22.009  24.487  1.00  0.00     0.023 C 
ENDROOT
BRANCH   1   2
ATOM      2  C   UNL A   1      33.926  22.569  24.077  1.00  0.00     0.116 C 
BRANCH   2   3
ATOM      3  N   UNL A   1      34.010  23.785  23.271  1.00  0.00    -0.352 N 
ATOM      4  O   UNL A   1      34.047  25.984  22.810  1.00  0.00    -0.270 OA
ATOM      5  C   UNL A   1      33.635  25.080  23.531  1.00  0.00     0.251 C 
ATOM      6  H   UNL A   1      34.408  23.652  22.381  1.00  0.00     0.163 HD
BRANCH   5   7
ATOM      7  C   UNL A   1      32.879  25.413  24.764  1.00  0.00     0.067 C 
ATOM      8  C   UNL A   1      33.430  26.021  25.822  1.00  0.00     0.025 C 
ATOM      9  C   UNL A   1      31.401  25.556  24.583  1.00  0.00     0.314 C 
ATOM     10  C   UNL A   1      32.877  27.348  26.112  1.00  0.00     0.019 A 
ATOM     11  O   UNL A   1      31.008  26.948  24.588  1.00  0.00    -0.475 OA
ATOM     12  C   UNL A   1      33.686  28.251  26.812  1.00  0.00     0.032 A 
ATOM     13  C   UNL A   1      31.778  27.810  25.344  1.00  0.00     0.135 A 
ATOM     14  C   UNL A   1      33.441  29.614  26.694  1.00  0.00     0.042 A 
ATOM     15  C   UNL A   1      31.577  29.193  25.160  1.00  0.00     0.026 A 
ATOM     16  Cl  UNL A   1      34.524  30.737  27.418  1.00  0.00    -0.084 Cl
ATOM     17  C   UNL A   1      32.412  30.079  25.875  1.00  0.00     0.033 A 
BRANCH   9  18
ATOM     18  C   UNL A   1      30.658  24.715  25.650  1.00  0.00     0.429 C 
ATOM     19  F   UNL A   1      29.529  25.333  26.071  1.00  0.00    -0.167 F 
ATOM     20  F   UNL A   1      30.285  23.506  25.163  1.00  0.00    -0.167 F 
ATOM     21  F   UNL A   1      31.413  24.476  26.750  1.00  0.00    -0.167 F 
ENDBRANCH   9  18
BRANCH  15  22
ATOM     22  C   UNL A   1      30.712  29.743  24.093  1.00  0.00    -0.015 A 
ATOM     23  C   UNL A   1      29.849  30.814  24.394  1.00  0.00     0.009 A 
ATOM     24  C   UNL A   1      30.706  29.263  22.778  1.00  0.00     0.009 A 
ATOM     25  C   UNL A   1      28.991  31.355  23.437  1.00  0.00     0.007 A 
ATOM     26  C   UNL A   1      29.846  29.811  21.810  1.00  0.00     0.007 A 
ATOM     27  C   UNL A   1      28.965  30.849  22.137  1.00  0.00    -0.023 A 
BRANCH  27  28
ATOM     28  C   UNL A   1      28.036  31.456  21.117  1.00  0.00     0.191 C 
BRANCH  28  29
ATOM     29  O   UNL A   1      27.737  32.811  21.443  1.00  0.00    -0.392 OA
ATOM     30  H   UNL A   1      26.821  32.873  21.757  1.00  0.00     0.211 HD
ENDBRANCH  28  29
ENDBRANCH  27  28
ENDBRANCH  15  22
ENDBRANCH   5   7
ENDBRANCH   2   3
ENDBRANCH   1   2
BRANCH   1  31
ATOM     31  C   UNL A   1      35.973  22.759  25.634  1.00  0.00     0.023 C 
BRANCH  31  32
ATOM     32  C   UNL A   1      37.291  23.452  25.294  1.00  0.00     0.116 C 
BRANCH  32  33
ATOM     33  N   UNL A   1      38.480  22.640  25.483  1.00  0.00    -0.352 N 
ATOM     34  C   UNL A   1      39.650  22.965  26.159  1.00  0.00     0.251 C 
ATOM     35  H   UNL A   1      38.454  21.743  25.080  1.00  0.00     0.163 HD
ATOM     36  O   UNL A   1      40.570  22.195  26.200  1.00  0.00    -0.269 OA
BRANCH  34  37
ATOM     37  C   UNL A   1      39.757  24.301  26.809  1.00  0.00     0.039 A 
ATOM     38  C   UNL A   1      39.205  24.476  28.082  1.00  0.00     0.014 A 
ATOM     39  C   UNL A   1      40.416  25.360  26.184  1.00  0.00     0.014 A 
ATOM     40  C   UNL A   1      39.401  25.683  28.761  1.00  0.00     0.010 A 
ATOM     41  C   UNL A   1      40.641  26.548  26.868  1.00  0.00     0.010 A 
ATOM     42  C   UNL A   1      40.156  26.709  28.170  1.00  0.00    -0.014 A 
BRANCH  42  43
ATOM     43  C   UNL A   1      40.539  27.927  28.920  1.00  0.00     0.031 A 
ATOM     44  C   UNL A   1      41.855  27.998  29.636  1.00  0.00     0.074 A 
ATOM     45  C   UNL A   1      39.628  28.910  29.054  1.00  0.00     0.049 A 
ATOM     46  N   UNL A   1      42.331  28.956  30.388  1.00  0.00    -0.248 NA
ATOM     47  C   UNL A   1      42.741  26.830  29.514  1.00  0.00     0.031 C 
ATOM     48  C   UNL A   1      38.283  28.900  28.474  1.00  0.00     0.029 A 
ATOM     49  N   UNL A   1      39.682  30.093  29.744  1.00  0.00    -0.354 N 
ATOM     50  C   UNL A   1      43.577  28.518  30.814  1.00  0.00     0.074 A 
ATOM     51  C   UNL A   1      43.758  27.181  30.290  1.00  0.00     0.031 C 
ATOM     52  C   UNL A   1      37.640  30.021  28.834  1.00  0.00     0.029 A 
ATOM     53  C   UNL A   1      38.518  30.820  29.682  1.00  0.00     0.049 A 
ATOM     54  H   UNL A   1      40.480  30.394  30.237  1.00  0.00     0.167 HD
ATOM     55  C   UNL A   1      44.495  29.184  31.555  1.00  0.00     0.037 A 
ATOM     56  C   UNL A   1      38.197  31.998  30.249  1.00  0.00     0.037 A 
ATOM     57  C   UNL A   1      44.293  30.506  32.089  1.00  0.00     0.049 A 
ATOM     58  C   UNL A   1      39.234  32.713  31.070  1.00  0.00     0.074 A 
ATOM     59  C   UNL A   1      45.173  31.286  32.819  1.00  0.00     0.029 A 
ATOM     60  N   UNL A   1      43.122  31.238  31.958  1.00  0.00    -0.354 N 
ATOM     61  N   UNL A   1      40.452  32.334  31.376  1.00  0.00    -0.248 NA
ATOM     62  C   UNL A   1      38.863  34.030  31.605  1.00  0.00     0.031 C 
ATOM     63  C   UNL A   1      44.520  32.475  33.162  1.00  0.00     0.029 A 
ATOM     64  C   UNL A   1      43.253  32.457  32.603  1.00  0.00     0.049 A 
ATOM     65  H   UNL A   1      42.318  30.937  31.477  1.00  0.00     0.167 HD
ATOM     66  C   UNL A   1      41.004  33.380  32.103  1.00  0.00     0.074 A 
ATOM     67  C   UNL A   1      39.992  34.413  32.181  1.00  0.00     0.031 C 
ATOM     68  C   UNL A   1      42.239  33.479  32.652  1.00  0.00     0.037 A 
BRANCH  55  69
ATOM     69  C   UNL A   1      45.809  28.505  31.811  1.00  0.00     0.057 A 
ATOM     70  C   UNL A   1      45.997  27.678  32.927  1.00  0.00     0.134 A 
ATOM     71  C   UNL A   1      46.872  28.621  30.907  1.00  0.00     0.134 A 
ATOM     72  F   UNL A   1      45.020  27.529  33.834  1.00  0.00    -0.206 F 
ATOM     73  C   UNL A   1      47.200  27.003  33.143  1.00  0.00     0.040 A 
ATOM     74  C   UNL A   1      48.072  27.932  31.100  1.00  0.00     0.040 A 
ATOM     75  F   UNL A   1      46.758  29.390  29.814  1.00  0.00    -0.206 F 
ATOM     76  C   UNL A   1      48.239  27.122  32.222  1.00  0.00     0.006 A 
ENDBRANCH  55  69
BRANCH  56  77
ATOM     77  C   UNL A   1      36.856  32.595  30.032  1.00  0.00     0.057 A 
ATOM     78  C   UNL A   1      35.780  32.281  30.871  1.00  0.00     0.134 A 
ATOM     79  C   UNL A   1      36.608  33.474  28.970  1.00  0.00     0.134 A 
ATOM     80  F   UNL A   1      35.953  31.435  31.898  1.00  0.00    -0.206 F 
ATOM     81  C   UNL A   1      34.501  32.788  30.644  1.00  0.00     0.040 A 
ATOM     82  C   UNL A   1      35.339  34.011  28.747  1.00  0.00     0.040 A 
ATOM     83  F   UNL A   1      37.599  33.829  28.138  1.00  0.00    -0.206 F 
ATOM     84  C   UNL A   1      34.278  33.658  29.579  1.00  0.00     0.006 A 
ENDBRANCH  56  77
BRANCH  68  85
ATOM     85  C   UNL A   1      42.580  34.769  33.338  1.00  0.00     0.057 A 
ATOM     86  C   UNL A   1      42.351  34.968  34.705  1.00  0.00     0.134 A 
ATOM     87  C   UNL A   1      43.174  35.816  32.621  1.00  0.00     0.134 A 
ATOM     88  F   UNL A   1      41.773  34.009  35.444  1.00  0.00    -0.206 F 
ATOM     89  C   UNL A   1      42.675  36.173  35.330  1.00  0.00     0.040 A 
ATOM     90  C   UNL A   1      43.529  37.015  33.241  1.00  0.00     0.040 A 
ATOM     91  F   UNL A   1      43.428  35.687  31.311  1.00  0.00    -0.206 F 
ATOM     92  C   UNL A   1      43.272  37.198  34.597  1.00  0.00     0.006 A 
ENDBRANCH  68  85
ENDBRANCH  42  43
ENDBRANCH  34  37
ENDBRANCH  32  33
ENDBRANCH  31  32
ENDBRANCH   1  31
TORSDOF 15
ENDMDL
MODEL 2
REMARK VINA RESULT:     -12.2      3.445      7.051
REMARK SMILES O=C(NCCCCNC(=O)c1ccc(-c2c3nc(c(-c4c(F)cccc4F)c4ccc([nH]4)c(-c4c(F)cccc4F)c4nc(c(-c5c(F)cccc5F)c5ccc2[nH]5)C=C4)C=C3)cc1)C1=Cc2cc(Cl)cc(-c3ccc(CO)cc3)c2O[C@@H]1C(F)(F)F
REMARK SMILES IDX 5 1 4 2 3 3 1 4 2 5 65 7 66 8 83 9 67 10 82 11 68 12 81 13
REMARK SMILES IDX 69 14 72 15 70 16 71 17 84 18 85 19 86 20 87 21 73 22 74 23
REMARK SMILES IDX 80 24 75 25 79 26 76 27 77 28 78 29 6 31 7 32 8 33 9 34
REMARK SMILES IDX 10 36 11 37 12 38 64 39 13 40 63 41 14 42 15 43 16 44 57 45
REMARK SMILES IDX 17 46 62 47 56 48 58 49 18 50 61 51 55 52 54 53 19 55 45 56
REMARK SMILES IDX 28 57 44 58 29 59 32 60 43 61 59 62 30 63 31 64 42 66 60 67
REMARK SMILES IDX 33 68 20 69 21 70 26 71 22 72 23 73 25 74 27 75 24 76 46 77
REMARK SMILES IDX 47 78 52 79 48 80 49 81 51 82 53 83 50 84 34 85 35 86 40 87
REMARK SMILES IDX 36 88 37 89 39 90 41 91 38 92
REMARK H PARENT 3 6 78 30 8 35 58 54 32 65
REMARK Flexibility Score: inf
ROOT
ATOM      1  C   UNL A   1      34.822  21.463  26.323  1.00  0.00     0.023 C 
ENDROOT
BRANCH   1   2
ATOM      2  C   UNL A   1      33.318  21.197  26.232  1.00  0.00     0.116 C 
BRANCH   2   3
ATOM      3  N   UNL A   1      32.506  22.176  26.951  1.00  0.00    -0.352 N 
ATOM      4  O   UNL A   1      31.077  23.885  27.251  1.00  0.00    -0.270 OA
ATOM      5  C   UNL A   1      31.940  23.362  26.551  1.00  0.00     0.251 C 
ATOM      6  H   UNL A   1      32.334  21.945  27.891  1.00  0.00     0.163 HD
BRANCH   5   7
ATOM      7  C   UNL A   1      32.238  23.926  25.211  1.00  0.00     0.067 C 
ATOM      8  C   UNL A   1      31.294  24.197  24.301  1.00  0.00     0.025 C 
ATOM      9  C   UNL A   1      33.523  24.687  25.114  1.00  0.00     0.314 C 
ATOM     10  C   UNL A   1      31.169  25.619  23.964  1.00  0.00     0.019 A 
ATOM     11  O   UNL A   1      33.282  26.113  25.089  1.00  0.00    -0.475 OA
ATOM     12  C   UNL A   1      29.940  26.063  23.465  1.00  0.00     0.032 A 
ATOM     13  C   UNL A   1      32.094  26.535  24.527  1.00  0.00     0.135 A 
ATOM     14  C   UNL A   1      29.604  27.406  23.588  1.00  0.00     0.042 A 
ATOM     15  C   UNL A   1      31.723  27.880  24.723  1.00  0.00     0.026 A 
ATOM     16  Cl  UNL A   1      28.032  27.933  23.126  1.00  0.00    -0.084 Cl
ATOM     17  C   UNL A   1      30.473  28.299  24.214  1.00  0.00     0.033 A 
BRANCH   9  18
ATOM     18  C   UNL A   1      34.335  24.190  23.894  1.00  0.00     0.429 C 
ATOM     19  F   UNL A   1      34.221  25.036  22.843  1.00  0.00    -0.167 F 
ATOM     20  F   UNL A   1      35.659  24.096  24.179  1.00  0.00    -0.167 F 
ATOM     21  F   UNL A   1      33.942  22.967  23.462  1.00  0.00    -0.167 F 
ENDBRANCH   9  18
BRANCH  15  22
ATOM     22  C   UNL A   1      32.458  28.792  25.628  1.00  0.00    -0.015 A 
ATOM     23  C   UNL A   1      31.842  29.987  26.046  1.00  0.00     0.009 A 
ATOM     24  C   UNL A   1      33.747  28.530  26.108  1.00  0.00     0.009 A 
ATOM     25  C   UNL A   1      32.497  30.897  26.875  1.00  0.00     0.007 A 
ATOM     26  C   UNL A   1      34.406  29.444  26.948  1.00  0.00     0.007 A 
ATOM     27  C   UNL A   1      33.794  30.647  27.322  1.00  0.00    -0.023 A 
BRANCH  27  28
ATOM     28  C   UNL A   1      34.477  31.641  28.226  1.00  0.00     0.191 C 
BRANCH  28  29
ATOM     29  O   UNL A   1      35.456  32.391  27.510  1.00  0.00    -0.392 OA
ATOM     30  H   UNL A   1      35.734  33.153  28.043  1.00  0.00     0.211 HD
ENDBRANCH  28  29
ENDBRANCH  27  28
ENDBRANCH  15  22
ENDBRANCH   5   7
ENDBRANCH   2   3
ENDBRANCH   1   2
BRANCH   1  31
ATOM     31  C   UNL A   1      35.672  20.699  25.303  1.00  0.00     0.023 C 
BRANCH  31  32
ATOM     32  C   UNL A   1      37.113  21.174  25.136  1.00  0.00     0.116 C 
BRANCH  32  33
ATOM     33  N   UNL A   1      38.121  20.134  25.234  1.00  0.00    -0.352 N 
ATOM     34  C   UNL A   1      39.399  20.215  25.775  1.00  0.00     0.251 C 
ATOM     35  H   UNL A   1      37.866  19.256  24.869  1.00  0.00     0.163 HD
ATOM     36  O   UNL A   1      40.137  19.269  25.751  1.00  0.00    -0.269 OA
BRANCH  34  37
ATOM     37  C   UNL A   1      39.850  21.509  26.359  1.00  0.00     0.039 A 
ATOM     38  C   UNL A   1      40.851  21.493  27.336  1.00  0.00     0.014 A 
ATOM     39  C   UNL A   1      39.313  22.723  25.932  1.00  0.00     0.014 A 
ATOM     40  C   UNL A   1      41.374  22.701  27.809  1.00  0.00     0.010 A 
ATOM     41  C   UNL A   1      39.855  23.924  26.374  1.00  0.00     0.010 A 
ATOM     42  C   UNL A   1      40.905  23.921  27.297  1.00  0.00    -0.014 A 
BRANCH  42  43
ATOM     43  C   UNL A   1      41.553  25.209  27.633  1.00  0.00     0.031 A 
ATOM     44  C   UNL A   1      40.797  26.270  28.374  1.00  0.00     0.074 A 
ATOM     45  C   UNL A   1      42.784  25.455  27.144  1.00  0.00     0.049 A 
ATOM     46  N   UNL A   1      41.181  27.477  28.701  1.00  0.00    -0.248 NA
ATOM     47  C   UNL A   1      39.420  25.945  28.779  1.00  0.00     0.031 C 
ATOM     48  C   UNL A   1      43.572  24.524  26.332  1.00  0.00     0.029 A 
ATOM     49  N   UNL A   1      43.576  26.570  27.231  1.00  0.00    -0.354 N 
ATOM     50  C   UNL A   1      40.104  28.050  29.364  1.00  0.00     0.074 A 
ATOM     51  C   UNL A   1      39.027  27.082  29.338  1.00  0.00     0.031 C 
ATOM     52  C   UNL A   1      44.732  25.107  25.995  1.00  0.00     0.029 A 
ATOM     53  C   UNL A   1      44.763  26.455  26.550  1.00  0.00     0.049 A 
ATOM     54  H   UNL A   1      43.319  27.377  27.735  1.00  0.00     0.167 HD
ATOM     55  C   UNL A   1      40.032  29.263  29.961  1.00  0.00     0.037 A 
ATOM     56  C   UNL A   1      45.763  27.343  26.391  1.00  0.00     0.037 A 
ATOM     57  C   UNL A   1      41.103  30.225  29.961  1.00  0.00     0.049 A 
ATOM     58  C   UNL A   1      45.655  28.684  27.062  1.00  0.00     0.074 A 
ATOM     59  C   UNL A   1      41.149  31.467  30.571  1.00  0.00     0.029 A 
ATOM     60  N   UNL A   1      42.316  30.054  29.310  1.00  0.00    -0.354 N 
ATOM     61  N   UNL A   1      44.672  29.173  27.779  1.00  0.00    -0.248 NA
ATOM     62  C   UNL A   1      46.804  29.590  26.922  1.00  0.00     0.031 C 
ATOM     63  C   UNL A   1      42.375  32.063  30.255  1.00  0.00     0.029 A 
ATOM     64  C   UNL A   1      43.112  31.172  29.494  1.00  0.00     0.049 A 
ATOM     65  H   UNL A   1      42.574  29.255  28.796  1.00  0.00     0.167 HD
ATOM     66  C   UNL A   1      45.099  30.422  28.209  1.00  0.00     0.074 A 
ATOM     67  C   UNL A   1      46.434  30.610  27.681  1.00  0.00     0.031 C 
ATOM     68  C   UNL A   1      44.448  31.330  28.975  1.00  0.00     0.037 A 
BRANCH  55  69
ATOM     69  C   UNL A   1      38.763  29.609  30.685  1.00  0.00     0.057 A 
ATOM     70  C   UNL A   1      38.560  29.230  32.019  1.00  0.00     0.134 A 
ATOM     71  C   UNL A   1      37.766  30.379  30.074  1.00  0.00     0.134 A 
ATOM     72  F   UNL A   1      39.473  28.486  32.662  1.00  0.00    -0.206 F 
ATOM     73  C   UNL A   1      37.404  29.593  32.715  1.00  0.00     0.040 A 
ATOM     74  C   UNL A   1      36.617  30.768  30.767  1.00  0.00     0.040 A 
ATOM     75  F   UNL A   1      37.900  30.782  28.801  1.00  0.00    -0.206 F 
ATOM     76  C   UNL A   1      36.433  30.372  32.090  1.00  0.00     0.006 A 
ENDBRANCH  55  69
BRANCH  56  77
ATOM     77  C   UNL A   1      46.967  26.984  25.601  1.00  0.00     0.057 A 
ATOM     78  C   UNL A   1      48.008  26.238  26.168  1.00  0.00     0.134 A 
ATOM     79  C   UNL A   1      47.120  27.393  24.270  1.00  0.00     0.134 A 
ATOM     80  F   UNL A   1      47.924  25.827  27.442  1.00  0.00    -0.206 F 
ATOM     81  C   UNL A   1      49.170  25.942  25.456  1.00  0.00     0.040 A 
ATOM     82  C   UNL A   1      48.266  27.082  23.537  1.00  0.00     0.040 A 
ATOM     83  F   UNL A   1      46.153  28.097  23.662  1.00  0.00    -0.206 F 
ATOM     84  C   UNL A   1      49.301  26.364  24.134  1.00  0.00     0.006 A 
ENDBRANCH  56  77
BRANCH  68  85
ATOM     85  C   UNL A   1      45.192  32.583  29.331  1.00  0.00     0.057 A 
ATOM     86  C   UNL A   1      46.018  32.662  30.459  1.00  0.00     0.134 A 
ATOM     87  C   UNL A   1      45.101  33.717  28.514  1.00  0.00     0.134 A 
ATOM     88  F   UNL A   1      46.137  31.615  31.289  1.00  0.00    -0.206 F 
ATOM     89  C   UNL A   1      46.706  33.834  30.777  1.00  0.00     0.040 A 
ATOM     90  C   UNL A   1      45.806  34.885  28.805  1.00  0.00     0.040 A 
ATOM     91  F   UNL A   1      44.333  33.705  27.414  1.00  0.00    -0.206 F 
ATOM     92  C   UNL A   1      46.605  34.948  29.945  1.00  0.00     0.006 A 
ENDBRANCH  68  85
ENDBRANCH  42  43
ENDBRANCH  34  37
ENDBRANCH  32  33
ENDBRANCH  31  32
ENDBRANCH   1  31
TORSDOF 15
ENDMDL
MODEL 3
REMARK VINA RESULT:     -12.2      3.427      4.872
REMARK SMILES O=C(NCCCCNC(=O)c1ccc(-c2c3nc(c(-c4c(F)cccc4F)c4ccc([nH]4)c(-c4c(F)cccc4F)c4nc(c(-c5c(F)cccc5F)c5ccc2[nH]5)C=C4)C=C3)cc1)C1=Cc2cc(Cl)cc(-c3ccc(CO)cc3)c2O[C@@H]1C(F)(F)F
REMARK SMILES IDX 5 1 4 2 3 3 1 4 2 5 65 7 66 8 83 9 67 10 82 11 68 12 81 13
REMARK SMILES IDX 69 14 72 15 70 16 71 17 84 18 85 19 86 20 87 21 73 22 74 23
REMARK SMILES IDX 80 24 75 25 79 26 76 27 77 28 78 29 6 31 7 32 8 33 9 34
REMARK SMILES IDX 10 36 11 37 12 38 64 39 13 40 63 41 14 42 15 43 16 44 57 45
REMARK SMILES IDX 17 46 62 47 56 48 58 49 18 50 61 51 55 52 54 53 19 55 45 56
REMARK SMILES IDX 28 57 44 58 29 59 32 60 43 61 59 62 30 63 31 64 42 66 60 67
REMARK SMILES IDX 33 68 20 69 21 70 26 71 22 72 23 73 25 74 27 75 24 76 46 77
REMARK SMILES IDX 47 78 52 79 48 80 49 81 51 82 53 83 50 84 34 85 35 86 40 87
REMARK SMILES IDX 36 88 37 89 39 90 41 91 38 92
REMARK H PARENT 3 6 78 30 8 35 58 54 32 65
REMARK Flexibility Score: inf
ROOT
ATOM      1  C   UNL A   1      34.775  21.430  26.445  1.00  0.00     0.023 C 
ENDROOT
BRANCH   1   2
ATOM      2  C   UNL A   1      33.268  21.249  26.250  1.00  0.00     0.116 C 
BRANCH   2   3
ATOM      3  N   UNL A   1      32.462  22.238  26.962  1.00  0.00    -0.352 N 
ATOM      4  O   UNL A   1      31.061  23.972  27.251  1.00  0.00    -0.270 OA
ATOM      5  C   UNL A   1      31.925  23.437  26.562  1.00  0.00     0.251 C 
ATOM      6  H   UNL A   1      32.270  22.003  27.898  1.00  0.00     0.163 HD
BRANCH   5   7
ATOM      7  C   UNL A   1      32.256  24.006  25.231  1.00  0.00     0.067 C 
ATOM      8  C   UNL A   1      31.333  24.308  24.311  1.00  0.00     0.025 C 
ATOM      9  C   UNL A   1      33.561  24.734  25.159  1.00  0.00     0.314 C 
ATOM     10  C   UNL A   1      31.249  25.735  23.985  1.00  0.00     0.019 A 
ATOM     11  O   UNL A   1      33.358  26.166  25.143  1.00  0.00    -0.475 OA
ATOM     12  C   UNL A   1      30.038  26.215  23.473  1.00  0.00     0.032 A 
ATOM     13  C   UNL A   1      32.189  26.623  24.569  1.00  0.00     0.135 A 
ATOM     14  C   UNL A   1      29.735  27.566  23.603  1.00  0.00     0.042 A 
ATOM     15  C   UNL A   1      31.849  27.976  24.772  1.00  0.00     0.026 A 
ATOM     16  Cl  UNL A   1      28.185  28.138  23.125  1.00  0.00    -0.084 Cl
ATOM     17  C   UNL A   1      30.619  28.430  24.250  1.00  0.00     0.033 A 
BRANCH   9  18
ATOM     18  C   UNL A   1      34.378  24.227  23.945  1.00  0.00     0.429 C 
ATOM     19  F   UNL A   1      34.286  25.076  22.895  1.00  0.00    -0.167 F 
ATOM     20  F   UNL A   1      35.697  24.113  24.243  1.00  0.00    -0.167 F 
ATOM     21  F   UNL A   1      33.972  23.010  23.509  1.00  0.00    -0.167 F 
ENDBRANCH   9  18
BRANCH  15  22
ATOM     22  C   UNL A   1      32.595  28.860  25.695  1.00  0.00    -0.015 A 
ATOM     23  C   UNL A   1      31.978  30.034  26.167  1.00  0.00     0.009 A 
ATOM     24  C   UNL A   1      33.894  28.591  26.142  1.00  0.00     0.009 A 
ATOM     25  C   UNL A   1      32.642  30.919  27.016  1.00  0.00     0.007 A 
ATOM     26  C   UNL A   1      34.562  29.480  27.002  1.00  0.00     0.007 A 
ATOM     27  C   UNL A   1      33.949  30.664  27.430  1.00  0.00    -0.023 A 
BRANCH  27  28
ATOM     28  C   UNL A   1      34.642  31.630  28.356  1.00  0.00     0.191 C 
BRANCH  28  29
ATOM     29  O   UNL A   1      35.428  32.565  27.621  1.00  0.00    -0.392 OA
ATOM     30  H   UNL A   1      35.430  33.419  28.081  1.00  0.00     0.211 HD
ENDBRANCH  28  29
ENDBRANCH  27  28
ENDBRANCH  15  22
ENDBRANCH   5   7
ENDBRANCH   2   3
ENDBRANCH   1   2
BRANCH   1  31
ATOM     31  C   UNL A   1      35.641  20.865  25.316  1.00  0.00     0.023 C 
BRANCH  31  32
ATOM     32  C   UNL A   1      37.079  21.373  25.251  1.00  0.00     0.116 C 
BRANCH  32  33
ATOM     33  N   UNL A   1      38.100  20.361  25.459  1.00  0.00    -0.352 N 
ATOM     34  C   UNL A   1      39.360  20.508  26.026  1.00  0.00     0.251 C 
ATOM     35  H   UNL A   1      37.869  19.453  25.159  1.00  0.00     0.163 HD
ATOM     36  O   UNL A   1      40.114  19.577  26.097  1.00  0.00    -0.269 OA
BRANCH  34  37
ATOM     37  C   UNL A   1      39.775  21.852  26.517  1.00  0.00     0.039 A 
ATOM     38  C   UNL A   1      40.800  21.935  27.464  1.00  0.00     0.014 A 
ATOM     39  C   UNL A   1      39.178  23.017  26.032  1.00  0.00     0.014 A 
ATOM     40  C   UNL A   1      41.287  23.190  27.848  1.00  0.00     0.010 A 
ATOM     41  C   UNL A   1      39.683  24.262  26.384  1.00  0.00     0.010 A 
ATOM     42  C   UNL A   1      40.757  24.357  27.275  1.00  0.00    -0.014 A 
BRANCH  42  43
ATOM     43  C   UNL A   1      41.360  25.687  27.514  1.00  0.00     0.031 A 
ATOM     44  C   UNL A   1      42.756  25.983  27.054  1.00  0.00     0.074 A 
ATOM     45  C   UNL A   1      40.680  26.575  28.265  1.00  0.00     0.049 A 
ATOM     46  N   UNL A   1      43.466  27.068  27.228  1.00  0.00    -0.248 NA
ATOM     47  C   UNL A   1      43.458  24.912  26.329  1.00  0.00     0.031 C 
ATOM     48  C   UNL A   1      39.351  26.351  28.840  1.00  0.00     0.029 A 
ATOM     49  N   UNL A   1      41.022  27.828  28.701  1.00  0.00    -0.354 N 
ATOM     50  C   UNL A   1      44.689  26.820  26.619  1.00  0.00     0.074 A 
ATOM     51  C   UNL A   1      44.649  25.459  26.127  1.00  0.00     0.031 C 
ATOM     52  C   UNL A   1      38.993  27.429  29.553  1.00  0.00     0.029 A 
ATOM     53  C   UNL A   1      40.070  28.411  29.501  1.00  0.00     0.049 A 
ATOM     54  H   UNL A   1      41.871  28.269  28.463  1.00  0.00     0.167 HD
ATOM     55  C   UNL A   1      45.738  27.662  26.465  1.00  0.00     0.037 A 
ATOM     56  C   UNL A   1      40.071  29.605  30.124  1.00  0.00     0.037 A 
ATOM     57  C   UNL A   1      45.773  29.007  26.978  1.00  0.00     0.049 A 
ATOM     58  C   UNL A   1      41.251  30.519  29.938  1.00  0.00     0.074 A 
ATOM     59  C   UNL A   1      46.770  29.958  26.843  1.00  0.00     0.029 A 
ATOM     60  N   UNL A   1      44.766  29.588  27.735  1.00  0.00    -0.354 N 
ATOM     61  N   UNL A   1      42.359  30.312  29.267  1.00  0.00    -0.248 NA
ATOM     62  C   UNL A   1      41.172  31.840  30.576  1.00  0.00     0.031 C 
ATOM     63  C   UNL A   1      46.383  31.101  27.551  1.00  0.00     0.029 A 
ATOM     64  C   UNL A   1      45.123  30.880  28.084  1.00  0.00     0.049 A 
ATOM     65  H   UNL A   1      43.922  29.148  27.987  1.00  0.00     0.167 HD
ATOM     66  C   UNL A   1      43.089  31.489  29.368  1.00  0.00     0.074 A 
ATOM     67  C   UNL A   1      42.292  32.407  30.154  1.00  0.00     0.031 C 
ATOM     68  C   UNL A   1      44.306  31.785  28.852  1.00  0.00     0.037 A 
BRANCH  55  69
ATOM     69  C   UNL A   1      46.923  27.165  25.689  1.00  0.00     0.057 A 
ATOM     70  C   UNL A   1      47.097  27.490  24.337  1.00  0.00     0.134 A 
ATOM     71  C   UNL A   1      47.930  26.412  26.307  1.00  0.00     0.134 A 
ATOM     72  F   UNL A   1      46.167  28.202  23.684  1.00  0.00    -0.206 F 
ATOM     73  C   UNL A   1      48.223  27.073  23.623  1.00  0.00     0.040 A 
ATOM     74  C   UNL A   1      49.072  26.010  25.610  1.00  0.00     0.040 A 
ATOM     75  F   UNL A   1      47.830  26.072  27.600  1.00  0.00    -0.206 F 
ATOM     76  C   UNL A   1      49.218  26.338  24.263  1.00  0.00     0.006 A 
ENDBRANCH  55  69
BRANCH  56  77
ATOM     77  C   UNL A   1      38.908  30.024  30.945  1.00  0.00     0.057 A 
ATOM     78  C   UNL A   1      38.816  29.675  32.298  1.00  0.00     0.134 A 
ATOM     79  C   UNL A   1      37.850  30.760  30.398  1.00  0.00     0.134 A 
ATOM     80  F   UNL A   1      39.791  28.959  32.877  1.00  0.00    -0.206 F 
ATOM     81  C   UNL A   1      37.701  30.011  33.067  1.00  0.00     0.040 A 
ATOM     82  C   UNL A   1      36.742  31.127  31.162  1.00  0.00     0.040 A 
ATOM     83  F   UNL A   1      37.884  31.141  29.111  1.00  0.00    -0.206 F 
ATOM     84  C   UNL A   1      36.660  30.741  32.499  1.00  0.00     0.006 A 
ENDBRANCH  56  77
BRANCH  68  85
ATOM     85  C   UNL A   1      44.824  33.175  29.077  1.00  0.00     0.057 A 
ATOM     86  C   UNL A   1      44.526  34.230  28.206  1.00  0.00     0.134 A 
ATOM     87  C   UNL A   1      45.610  33.464  30.200  1.00  0.00     0.134 A 
ATOM     88  F   UNL A   1      43.789  34.015  27.105  1.00  0.00    -0.206 F 
ATOM     89  C   UNL A   1      45.012  35.518  28.429  1.00  0.00     0.040 A 
ATOM     90  C   UNL A   1      46.079  34.754  30.450  1.00  0.00     0.040 A 
ATOM     91  F   UNL A   1      45.925  32.500  31.078  1.00  0.00    -0.206 F 
ATOM     92  C   UNL A   1      45.787  35.783  29.558  1.00  0.00     0.006 A 
ENDBRANCH  68  85
ENDBRANCH  42  43
ENDBRANCH  34  37
ENDBRANCH  32  33
ENDBRANCH  31  32
ENDBRANCH   1  31
TORSDOF 15
ENDMDL
