MODEL 1
REMARK VINA RESULT:     -12.0      0.000      0.000
REMARK SMILES O=C(NCCCCNC(=O)[C@@]12CCC(=O)N1c1cc(Cl)ccc1S2)c1ccc(-c2c3nc(c(-c4c(F)cccc4F)c4ccc([nH]4)c(-c4c(F)cccc4F)c4nc(c(-c5c(F)cccc5F)c5ccc2[nH]5)C=C4)C=C3)cc1
REMARK SMILES IDX 4 1 3 2 1 3 2 4 25 6 26 7 78 8 27 9 77 10 28 11 29 12 30 13
REMARK SMILES IDX 71 14 31 15 76 16 70 17 72 18 32 19 75 20 69 21 68 22 33 24
REMARK SMILES IDX 59 25 42 26 58 27 43 28 46 29 57 30 73 31 44 32 45 33 56 35
REMARK SMILES IDX 74 36 47 37 34 38 35 39 40 40 36 41 37 42 39 43 41 44 38 45
REMARK SMILES IDX 60 46 61 47 66 48 62 49 63 50 65 51 67 52 64 53 48 54 49 55
REMARK SMILES IDX 54 56 50 57 51 58 53 59 55 60 52 61 5 62 6 63 7 64 8 65 9 66
REMARK SMILES IDX 10 68 11 69 12 70 16 71 24 72 13 73 14 74 17 75 23 76 15 77
REMARK SMILES IDX 18 78 22 79 19 80 21 81 20 82
REMARK H PARENT 3 5 72 23 46 34 8 67
REMARK Flexibility Score: inf
ROOT
ATOM      1  C   UNL A   1      38.605  20.423  25.729  1.00  0.00     0.116 C 
ENDROOT
BRANCH   1   2
ATOM      2  N   UNL A   1      39.700  19.466  25.758  1.00  0.00    -0.352 N 
ATOM      3  O   UNL A   1      41.828  18.751  25.894  1.00  0.00    -0.269 OA
ATOM      4  C   UNL A   1      41.024  19.661  26.062  1.00  0.00     0.251 C 
ATOM      5  H   UNL A   1      39.456  18.541  25.525  1.00  0.00     0.163 HD
BRANCH   4   6
ATOM      6  C   UNL A   1      41.485  20.971  26.576  1.00  0.00     0.039 A 
ATOM      7  C   UNL A   1      41.441  21.209  27.951  1.00  0.00     0.014 A 
ATOM      8  C   UNL A   1      41.935  21.971  25.709  1.00  0.00     0.014 A 
ATOM      9  C   UNL A   1      41.876  22.436  28.455  1.00  0.00     0.010 A 
ATOM     10  C   UNL A   1      42.473  23.144  26.221  1.00  0.00     0.010 A 
ATOM     11  C   UNL A   1      42.412  23.408  27.596  1.00  0.00    -0.014 A 
BRANCH  11  12
ATOM     12  C   UNL A   1      42.825  24.741  28.104  1.00  0.00     0.031 A 
ATOM     13  C   UNL A   1      41.786  25.811  28.316  1.00  0.00     0.074 A 
ATOM     14  C   UNL A   1      44.121  24.999  28.361  1.00  0.00     0.049 A 
ATOM     15  N   UNL A   1      41.937  27.049  28.718  1.00  0.00    -0.248 NA
ATOM     16  C   UNL A   1      40.391  25.451  28.011  1.00  0.00     0.031 C 
ATOM     17  C   UNL A   1      45.227  24.057  28.178  1.00  0.00     0.029 A 
ATOM     18  N   UNL A   1      44.727  26.134  28.836  1.00  0.00    -0.354 N 
ATOM     19  C   UNL A   1      40.664  27.607  28.707  1.00  0.00     0.074 A 
ATOM     20  C   UNL A   1      39.766  26.604  28.183  1.00  0.00     0.031 C 
ATOM     21  C   UNL A   1      46.370  24.640  28.577  1.00  0.00     0.029 A 
ATOM     22  C   UNL A   1      46.087  26.010  28.992  1.00  0.00     0.049 A 
ATOM     23  H   UNL A   1      44.235  26.960  29.046  1.00  0.00     0.167 HD
ATOM     24  C   UNL A   1      40.268  28.831  29.126  1.00  0.00     0.037 A 
ATOM     25  C   UNL A   1      46.999  26.906  29.414  1.00  0.00     0.037 A 
ATOM     26  C   UNL A   1      41.161  29.829  29.654  1.00  0.00     0.049 A 
ATOM     27  C   UNL A   1      46.543  28.286  29.807  1.00  0.00     0.074 A 
ATOM     28  C   UNL A   1      40.860  31.091  30.134  1.00  0.00     0.029 A 
ATOM     29  N   UNL A   1      42.536  29.677  29.761  1.00  0.00    -0.354 N 
ATOM     30  N   UNL A   1      45.329  28.783  29.843  1.00  0.00    -0.248 NA
ATOM     31  C   UNL A   1      47.589  29.232  30.220  1.00  0.00     0.031 C 
ATOM     32  C   UNL A   1      42.060  31.728  30.467  1.00  0.00     0.029 A 
ATOM     33  C   UNL A   1      43.102  30.837  30.267  1.00  0.00     0.049 A 
ATOM     34  H   UNL A   1      43.036  28.866  29.514  1.00  0.00     0.167 HD
ATOM     35  C   UNL A   1      45.464  30.084  30.315  1.00  0.00     0.074 A 
ATOM     36  C   UNL A   1      46.874  30.290  30.569  1.00  0.00     0.031 C 
ATOM     37  C   UNL A   1      44.509  31.025  30.517  1.00  0.00     0.037 A 
BRANCH  24  38
ATOM     38  C   UNL A   1      38.803  29.157  29.017  1.00  0.00     0.057 A 
ATOM     39  C   UNL A   1      37.963  29.059  30.134  1.00  0.00     0.134 A 
ATOM     40  C   UNL A   1      38.220  29.565  27.809  1.00  0.00     0.134 A 
ATOM     41  F   UNL A   1      38.451  28.671  31.322  1.00  0.00    -0.206 F 
ATOM     42  C   UNL A   1      36.602  29.356  30.054  1.00  0.00     0.040 A 
ATOM     43  C   UNL A   1      36.867  29.900  27.725  1.00  0.00     0.040 A 
ATOM     44  F   UNL A   1      38.968  29.700  26.704  1.00  0.00    -0.206 F 
ATOM     45  C   UNL A   1      36.052  29.787  28.849  1.00  0.00     0.006 A 
ENDBRANCH  24  38
BRANCH  25  46
ATOM     46  C   UNL A   1      48.438  26.537  29.495  1.00  0.00     0.057 A 
ATOM     47  C   UNL A   1      49.326  26.824  28.451  1.00  0.00     0.134 A 
ATOM     48  C   UNL A   1      48.968  25.934  30.642  1.00  0.00     0.134 A 
ATOM     49  F   UNL A   1      48.883  27.397  27.322  1.00  0.00    -0.206 F 
ATOM     50  C   UNL A   1      50.687  26.526  28.545  1.00  0.00     0.040 A 
ATOM     51  C   UNL A   1      50.331  25.659  30.762  1.00  0.00     0.040 A 
ATOM     52  F   UNL A   1      48.174  25.653  31.685  1.00  0.00    -0.206 F 
ATOM     53  C   UNL A   1      51.194  25.953  29.709  1.00  0.00     0.006 A 
ENDBRANCH  25  46
BRANCH  37  54
ATOM     54  C   UNL A   1      44.955  32.346  31.083  1.00  0.00     0.057 A 
ATOM     55  C   UNL A   1      45.321  33.397  30.232  1.00  0.00     0.134 A 
ATOM     56  C   UNL A   1      45.043  32.574  32.462  1.00  0.00     0.134 A 
ATOM     57  F   UNL A   1      45.271  33.245  28.900  1.00  0.00    -0.206 F 
ATOM     58  C   UNL A   1      45.755  34.625  30.731  1.00  0.00     0.040 A 
ATOM     59  C   UNL A   1      45.443  33.811  32.974  1.00  0.00     0.040 A 
ATOM     60  F   UNL A   1      44.694  31.616  33.335  1.00  0.00    -0.206 F 
ATOM     61  C   UNL A   1      45.807  34.838  32.107  1.00  0.00     0.006 A 
ENDBRANCH  37  54
ENDBRANCH  11  12
ENDBRANCH   4   6
ENDBRANCH   1   2
BRANCH   1  62
ATOM     62  C   UNL A   1      37.486  20.020  24.789  1.00  0.00     0.023 C 
BRANCH  62  63
ATOM     63  C   UNL A   1      36.358  21.024  24.700  1.00  0.00     0.023 C 
BRANCH  63  64
ATOM     64  C   UNL A   1      34.989  20.525  25.190  1.00  0.00     0.116 C 
BRANCH  64  65
ATOM     65  N   UNL A   1      34.553  21.069  26.500  1.00  0.00    -0.353 N 
ATOM     66  C   UNL A   1      33.798  22.242  26.787  1.00  0.00     0.257 C 
ATOM     67  H   UNL A   1      34.824  20.541  27.286  1.00  0.00     0.163 HD
ATOM     68  O   UNL A   1      33.535  22.522  27.954  1.00  0.00    -0.271 OA
BRANCH  66  69
ATOM     69  C   UNL A   1      33.228  23.039  25.514  1.00  0.00     0.177 C 
ATOM     70  C   UNL A   1      34.416  24.082  25.485  1.00  0.00     0.061 C 
ATOM     71  N   UNL A   1      32.816  23.212  24.089  1.00  0.00    -0.287 N 
ATOM     72  S   UNL A   1      31.416  22.841  26.155  1.00  0.00    -0.085 SA
ATOM     73  C   UNL A   1      34.764  24.412  24.033  1.00  0.00     0.104 C 
ATOM     74  C   UNL A   1      33.875  23.510  23.238  1.00  0.00     0.228 C 
ATOM     75  C   UNL A   1      31.700  24.171  24.035  1.00  0.00     0.061 A 
ATOM     76  C   UNL A   1      30.930  24.174  25.190  1.00  0.00     0.034 A 
ATOM     77  O   UNL A   1      33.936  23.338  22.040  1.00  0.00    -0.274 OA
ATOM     78  C   UNL A   1      31.536  25.221  23.141  1.00  0.00     0.048 A 
ATOM     79  C   UNL A   1      30.117  25.216  25.588  1.00  0.00     0.019 A 
ATOM     80  C   UNL A   1      30.710  26.296  23.518  1.00  0.00     0.043 A 
ATOM     81  C   UNL A   1      30.033  26.312  24.747  1.00  0.00     0.022 A 
ATOM     82  Cl  UNL A   1      30.595  27.677  22.500  1.00  0.00    -0.084 Cl
ENDBRANCH  66  69
ENDBRANCH  64  65
ENDBRANCH  63  64
ENDBRANCH  62  63
ENDBRANCH   1  62
TORSDOF 11
ENDMDL
MODEL 2
REMARK VINA RESULT:     -12.0      4.675      8.840
REMARK SMILES O=C(NCCCCNC(=O)[C@@]12CCC(=O)N1c1cc(Cl)ccc1S2)c1ccc(-c2c3nc(c(-c4c(F)cccc4F)c4ccc([nH]4)c(-c4c(F)cccc4F)c4nc(c(-c5c(F)cccc5F)c5ccc2[nH]5)C=C4)C=C3)cc1
REMARK SMILES IDX 4 1 3 2 1 3 2 4 25 6 26 7 78 8 27 9 77 10 28 11 29 12 30 13
REMARK SMILES IDX 71 14 31 15 76 16 70 17 72 18 32 19 75 20 69 21 68 22 33 24
REMARK SMILES IDX 59 25 42 26 58 27 43 28 46 29 57 30 73 31 44 32 45 33 56 35
REMARK SMILES IDX 74 36 47 37 34 38 35 39 40 40 36 41 37 42 39 43 41 44 38 45
REMARK SMILES IDX 60 46 61 47 66 48 62 49 63 50 65 51 67 52 64 53 48 54 49 55
REMARK SMILES IDX 54 56 50 57 51 58 53 59 55 60 52 61 5 62 6 63 7 64 8 65 9 66
REMARK SMILES IDX 10 68 11 69 12 70 16 71 24 72 13 73 14 74 17 75 23 76 15 77
REMARK SMILES IDX 18 78 22 79 19 80 21 81 20 82
REMARK H PARENT 3 5 72 23 46 34 8 67
REMARK Flexibility Score: inf
ROOT
ATOM      1  C   UNL A   1      32.751  32.700  26.877  1.00  0.00     0.116 C 
ENDROOT
BRANCH   1   2
ATOM      2  N   UNL A   1      32.534  33.963  27.567  1.00  0.00    -0.352 N 
ATOM      3  O   UNL A   1      32.742  35.502  29.194  1.00  0.00    -0.269 OA
ATOM      4  C   UNL A   1      33.164  34.475  28.673  1.00  0.00     0.251 C 
ATOM      5  H   UNL A   1      31.830  34.535  27.183  1.00  0.00     0.163 HD
BRANCH   4   6
ATOM      6  C   UNL A   1      34.339  33.782  29.247  1.00  0.00     0.039 A 
ATOM      7  C   UNL A   1      35.618  34.205  28.879  1.00  0.00     0.014 A 
ATOM      8  C   UNL A   1      34.187  32.706  30.126  1.00  0.00     0.014 A 
ATOM      9  C   UNL A   1      36.738  33.568  29.414  1.00  0.00     0.010 A 
ATOM     10  C   UNL A   1      35.300  32.150  30.744  1.00  0.00     0.010 A 
ATOM     11  C   UNL A   1      36.589  32.546  30.365  1.00  0.00    -0.014 A 
BRANCH  11  12
ATOM     12  C   UNL A   1      37.766  31.816  30.902  1.00  0.00     0.031 A 
ATOM     13  C   UNL A   1      38.281  32.145  32.279  1.00  0.00     0.074 A 
ATOM     14  C   UNL A   1      38.380  30.876  30.158  1.00  0.00     0.049 A 
ATOM     15  N   UNL A   1      39.311  31.653  32.921  1.00  0.00    -0.248 NA
ATOM     16  C   UNL A   1      37.555  33.185  33.028  1.00  0.00     0.031 C 
ATOM     17  C   UNL A   1      37.994  30.479  28.804  1.00  0.00     0.029 A 
ATOM     18  N   UNL A   1      39.460  30.080  30.443  1.00  0.00    -0.354 N 
ATOM     19  C   UNL A   1      39.355  32.326  34.136  1.00  0.00     0.074 A 
ATOM     20  C   UNL A   1      38.303  33.316  34.111  1.00  0.00     0.031 C 
ATOM     21  C   UNL A   1      38.799  29.485  28.392  1.00  0.00     0.029 A 
ATOM     22  C   UNL A   1      39.789  29.212  29.429  1.00  0.00     0.049 A 
ATOM     23  H   UNL A   1      39.954  30.125  31.293  1.00  0.00     0.167 HD
ATOM     24  C   UNL A   1      40.174  32.121  35.194  1.00  0.00     0.037 A 
ATOM     25  C   UNL A   1      40.782  28.307  29.348  1.00  0.00     0.037 A 
ATOM     26  C   UNL A   1      41.219  31.132  35.222  1.00  0.00     0.049 A 
ATOM     27  C   UNL A   1      41.725  28.147  30.511  1.00  0.00     0.074 A 
ATOM     28  C   UNL A   1      42.088  30.821  36.254  1.00  0.00     0.029 A 
ATOM     29  N   UNL A   1      41.544  30.298  34.161  1.00  0.00    -0.354 N 
ATOM     30  N   UNL A   1      41.722  28.753  31.674  1.00  0.00    -0.248 NA
ATOM     31  C   UNL A   1      42.813  27.172  30.346  1.00  0.00     0.031 C 
ATOM     32  C   UNL A   1      42.980  29.847  35.794  1.00  0.00     0.029 A 
ATOM     33  C   UNL A   1      42.621  29.496  34.502  1.00  0.00     0.049 A 
ATOM     34  H   UNL A   1      41.076  30.278  33.295  1.00  0.00     0.167 HD
ATOM     35  C   UNL A   1      42.783  28.207  32.390  1.00  0.00     0.074 A 
ATOM     36  C   UNL A   1      43.391  27.210  31.536  1.00  0.00     0.031 C 
ATOM     37  C   UNL A   1      43.216  28.506  33.640  1.00  0.00     0.037 A 
BRANCH  24  38
ATOM     38  C   UNL A   1      39.973  32.995  36.402  1.00  0.00     0.057 A 
ATOM     39  C   UNL A   1      40.753  34.144  36.591  1.00  0.00     0.134 A 
ATOM     40  C   UNL A   1      39.013  32.702  37.380  1.00  0.00     0.134 A 
ATOM     41  F   UNL A   1      41.694  34.484  35.698  1.00  0.00    -0.206 F 
ATOM     42  C   UNL A   1      40.583  34.968  37.705  1.00  0.00     0.040 A 
ATOM     43  C   UNL A   1      38.808  33.538  38.480  1.00  0.00     0.040 A 
ATOM     44  F   UNL A   1      38.217  31.629  37.254  1.00  0.00    -0.206 F 
ATOM     45  C   UNL A   1      39.601  34.671  38.648  1.00  0.00     0.006 A 
ENDBRANCH  24  38
BRANCH  25  46
ATOM     46  C   UNL A   1      40.944  27.473  28.127  1.00  0.00     0.057 A 
ATOM     47  C   UNL A   1      40.296  26.239  27.992  1.00  0.00     0.134 A 
ATOM     48  C   UNL A   1      41.712  27.917  27.043  1.00  0.00     0.134 A 
ATOM     49  F   UNL A   1      39.548  25.753  28.994  1.00  0.00    -0.206 F 
ATOM     50  C   UNL A   1      40.405  25.478  26.827  1.00  0.00     0.040 A 
ATOM     51  C   UNL A   1      41.805  27.181  25.861  1.00  0.00     0.040 A 
ATOM     52  F   UNL A   1      42.341  29.100  27.101  1.00  0.00    -0.206 F 
ATOM     53  C   UNL A   1      41.151  25.956  25.751  1.00  0.00     0.006 A 
ENDBRANCH  25  46
BRANCH  37  54
ATOM     54  C   UNL A   1      44.376  27.710  34.173  1.00  0.00     0.057 A 
ATOM     55  C   UNL A   1      44.159  26.497  34.839  1.00  0.00     0.134 A 
ATOM     56  C   UNL A   1      45.701  28.148  34.046  1.00  0.00     0.134 A 
ATOM     57  F   UNL A   1      42.915  26.022  35.005  1.00  0.00    -0.206 F 
ATOM     58  C   UNL A   1      45.216  25.749  35.358  1.00  0.00     0.040 A 
ATOM     59  C   UNL A   1      46.769  27.390  34.532  1.00  0.00     0.040 A 
ATOM     60  F   UNL A   1      45.982  29.294  33.407  1.00  0.00    -0.206 F 
ATOM     61  C   UNL A   1      46.527  26.190  35.196  1.00  0.00     0.006 A 
ENDBRANCH  37  54
ENDBRANCH  11  12
ENDBRANCH   4   6
ENDBRANCH   1   2
BRANCH   1  62
ATOM     62  C   UNL A   1      31.495  31.859  26.766  1.00  0.00     0.023 C 
BRANCH  62  63
ATOM     63  C   UNL A   1      31.755  30.377  26.605  1.00  0.00     0.023 C 
BRANCH  63  64
ATOM     64  C   UNL A   1      31.466  29.803  25.208  1.00  0.00     0.116 C 
BRANCH  64  65
ATOM     65  N   UNL A   1      32.645  29.703  24.313  1.00  0.00    -0.353 N 
ATOM     66  C   UNL A   1      33.301  28.545  23.806  1.00  0.00     0.257 C 
ATOM     67  H   UNL A   1      33.031  30.563  24.026  1.00  0.00     0.163 HD
ATOM     68  O   UNL A   1      34.274  28.674  23.068  1.00  0.00    -0.271 OA
BRANCH  66  69
ATOM     69  C   UNL A   1      32.604  27.138  24.149  1.00  0.00     0.177 C 
ATOM     70  C   UNL A   1      33.503  26.867  25.421  1.00  0.00     0.061 C 
ATOM     71  N   UNL A   1      31.481  26.234  24.538  1.00  0.00    -0.287 N 
ATOM     72  S   UNL A   1      32.485  26.699  22.270  1.00  0.00    -0.085 SA
ATOM     73  C   UNL A   1      32.658  26.186  26.500  1.00  0.00     0.104 C 
ATOM     74  C   UNL A   1      31.284  26.155  25.912  1.00  0.00     0.228 C 
ATOM     75  C   UNL A   1      31.671  24.934  23.872  1.00  0.00     0.061 A 
ATOM     76  C   UNL A   1      32.354  25.035  22.668  1.00  0.00     0.034 A 
ATOM     77  O   UNL A   1      30.274  25.836  26.501  1.00  0.00    -0.274 OA
ATOM     78  C   UNL A   1      31.524  23.673  24.434  1.00  0.00     0.048 A 
ATOM     79  C   UNL A   1      33.025  23.994  22.058  1.00  0.00     0.019 A 
ATOM     80  C   UNL A   1      32.194  22.592  23.832  1.00  0.00     0.043 A 
ATOM     81  C   UNL A   1      32.969  22.756  22.673  1.00  0.00     0.022 A 
ATOM     82  Cl  UNL A   1      32.152  21.043  24.578  1.00  0.00    -0.084 Cl
ENDBRANCH  66  69
ENDBRANCH  64  65
ENDBRANCH  63  64
ENDBRANCH  62  63
ENDBRANCH   1  62
TORSDOF 11
ENDMDL
MODEL 3
REMARK VINA RESULT:     -12.0      1.120      6.248
REMARK SMILES O=C(NCCCCNC(=O)[C@@]12CCC(=O)N1c1cc(Cl)ccc1S2)c1ccc(-c2c3nc(c(-c4c(F)cccc4F)c4ccc([nH]4)c(-c4c(F)cccc4F)c4nc(c(-c5c(F)cccc5F)c5ccc2[nH]5)C=C4)C=C3)cc1
REMARK SMILES IDX 4 1 3 2 1 3 2 4 25 6 26 7 78 8 27 9 77 10 28 11 29 12 30 13
REMARK SMILES IDX 71 14 31 15 76 16 70 17 72 18 32 19 75 20 69 21 68 22 33 24
REMARK SMILES IDX 59 25 42 26 58 27 43 28 46 29 57 30 73 31 44 32 45 33 56 35
REMARK SMILES IDX 74 36 47 37 34 38 35 39 40 40 36 41 37 42 39 43 41 44 38 45
REMARK SMILES IDX 60 46 61 47 66 48 62 49 63 50 65 51 67 52 64 53 48 54 49 55
REMARK SMILES IDX 54 56 50 57 51 58 53 59 55 60 52 61 5 62 6 63 7 64 8 65 9 66
REMARK SMILES IDX 10 68 11 69 12 70 16 71 24 72 13 73 14 74 17 75 23 76 15 77
REMARK SMILES IDX 18 78 22 79 19 80 21 81 20 82
REMARK H PARENT 3 5 72 23 46 34 8 67
REMARK Flexibility Score: inf
ROOT
ATOM      1  C   UNL A   1      38.883  19.971  25.964  1.00  0.00     0.116 C 
ENDROOT
BRANCH   1   2
ATOM      2  N   UNL A   1      40.041  19.094  25.884  1.00  0.00    -0.352 N 
ATOM      3  O   UNL A   1      42.216  18.536  25.751  1.00  0.00    -0.269 OA
ATOM      4  C   UNL A   1      41.376  19.398  25.988  1.00  0.00     0.251 C 
ATOM      5  H   UNL A   1      39.838  18.143  25.731  1.00  0.00     0.163 HD
BRANCH   4   6
ATOM      6  C   UNL A   1      41.802  20.763  26.369  1.00  0.00     0.039 A 
ATOM      7  C   UNL A   1      41.998  21.055  27.721  1.00  0.00     0.014 A 
ATOM      8  C   UNL A   1      41.985  21.759  25.407  1.00  0.00     0.014 A 
ATOM      9  C   UNL A   1      42.405  22.335  28.099  1.00  0.00     0.010 A 
ATOM     10  C   UNL A   1      42.499  22.996  25.774  1.00  0.00     0.010 A 
ATOM     11  C   UNL A   1      42.676  23.312  27.128  1.00  0.00    -0.014 A 
BRANCH  11  12
ATOM     12  C   UNL A   1      43.052  24.697  27.513  1.00  0.00     0.031 A 
ATOM     13  C   UNL A   1      44.497  25.120  27.446  1.00  0.00     0.074 A 
ATOM     14  C   UNL A   1      42.113  25.565  27.932  1.00  0.00     0.049 A 
ATOM     15  N   UNL A   1      45.043  26.266  27.768  1.00  0.00    -0.248 NA
ATOM     16  C   UNL A   1      45.463  24.112  26.977  1.00  0.00     0.031 C 
ATOM     17  C   UNL A   1      40.684  25.274  28.062  1.00  0.00     0.029 A 
ATOM     18  N   UNL A   1      42.222  26.875  28.325  1.00  0.00    -0.354 N 
ATOM     19  C   UNL A   1      46.406  26.111  27.546  1.00  0.00     0.074 A 
ATOM     20  C   UNL A   1      46.616  24.739  27.142  1.00  0.00     0.031 C 
ATOM     21  C   UNL A   1      40.045  26.385  28.463  1.00  0.00     0.029 A 
ATOM     22  C   UNL A   1      41.022  27.449  28.669  1.00  0.00     0.049 A 
ATOM     23  H   UNL A   1      43.078  27.359  28.356  1.00  0.00     0.167 HD
ATOM     24  C   UNL A   1      47.394  27.032  27.637  1.00  0.00     0.037 A 
ATOM     25  C   UNL A   1      40.748  28.691  29.110  1.00  0.00     0.037 A 
ATOM     26  C   UNL A   1      47.185  28.399  28.034  1.00  0.00     0.049 A 
ATOM     27  C   UNL A   1      41.874  29.677  29.271  1.00  0.00     0.074 A 
ATOM     28  C   UNL A   1      48.112  29.422  28.131  1.00  0.00     0.029 A 
ATOM     29  N   UNL A   1      45.960  28.931  28.411  1.00  0.00    -0.354 N 
ATOM     30  N   UNL A   1      43.151  29.533  29.007  1.00  0.00    -0.248 NA
ATOM     31  C   UNL A   1      41.518  31.004  29.794  1.00  0.00     0.031 C 
ATOM     32  C   UNL A   1      47.460  30.554  28.631  1.00  0.00     0.029 A 
ATOM     33  C   UNL A   1      46.113  30.260  28.774  1.00  0.00     0.049 A 
ATOM     34  H   UNL A   1      45.108  28.438  28.418  1.00  0.00     0.167 HD
ATOM     35  C   UNL A   1      43.741  30.758  29.297  1.00  0.00     0.074 A 
ATOM     36  C   UNL A   1      42.679  31.637  29.738  1.00  0.00     0.031 C 
ATOM     37  C   UNL A   1      45.044  31.123  29.210  1.00  0.00     0.037 A 
BRANCH  24  38
ATOM     38  C   UNL A   1      48.791  26.579  27.310  1.00  0.00     0.057 A 
ATOM     39  C   UNL A   1      49.609  26.013  28.296  1.00  0.00     0.134 A 
ATOM     40  C   UNL A   1      49.330  26.704  26.022  1.00  0.00     0.134 A 
ATOM     41  F   UNL A   1      49.161  25.866  29.552  1.00  0.00    -0.206 F 
ATOM     42  C   UNL A   1      50.908  25.587  28.013  1.00  0.00     0.040 A 
ATOM     43  C   UNL A   1      50.615  26.249  25.717  1.00  0.00     0.040 A 
ATOM     44  F   UNL A   1      48.596  27.219  25.023  1.00  0.00    -0.206 F 
ATOM     45  C   UNL A   1      51.410  25.696  26.718  1.00  0.00     0.006 A 
ENDBRANCH  24  38
BRANCH  25  46
ATOM     46  C   UNL A   1      39.350  29.087  29.429  1.00  0.00     0.057 A 
ATOM     47  C   UNL A   1      38.477  29.553  28.438  1.00  0.00     0.134 A 
ATOM     48  C   UNL A   1      38.839  28.960  30.727  1.00  0.00     0.134 A 
ATOM     49  F   UNL A   1      38.902  29.704  27.176  1.00  0.00    -0.206 F 
ATOM     50  C   UNL A   1      37.149  29.877  28.726  1.00  0.00     0.040 A 
ATOM     51  C   UNL A   1      37.506  29.249  31.022  1.00  0.00     0.040 A 
ATOM     52  F   UNL A   1      39.618  28.498  31.716  1.00  0.00    -0.206 F 
ATOM     53  C   UNL A   1      36.658  29.712  30.019  1.00  0.00     0.006 A 
ENDBRANCH  25  46
BRANCH  37  54
ATOM     54  C   UNL A   1      45.383  32.548  29.555  1.00  0.00     0.057 A 
ATOM     55  C   UNL A   1      45.353  33.544  28.571  1.00  0.00     0.134 A 
ATOM     56  C   UNL A   1      45.755  32.933  30.850  1.00  0.00     0.134 A 
ATOM     57  F   UNL A   1      45.016  33.244  27.307  1.00  0.00    -0.206 F 
ATOM     58  C   UNL A   1      45.680  34.869  28.860  1.00  0.00     0.040 A 
ATOM     59  C   UNL A   1      46.050  34.263  31.160  1.00  0.00     0.040 A 
ATOM     60  F   UNL A   1      45.790  32.033  31.845  1.00  0.00    -0.206 F 
ATOM     61  C   UNL A   1      46.020  35.233  30.161  1.00  0.00     0.006 A 
ENDBRANCH  37  54
ENDBRANCH  11  12
ENDBRANCH   4   6
ENDBRANCH   1   2
BRANCH   1  62
ATOM     62  C   UNL A   1      37.842  19.682  24.901  1.00  0.00     0.023 C 
BRANCH  62  63
ATOM     63  C   UNL A   1      36.904  20.837  24.622  1.00  0.00     0.023 C 
BRANCH  63  64
ATOM     64  C   UNL A   1      35.433  20.600  25.002  1.00  0.00     0.116 C 
BRANCH  64  65
ATOM     65  N   UNL A   1      35.048  21.077  26.354  1.00  0.00    -0.353 N 
ATOM     66  C   UNL A   1      34.218  22.174  26.723  1.00  0.00     0.257 C 
ATOM     67  H   UNL A   1      35.420  20.560  27.105  1.00  0.00     0.163 HD
ATOM     68  O   UNL A   1      34.017  22.407  27.912  1.00  0.00    -0.271 OA
BRANCH  66  69
ATOM     69  C   UNL A   1      33.491  22.942  25.514  1.00  0.00     0.177 C 
ATOM     70  C   UNL A   1      34.596  24.067  25.407  1.00  0.00     0.061 C 
ATOM     71  N   UNL A   1      32.951  23.102  24.130  1.00  0.00    -0.287 N 
ATOM     72  S   UNL A   1      31.756  22.608  26.298  1.00  0.00    -0.085 SA
ATOM     73  C   UNL A   1      34.799  24.437  23.936  1.00  0.00     0.104 C 
ATOM     74  C   UNL A   1      33.912  23.483  23.202  1.00  0.00     0.228 C 
ATOM     75  C   UNL A   1      31.770  23.979  24.184  1.00  0.00     0.061 A 
ATOM     76  C   UNL A   1      31.099  23.914  25.398  1.00  0.00     0.034 A 
ATOM     77  O   UNL A   1      33.887  23.329  21.999  1.00  0.00    -0.274 OA
ATOM     78  C   UNL A   1      31.460  25.024  23.324  1.00  0.00     0.048 A 
ATOM     79  C   UNL A   1      30.251  24.891  25.878  1.00  0.00     0.019 A 
ATOM     80  C   UNL A   1      30.594  26.033  23.785  1.00  0.00     0.043 A 
ATOM     81  C   UNL A   1      30.021  25.988  25.066  1.00  0.00     0.022 A 
ATOM     82  Cl  UNL A   1      30.299  27.414  22.803  1.00  0.00    -0.084 Cl
ENDBRANCH  66  69
ENDBRANCH  64  65
ENDBRANCH  63  64
ENDBRANCH  62  63
ENDBRANCH   1  62
TORSDOF 11
ENDMDL
