MODEL 1
REMARK VINA RESULT:     -12.3      0.000      0.000
REMARK SMILES NS(=O)(=O)c1ccc(N2N=C(C(=O)NCCCCNC(=O)c3ccc(-c4c5nc(c(-c6c(F)cccc6F)c6ccc([nH]6)c(-c6c(F)cccc6F)c6nc(c(-c7c(F)cccc7F)c7ccc4[nH]7)C=C6)C=C5)cc3)C[C@H]2c2cccs2)cc1
REMARK SMILES IDX 16 1 15 2 14 3 12 4 13 5 11 7 9 8 10 9 77 10 76 11 8 12 5 13
REMARK SMILES IDX 6 14 84 15 7 16 83 17 2 18 3 19 4 20 1 21 78 24 79 25 82 26
REMARK SMILES IDX 80 27 81 28 17 29 18 30 19 31 20 32 21 34 22 35 23 36 75 37
REMARK SMILES IDX 24 38 74 39 25 40 26 41 27 42 68 43 28 44 73 45 67 46 69 47
REMARK SMILES IDX 29 48 72 49 66 50 65 51 30 53 56 54 39 55 55 56 40 57 43 58
REMARK SMILES IDX 54 59 70 60 41 61 42 62 53 64 71 65 44 66 31 67 32 68 37 69
REMARK SMILES IDX 33 70 34 71 36 72 38 73 35 74 57 75 58 76 63 77 59 78 60 79
REMARK SMILES IDX 62 80 64 81 61 82 45 83 46 84 51 85 47 86 48 87 50 88 52 89
REMARK SMILES IDX 49 90
REMARK H PARENT 14 6 1 22 1 23 19 33 69 52 43 63
REMARK Flexibility Score: inf
ROOT
ATOM      1  C   UNL A   1      35.366  34.127  28.522  1.00  0.00     0.023 C 
ENDROOT
BRANCH   1   2
ATOM      2  C   UNL A   1      34.731  32.862  27.961  1.00  0.00     0.116 C 
BRANCH   2   3
ATOM      3  N   UNL A   1      35.424  31.671  28.414  1.00  0.00    -0.351 N 
ATOM      4  C   UNL A   1      35.283  30.326  28.171  1.00  0.00     0.267 C 
ATOM      5  O   UNL A   1      36.001  29.558  28.806  1.00  0.00    -0.268 OA
ATOM      6  H   UNL A   1      36.160  31.871  29.035  1.00  0.00     0.163 HD
BRANCH   4   7
ATOM      7  C   UNL A   1      34.330  29.747  27.136  1.00  0.00     0.128 C 
ATOM      8  N   UNL A   1      32.502  29.442  26.060  1.00  0.00    -0.256 N 
ATOM      9  N   UNL A   1      33.164  30.276  26.917  1.00  0.00    -0.171 NA
ATOM     10  C   UNL A   1      33.336  28.341  25.556  1.00  0.00     0.154 C 
ATOM     11  C   UNL A   1      34.648  28.552  26.311  1.00  0.00     0.097 C 
BRANCH   8  12
ATOM     12  C   UNL A   1      31.477  29.950  25.259  1.00  0.00     0.060 A 
ATOM     13  C   UNL A   1      29.330  30.969  23.763  1.00  0.00     0.082 A 
ATOM     14  C   UNL A   1      29.850  29.710  23.455  1.00  0.00     0.024 A 
ATOM     15  C   UNL A   1      29.884  31.735  24.785  1.00  0.00     0.024 A 
ATOM     16  C   UNL A   1      30.928  29.213  24.198  1.00  0.00     0.029 A 
ATOM     17  C   UNL A   1      30.956  31.224  25.518  1.00  0.00     0.029 A 
BRANCH  13  18
ATOM     18  S   UNL A   1      27.964  31.610  22.845  1.00  0.00     0.238 S 
ATOM     19  O   UNL A   1      26.812  31.713  23.716  1.00  0.00    -0.207 OA
ATOM     20  O   UNL A   1      27.912  30.944  21.569  1.00  0.00    -0.207 OA
BRANCH  18  21
ATOM     21  N   UNL A   1      28.424  33.195  22.541  1.00  0.00    -0.225 NA
ATOM     22  H   UNL A   1      29.048  33.220  21.735  1.00  0.00     0.137 HD
ATOM     23  H   UNL A   1      28.908  33.571  23.357  1.00  0.00     0.137 HD
ENDBRANCH  18  21
ENDBRANCH  13  18
ENDBRANCH   8  12
BRANCH  10  24
ATOM     24  C   UNL A   1      32.779  26.924  25.659  1.00  0.00     0.030 A 
ATOM     25  C   UNL A   1      31.770  26.489  26.505  1.00  0.00     0.017 A 
ATOM     26  S   UNL A   1      33.343  25.613  24.695  1.00  0.00    -0.147 S 
ATOM     27  C   UNL A   1      31.455  25.110  26.340  1.00  0.00     0.012 A 
ATOM     28  C   UNL A   1      32.198  24.530  25.339  1.00  0.00     0.065 A 
ENDBRANCH  10  24
ENDBRANCH   4   7
ENDBRANCH   2   3
ENDBRANCH   1   2
BRANCH   1  29
ATOM     29  C   UNL A   1      34.357  35.169  28.993  1.00  0.00     0.023 C 
BRANCH  29  30
ATOM     30  C   UNL A   1      33.134  34.599  29.701  1.00  0.00     0.116 C 
BRANCH  30  31
ATOM     31  N   UNL A   1      32.528  35.529  30.645  1.00  0.00    -0.352 N 
ATOM     32  C   UNL A   1      32.862  35.758  31.958  1.00  0.00     0.251 C 
ATOM     33  H   UNL A   1      31.782  36.067  30.294  1.00  0.00     0.163 HD
ATOM     34  O   UNL A   1      32.171  36.486  32.662  1.00  0.00    -0.269 OA
BRANCH  32  35
ATOM     35  C   UNL A   1      34.044  35.079  32.522  1.00  0.00     0.039 A 
ATOM     36  C   UNL A   1      33.896  33.806  33.074  1.00  0.00     0.014 A 
ATOM     37  C   UNL A   1      35.305  35.676  32.437  1.00  0.00     0.014 A 
ATOM     38  C   UNL A   1      35.028  33.097  33.471  1.00  0.00     0.010 A 
ATOM     39  C   UNL A   1      36.437  34.932  32.748  1.00  0.00     0.010 A 
ATOM     40  C   UNL A   1      36.311  33.636  33.269  1.00  0.00    -0.014 A 
BRANCH  40  41
ATOM     41  C   UNL A   1      37.532  32.855  33.587  1.00  0.00     0.031 A 
ATOM     42  C   UNL A   1      38.290  33.125  34.856  1.00  0.00     0.074 A 
ATOM     43  C   UNL A   1      37.997  31.954  32.700  1.00  0.00     0.049 A 
ATOM     44  N   UNL A   1      39.407  32.591  35.281  1.00  0.00    -0.248 NA
ATOM     45  C   UNL A   1      37.737  34.153  35.752  1.00  0.00     0.031 C 
ATOM     46  C   UNL A   1      37.383  31.642  31.408  1.00  0.00     0.029 A 
ATOM     47  N   UNL A   1      39.101  31.141  32.748  1.00  0.00    -0.354 N 
ATOM     48  C   UNL A   1      39.694  33.226  36.483  1.00  0.00     0.074 A 
ATOM     49  C   UNL A   1      38.670  34.228  36.687  1.00  0.00     0.031 C 
ATOM     50  C   UNL A   1      38.103  30.686  30.799  1.00  0.00     0.029 A 
ATOM     51  C   UNL A   1      39.250  30.349  31.634  1.00  0.00     0.049 A 
ATOM     52  H   UNL A   1      39.728  31.126  33.507  1.00  0.00     0.167 HD
ATOM     53  C   UNL A   1      40.704  32.981  37.350  1.00  0.00     0.037 A 
ATOM     54  C   UNL A   1      40.209  29.457  31.319  1.00  0.00     0.037 A 
ATOM     55  C   UNL A   1      41.711  31.972  37.148  1.00  0.00     0.049 A 
ATOM     56  C   UNL A   1      41.328  29.210  32.291  1.00  0.00     0.074 A 
ATOM     57  C   UNL A   1      42.740  31.602  37.995  1.00  0.00     0.029 A 
ATOM     58  N   UNL A   1      41.822  31.182  36.014  1.00  0.00    -0.354 N 
ATOM     59  N   UNL A   1      41.544  29.760  33.462  1.00  0.00    -0.248 NA
ATOM     60  C   UNL A   1      42.336  28.212  31.903  1.00  0.00     0.031 C 
ATOM     61  C   UNL A   1      43.509  30.628  37.349  1.00  0.00     0.029 A 
ATOM     62  C   UNL A   1      42.921  30.345  36.127  1.00  0.00     0.049 A 
ATOM     63  H   UNL A   1      41.210  31.210  35.243  1.00  0.00     0.167 HD
ATOM     64  C   UNL A   1      42.691  29.156  33.962  1.00  0.00     0.074 A 
ATOM     65  C   UNL A   1      43.117  28.188  32.973  1.00  0.00     0.031 C 
ATOM     66  C   UNL A   1      43.333  29.383  35.135  1.00  0.00     0.037 A 
BRANCH  53  67
ATOM     67  C   UNL A   1      40.770  33.823  38.592  1.00  0.00     0.057 A 
ATOM     68  C   UNL A   1      40.026  33.515  39.740  1.00  0.00     0.134 A 
ATOM     69  C   UNL A   1      41.603  34.948  38.649  1.00  0.00     0.134 A 
ATOM     70  F   UNL A   1      39.198  32.458  39.750  1.00  0.00    -0.206 F 
ATOM     71  C   UNL A   1      40.082  34.311  40.884  1.00  0.00     0.040 A 
ATOM     72  C   UNL A   1      41.693  35.734  39.800  1.00  0.00     0.040 A 
ATOM     73  F   UNL A   1      42.348  35.299  37.591  1.00  0.00    -0.206 F 
ATOM     74  C   UNL A   1      40.923  35.421  40.919  1.00  0.00     0.006 A 
ENDBRANCH  53  67
BRANCH  54  75
ATOM     75  C   UNL A   1      40.139  28.718  30.033  1.00  0.00     0.057 A 
ATOM     76  C   UNL A   1      40.809  29.181  28.895  1.00  0.00     0.134 A 
ATOM     77  C   UNL A   1      39.404  27.532  29.909  1.00  0.00     0.134 A 
ATOM     78  F   UNL A   1      41.516  30.320  28.944  1.00  0.00    -0.206 F 
ATOM     79  C   UNL A   1      40.738  28.503  27.676  1.00  0.00     0.040 A 
ATOM     80  C   UNL A   1      39.346  26.829  28.705  1.00  0.00     0.040 A 
ATOM     81  F   UNL A   1      38.747  27.029  30.965  1.00  0.00    -0.206 F 
ATOM     82  C   UNL A   1      40.008  27.320  27.580  1.00  0.00     0.006 A 
ENDBRANCH  54  75
BRANCH  66  83
ATOM     83  C   UNL A   1      44.542  28.543  35.433  1.00  0.00     0.057 A 
ATOM     84  C   UNL A   1      45.839  28.971  35.124  1.00  0.00     0.134 A 
ATOM     85  C   UNL A   1      44.406  27.307  36.077  1.00  0.00     0.134 A 
ATOM     86  F   UNL A   1      46.039  30.140  34.497  1.00  0.00    -0.206 F 
ATOM     87  C   UNL A   1      46.956  28.188  35.423  1.00  0.00     0.040 A 
ATOM     88  C   UNL A   1      45.516  26.530  36.409  1.00  0.00     0.040 A 
ATOM     89  F   UNL A   1      43.193  26.841  36.411  1.00  0.00    -0.206 F 
ATOM     90  C   UNL A   1      46.796  26.967  36.075  1.00  0.00     0.006 A 
ENDBRANCH  66  83
ENDBRANCH  40  41
ENDBRANCH  32  35
ENDBRANCH  30  31
ENDBRANCH  29  30
ENDBRANCH   1  29
TORSDOF 15
ENDMDL
MODEL 2
REMARK VINA RESULT:     -12.3      4.804      9.669
REMARK SMILES NS(=O)(=O)c1ccc(N2N=C(C(=O)NCCCCNC(=O)c3ccc(-c4c5nc(c(-c6c(F)cccc6F)c6ccc([nH]6)c(-c6c(F)cccc6F)c6nc(c(-c7c(F)cccc7F)c7ccc4[nH]7)C=C6)C=C5)cc3)C[C@H]2c2cccs2)cc1
REMARK SMILES IDX 16 1 15 2 14 3 12 4 13 5 11 7 9 8 10 9 77 10 76 11 8 12 5 13
REMARK SMILES IDX 6 14 84 15 7 16 83 17 2 18 3 19 4 20 1 21 78 24 79 25 82 26
REMARK SMILES IDX 80 27 81 28 17 29 18 30 19 31 20 32 21 34 22 35 23 36 75 37
REMARK SMILES IDX 24 38 74 39 25 40 26 41 27 42 68 43 28 44 73 45 67 46 69 47
REMARK SMILES IDX 29 48 72 49 66 50 65 51 30 53 56 54 39 55 55 56 40 57 43 58
REMARK SMILES IDX 54 59 70 60 41 61 42 62 53 64 71 65 44 66 31 67 32 68 37 69
REMARK SMILES IDX 33 70 34 71 36 72 38 73 35 74 57 75 58 76 63 77 59 78 60 79
REMARK SMILES IDX 62 80 64 81 61 82 45 83 46 84 51 85 47 86 48 87 50 88 52 89
REMARK SMILES IDX 49 90
REMARK H PARENT 14 6 1 22 1 23 19 33 69 52 43 63
REMARK Flexibility Score: inf
ROOT
ATOM      1  C   UNL A   1      41.724  21.408  26.848  1.00  0.00     0.023 C 
ENDROOT
BRANCH   1   2
ATOM      2  C   UNL A   1      40.333  21.750  26.332  1.00  0.00     0.116 C 
BRANCH   2   3
ATOM      3  N   UNL A   1      39.970  23.119  26.641  1.00  0.00    -0.351 N 
ATOM      4  C   UNL A   1      38.824  23.864  26.504  1.00  0.00     0.267 C 
ATOM      5  O   UNL A   1      38.887  25.056  26.792  1.00  0.00    -0.268 OA
ATOM      6  H   UNL A   1      40.712  23.630  27.037  1.00  0.00     0.163 HD
BRANCH   4   7
ATOM      7  C   UNL A   1      37.485  23.287  26.066  1.00  0.00     0.128 C 
ATOM      8  N   UNL A   1      36.108  21.961  25.101  1.00  0.00    -0.256 N 
ATOM      9  N   UNL A   1      37.401  22.115  25.514  1.00  0.00    -0.171 NA
ATOM     10  C   UNL A   1      35.223  23.054  25.531  1.00  0.00     0.154 C 
ATOM     11  C   UNL A   1      36.194  24.005  26.229  1.00  0.00     0.097 C 
BRANCH   8  12
ATOM     12  C   UNL A   1      35.584  20.675  24.940  1.00  0.00     0.060 A 
ATOM     13  C   UNL A   1      34.600  18.084  24.492  1.00  0.00     0.082 A 
ATOM     14  C   UNL A   1      33.712  19.160  24.543  1.00  0.00     0.024 A 
ATOM     15  C   UNL A   1      35.965  18.280  24.689  1.00  0.00     0.024 A 
ATOM     16  C   UNL A   1      34.208  20.449  24.778  1.00  0.00     0.029 A 
ATOM     17  C   UNL A   1      36.444  19.570  24.919  1.00  0.00     0.029 A 
BRANCH  13  18
ATOM     18  S   UNL A   1      33.996  16.452  24.187  1.00  0.00     0.238 S 
ATOM     19  O   UNL A   1      34.595  15.538  25.137  1.00  0.00    -0.207 OA
ATOM     20  O   UNL A   1      34.012  16.212  22.767  1.00  0.00    -0.207 OA
BRANCH  18  21
ATOM     21  N   UNL A   1      32.383  16.557  24.639  1.00  0.00    -0.225 NA
ATOM     22  H   UNL A   1      32.041  15.630  24.893  1.00  0.00     0.137 HD
ATOM     23  H   UNL A   1      31.835  16.920  23.859  1.00  0.00     0.137 HD
ENDBRANCH  18  21
ENDBRANCH  13  18
ENDBRANCH   8  12
BRANCH  10  24
ATOM     24  C   UNL A   1      34.352  23.722  24.470  1.00  0.00     0.030 A 
ATOM     25  C   UNL A   1      34.419  23.526  23.098  1.00  0.00     0.017 A 
ATOM     26  S   UNL A   1      33.108  24.852  24.842  1.00  0.00    -0.147 S 
ATOM     27  C   UNL A   1      33.446  24.275  22.377  1.00  0.00     0.012 A 
ATOM     28  C   UNL A   1      32.627  24.993  23.215  1.00  0.00     0.065 A 
ENDBRANCH  10  24
ENDBRANCH   4   7
ENDBRANCH   2   3
ENDBRANCH   1   2
BRANCH   1  29
ATOM     29  C   UNL A   1      42.835  21.634  25.829  1.00  0.00     0.023 C 
BRANCH  29  30
ATOM     30  C   UNL A   1      42.744  22.951  25.066  1.00  0.00     0.116 C 
BRANCH  30  31
ATOM     31  N   UNL A   1      44.045  23.529  24.756  1.00  0.00    -0.352 N 
ATOM     32  C   UNL A   1      44.575  24.724  25.178  1.00  0.00     0.251 C 
ATOM     33  H   UNL A   1      44.621  22.990  24.167  1.00  0.00     0.163 HD
ATOM     34  O   UNL A   1      45.639  25.132  24.725  1.00  0.00    -0.269 OA
BRANCH  32  35
ATOM     35  C   UNL A   1      43.822  25.532  26.156  1.00  0.00     0.039 A 
ATOM     36  C   UNL A   1      43.044  24.882  27.115  1.00  0.00     0.014 A 
ATOM     37  C   UNL A   1      43.946  26.924  26.164  1.00  0.00     0.014 A 
ATOM     38  C   UNL A   1      42.450  25.627  28.133  1.00  0.00     0.010 A 
ATOM     39  C   UNL A   1      43.430  27.651  27.230  1.00  0.00     0.010 A 
ATOM     40  C   UNL A   1      42.677  27.011  28.225  1.00  0.00    -0.014 A 
BRANCH  40  41
ATOM     41  C   UNL A   1      42.143  27.804  29.359  1.00  0.00     0.031 A 
ATOM     42  C   UNL A   1      42.805  27.734  30.706  1.00  0.00     0.074 A 
ATOM     43  C   UNL A   1      41.020  28.531  29.195  1.00  0.00     0.049 A 
ATOM     44  N   UNL A   1      42.454  28.305  31.831  1.00  0.00    -0.248 NA
ATOM     45  C   UNL A   1      44.003  26.888  30.812  1.00  0.00     0.031 C 
ATOM     46  C   UNL A   1      40.252  28.634  27.952  1.00  0.00     0.029 A 
ATOM     47  N   UNL A   1      40.323  29.313  30.081  1.00  0.00    -0.354 N 
ATOM     48  C   UNL A   1      43.378  27.876  32.776  1.00  0.00     0.074 A 
ATOM     49  C   UNL A   1      44.265  26.948  32.108  1.00  0.00     0.031 C 
ATOM     50  C   UNL A   1      39.208  29.455  28.148  1.00  0.00     0.029 A 
ATOM     51  C   UNL A   1      39.207  29.901  29.536  1.00  0.00     0.049 A 
ATOM     52  H   UNL A   1      40.597  29.440  31.018  1.00  0.00     0.167 HD
ATOM     53  C   UNL A   1      43.492  28.239  34.074  1.00  0.00     0.037 A 
ATOM     54  C   UNL A   1      38.281  30.702  30.097  1.00  0.00     0.037 A 
ATOM     55  C   UNL A   1      42.614  29.175  34.729  1.00  0.00     0.049 A 
ATOM     56  C   UNL A   1      38.421  31.083  31.545  1.00  0.00     0.074 A 
ATOM     57  C   UNL A   1      42.683  29.658  36.023  1.00  0.00     0.029 A 
ATOM     58  N   UNL A   1      41.502  29.759  34.141  1.00  0.00    -0.354 N 
ATOM     59  N   UNL A   1      39.345  30.733  32.406  1.00  0.00    -0.248 NA
ATOM     60  C   UNL A   1      37.391  31.975  32.098  1.00  0.00     0.031 C 
ATOM     61  C   UNL A   1      41.578  30.489  36.238  1.00  0.00     0.029 A 
ATOM     62  C   UNL A   1      40.857  30.575  35.057  1.00  0.00     0.049 A 
ATOM     63  H   UNL A   1      41.213  29.615  33.211  1.00  0.00     0.167 HD
ATOM     64  C   UNL A   1      39.028  31.385  33.592  1.00  0.00     0.074 A 
ATOM     65  C   UNL A   1      37.833  32.161  33.333  1.00  0.00     0.031 C 
ATOM     66  C   UNL A   1      39.669  31.345  34.786  1.00  0.00     0.037 A 
BRANCH  53  67
ATOM     67  C   UNL A   1      44.603  27.619  34.872  1.00  0.00     0.057 A 
ATOM     68  C   UNL A   1      44.429  26.424  35.585  1.00  0.00     0.134 A 
ATOM     69  C   UNL A   1      45.871  28.213  34.913  1.00  0.00     0.134 A 
ATOM     70  F   UNL A   1      43.236  25.808  35.599  1.00  0.00    -0.206 F 
ATOM     71  C   UNL A   1      45.462  25.862  36.335  1.00  0.00     0.040 A 
ATOM     72  C   UNL A   1      46.922  27.642  35.634  1.00  0.00     0.040 A 
ATOM     73  F   UNL A   1      46.112  29.353  34.250  1.00  0.00    -0.206 F 
ATOM     74  C   UNL A   1      46.716  26.468  36.355  1.00  0.00     0.006 A 
ENDBRANCH  53  67
BRANCH  54  75
ATOM     75  C   UNL A   1      37.152  31.215  29.279  1.00  0.00     0.057 A 
ATOM     76  C   UNL A   1      36.030  30.420  29.016  1.00  0.00     0.134 A 
ATOM     77  C   UNL A   1      37.164  32.508  28.743  1.00  0.00     0.134 A 
ATOM     78  F   UNL A   1      35.966  29.166  29.488  1.00  0.00    -0.206 F 
ATOM     79  C   UNL A   1      34.969  30.884  28.236  1.00  0.00     0.040 A 
ATOM     80  C   UNL A   1      36.099  32.996  27.985  1.00  0.00     0.040 A 
ATOM     81  F   UNL A   1      38.205  33.324  28.967  1.00  0.00    -0.206 F 
ATOM     82  C   UNL A   1      35.000  32.180  27.722  1.00  0.00     0.006 A 
ENDBRANCH  54  75
BRANCH  66  83
ATOM     83  C   UNL A   1      39.116  32.193  35.895  1.00  0.00     0.057 A 
ATOM     84  C   UNL A   1      38.239  31.678  36.859  1.00  0.00     0.134 A 
ATOM     85  C   UNL A   1      39.500  33.534  36.022  1.00  0.00     0.134 A 
ATOM     86  F   UNL A   1      37.822  30.404  36.788  1.00  0.00    -0.206 F 
ATOM     87  C   UNL A   1      37.746  32.473  37.895  1.00  0.00     0.040 A 
ATOM     88  C   UNL A   1      39.038  34.330  37.072  1.00  0.00     0.040 A 
ATOM     89  F   UNL A   1      40.344  34.089  35.140  1.00  0.00    -0.206 F 
ATOM     90  C   UNL A   1      38.153  33.801  38.008  1.00  0.00     0.006 A 
ENDBRANCH  66  83
ENDBRANCH  40  41
ENDBRANCH  32  35
ENDBRANCH  30  31
ENDBRANCH  29  30
ENDBRANCH   1  29
TORSDOF 15
ENDMDL
MODEL 3
REMARK VINA RESULT:     -12.3      6.851     11.829
REMARK SMILES NS(=O)(=O)c1ccc(N2N=C(C(=O)NCCCCNC(=O)c3ccc(-c4c5nc(c(-c6c(F)cccc6F)c6ccc([nH]6)c(-c6c(F)cccc6F)c6nc(c(-c7c(F)cccc7F)c7ccc4[nH]7)C=C6)C=C5)cc3)C[C@H]2c2cccs2)cc1
REMARK SMILES IDX 16 1 15 2 14 3 12 4 13 5 11 7 9 8 10 9 77 10 76 11 8 12 5 13
REMARK SMILES IDX 6 14 84 15 7 16 83 17 2 18 3 19 4 20 1 21 78 24 79 25 82 26
REMARK SMILES IDX 80 27 81 28 17 29 18 30 19 31 20 32 21 34 22 35 23 36 75 37
REMARK SMILES IDX 24 38 74 39 25 40 26 41 27 42 68 43 28 44 73 45 67 46 69 47
REMARK SMILES IDX 29 48 72 49 66 50 65 51 30 53 56 54 39 55 55 56 40 57 43 58
REMARK SMILES IDX 54 59 70 60 41 61 42 62 53 64 71 65 44 66 31 67 32 68 37 69
REMARK SMILES IDX 33 70 34 71 36 72 38 73 35 74 57 75 58 76 63 77 59 78 60 79
REMARK SMILES IDX 62 80 64 81 61 82 45 83 46 84 51 85 47 86 48 87 50 88 52 89
REMARK SMILES IDX 49 90
REMARK H PARENT 14 6 1 22 1 23 19 33 69 52 43 63
REMARK Flexibility Score: inf
ROOT
ATOM      1  C   UNL A   1      41.230  21.245  26.173  1.00  0.00     0.023 C 
ENDROOT
BRANCH   1   2
ATOM      2  C   UNL A   1      39.760  21.638  26.129  1.00  0.00     0.116 C 
BRANCH   2   3
ATOM      3  N   UNL A   1      39.541  22.953  26.699  1.00  0.00    -0.351 N 
ATOM      4  C   UNL A   1      38.568  23.913  26.558  1.00  0.00     0.267 C 
ATOM      5  O   UNL A   1      38.740  24.982  27.136  1.00  0.00    -0.268 OA
ATOM      6  H   UNL A   1      40.250  23.219  27.328  1.00  0.00     0.163 HD
BRANCH   4   7
ATOM      7  C   UNL A   1      37.282  23.706  25.772  1.00  0.00     0.128 C 
ATOM      8  N   UNL A   1      35.224  23.938  25.222  1.00  0.00    -0.256 N 
ATOM      9  N   UNL A   1      36.250  24.476  25.946  1.00  0.00    -0.171 NA
ATOM     10  C   UNL A   1      35.632  22.797  24.387  1.00  0.00     0.154 C 
ATOM     11  C   UNL A   1      37.104  22.627  24.766  1.00  0.00     0.097 C 
BRANCH   8  12
ATOM     12  C   UNL A   1      34.175  24.758  24.799  1.00  0.00     0.060 A 
ATOM     13  C   UNL A   1      32.162  26.502  23.908  1.00  0.00     0.082 A 
ATOM     14  C   UNL A   1      32.250  26.185  25.266  1.00  0.00     0.024 A 
ATOM     15  C   UNL A   1      33.044  25.939  22.990  1.00  0.00     0.024 A 
ATOM     16  C   UNL A   1      33.250  25.305  25.701  1.00  0.00     0.029 A 
ATOM     17  C   UNL A   1      34.037  25.067  23.440  1.00  0.00     0.029 A 
BRANCH  13  18
ATOM     18  S   UNL A   1      30.916  27.616  23.340  1.00  0.00     0.238 S 
ATOM     19  O   UNL A   1      31.313  28.974  23.652  1.00  0.00    -0.207 OA
ATOM     20  O   UNL A   1      29.625  27.087  23.698  1.00  0.00    -0.207 OA
BRANCH  18  21
ATOM     21  N   UNL A   1      31.037  27.499  21.670  1.00  0.00    -0.225 NA
ATOM     22  H   UNL A   1      30.909  28.421  21.254  1.00  0.00     0.137 HD
ATOM     23  H   UNL A   1      30.318  26.865  21.321  1.00  0.00     0.137 HD
ENDBRANCH  18  21
ENDBRANCH  13  18
ENDBRANCH   8  12
BRANCH  10  24
ATOM     24  C   UNL A   1      34.811  21.515  24.487  1.00  0.00     0.030 A 
ATOM     25  C   UNL A   1      33.462  21.369  24.201  1.00  0.00     0.017 A 
ATOM     26  S   UNL A   1      35.474  20.004  24.979  1.00  0.00    -0.147 S 
ATOM     27  C   UNL A   1      32.995  20.034  24.363  1.00  0.00     0.012 A 
ATOM     28  C   UNL A   1      34.008  19.177  24.724  1.00  0.00     0.065 A 
ENDBRANCH  10  24
ENDBRANCH   4   7
ENDBRANCH   2   3
ENDBRANCH   1   2
BRANCH   1  29
ATOM     29  C   UNL A   1      41.482  19.762  25.927  1.00  0.00     0.023 C 
BRANCH  29  30
ATOM     30  C   UNL A   1      42.895  19.292  26.252  1.00  0.00     0.116 C 
BRANCH  30  31
ATOM     31  N   UNL A   1      43.619  18.795  25.089  1.00  0.00    -0.352 N 
ATOM     32  C   UNL A   1      44.486  19.470  24.264  1.00  0.00     0.251 C 
ATOM     33  H   UNL A   1      43.468  17.847  24.866  1.00  0.00     0.163 HD
ATOM     34  O   UNL A   1      44.920  18.944  23.246  1.00  0.00    -0.269 OA
BRANCH  32  35
ATOM     35  C   UNL A   1      44.855  20.858  24.603  1.00  0.00     0.039 A 
ATOM     36  C   UNL A   1      44.455  21.892  23.755  1.00  0.00     0.014 A 
ATOM     37  C   UNL A   1      45.534  21.135  25.793  1.00  0.00     0.014 A 
ATOM     38  C   UNL A   1      44.668  23.214  24.141  1.00  0.00     0.010 A 
ATOM     39  C   UNL A   1      45.663  22.452  26.216  1.00  0.00     0.010 A 
ATOM     40  C   UNL A   1      45.232  23.505  25.396  1.00  0.00    -0.014 A 
BRANCH  40  41
ATOM     41  C   UNL A   1      45.370  24.904  25.871  1.00  0.00     0.031 A 
ATOM     42  C   UNL A   1      46.715  25.575  25.857  1.00  0.00     0.074 A 
ATOM     43  C   UNL A   1      44.300  25.545  26.380  1.00  0.00     0.049 A 
ATOM     44  N   UNL A   1      47.049  26.767  26.283  1.00  0.00    -0.248 NA
ATOM     45  C   UNL A   1      47.840  24.793  25.321  1.00  0.00     0.031 C 
ATOM     46  C   UNL A   1      42.954  24.981  26.501  1.00  0.00     0.029 A 
ATOM     47  N   UNL A   1      44.179  26.809  26.901  1.00  0.00    -0.354 N 
ATOM     48  C   UNL A   1      48.419  26.870  26.079  1.00  0.00     0.074 A 
ATOM     49  C   UNL A   1      48.865  25.599  25.551  1.00  0.00     0.031 C 
ATOM     50  C   UNL A   1      42.138  25.905  27.033  1.00  0.00     0.029 A 
ATOM     51  C   UNL A   1      42.908  27.106  27.331  1.00  0.00     0.049 A 
ATOM     52  H   UNL A   1      44.931  27.441  26.960  1.00  0.00     0.167 HD
ATOM     53  C   UNL A   1      49.229  27.934  26.289  1.00  0.00     0.037 A 
ATOM     54  C   UNL A   1      42.422  28.221  27.910  1.00  0.00     0.037 A 
ATOM     55  C   UNL A   1      48.776  29.202  26.801  1.00  0.00     0.049 A 
ATOM     56  C   UNL A   1      43.342  29.386  28.145  1.00  0.00     0.074 A 
ATOM     57  C   UNL A   1      49.503  30.363  26.990  1.00  0.00     0.029 A 
ATOM     58  N   UNL A   1      47.479  29.470  27.215  1.00  0.00    -0.354 N 
ATOM     59  N   UNL A   1      44.620  29.499  27.874  1.00  0.00    -0.248 NA
ATOM     60  C   UNL A   1      42.752  30.583  28.762  1.00  0.00     0.031 C 
ATOM     61  C   UNL A   1      48.662  31.315  27.574  1.00  0.00     0.029 A 
ATOM     62  C   UNL A   1      47.393  30.769  27.688  1.00  0.00     0.049 A 
ATOM     63  H   UNL A   1      46.731  28.831  27.177  1.00  0.00     0.167 HD
ATOM     64  C   UNL A   1      44.979  30.785  28.257  1.00  0.00     0.074 A 
ATOM     65  C   UNL A   1      43.781  31.418  28.768  1.00  0.00     0.031 C 
ATOM     66  C   UNL A   1      46.192  31.388  28.191  1.00  0.00     0.037 A 
BRANCH  53  67
ATOM     67  C   UNL A   1      50.687  27.768  25.970  1.00  0.00     0.057 A 
ATOM     68  C   UNL A   1      51.631  27.445  26.954  1.00  0.00     0.134 A 
ATOM     69  C   UNL A   1      51.152  27.915  24.657  1.00  0.00     0.134 A 
ATOM     70  F   UNL A   1      51.257  27.302  28.235  1.00  0.00    -0.206 F 
ATOM     71  C   UNL A   1      52.986  27.307  26.652  1.00  0.00     0.040 A 
ATOM     72  C   UNL A   1      52.500  27.748  24.336  1.00  0.00     0.040 A 
ATOM     73  F   UNL A   1      50.304  28.218  23.663  1.00  0.00    -0.206 F 
ATOM     74  C   UNL A   1      53.423  27.452  25.337  1.00  0.00     0.006 A 
ENDBRANCH  53  67
BRANCH  54  75
ATOM     75  C   UNL A   1      40.987  28.294  28.287  1.00  0.00     0.057 A 
ATOM     76  C   UNL A   1      40.035  28.830  27.412  1.00  0.00     0.134 A 
ATOM     77  C   UNL A   1      40.532  27.831  29.527  1.00  0.00     0.134 A 
ATOM     78  F   UNL A   1      40.411  29.307  26.215  1.00  0.00    -0.206 F 
ATOM     79  C   UNL A   1      38.686  28.918  27.761  1.00  0.00     0.040 A 
ATOM     80  C   UNL A   1      39.183  27.887  29.880  1.00  0.00     0.040 A 
ATOM     81  F   UNL A   1      41.391  27.296  30.408  1.00  0.00    -0.206 F 
ATOM     82  C   UNL A   1      38.256  28.441  28.998  1.00  0.00     0.006 A 
ENDBRANCH  54  75
BRANCH  66  83
ATOM     83  C   UNL A   1      46.278  32.817  28.646  1.00  0.00     0.057 A 
ATOM     84  C   UNL A   1      46.637  33.160  29.957  1.00  0.00     0.134 A 
ATOM     85  C   UNL A   1      46.039  33.864  27.747  1.00  0.00     0.134 A 
ATOM     86  F   UNL A   1      46.868  32.206  30.871  1.00  0.00    -0.206 F 
ATOM     87  C   UNL A   1      46.731  34.493  30.362  1.00  0.00     0.040 A 
ATOM     88  C   UNL A   1      46.160  35.200  28.132  1.00  0.00     0.040 A 
ATOM     89  F   UNL A   1      45.701  33.607  26.475  1.00  0.00    -0.206 F 
ATOM     90  C   UNL A   1      46.500  35.517  29.445  1.00  0.00     0.006 A 
ENDBRANCH  66  83
ENDBRANCH  40  41
ENDBRANCH  32  35
ENDBRANCH  30  31
ENDBRANCH  29  30
ENDBRANCH   1  29
TORSDOF 15
ENDMDL
