MODEL 1
REMARK VINA RESULT:     -10.9      0.000      0.000
REMARK SMILES CC(C)(C)C(=O)NCc1ccc(C(=O)NCCCCNC(=O)c2ccc(-c3c4nc(c(-c5c(F)cccc5F)c5ccc([nH]5)c(-c5c(F)cccc5F)c5nc(c(-c6c(F)cccc6F)c6ccc3[nH]6)C=C5)C=C4)cc2)o1
REMARK SMILES IDX 17 1 16 2 15 3 13 4 14 5 12 7 9 8 10 9 77 10 11 11 8 12 7 13
REMARK SMILES IDX 5 14 6 15 2 17 1 18 3 19 4 20 18 21 19 22 20 23 21 24 22 26
REMARK SMILES IDX 23 27 24 28 76 29 25 30 75 31 26 32 27 33 28 34 69 35 29 36
REMARK SMILES IDX 74 37 68 38 70 39 30 40 73 41 67 42 66 43 31 45 57 46 40 47
REMARK SMILES IDX 56 48 41 49 44 50 55 51 71 52 42 53 43 54 54 56 72 57 45 58
REMARK SMILES IDX 32 59 33 60 38 61 34 62 35 63 37 64 39 65 36 66 58 67 59 68
REMARK SMILES IDX 64 69 60 70 61 71 63 72 65 73 62 74 46 75 47 76 52 77 48 78
REMARK SMILES IDX 49 79 51 80 53 81 50 82
REMARK H PARENT 15 6 7 16 20 25 70 44 44 55
REMARK Flexibility Score: inf
ROOT
ATOM      1  C   UNL A   1      31.939  30.049  26.560  1.00  0.00     0.023 C 
ENDROOT
BRANCH   1   2
ATOM      2  C   UNL A   1      31.543  29.431  25.219  1.00  0.00     0.116 C 
BRANCH   2   3
ATOM      3  N   UNL A   1      32.612  29.551  24.252  1.00  0.00    -0.349 N 
ATOM      4  C   UNL A   1      33.545  28.628  23.831  1.00  0.00     0.286 C 
ATOM      5  O   UNL A   1      34.290  28.993  22.921  1.00  0.00    -0.266 OA
ATOM      6  H   UNL A   1      32.684  30.434  23.825  1.00  0.00     0.163 HD
BRANCH   4   7
ATOM      7  C   UNL A   1      33.612  27.307  24.431  1.00  0.00     0.191 A 
ATOM      8  C   UNL A   1      33.678  25.094  24.321  1.00  0.00     0.124 A 
ATOM      9  C   UNL A   1      33.704  25.419  25.656  1.00  0.00     0.048 A 
ATOM     10  O   UNL A   1      33.621  26.231  23.573  1.00  0.00    -0.454 OA
ATOM     11  C   UNL A   1      33.699  26.826  25.727  1.00  0.00     0.056 A 
BRANCH   8  12
ATOM     12  C   UNL A   1      33.720  23.806  23.585  1.00  0.00     0.191 C 
BRANCH  12  13
ATOM     13  N   UNL A   1      33.955  22.747  24.544  1.00  0.00    -0.348 N 
ATOM     14  C   UNL A   1      35.069  22.099  24.963  1.00  0.00     0.225 C 
ATOM     15  O   UNL A   1      34.873  21.150  25.731  1.00  0.00    -0.275 OA
ATOM     16  H   UNL A   1      33.132  22.430  24.983  1.00  0.00     0.163 HD
BRANCH  14  17
ATOM     17  C   UNL A   1      36.501  22.502  24.545  1.00  0.00     0.041 C 
ATOM     18  C   UNL A   1      37.432  21.294  24.804  1.00  0.00     0.021 C 
ATOM     19  C   UNL A   1      37.018  23.670  25.394  1.00  0.00     0.021 C 
ATOM     20  C   UNL A   1      36.603  22.823  23.051  1.00  0.00     0.021 C 
ENDBRANCH  14  17
ENDBRANCH  12  13
ENDBRANCH   8  12
ENDBRANCH   4   7
ENDBRANCH   2   3
ENDBRANCH   1   2
BRANCH   1  21
ATOM     21  C   UNL A   1      31.665  31.553  26.650  1.00  0.00     0.023 C 
BRANCH  21  22
ATOM     22  C   UNL A   1      32.834  32.387  27.161  1.00  0.00     0.116 C 
BRANCH  22  23
ATOM     23  N   UNL A   1      32.449  33.727  27.578  1.00  0.00    -0.352 N 
ATOM     24  C   UNL A   1      33.061  34.540  28.501  1.00  0.00     0.251 C 
ATOM     25  H   UNL A   1      31.649  34.099  27.142  1.00  0.00     0.163 HD
ATOM     26  O   UNL A   1      32.551  35.604  28.833  1.00  0.00    -0.269 OA
BRANCH  24  27
ATOM     27  C   UNL A   1      34.323  34.090  29.122  1.00  0.00     0.039 A 
ATOM     28  C   UNL A   1      34.263  33.299  30.269  1.00  0.00     0.014 A 
ATOM     29  C   UNL A   1      35.552  34.401  28.534  1.00  0.00     0.014 A 
ATOM     30  C   UNL A   1      35.439  32.755  30.786  1.00  0.00     0.010 A 
ATOM     31  C   UNL A   1      36.711  33.793  29.004  1.00  0.00     0.010 A 
ATOM     32  C   UNL A   1      36.665  32.961  30.132  1.00  0.00    -0.014 A 
BRANCH  32  33
ATOM     33  C   UNL A   1      37.904  32.294  30.606  1.00  0.00     0.031 A 
ATOM     34  C   UNL A   1      38.700  32.884  31.735  1.00  0.00     0.074 A 
ATOM     35  C   UNL A   1      38.340  31.186  29.976  1.00  0.00     0.049 A 
ATOM     36  N   UNL A   1      39.821  32.462  32.264  1.00  0.00    -0.248 NA
ATOM     37  C   UNL A   1      38.183  34.124  32.335  1.00  0.00     0.031 C 
ATOM     38  C   UNL A   1      37.687  30.550  28.829  1.00  0.00     0.029 A 
ATOM     39  N   UNL A   1      39.441  30.399  30.208  1.00  0.00    -0.354 N 
ATOM     40  C   UNL A   1      40.145  33.386  33.248  1.00  0.00     0.074 A 
ATOM     41  C   UNL A   1      39.138  34.424  33.203  1.00  0.00     0.031 C 
ATOM     42  C   UNL A   1      38.380  29.455  28.479  1.00  0.00     0.029 A 
ATOM     43  C   UNL A   1      39.546  29.333  29.347  1.00  0.00     0.049 A 
ATOM     44  H   UNL A   1      40.092  30.582  30.923  1.00  0.00     0.167 HD
ATOM     45  C   UNL A   1      41.174  33.360  34.128  1.00  0.00     0.037 A 
ATOM     46  C   UNL A   1      40.483  28.369  29.264  1.00  0.00     0.037 A 
ATOM     47  C   UNL A   1      42.168  32.318  34.177  1.00  0.00     0.049 A 
ATOM     48  C   UNL A   1      41.624  28.371  30.243  1.00  0.00     0.074 A 
ATOM     49  C   UNL A   1      43.216  32.169  35.067  1.00  0.00     0.029 A 
ATOM     50  N   UNL A   1      42.239  31.252  33.292  1.00  0.00    -0.354 N 
ATOM     51  N   UNL A   1      41.874  29.207  31.221  1.00  0.00    -0.248 NA
ATOM     52  C   UNL A   1      42.610  27.290  30.109  1.00  0.00     0.031 C 
ATOM     53  C   UNL A   1      43.955  31.044  34.688  1.00  0.00     0.029 A 
ATOM     54  C   UNL A   1      43.333  30.457  33.598  1.00  0.00     0.049 A 
ATOM     55  H   UNL A   1      41.608  31.085  32.556  1.00  0.00     0.167 HD
ATOM     56  C   UNL A   1      43.028  28.739  31.836  1.00  0.00     0.074 A 
ATOM     57  C   UNL A   1      43.416  27.535  31.132  1.00  0.00     0.031 C 
ATOM     58  C   UNL A   1      43.707  29.260  32.888  1.00  0.00     0.037 A 
BRANCH  45  59
ATOM     59  C   UNL A   1      41.276  34.491  35.111  1.00  0.00     0.057 A 
ATOM     60  C   UNL A   1      40.655  34.439  36.366  1.00  0.00     0.134 A 
ATOM     61  C   UNL A   1      42.031  35.632  34.813  1.00  0.00     0.134 A 
ATOM     62  F   UNL A   1      39.906  33.381  36.711  1.00  0.00    -0.206 F 
ATOM     63  C   UNL A   1      40.758  35.491  37.278  1.00  0.00     0.040 A 
ATOM     64  C   UNL A   1      42.168  36.677  35.728  1.00  0.00     0.040 A 
ATOM     65  F   UNL A   1      42.658  35.746  33.632  1.00  0.00    -0.206 F 
ATOM     66  C   UNL A   1      41.524  36.611  36.961  1.00  0.00     0.006 A 
ENDBRANCH  45  59
BRANCH  46  67
ATOM     67  C   UNL A   1      40.371  27.308  28.229  1.00  0.00     0.057 A 
ATOM     68  C   UNL A   1      39.655  26.131  28.475  1.00  0.00     0.134 A 
ATOM     69  C   UNL A   1      40.986  27.439  26.978  1.00  0.00     0.134 A 
ATOM     70  F   UNL A   1      39.058  25.938  29.660  1.00  0.00    -0.206 F 
ATOM     71  C   UNL A   1      39.574  25.111  27.524  1.00  0.00     0.040 A 
ATOM     72  C   UNL A   1      40.890  26.440  26.008  1.00  0.00     0.040 A 
ATOM     73  F   UNL A   1      41.680  28.547  26.677  1.00  0.00    -0.206 F 
ATOM     74  C   UNL A   1      40.191  25.268  26.283  1.00  0.00     0.006 A 
ENDBRANCH  46  67
BRANCH  58  75
ATOM     75  C   UNL A   1      44.921  28.511  33.360  1.00  0.00     0.057 A 
ATOM     76  C   UNL A   1      44.832  27.455  34.276  1.00  0.00     0.134 A 
ATOM     77  C   UNL A   1      46.192  28.834  32.868  1.00  0.00     0.134 A 
ATOM     78  F   UNL A   1      43.646  27.103  34.796  1.00  0.00    -0.206 F 
ATOM     79  C   UNL A   1      45.968  26.768  34.710  1.00  0.00     0.040 A 
ATOM     80  C   UNL A   1      47.330  28.134  33.269  1.00  0.00     0.040 A 
ATOM     81  F   UNL A   1      46.349  29.827  31.979  1.00  0.00    -0.206 F 
ATOM     82  C   UNL A   1      47.221  27.103  34.200  1.00  0.00     0.006 A 
ENDBRANCH  58  75
ENDBRANCH  32  33
ENDBRANCH  24  27
ENDBRANCH  22  23
ENDBRANCH  21  22
ENDBRANCH   1  21
TORSDOF 14
ENDMDL
MODEL 2
REMARK VINA RESULT:     -10.9      4.568      9.928
REMARK SMILES CC(C)(C)C(=O)NCc1ccc(C(=O)NCCCCNC(=O)c2ccc(-c3c4nc(c(-c5c(F)cccc5F)c5ccc([nH]5)c(-c5c(F)cccc5F)c5nc(c(-c6c(F)cccc6F)c6ccc3[nH]6)C=C5)C=C4)cc2)o1
REMARK SMILES IDX 17 1 16 2 15 3 13 4 14 5 12 7 9 8 10 9 77 10 11 11 8 12 7 13
REMARK SMILES IDX 5 14 6 15 2 17 1 18 3 19 4 20 18 21 19 22 20 23 21 24 22 26
REMARK SMILES IDX 23 27 24 28 76 29 25 30 75 31 26 32 27 33 28 34 69 35 29 36
REMARK SMILES IDX 74 37 68 38 70 39 30 40 73 41 67 42 66 43 31 45 57 46 40 47
REMARK SMILES IDX 56 48 41 49 44 50 55 51 71 52 42 53 43 54 54 56 72 57 45 58
REMARK SMILES IDX 32 59 33 60 38 61 34 62 35 63 37 64 39 65 36 66 58 67 59 68
REMARK SMILES IDX 64 69 60 70 61 71 63 72 65 73 62 74 46 75 47 76 52 77 48 78
REMARK SMILES IDX 49 79 51 80 53 81 50 82
REMARK H PARENT 15 6 7 16 20 25 70 44 44 55
REMARK Flexibility Score: inf
ROOT
ATOM      1  C   UNL A   1      37.007  21.171  24.626  1.00  0.00     0.023 C 
ENDROOT
BRANCH   1   2
ATOM      2  C   UNL A   1      35.723  21.301  25.447  1.00  0.00     0.116 C 
BRANCH   2   3
ATOM      3  N   UNL A   1      34.873  20.145  25.275  1.00  0.00    -0.349 N 
ATOM      4  C   UNL A   1      33.601  20.039  24.755  1.00  0.00     0.286 C 
ATOM      5  O   UNL A   1      33.155  18.895  24.655  1.00  0.00    -0.266 OA
ATOM      6  H   UNL A   1      35.267  19.295  25.577  1.00  0.00     0.163 HD
BRANCH   4   7
ATOM      7  C   UNL A   1      32.862  21.219  24.344  1.00  0.00     0.191 A 
ATOM      8  C   UNL A   1      31.659  23.034  24.759  1.00  0.00     0.124 A 
ATOM      9  C   UNL A   1      31.778  22.949  23.392  1.00  0.00     0.048 A 
ATOM     10  O   UNL A   1      32.311  21.990  25.342  1.00  0.00    -0.454 OA
ATOM     11  C   UNL A   1      32.573  21.816  23.129  1.00  0.00     0.056 A 
BRANCH   8  12
ATOM     12  C   UNL A   1      31.006  24.010  25.666  1.00  0.00     0.191 C 
BRANCH  12  13
ATOM     13  N   UNL A   1      30.114  24.832  24.876  1.00  0.00    -0.348 N 
ATOM     14  C   UNL A   1      30.104  26.146  24.545  1.00  0.00     0.225 C 
ATOM     15  O   UNL A   1      29.101  26.532  23.932  1.00  0.00    -0.275 OA
ATOM     16  H   UNL A   1      29.353  24.331  24.500  1.00  0.00     0.163 HD
BRANCH  14  17
ATOM     17  C   UNL A   1      31.256  27.120  24.879  1.00  0.00     0.041 C 
ATOM     18  C   UNL A   1      30.919  28.493  24.248  1.00  0.00     0.021 C 
ATOM     19  C   UNL A   1      32.579  26.646  24.265  1.00  0.00     0.021 C 
ATOM     20  C   UNL A   1      31.403  27.354  26.386  1.00  0.00     0.021 C 
ENDBRANCH  14  17
ENDBRANCH  12  13
ENDBRANCH   8  12
ENDBRANCH   4   7
ENDBRANCH   2   3
ENDBRANCH   1   2
BRANCH   1  21
ATOM     21  C   UNL A   1      37.854  19.951  24.996  1.00  0.00     0.023 C 
BRANCH  21  22
ATOM     22  C   UNL A   1      39.129  20.268  25.769  1.00  0.00     0.116 C 
BRANCH  22  23
ATOM     23  N   UNL A   1      40.073  19.161  25.807  1.00  0.00    -0.352 N 
ATOM     24  C   UNL A   1      41.425  19.203  26.045  1.00  0.00     0.251 C 
ATOM     25  H   UNL A   1      39.693  18.268  25.640  1.00  0.00     0.163 HD
ATOM     26  O   UNL A   1      42.112  18.195  25.929  1.00  0.00    -0.269 OA
BRANCH  24  27
ATOM     27  C   UNL A   1      42.047  20.494  26.400  1.00  0.00     0.039 A 
ATOM     28  C   UNL A   1      42.475  21.338  25.376  1.00  0.00     0.014 A 
ATOM     29  C   UNL A   1      42.147  20.889  27.737  1.00  0.00     0.014 A 
ATOM     30  C   UNL A   1      42.938  22.616  25.691  1.00  0.00     0.010 A 
ATOM     31  C   UNL A   1      42.532  22.190  28.042  1.00  0.00     0.010 A 
ATOM     32  C   UNL A   1      42.928  23.066  27.022  1.00  0.00    -0.014 A 
BRANCH  32  33
ATOM     33  C   UNL A   1      43.309  24.462  27.358  1.00  0.00     0.031 A 
ATOM     34  C   UNL A   1      44.747  24.892  27.298  1.00  0.00     0.074 A 
ATOM     35  C   UNL A   1      42.360  25.324  27.772  1.00  0.00     0.049 A 
ATOM     36  N   UNL A   1      45.273  26.056  27.585  1.00  0.00    -0.248 NA
ATOM     37  C   UNL A   1      45.727  23.876  26.886  1.00  0.00     0.031 C 
ATOM     38  C   UNL A   1      40.938  25.009  27.928  1.00  0.00     0.029 A 
ATOM     39  N   UNL A   1      42.450  26.642  28.144  1.00  0.00    -0.354 N 
ATOM     40  C   UNL A   1      46.641  25.909  27.396  1.00  0.00     0.074 A 
ATOM     41  C   UNL A   1      46.871  24.528  27.030  1.00  0.00     0.031 C 
ATOM     42  C   UNL A   1      40.285  26.111  28.331  1.00  0.00     0.029 A 
ATOM     43  C   UNL A   1      41.244  27.196  28.503  1.00  0.00     0.049 A 
ATOM     44  H   UNL A   1      43.297  27.143  28.153  1.00  0.00     0.167 HD
ATOM     45  C   UNL A   1      47.614  26.845  27.492  1.00  0.00     0.037 A 
ATOM     46  C   UNL A   1      40.947  28.439  28.927  1.00  0.00     0.037 A 
ATOM     47  C   UNL A   1      47.378  28.222  27.844  1.00  0.00     0.049 A 
ATOM     48  C   UNL A   1      42.049  29.457  29.040  1.00  0.00     0.074 A 
ATOM     49  C   UNL A   1      48.288  29.262  27.912  1.00  0.00     0.029 A 
ATOM     50  N   UNL A   1      46.142  28.747  28.195  1.00  0.00    -0.354 N 
ATOM     51  N   UNL A   1      43.327  29.325  28.781  1.00  0.00    -0.248 NA
ATOM     52  C   UNL A   1      41.664  30.798  29.501  1.00  0.00     0.031 C 
ATOM     53  C   UNL A   1      47.614  30.403  28.359  1.00  0.00     0.029 A 
ATOM     54  C   UNL A   1      46.273  30.091  28.510  1.00  0.00     0.049 A 
ATOM     55  H   UNL A   1      45.299  28.241  28.218  1.00  0.00     0.167 HD
ATOM     56  C   UNL A   1      43.894  30.570  29.018  1.00  0.00     0.074 A 
ATOM     57  C   UNL A   1      42.816  31.448  29.424  1.00  0.00     0.031 C 
ATOM     58  C   UNL A   1      45.191  30.953  28.912  1.00  0.00     0.037 A 
BRANCH  45  59
ATOM     59  C   UNL A   1      49.024  26.412  27.211  1.00  0.00     0.057 A 
ATOM     60  C   UNL A   1      49.568  26.455  25.920  1.00  0.00     0.134 A 
ATOM     61  C   UNL A   1      49.860  25.978  28.247  1.00  0.00     0.134 A 
ATOM     62  F   UNL A   1      48.819  26.849  24.879  1.00  0.00    -0.206 F 
ATOM     63  C   UNL A   1      50.881  26.056  25.665  1.00  0.00     0.040 A 
ATOM     64  C   UNL A   1      51.184  25.605  28.011  1.00  0.00     0.040 A 
ATOM     65  F   UNL A   1      49.407  25.917  29.509  1.00  0.00    -0.206 F 
ATOM     66  C   UNL A   1      51.696  25.637  26.715  1.00  0.00     0.006 A 
ENDBRANCH  45  59
BRANCH  46  67
ATOM     67  C   UNL A   1      39.544  28.800  29.257  1.00  0.00     0.057 A 
ATOM     68  C   UNL A   1      39.039  28.627  30.551  1.00  0.00     0.134 A 
ATOM     69  C   UNL A   1      38.672  29.312  28.288  1.00  0.00     0.134 A 
ATOM     70  F   UNL A   1      39.819  28.124  31.519  1.00  0.00    -0.206 F 
ATOM     71  C   UNL A   1      37.712  28.927  30.865  1.00  0.00     0.040 A 
ATOM     72  C   UNL A   1      37.351  29.642  28.595  1.00  0.00     0.040 A 
ATOM     73  F   UNL A   1      39.097  29.509  27.032  1.00  0.00    -0.206 F 
ATOM     74  C   UNL A   1      36.865  29.441  29.884  1.00  0.00     0.006 A 
ENDBRANCH  46  67
BRANCH  58  75
ATOM     75  C   UNL A   1      45.508  32.391  29.210  1.00  0.00     0.057 A 
ATOM     76  C   UNL A   1      45.435  33.386  28.226  1.00  0.00     0.134 A 
ATOM     77  C   UNL A   1      45.864  32.788  30.505  1.00  0.00     0.134 A 
ATOM     78  F   UNL A   1      45.112  33.071  26.962  1.00  0.00    -0.206 F 
ATOM     79  C   UNL A   1      45.735  34.719  28.513  1.00  0.00     0.040 A 
ATOM     80  C   UNL A   1      46.134  34.122  30.811  1.00  0.00     0.040 A 
ATOM     81  F   UNL A   1      45.942  31.889  31.498  1.00  0.00    -0.206 F 
ATOM     82  C   UNL A   1      46.079  35.091  29.811  1.00  0.00     0.006 A 
ENDBRANCH  58  75
ENDBRANCH  32  33
ENDBRANCH  24  27
ENDBRANCH  22  23
ENDBRANCH  21  22
ENDBRANCH   1  21
TORSDOF 14
ENDMDL
MODEL 3
REMARK VINA RESULT:     -10.8      1.989      6.681
REMARK SMILES CC(C)(C)C(=O)NCc1ccc(C(=O)NCCCCNC(=O)c2ccc(-c3c4nc(c(-c5c(F)cccc5F)c5ccc([nH]5)c(-c5c(F)cccc5F)c5nc(c(-c6c(F)cccc6F)c6ccc3[nH]6)C=C5)C=C4)cc2)o1
REMARK SMILES IDX 17 1 16 2 15 3 13 4 14 5 12 7 9 8 10 9 77 10 11 11 8 12 7 13
REMARK SMILES IDX 5 14 6 15 2 17 1 18 3 19 4 20 18 21 19 22 20 23 21 24 22 26
REMARK SMILES IDX 23 27 24 28 76 29 25 30 75 31 26 32 27 33 28 34 69 35 29 36
REMARK SMILES IDX 74 37 68 38 70 39 30 40 73 41 67 42 66 43 31 45 57 46 40 47
REMARK SMILES IDX 56 48 41 49 44 50 55 51 71 52 42 53 43 54 54 56 72 57 45 58
REMARK SMILES IDX 32 59 33 60 38 61 34 62 35 63 37 64 39 65 36 66 58 67 59 68
REMARK SMILES IDX 64 69 60 70 61 71 63 72 65 73 62 74 46 75 47 76 52 77 48 78
REMARK SMILES IDX 49 79 51 80 53 81 50 82
REMARK H PARENT 15 6 7 16 20 25 70 44 44 55
REMARK Flexibility Score: inf
ROOT
ATOM      1  C   UNL A   1      31.924  30.349  26.848  1.00  0.00     0.023 C 
ENDROOT
BRANCH   1   2
ATOM      2  C   UNL A   1      32.186  29.707  25.486  1.00  0.00     0.116 C 
BRANCH   2   3
ATOM      3  N   UNL A   1      31.079  29.927  24.582  1.00  0.00    -0.349 N 
ATOM      4  C   UNL A   1      30.553  29.119  23.597  1.00  0.00     0.286 C 
ATOM      5  O   UNL A   1      29.541  29.543  23.038  1.00  0.00    -0.266 OA
ATOM      6  H   UNL A   1      30.626  30.795  24.689  1.00  0.00     0.163 HD
BRANCH   4   7
ATOM      7  C   UNL A   1      31.167  27.844  23.271  1.00  0.00     0.191 A 
ATOM      8  C   UNL A   1      31.237  25.629  23.294  1.00  0.00     0.124 A 
ATOM      9  C   UNL A   1      32.369  26.049  22.636  1.00  0.00     0.048 A 
ATOM     10  O   UNL A   1      30.506  26.710  23.683  1.00  0.00    -0.454 OA
ATOM     11  C   UNL A   1      32.307  27.455  22.590  1.00  0.00     0.056 A 
BRANCH   8  12
ATOM     12  C   UNL A   1      30.687  24.290  23.621  1.00  0.00     0.191 C 
BRANCH  12  13
ATOM     13  N   UNL A   1      30.387  24.260  25.037  1.00  0.00    -0.348 N 
ATOM     14  C   UNL A   1      31.059  23.808  26.124  1.00  0.00     0.225 C 
ATOM     15  O   UNL A   1      30.433  23.846  27.190  1.00  0.00    -0.275 OA
ATOM     16  H   UNL A   1      29.509  24.650  25.257  1.00  0.00     0.163 HD
BRANCH  14  17
ATOM     17  C   UNL A   1      32.513  23.289  26.075  1.00  0.00     0.041 C 
ATOM     18  C   UNL A   1      32.819  22.594  27.423  1.00  0.00     0.021 C 
ATOM     19  C   UNL A   1      33.510  24.445  25.918  1.00  0.00     0.021 C 
ATOM     20  C   UNL A   1      32.720  22.236  24.981  1.00  0.00     0.021 C 
ENDBRANCH  14  17
ENDBRANCH  12  13
ENDBRANCH   8  12
ENDBRANCH   4   7
ENDBRANCH   2   3
ENDBRANCH   1   2
BRANCH   1  21
ATOM     21  C   UNL A   1      31.688  31.860  26.782  1.00  0.00     0.023 C 
BRANCH  21  22
ATOM     22  C   UNL A   1      32.824  32.711  27.338  1.00  0.00     0.116 C 
BRANCH  22  23
ATOM     23  N   UNL A   1      32.440  34.090  27.600  1.00  0.00    -0.352 N 
ATOM     24  C   UNL A   1      32.976  34.964  28.515  1.00  0.00     0.251 C 
ATOM     25  H   UNL A   1      31.701  34.441  27.052  1.00  0.00     0.163 HD
ATOM     26  O   UNL A   1      32.467  36.063  28.701  1.00  0.00    -0.269 OA
BRANCH  24  27
ATOM     27  C   UNL A   1      34.150  34.540  29.302  1.00  0.00     0.039 A 
ATOM     28  C   UNL A   1      33.949  34.003  30.574  1.00  0.00     0.014 A 
ATOM     29  C   UNL A   1      35.435  34.619  28.757  1.00  0.00     0.014 A 
ATOM     30  C   UNL A   1      35.034  33.474  31.272  1.00  0.00     0.010 A 
ATOM     31  C   UNL A   1      36.500  34.019  29.420  1.00  0.00     0.010 A 
ATOM     32  C   UNL A   1      36.309  33.438  30.683  1.00  0.00    -0.014 A 
BRANCH  32  33
ATOM     33  C   UNL A   1      37.448  32.775  31.367  1.00  0.00     0.031 A 
ATOM     34  C   UNL A   1      38.107  31.573  30.753  1.00  0.00     0.074 A 
ATOM     35  C   UNL A   1      37.849  33.226  32.572  1.00  0.00     0.049 A 
ATOM     36  N   UNL A   1      39.091  30.844  31.217  1.00  0.00    -0.248 NA
ATOM     37  C   UNL A   1      37.576  31.112  29.461  1.00  0.00     0.031 C 
ATOM     38  C   UNL A   1      37.250  34.349  33.298  1.00  0.00     0.029 A 
ATOM     39  N   UNL A   1      38.852  32.792  33.402  1.00  0.00    -0.354 N 
ATOM     40  C   UNL A   1      39.290  29.839  30.279  1.00  0.00     0.074 A 
ATOM     41  C   UNL A   1      38.286  30.013  29.252  1.00  0.00     0.031 C 
ATOM     42  C   UNL A   1      37.918  34.535  34.448  1.00  0.00     0.029 A 
ATOM     43  C   UNL A   1      38.962  33.522  34.561  1.00  0.00     0.049 A 
ATOM     44  H   UNL A   1      39.437  32.031  33.186  1.00  0.00     0.167 HD
ATOM     45  C   UNL A   1      40.240  28.874  30.262  1.00  0.00     0.037 A 
ATOM     46  C   UNL A   1      39.808  33.387  35.600  1.00  0.00     0.037 A 
ATOM     47  C   UNL A   1      41.246  28.713  31.280  1.00  0.00     0.049 A 
ATOM     48  C   UNL A   1      40.843  32.297  35.563  1.00  0.00     0.074 A 
ATOM     49  C   UNL A   1      42.287  27.804  31.326  1.00  0.00     0.029 A 
ATOM     50  N   UNL A   1      41.329  29.475  32.437  1.00  0.00    -0.354 N 
ATOM     51  N   UNL A   1      41.071  31.403  34.632  1.00  0.00    -0.248 NA
ATOM     52  C   UNL A   1      41.743  32.203  36.721  1.00  0.00     0.031 C 
ATOM     53  C   UNL A   1      42.967  27.978  32.536  1.00  0.00     0.029 A 
ATOM     54  C   UNL A   1      42.388  29.035  33.217  1.00  0.00     0.049 A 
ATOM     55  H   UNL A   1      40.725  30.216  32.670  1.00  0.00     0.167 HD
ATOM     56  C   UNL A   1      42.157  30.658  35.077  1.00  0.00     0.074 A 
ATOM     57  C   UNL A   1      42.552  31.220  36.352  1.00  0.00     0.031 C 
ATOM     58  C   UNL A   1      42.769  29.604  34.485  1.00  0.00     0.037 A 
BRANCH  45  59
ATOM     59  C   UNL A   1      40.237  27.919  29.103  1.00  0.00     0.057 A 
ATOM     60  C   UNL A   1      39.495  26.730  29.126  1.00  0.00     0.134 A 
ATOM     61  C   UNL A   1      40.960  28.204  27.938  1.00  0.00     0.134 A 
ATOM     62  F   UNL A   1      38.790  26.389  30.215  1.00  0.00    -0.206 F 
ATOM     63  C   UNL A   1      39.492  25.848  28.044  1.00  0.00     0.040 A 
ATOM     64  C   UNL A   1      40.941  27.345  26.838  1.00  0.00     0.040 A 
ATOM     65  F   UNL A   1      41.688  29.327  27.845  1.00  0.00    -0.206 F 
ATOM     66  C   UNL A   1      40.211  26.160  26.892  1.00  0.00     0.006 A 
ENDBRANCH  45  59
BRANCH  46  67
ATOM     67  C   UNL A   1      39.726  34.318  36.755  1.00  0.00     0.057 A 
ATOM     68  C   UNL A   1      39.003  33.981  37.905  1.00  0.00     0.134 A 
ATOM     69  C   UNL A   1      40.355  35.569  36.733  1.00  0.00     0.134 A 
ATOM     70  F   UNL A   1      38.363  32.804  37.981  1.00  0.00    -0.206 F 
ATOM     71  C   UNL A   1      38.887  34.862  38.982  1.00  0.00     0.040 A 
ATOM     72  C   UNL A   1      40.271  36.448  37.813  1.00  0.00     0.040 A 
ATOM     73  F   UNL A   1      41.070  35.948  35.664  1.00  0.00    -0.206 F 
ATOM     74  C   UNL A   1      39.528  36.100  38.938  1.00  0.00     0.006 A 
ENDBRANCH  46  67
BRANCH  58  75
ATOM     75  C   UNL A   1      43.952  29.010  35.196  1.00  0.00     0.057 A 
ATOM     76  C   UNL A   1      45.258  29.463  34.970  1.00  0.00     0.134 A 
ATOM     77  C   UNL A   1      43.776  27.990  36.140  1.00  0.00     0.134 A 
ATOM     78  F   UNL A   1      45.498  30.428  34.069  1.00  0.00    -0.206 F 
ATOM     79  C   UNL A   1      46.350  28.901  35.635  1.00  0.00     0.040 A 
ATOM     80  C   UNL A   1      44.855  27.443  36.834  1.00  0.00     0.040 A 
ATOM     81  F   UNL A   1      42.550  27.517  36.413  1.00  0.00    -0.206 F 
ATOM     82  C   UNL A   1      46.149  27.892  36.575  1.00  0.00     0.006 A 
ENDBRANCH  58  75
ENDBRANCH  32  33
ENDBRANCH  24  27
ENDBRANCH  22  23
ENDBRANCH  21  22
ENDBRANCH   1  21
TORSDOF 14
ENDMDL
