MODEL 1
REMARK VINA RESULT:     -11.8      0.000      0.000
REMARK SMILES COc1ccc(CSc2ncccc2C(=O)NCCCCNC(=O)c2ccc(-c3c4nc(c(-c5c(F)cccc5F)c5ccc([nH]5)c(-c5c(F)cccc5F)c5nc(c(-c6c(F)cccc6F)c6ccc3[nH]6)C=C5)C=C4)cc2)cc1
REMARK SMILES IDX 18 1 17 2 15 3 16 4 14 6 9 7 10 8 11 9 13 10 12 11 8 12 7 13
REMARK SMILES IDX 6 14 3 15 4 16 80 17 5 18 79 19 2 20 1 21 19 22 20 23 21 24
REMARK SMILES IDX 22 25 23 26 24 28 25 29 26 30 78 31 27 32 77 33 28 34 29 35
REMARK SMILES IDX 30 36 71 37 31 38 76 39 70 40 72 41 32 42 75 43 69 44 68 45
REMARK SMILES IDX 33 47 59 48 42 49 58 50 43 51 46 52 57 53 73 54 44 55 45 56
REMARK SMILES IDX 56 58 74 59 47 60 34 61 35 62 40 63 36 64 37 65 39 66 41 67
REMARK SMILES IDX 38 68 60 69 61 70 66 71 62 72 63 73 65 74 67 75 64 76 48 77
REMARK SMILES IDX 49 78 54 79 50 80 51 81 53 82 55 83 52 84
REMARK H PARENT 17 5 22 27 72 46 46 57
REMARK Flexibility Score: inf
ROOT
ATOM      1  C   UNL A   1      36.608  21.896  25.309  1.00  0.00     0.116 C 
ENDROOT
BRANCH   1   2
ATOM      2  N   UNL A   1      35.922  22.358  26.497  1.00  0.00    -0.352 N 
ATOM      3  C   UNL A   1      34.648  22.833  26.706  1.00  0.00     0.254 C 
ATOM      4  O   UNL A   1      34.105  22.473  27.750  1.00  0.00    -0.269 OA
ATOM      5  H   UNL A   1      36.472  22.324  27.312  1.00  0.00     0.163 HD
BRANCH   3   6
ATOM      6  C   UNL A   1      33.944  23.780  25.791  1.00  0.00     0.072 A 
ATOM      7  C   UNL A   1      32.718  23.429  25.194  1.00  0.00     0.109 A 
ATOM      8  N   UNL A   1      32.080  24.235  24.293  1.00  0.00    -0.249 NA
ATOM      9  C   UNL A   1      32.661  25.396  23.946  1.00  0.00     0.112 A 
ATOM     10  C   UNL A   1      34.493  25.010  25.407  1.00  0.00     0.018 A 
ATOM     11  C   UNL A   1      33.852  25.830  24.480  1.00  0.00     0.021 A 
BRANCH   7  12
ATOM     12  S   UNL A   1      31.827  21.898  25.425  1.00  0.00    -0.101 SA
BRANCH  12  13
ATOM     13  C   UNL A   1      32.259  21.036  23.886  1.00  0.00     0.112 C 
BRANCH  13  14
ATOM     14  C   UNL A   1      32.604  19.575  24.063  1.00  0.00    -0.037 A 
ATOM     15  C   UNL A   1      33.262  16.846  24.374  1.00  0.00     0.118 A 
ATOM     16  C   UNL A   1      33.234  17.698  25.477  1.00  0.00     0.047 A 
ATOM     17  C   UNL A   1      32.975  17.361  23.110  1.00  0.00     0.047 A 
ATOM     18  C   UNL A   1      32.929  19.052  25.322  1.00  0.00     0.008 A 
ATOM     19  C   UNL A   1      32.643  18.715  22.957  1.00  0.00     0.008 A 
BRANCH  15  20
ATOM     20  O   UNL A   1      33.518  15.536  24.671  1.00  0.00    -0.497 OA
ATOM     21  C   UNL A   1      32.582  14.855  25.496  1.00  0.00     0.278 C 
ENDBRANCH  15  20
ENDBRANCH  13  14
ENDBRANCH  12  13
ENDBRANCH   7  12
ENDBRANCH   3   6
ENDBRANCH   1   2
BRANCH   1  22
ATOM     22  C   UNL A   1      36.451  20.406  25.038  1.00  0.00     0.023 C 
BRANCH  22  23
ATOM     23  C   UNL A   1      37.765  19.656  24.823  1.00  0.00     0.023 C 
BRANCH  23  24
ATOM     24  C   UNL A   1      38.938  20.077  25.700  1.00  0.00     0.116 C 
BRANCH  24  25
ATOM     25  N   UNL A   1      39.986  19.073  25.784  1.00  0.00    -0.352 N 
ATOM     26  C   UNL A   1      41.310  19.244  26.101  1.00  0.00     0.251 C 
ATOM     27  H   UNL A   1      39.708  18.149  25.587  1.00  0.00     0.163 HD
ATOM     28  O   UNL A   1      42.093  18.301  26.023  1.00  0.00    -0.269 OA
BRANCH  26  29
ATOM     29  C   UNL A   1      41.797  20.580  26.502  1.00  0.00     0.039 A 
ATOM     30  C   UNL A   1      42.165  21.488  25.506  1.00  0.00     0.014 A 
ATOM     31  C   UNL A   1      41.869  20.943  27.849  1.00  0.00     0.014 A 
ATOM     32  C   UNL A   1      42.557  22.779  25.861  1.00  0.00     0.010 A 
ATOM     33  C   UNL A   1      42.182  22.253  28.196  1.00  0.00     0.010 A 
ATOM     34  C   UNL A   1      42.542  23.181  27.207  1.00  0.00    -0.014 A 
BRANCH  34  35
ATOM     35  C   UNL A   1      42.924  24.562  27.597  1.00  0.00     0.031 A 
ATOM     36  C   UNL A   1      44.371  24.971  27.596  1.00  0.00     0.074 A 
ATOM     37  C   UNL A   1      41.975  25.433  27.993  1.00  0.00     0.049 A 
ATOM     38  N   UNL A   1      44.907  26.117  27.933  1.00  0.00    -0.248 NA
ATOM     39  C   UNL A   1      45.349  23.950  27.187  1.00  0.00     0.031 C 
ATOM     40  C   UNL A   1      40.543  25.141  28.084  1.00  0.00     0.029 A 
ATOM     41  N   UNL A   1      42.074  26.740  28.397  1.00  0.00    -0.354 N 
ATOM     42  C   UNL A   1      46.279  25.948  27.788  1.00  0.00     0.074 A 
ATOM     43  C   UNL A   1      46.497  24.575  27.393  1.00  0.00     0.031 C 
ATOM     44  C   UNL A   1      39.895  26.246  28.488  1.00  0.00     0.029 A 
ATOM     45  C   UNL A   1      40.867  27.310  28.720  1.00  0.00     0.049 A 
ATOM     46  H   UNL A   1      42.930  27.224  28.451  1.00  0.00     0.167 HD
ATOM     47  C   UNL A   1      47.266  26.863  27.943  1.00  0.00     0.037 A 
ATOM     48  C   UNL A   1      40.577  28.551  29.157  1.00  0.00     0.037 A 
ATOM     49  C   UNL A   1      47.043  28.235  28.317  1.00  0.00     0.049 A 
ATOM     50  C   UNL A   1      41.691  29.546  29.327  1.00  0.00     0.074 A 
ATOM     51  C   UNL A   1      47.970  29.253  28.450  1.00  0.00     0.029 A 
ATOM     52  N   UNL A   1      45.803  28.777  28.622  1.00  0.00    -0.354 N 
ATOM     53  N   UNL A   1      42.977  29.394  29.117  1.00  0.00    -0.248 NA
ATOM     54  C   UNL A   1      41.314  30.891  29.786  1.00  0.00     0.031 C 
ATOM     55  C   UNL A   1      47.298  30.401  28.885  1.00  0.00     0.029 A 
ATOM     56  C   UNL A   1      45.945  30.113  28.962  1.00  0.00     0.049 A 
ATOM     57  H   UNL A   1      44.951  28.287  28.599  1.00  0.00     0.167 HD
ATOM     58  C   UNL A   1      43.556  30.630  29.383  1.00  0.00     0.074 A 
ATOM     59  C   UNL A   1      42.478  31.522  29.756  1.00  0.00     0.031 C 
ATOM     60  C   UNL A   1      44.860  30.992  29.320  1.00  0.00     0.037 A 
BRANCH  47  61
ATOM     61  C   UNL A   1      48.677  26.405  27.704  1.00  0.00     0.057 A 
ATOM     62  C   UNL A   1      49.268  26.460  26.434  1.00  0.00     0.134 A 
ATOM     63  C   UNL A   1      49.464  25.930  28.760  1.00  0.00     0.134 A 
ATOM     64  F   UNL A   1      48.566  26.894  25.375  1.00  0.00    -0.206 F 
ATOM     65  C   UNL A   1      50.578  26.030  26.218  1.00  0.00     0.040 A 
ATOM     66  C   UNL A   1      50.786  25.526  28.562  1.00  0.00     0.040 A 
ATOM     67  F   UNL A   1      48.964  25.855  30.003  1.00  0.00    -0.206 F 
ATOM     68  C   UNL A   1      51.344  25.568  27.286  1.00  0.00     0.006 A 
ENDBRANCH  47  61
BRANCH  48  69
ATOM     69  C   UNL A   1      39.169  28.934  29.435  1.00  0.00     0.057 A 
ATOM     70  C   UNL A   1      38.619  28.787  30.714  1.00  0.00     0.134 A 
ATOM     71  C   UNL A   1      38.335  29.440  28.432  1.00  0.00     0.134 A 
ATOM     72  F   UNL A   1      39.362  28.291  31.715  1.00  0.00    -0.206 F 
ATOM     73  C   UNL A   1      37.286  29.104  30.980  1.00  0.00     0.040 A 
ATOM     74  C   UNL A   1      37.008  29.789  28.688  1.00  0.00     0.040 A 
ATOM     75  F   UNL A   1      38.803  29.616  27.187  1.00  0.00    -0.206 F 
ATOM     76  C   UNL A   1      36.477  29.612  29.965  1.00  0.00     0.006 A 
ENDBRANCH  48  69
BRANCH  60  77
ATOM     77  C   UNL A   1      45.189  32.429  29.613  1.00  0.00     0.057 A 
ATOM     78  C   UNL A   1      45.138  33.420  28.626  1.00  0.00     0.134 A 
ATOM     79  C   UNL A   1      45.530  32.827  30.912  1.00  0.00     0.134 A 
ATOM     80  F   UNL A   1      44.830  33.105  27.359  1.00  0.00    -0.206 F 
ATOM     81  C   UNL A   1      45.443  34.752  28.913  1.00  0.00     0.040 A 
ATOM     82  C   UNL A   1      45.807  34.160  31.219  1.00  0.00     0.040 A 
ATOM     83  F   UNL A   1      45.587  31.929  31.908  1.00  0.00    -0.206 F 
ATOM     84  C   UNL A   1      45.772  35.125  30.215  1.00  0.00     0.006 A 
ENDBRANCH  60  77
ENDBRANCH  34  35
ENDBRANCH  26  29
ENDBRANCH  24  25
ENDBRANCH  23  24
ENDBRANCH  22  23
ENDBRANCH   1  22
TORSDOF 15
ENDMDL
MODEL 2
REMARK VINA RESULT:     -11.8      0.813      6.263
REMARK SMILES COc1ccc(CSc2ncccc2C(=O)NCCCCNC(=O)c2ccc(-c3c4nc(c(-c5c(F)cccc5F)c5ccc([nH]5)c(-c5c(F)cccc5F)c5nc(c(-c6c(F)cccc6F)c6ccc3[nH]6)C=C5)C=C4)cc2)cc1
REMARK SMILES IDX 18 1 17 2 15 3 16 4 14 6 9 7 10 8 11 9 13 10 12 11 8 12 7 13
REMARK SMILES IDX 6 14 3 15 4 16 80 17 5 18 79 19 2 20 1 21 19 22 20 23 21 24
REMARK SMILES IDX 22 25 23 26 24 28 25 29 26 30 78 31 27 32 77 33 28 34 29 35
REMARK SMILES IDX 30 36 71 37 31 38 76 39 70 40 72 41 32 42 75 43 69 44 68 45
REMARK SMILES IDX 33 47 59 48 42 49 58 50 43 51 46 52 57 53 73 54 44 55 45 56
REMARK SMILES IDX 56 58 74 59 47 60 34 61 35 62 40 63 36 64 37 65 39 66 41 67
REMARK SMILES IDX 38 68 60 69 61 70 66 71 62 72 63 73 65 74 67 75 64 76 48 77
REMARK SMILES IDX 49 78 54 79 50 80 51 81 53 82 55 83 52 84
REMARK H PARENT 17 5 22 27 72 46 46 57
REMARK Flexibility Score: inf
ROOT
ATOM      1  C   UNL A   1      35.729  20.904  25.295  1.00  0.00     0.116 C 
ENDROOT
BRANCH   1   2
ATOM      2  N   UNL A   1      35.516  21.714  26.476  1.00  0.00    -0.352 N 
ATOM      3  C   UNL A   1      34.525  22.604  26.823  1.00  0.00     0.254 C 
ATOM      4  O   UNL A   1      34.172  22.579  28.002  1.00  0.00    -0.269 OA
ATOM      5  H   UNL A   1      36.213  21.607  27.162  1.00  0.00     0.163 HD
BRANCH   3   6
ATOM      6  C   UNL A   1      33.927  23.603  25.889  1.00  0.00     0.072 A 
ATOM      7  C   UNL A   1      32.718  23.331  25.221  1.00  0.00     0.109 A 
ATOM      8  N   UNL A   1      32.177  24.185  24.301  1.00  0.00    -0.249 NA
ATOM      9  C   UNL A   1      32.841  25.316  24.006  1.00  0.00     0.112 A 
ATOM     10  C   UNL A   1      34.566  24.804  25.556  1.00  0.00     0.018 A 
ATOM     11  C   UNL A   1      34.023  25.672  24.611  1.00  0.00     0.021 A 
BRANCH   7  12
ATOM     12  S   UNL A   1      31.730  21.851  25.376  1.00  0.00    -0.101 SA
BRANCH  12  13
ATOM     13  C   UNL A   1      32.211  20.978  23.859  1.00  0.00     0.112 C 
BRANCH  13  14
ATOM     14  C   UNL A   1      32.529  19.513  24.052  1.00  0.00    -0.037 A 
ATOM     15  C   UNL A   1      33.140  16.778  24.397  1.00  0.00     0.118 A 
ATOM     16  C   UNL A   1      32.959  17.608  25.502  1.00  0.00     0.047 A 
ATOM     17  C   UNL A   1      33.030  17.319  23.116  1.00  0.00     0.047 A 
ATOM     18  C   UNL A   1      32.678  18.966  25.334  1.00  0.00     0.008 A 
ATOM     19  C   UNL A   1      32.721  18.676  22.945  1.00  0.00     0.008 A 
BRANCH  15  20
ATOM     20  O   UNL A   1      33.354  15.462  24.701  1.00  0.00    -0.497 OA
ATOM     21  C   UNL A   1      32.528  14.877  25.700  1.00  0.00     0.278 C 
ENDBRANCH  15  20
ENDBRANCH  13  14
ENDBRANCH  12  13
ENDBRANCH   7  12
ENDBRANCH   3   6
ENDBRANCH   1   2
BRANCH   1  22
ATOM     22  C   UNL A   1      37.115  21.048  24.682  1.00  0.00     0.023 C 
BRANCH  22  23
ATOM     23  C   UNL A   1      38.058  19.879  24.956  1.00  0.00     0.023 C 
BRANCH  23  24
ATOM     24  C   UNL A   1      39.201  20.142  25.930  1.00  0.00     0.116 C 
BRANCH  24  25
ATOM     25  N   UNL A   1      40.200  19.087  25.946  1.00  0.00    -0.352 N 
ATOM     26  C   UNL A   1      41.556  19.197  26.126  1.00  0.00     0.251 C 
ATOM     27  H   UNL A   1      39.859  18.173  25.811  1.00  0.00     0.163 HD
ATOM     28  O   UNL A   1      42.279  18.212  26.005  1.00  0.00    -0.269 OA
BRANCH  26  29
ATOM     29  C   UNL A   1      42.147  20.517  26.429  1.00  0.00     0.039 A 
ATOM     30  C   UNL A   1      42.545  21.334  25.369  1.00  0.00     0.014 A 
ATOM     31  C   UNL A   1      42.286  20.955  27.749  1.00  0.00     0.014 A 
ATOM     32  C   UNL A   1      43.037  22.613  25.633  1.00  0.00     0.010 A 
ATOM     33  C   UNL A   1      42.700  22.257  28.005  1.00  0.00     0.010 A 
ATOM     34  C   UNL A   1      43.092  23.096  26.950  1.00  0.00    -0.014 A 
BRANCH  34  35
ATOM     35  C   UNL A   1      43.581  24.467  27.243  1.00  0.00     0.031 A 
ATOM     36  C   UNL A   1      42.612  25.536  27.668  1.00  0.00     0.074 A 
ATOM     37  C   UNL A   1      44.886  24.761  27.083  1.00  0.00     0.049 A 
ATOM     38  N   UNL A   1      42.838  26.798  27.937  1.00  0.00    -0.248 NA
ATOM     39  C   UNL A   1      41.199  25.144  27.782  1.00  0.00     0.031 C 
ATOM     40  C   UNL A   1      45.915  23.825  26.628  1.00  0.00     0.029 A 
ATOM     41  N   UNL A   1      45.569  25.934  27.281  1.00  0.00    -0.354 N 
ATOM     42  C   UNL A   1      41.598  27.346  28.238  1.00  0.00     0.074 A 
ATOM     43  C   UNL A   1      40.617  26.300  28.060  1.00  0.00     0.031 C 
ATOM     44  C   UNL A   1      47.102  24.452  26.611  1.00  0.00     0.029 A 
ATOM     45  C   UNL A   1      46.913  25.841  27.017  1.00  0.00     0.049 A 
ATOM     46  H   UNL A   1      45.136  26.766  27.585  1.00  0.00     0.167 HD
ATOM     47  C   UNL A   1      41.305  28.603  28.654  1.00  0.00     0.037 A 
ATOM     48  C   UNL A   1      47.884  26.773  27.090  1.00  0.00     0.037 A 
ATOM     49  C   UNL A   1      42.287  29.636  28.849  1.00  0.00     0.049 A 
ATOM     50  C   UNL A   1      47.532  28.162  27.548  1.00  0.00     0.074 A 
ATOM     51  C   UNL A   1      42.100  30.925  29.316  1.00  0.00     0.029 A 
ATOM     52  N   UNL A   1      43.641  29.499  28.583  1.00  0.00    -0.354 N 
ATOM     53  N   UNL A   1      46.365  28.648  27.899  1.00  0.00    -0.248 NA
ATOM     54  C   UNL A   1      48.634  29.131  27.629  1.00  0.00     0.031 C 
ATOM     55  C   UNL A   1      43.334  31.584  29.285  1.00  0.00     0.029 A 
ATOM     56  C   UNL A   1      44.299  30.687  28.858  1.00  0.00     0.049 A 
ATOM     57  H   UNL A   1      44.071  28.679  28.250  1.00  0.00     0.167 HD
ATOM     58  C   UNL A   1      46.599  29.965  28.276  1.00  0.00     0.074 A 
ATOM     59  C   UNL A   1      48.020  30.196  28.123  1.00  0.00     0.031 C 
ATOM     60  C   UNL A   1      45.717  30.897  28.712  1.00  0.00     0.037 A 
BRANCH  47  61
ATOM     61  C   UNL A   1      39.862  28.923  28.926  1.00  0.00     0.057 A 
ATOM     62  C   UNL A   1      39.321  28.857  30.217  1.00  0.00     0.134 A 
ATOM     63  C   UNL A   1      39.011  29.327  27.891  1.00  0.00     0.134 A 
ATOM     64  F   UNL A   1      40.077  28.464  31.254  1.00  0.00    -0.206 F 
ATOM     65  C   UNL A   1      37.979  29.153  30.463  1.00  0.00     0.040 A 
ATOM     66  C   UNL A   1      37.675  29.656  28.129  1.00  0.00     0.040 A 
ATOM     67  F   UNL A   1      39.464  29.418  26.631  1.00  0.00    -0.206 F 
ATOM     68  C   UNL A   1      37.153  29.560  29.418  1.00  0.00     0.006 A 
ENDBRANCH  47  61
BRANCH  48  69
ATOM     69  C   UNL A   1      49.285  26.418  26.752  1.00  0.00     0.057 A 
ATOM     70  C   UNL A   1      50.166  25.940  27.729  1.00  0.00     0.134 A 
ATOM     71  C   UNL A   1      49.784  26.562  25.452  1.00  0.00     0.134 A 
ATOM     72  F   UNL A   1      49.754  25.796  28.998  1.00  0.00    -0.206 F 
ATOM     73  C   UNL A   1      51.498  25.642  27.433  1.00  0.00     0.040 A 
ATOM     74  C   UNL A   1      51.105  26.242  25.135  1.00  0.00     0.040 A 
ATOM     75  F   UNL A   1      48.989  27.005  24.467  1.00  0.00    -0.206 F 
ATOM     76  C   UNL A   1      51.969  25.788  26.130  1.00  0.00     0.006 A 
ENDBRANCH  48  69
BRANCH  60  77
ATOM     77  C   UNL A   1      46.271  32.238  29.105  1.00  0.00     0.057 A 
ATOM     78  C   UNL A   1      46.350  33.304  28.202  1.00  0.00     0.134 A 
ATOM     79  C   UNL A   1      46.699  32.470  30.419  1.00  0.00     0.134 A 
ATOM     80  F   UNL A   1      45.967  33.146  26.926  1.00  0.00    -0.206 F 
ATOM     81  C   UNL A   1      46.862  34.546  28.582  1.00  0.00     0.040 A 
ATOM     82  C   UNL A   1      47.184  33.715  30.820  1.00  0.00     0.040 A 
ATOM     83  F   UNL A   1      46.640  31.494  31.337  1.00  0.00    -0.206 F 
ATOM     84  C   UNL A   1      47.275  34.755  29.897  1.00  0.00     0.006 A 
ENDBRANCH  60  77
ENDBRANCH  34  35
ENDBRANCH  26  29
ENDBRANCH  24  25
ENDBRANCH  23  24
ENDBRANCH  22  23
ENDBRANCH   1  22
TORSDOF 15
ENDMDL
MODEL 3
REMARK VINA RESULT:     -11.6      5.434     10.537
REMARK SMILES COc1ccc(CSc2ncccc2C(=O)NCCCCNC(=O)c2ccc(-c3c4nc(c(-c5c(F)cccc5F)c5ccc([nH]5)c(-c5c(F)cccc5F)c5nc(c(-c6c(F)cccc6F)c6ccc3[nH]6)C=C5)C=C4)cc2)cc1
REMARK SMILES IDX 18 1 17 2 15 3 16 4 14 6 9 7 10 8 11 9 13 10 12 11 8 12 7 13
REMARK SMILES IDX 6 14 3 15 4 16 80 17 5 18 79 19 2 20 1 21 19 22 20 23 21 24
REMARK SMILES IDX 22 25 23 26 24 28 25 29 26 30 78 31 27 32 77 33 28 34 29 35
REMARK SMILES IDX 30 36 71 37 31 38 76 39 70 40 72 41 32 42 75 43 69 44 68 45
REMARK SMILES IDX 33 47 59 48 42 49 58 50 43 51 46 52 57 53 73 54 44 55 45 56
REMARK SMILES IDX 56 58 74 59 47 60 34 61 35 62 40 63 36 64 37 65 39 66 41 67
REMARK SMILES IDX 38 68 60 69 61 70 66 71 62 72 63 73 65 74 67 75 64 76 48 77
REMARK SMILES IDX 49 78 54 79 50 80 51 81 53 82 55 83 52 84
REMARK H PARENT 17 5 22 27 72 46 46 57
REMARK Flexibility Score: inf
ROOT
ATOM      1  C   UNL A   1      32.192  29.880  25.833  1.00  0.00     0.116 C 
ENDROOT
BRANCH   1   2
ATOM      2  N   UNL A   1      33.176  29.687  24.790  1.00  0.00    -0.352 N 
ATOM      3  C   UNL A   1      33.405  28.652  23.911  1.00  0.00     0.254 C 
ATOM      4  O   UNL A   1      33.729  28.980  22.770  1.00  0.00    -0.269 OA
ATOM      5  H   UNL A   1      33.802  30.439  24.689  1.00  0.00     0.163 HD
BRANCH   3   6
ATOM      6  C   UNL A   1      33.342  27.207  24.279  1.00  0.00     0.072 A 
ATOM      7  C   UNL A   1      32.460  26.332  23.616  1.00  0.00     0.109 A 
ATOM      8  N   UNL A   1      32.317  25.021  23.974  1.00  0.00    -0.249 NA
ATOM      9  C   UNL A   1      33.028  24.557  25.016  1.00  0.00     0.112 A 
ATOM     10  C   UNL A   1      34.071  26.666  25.345  1.00  0.00     0.018 A 
ATOM     11  C   UNL A   1      33.920  25.332  25.720  1.00  0.00     0.021 A 
BRANCH   7  12
ATOM     12  S   UNL A   1      31.347  26.757  22.285  1.00  0.00    -0.101 SA
BRANCH  12  13
ATOM     13  C   UNL A   1      29.864  27.207  23.232  1.00  0.00     0.112 C 
BRANCH  13  14
ATOM     14  C   UNL A   1      29.293  28.564  22.893  1.00  0.00    -0.037 A 
ATOM     15  C   UNL A   1      28.213  31.101  22.281  1.00  0.00     0.118 A 
ATOM     16  C   UNL A   1      29.553  30.820  22.020  1.00  0.00     0.047 A 
ATOM     17  C   UNL A   1      27.414  30.117  22.862  1.00  0.00     0.047 A 
ATOM     18  C   UNL A   1      30.095  29.573  22.342  1.00  0.00     0.008 A 
ATOM     19  C   UNL A   1      27.949  28.856  23.161  1.00  0.00     0.008 A 
BRANCH  15  20
ATOM     20  O   UNL A   1      27.800  32.337  21.867  1.00  0.00    -0.497 OA
ATOM     21  C   UNL A   1      27.782  32.588  20.468  1.00  0.00     0.278 C 
ENDBRANCH  15  20
ENDBRANCH  13  14
ENDBRANCH  12  13
ENDBRANCH   7  12
ENDBRANCH   3   6
ENDBRANCH   1   2
BRANCH   1  22
ATOM     22  C   UNL A   1      31.060  30.825  25.454  1.00  0.00     0.023 C 
BRANCH  22  23
ATOM     23  C   UNL A   1      31.042  32.142  26.228  1.00  0.00     0.023 C 
BRANCH  23  24
ATOM     24  C   UNL A   1      32.291  32.469  27.039  1.00  0.00     0.116 C 
BRANCH  24  25
ATOM     25  N   UNL A   1      32.340  33.849  27.491  1.00  0.00    -0.352 N 
ATOM     26  C   UNL A   1      33.239  34.439  28.344  1.00  0.00     0.251 C 
ATOM     27  H   UNL A   1      31.634  34.440  27.138  1.00  0.00     0.163 HD
ATOM     28  O   UNL A   1      33.077  35.599  28.711  1.00  0.00    -0.269 OA
BRANCH  26  29
ATOM     29  C   UNL A   1      34.386  33.654  28.848  1.00  0.00     0.039 A 
ATOM     30  C   UNL A   1      35.679  34.078  28.534  1.00  0.00     0.014 A 
ATOM     31  C   UNL A   1      34.187  32.523  29.642  1.00  0.00     0.014 A 
ATOM     32  C   UNL A   1      36.775  33.393  29.061  1.00  0.00     0.010 A 
ATOM     33  C   UNL A   1      35.277  31.891  30.231  1.00  0.00     0.010 A 
ATOM     34  C   UNL A   1      36.583  32.312  29.936  1.00  0.00    -0.014 A 
BRANCH  34  35
ATOM     35  C   UNL A   1      37.739  31.596  30.532  1.00  0.00     0.031 A 
ATOM     36  C   UNL A   1      38.167  31.898  31.942  1.00  0.00     0.074 A 
ATOM     37  C   UNL A   1      38.430  30.707  29.791  1.00  0.00     0.049 A 
ATOM     38  N   UNL A   1      39.167  31.404  32.627  1.00  0.00    -0.248 NA
ATOM     39  C   UNL A   1      37.384  32.909  32.670  1.00  0.00     0.031 C 
ATOM     40  C   UNL A   1      38.145  30.363  28.397  1.00  0.00     0.029 A 
ATOM     41  N   UNL A   1      39.518  29.934  30.108  1.00  0.00    -0.354 N 
ATOM     42  C   UNL A   1      39.138  32.052  33.856  1.00  0.00     0.074 A 
ATOM     43  C   UNL A   1      38.063  33.016  33.801  1.00  0.00     0.031 C 
ATOM     44  C   UNL A   1      39.017  29.426  27.989  1.00  0.00     0.029 A 
ATOM     45  C   UNL A   1      39.943  29.131  29.077  1.00  0.00     0.049 A 
ATOM     46  H   UNL A   1      39.954  29.952  30.991  1.00  0.00     0.167 HD
ATOM     47  C   UNL A   1      39.919  31.842  34.943  1.00  0.00     0.037 A 
ATOM     48  C   UNL A   1      40.967  28.258  29.016  1.00  0.00     0.037 A 
ATOM     49  C   UNL A   1      40.976  30.867  35.000  1.00  0.00     0.049 A 
ATOM     50  C   UNL A   1      41.824  28.049  30.234  1.00  0.00     0.074 A 
ATOM     51  C   UNL A   1      41.792  30.542  36.070  1.00  0.00     0.029 A 
ATOM     52  N   UNL A   1      41.367  30.064  33.939  1.00  0.00    -0.354 N 
ATOM     53  N   UNL A   1      41.741  28.616  31.414  1.00  0.00    -0.248 NA
ATOM     54  C   UNL A   1      42.914  27.069  30.116  1.00  0.00     0.031 C 
ATOM     55  C   UNL A   1      42.709  29.576  35.641  1.00  0.00     0.029 A 
ATOM     56  C   UNL A   1      42.425  29.257  34.324  1.00  0.00     0.049 A 
ATOM     57  H   UNL A   1      40.954  30.067  33.046  1.00  0.00     0.167 HD
ATOM     58  C   UNL A   1      42.740  28.037  32.187  1.00  0.00     0.074 A 
ATOM     59  C   UNL A   1      43.407  27.066  31.346  1.00  0.00     0.031 C 
ATOM     60  C   UNL A   1      43.072  28.285  33.477  1.00  0.00     0.037 A 
BRANCH  47  61
ATOM     61  C   UNL A   1      39.654  32.684  36.158  1.00  0.00     0.057 A 
ATOM     62  C   UNL A   1      40.338  33.886  36.390  1.00  0.00     0.134 A 
ATOM     63  C   UNL A   1      38.685  32.305  37.096  1.00  0.00     0.134 A 
ATOM     64  F   UNL A   1      41.288  34.303  35.539  1.00  0.00    -0.206 F 
ATOM     65  C   UNL A   1      40.089  34.663  37.522  1.00  0.00     0.040 A 
ATOM     66  C   UNL A   1      38.406  33.088  38.216  1.00  0.00     0.040 A 
ATOM     67  F   UNL A   1      37.989  31.169  36.934  1.00  0.00    -0.206 F 
ATOM     68  C   UNL A   1      39.115  34.268  38.437  1.00  0.00     0.006 A 
ENDBRANCH  47  61
BRANCH  48  69
ATOM     69  C   UNL A   1      41.223  27.494  27.769  1.00  0.00     0.057 A 
ATOM     70  C   UNL A   1      40.677  26.219  27.577  1.00  0.00     0.134 A 
ATOM     71  C   UNL A   1      42.028  28.009  26.746  1.00  0.00     0.134 A 
ATOM     72  F   UNL A   1      39.910  25.663  28.527  1.00  0.00    -0.206 F 
ATOM     73  C   UNL A   1      40.943  25.473  26.427  1.00  0.00     0.040 A 
ATOM     74  C   UNL A   1      42.280  27.287  25.578  1.00  0.00     0.040 A 
ATOM     75  F   UNL A   1      42.572  29.229  26.861  1.00  0.00    -0.206 F 
ATOM     76  C   UNL A   1      41.743  26.010  25.420  1.00  0.00     0.006 A 
ENDBRANCH  48  69
BRANCH  60  77
ATOM     77  C   UNL A   1      44.174  27.458  34.075  1.00  0.00     0.057 A 
ATOM     78  C   UNL A   1      43.931  26.219  34.679  1.00  0.00     0.134 A 
ATOM     79  C   UNL A   1      45.503  27.898  34.013  1.00  0.00     0.134 A 
ATOM     80  F   UNL A   1      42.680  25.745  34.782  1.00  0.00    -0.206 F 
ATOM     81  C   UNL A   1      44.966  25.459  35.228  1.00  0.00     0.040 A 
ATOM     82  C   UNL A   1      46.551  27.133  34.530  1.00  0.00     0.040 A 
ATOM     83  F   UNL A   1      45.807  29.071  33.439  1.00  0.00    -0.206 F 
ATOM     84  C   UNL A   1      46.282  25.914  35.147  1.00  0.00     0.006 A 
ENDBRANCH  60  77
ENDBRANCH  34  35
ENDBRANCH  26  29
ENDBRANCH  24  25
ENDBRANCH  23  24
ENDBRANCH  22  23
ENDBRANCH   1  22
TORSDOF 15
ENDMDL
