MODEL 1
REMARK VINA RESULT:     -12.2      0.000      0.000
REMARK SMILES Cc1c(Cl)cc2c(c1C)O[C@@H](C(F)(F)F)C(C(=O)NCCCCNC(=O)c1ccc(-c3c4nc(c(-c5c(F)cccc5F)c5ccc([nH]5)c(-c5c(F)cccc5F)c5nc(c(-c6c(F)cccc6F)c6ccc3[nH]6)C=C5)C=C4)cc1)=C2
REMARK SMILES IDX 22 1 21 2 20 3 19 4 17 5 18 6 16 8 1 9 2 10 3 11 8 12 4 13
REMARK SMILES IDX 5 14 7 15 9 16 6 17 10 18 81 19 11 20 12 21 13 22 14 23
REMARK SMILES IDX 15 24 23 25 24 26 25 27 26 29 27 30 28 31 80 32 29 33 79 34
REMARK SMILES IDX 30 35 31 36 32 37 73 38 33 39 78 40 72 41 74 42 34 43 77 44
REMARK SMILES IDX 71 45 70 46 35 48 61 49 44 50 60 51 45 52 48 53 59 54 75 55
REMARK SMILES IDX 46 56 47 57 58 59 76 60 49 61 36 62 37 63 42 64 38 65 39 66
REMARK SMILES IDX 41 67 43 68 40 69 62 70 63 71 68 72 64 73 65 74 67 75 69 76
REMARK SMILES IDX 66 77 50 78 51 79 56 80 52 81 53 82 55 83 57 84 54 85
REMARK H PARENT 19 7 24 28 74 47 48 58
REMARK Flexibility Score: inf
ROOT
ATOM      1  C   UNL A   1      37.762  20.434  24.806  1.00  0.00     0.023 C 
ENDROOT
BRANCH   1   2
ATOM      2  C   UNL A   1      37.023  21.714  24.418  1.00  0.00     0.023 C 
BRANCH   2   3
ATOM      3  C   UNL A   1      36.734  22.654  25.586  1.00  0.00     0.116 C 
BRANCH   3   4
ATOM      4  N   UNL A   1      35.786  22.071  26.514  1.00  0.00    -0.352 N 
ATOM      5  C   UNL A   1      34.471  22.221  26.796  1.00  0.00     0.251 C 
ATOM      6  O   UNL A   1      34.029  21.443  27.648  1.00  0.00    -0.270 OA
ATOM      7  H   UNL A   1      36.207  21.389  27.087  1.00  0.00     0.163 HD
BRANCH   5   8
ATOM      8  C   UNL A   1      33.562  23.229  26.175  1.00  0.00     0.067 C 
ATOM      9  C   UNL A   1      30.726  28.677  23.939  1.00  0.00     0.046 C 
ATOM     10  C   UNL A   1      31.528  27.602  24.628  1.00  0.00    -0.026 A 
ATOM     11  C   UNL A   1      32.677  27.907  25.388  1.00  0.00     0.045 A 
ATOM     12  C   UNL A   1      31.126  26.247  24.523  1.00  0.00    -0.004 A 
ATOM     13  Cl  UNL A   1      33.246  29.528  25.603  1.00  0.00    -0.084 Cl
ATOM     14  C   UNL A   1      33.419  26.900  26.014  1.00  0.00     0.032 A 
ATOM     15  C   UNL A   1      31.905  25.249  25.141  1.00  0.00     0.131 A 
ATOM     16  C   UNL A   1      29.915  25.814  23.734  1.00  0.00     0.049 C 
ATOM     17  C   UNL A   1      33.039  25.568  25.887  1.00  0.00     0.019 A 
ATOM     18  O   UNL A   1      31.482  23.950  25.016  1.00  0.00    -0.475 OA
ATOM     19  C   UNL A   1      33.802  24.505  26.529  1.00  0.00     0.025 C 
ATOM     20  C   UNL A   1      32.514  22.932  25.138  1.00  0.00     0.314 C 
BRANCH  20  21
ATOM     21  C   UNL A   1      33.084  22.589  23.751  1.00  0.00     0.429 C 
ATOM     22  F   UNL A   1      32.167  22.687  22.763  1.00  0.00    -0.167 F 
ATOM     23  F   UNL A   1      34.122  23.382  23.402  1.00  0.00    -0.167 F 
ATOM     24  F   UNL A   1      33.545  21.312  23.741  1.00  0.00    -0.167 F 
ENDBRANCH  20  21
ENDBRANCH   5   8
ENDBRANCH   3   4
ENDBRANCH   2   3
ENDBRANCH   1   2
BRANCH   1  25
ATOM     25  C   UNL A   1      38.960  20.633  25.724  1.00  0.00     0.116 C 
BRANCH  25  26
ATOM     26  N   UNL A   1      39.934  19.552  25.663  1.00  0.00    -0.352 N 
ATOM     27  C   UNL A   1      41.255  19.583  26.039  1.00  0.00     0.251 C 
ATOM     28  H   UNL A   1      39.606  18.694  25.308  1.00  0.00     0.163 HD
ATOM     29  O   UNL A   1      41.985  18.613  25.873  1.00  0.00    -0.269 OA
BRANCH  27  30
ATOM     30  C   UNL A   1      41.790  20.836  26.603  1.00  0.00     0.039 A 
ATOM     31  C   UNL A   1      42.246  21.822  25.729  1.00  0.00     0.014 A 
ATOM     32  C   UNL A   1      41.734  21.063  27.981  1.00  0.00     0.014 A 
ATOM     33  C   UNL A   1      42.576  23.077  26.234  1.00  0.00     0.010 A 
ATOM     34  C   UNL A   1      41.996  22.335  28.472  1.00  0.00     0.010 A 
ATOM     35  C   UNL A   1      42.414  23.352  27.602  1.00  0.00    -0.014 A 
BRANCH  35  36
ATOM     36  C   UNL A   1      42.684  24.706  28.137  1.00  0.00     0.031 A 
ATOM     37  C   UNL A   1      44.085  25.104  28.492  1.00  0.00     0.074 A 
ATOM     38  C   UNL A   1      41.660  25.556  28.339  1.00  0.00     0.049 A 
ATOM     39  N   UNL A   1      44.522  26.239  28.973  1.00  0.00    -0.248 NA
ATOM     40  C   UNL A   1      45.130  24.084  28.306  1.00  0.00     0.031 C 
ATOM     41  C   UNL A   1      40.249  25.262  28.083  1.00  0.00     0.029 A 
ATOM     42  N   UNL A   1      41.652  26.849  28.799  1.00  0.00    -0.354 N 
ATOM     43  C   UNL A   1      45.888  26.067  29.150  1.00  0.00     0.074 A 
ATOM     44  C   UNL A   1      46.198  24.702  28.785  1.00  0.00     0.031 C 
ATOM     45  C   UNL A   1      39.517  26.358  28.345  1.00  0.00     0.029 A 
ATOM     46  C   UNL A   1      40.404  27.422  28.806  1.00  0.00     0.049 A 
ATOM     47  H   UNL A   1      42.463  27.321  29.096  1.00  0.00     0.167 HD
ATOM     48  C   UNL A   1      46.807  26.976  29.549  1.00  0.00     0.037 A 
ATOM     49  C   UNL A   1      40.025  28.672  29.130  1.00  0.00     0.037 A 
ATOM     50  C   UNL A   1      46.503  28.340  29.879  1.00  0.00     0.049 A 
ATOM     51  C   UNL A   1      41.063  29.665  29.565  1.00  0.00     0.074 A 
ATOM     52  C   UNL A   1      47.370  29.356  30.239  1.00  0.00     0.029 A 
ATOM     53  N   UNL A   1      45.226  28.880  29.881  1.00  0.00    -0.354 N 
ATOM     54  N   UNL A   1      42.359  29.507  29.674  1.00  0.00    -0.248 NA
ATOM     55  C   UNL A   1      40.586  31.009  29.922  1.00  0.00     0.031 C 
ATOM     56  C   UNL A   1      46.614  30.507  30.481  1.00  0.00     0.029 A 
ATOM     57  C   UNL A   1      45.280  30.213  30.248  1.00  0.00     0.049 A 
ATOM     58  H   UNL A   1      44.403  28.389  29.656  1.00  0.00     0.167 HD
ATOM     59  C   UNL A   1      42.857  30.733  30.094  1.00  0.00     0.074 A 
ATOM     60  C   UNL A   1      41.724  31.627  30.215  1.00  0.00     0.031 C 
ATOM     61  C   UNL A   1      44.138  31.085  30.358  1.00  0.00     0.037 A 
BRANCH  48  62
ATOM     62  C   UNL A   1      48.230  26.516  29.622  1.00  0.00     0.057 A 
ATOM     63  C   UNL A   1      48.743  25.910  30.777  1.00  0.00     0.134 A 
ATOM     64  C   UNL A   1      49.096  26.675  28.534  1.00  0.00     0.134 A 
ATOM     65  F   UNL A   1      47.968  25.748  31.859  1.00  0.00    -0.206 F 
ATOM     66  C   UNL A   1      50.075  25.503  30.857  1.00  0.00     0.040 A 
ATOM     67  C   UNL A   1      50.425  26.252  28.594  1.00  0.00     0.040 A 
ATOM     68  F   UNL A   1      48.666  27.248  27.400  1.00  0.00    -0.206 F 
ATOM     69  C   UNL A   1      50.918  25.670  29.760  1.00  0.00     0.006 A 
ENDBRANCH  48  62
BRANCH  49  70
ATOM     70  C   UNL A   1      38.604  29.068  28.987  1.00  0.00     0.057 A 
ATOM     71  C   UNL A   1      37.731  28.991  30.078  1.00  0.00     0.134 A 
ATOM     72  C   UNL A   1      38.092  29.552  27.779  1.00  0.00     0.134 A 
ATOM     73  F   UNL A   1      38.165  28.522  31.257  1.00  0.00    -0.206 F 
ATOM     74  C   UNL A   1      36.394  29.375  29.972  1.00  0.00     0.040 A 
ATOM     75  C   UNL A   1      36.760  29.953  27.662  1.00  0.00     0.040 A 
ATOM     76  F   UNL A   1      38.883  29.655  26.702  1.00  0.00    -0.206 F 
ATOM     77  C   UNL A   1      35.907  29.863  28.761  1.00  0.00     0.006 A 
ENDBRANCH  49  70
BRANCH  61  78
ATOM     78  C   UNL A   1      44.389  32.495  30.793  1.00  0.00     0.057 A 
ATOM     79  C   UNL A   1      44.584  33.520  29.862  1.00  0.00     0.134 A 
ATOM     80  C   UNL A   1      44.357  32.840  32.150  1.00  0.00     0.134 A 
ATOM     81  F   UNL A   1      44.634  33.247  28.549  1.00  0.00    -0.206 F 
ATOM     82  C   UNL A   1      44.741  34.847  30.265  1.00  0.00     0.040 A 
ATOM     83  C   UNL A   1      44.497  34.164  32.564  1.00  0.00     0.040 A 
ATOM     84  F   UNL A   1      44.167  31.899  33.087  1.00  0.00    -0.206 F 
ATOM     85  C   UNL A   1      44.689  35.172  31.620  1.00  0.00     0.006 A 
ENDBRANCH  61  78
ENDBRANCH  35  36
ENDBRANCH  27  30
ENDBRANCH  25  26
ENDBRANCH   1  25
TORSDOF 12
ENDMDL
MODEL 2
REMARK VINA RESULT:     -12.2      1.233      1.673
REMARK SMILES Cc1c(Cl)cc2c(c1C)O[C@@H](C(F)(F)F)C(C(=O)NCCCCNC(=O)c1ccc(-c3c4nc(c(-c5c(F)cccc5F)c5ccc([nH]5)c(-c5c(F)cccc5F)c5nc(c(-c6c(F)cccc6F)c6ccc3[nH]6)C=C5)C=C4)cc1)=C2
REMARK SMILES IDX 22 1 21 2 20 3 19 4 17 5 18 6 16 8 1 9 2 10 3 11 8 12 4 13
REMARK SMILES IDX 5 14 7 15 9 16 6 17 10 18 81 19 11 20 12 21 13 22 14 23
REMARK SMILES IDX 15 24 23 25 24 26 25 27 26 29 27 30 28 31 80 32 29 33 79 34
REMARK SMILES IDX 30 35 31 36 32 37 73 38 33 39 78 40 72 41 74 42 34 43 77 44
REMARK SMILES IDX 71 45 70 46 35 48 61 49 44 50 60 51 45 52 48 53 59 54 75 55
REMARK SMILES IDX 46 56 47 57 58 59 76 60 49 61 36 62 37 63 42 64 38 65 39 66
REMARK SMILES IDX 41 67 43 68 40 69 62 70 63 71 68 72 64 73 65 74 67 75 69 76
REMARK SMILES IDX 66 77 50 78 51 79 56 80 52 81 53 82 55 83 57 84 54 85
REMARK H PARENT 19 7 24 28 74 47 48 58
REMARK Flexibility Score: inf
ROOT
ATOM      1  C   UNL A   1      37.764  20.138  25.001  1.00  0.00     0.023 C 
ENDROOT
BRANCH   1   2
ATOM      2  C   UNL A   1      37.091  21.391  24.441  1.00  0.00     0.023 C 
BRANCH   2   3
ATOM      3  C   UNL A   1      36.780  22.460  25.487  1.00  0.00     0.116 C 
BRANCH   3   4
ATOM      4  N   UNL A   1      35.857  21.970  26.489  1.00  0.00    -0.352 N 
ATOM      5  C   UNL A   1      34.549  22.145  26.787  1.00  0.00     0.251 C 
ATOM      6  O   UNL A   1      34.129  21.454  27.721  1.00  0.00    -0.270 OA
ATOM      7  H   UNL A   1      36.293  21.348  27.116  1.00  0.00     0.163 HD
BRANCH   5   8
ATOM      8  C   UNL A   1      33.621  23.086  26.091  1.00  0.00     0.067 C 
ATOM      9  C   UNL A   1      30.717  28.282  23.391  1.00  0.00     0.046 C 
ATOM     10  C   UNL A   1      31.540  27.282  24.163  1.00  0.00    -0.026 A 
ATOM     11  C   UNL A   1      32.709  27.661  24.855  1.00  0.00     0.045 A 
ATOM     12  C   UNL A   1      31.137  25.924  24.208  1.00  0.00    -0.004 A 
ATOM     13  Cl  UNL A   1      33.283  29.294  24.888  1.00  0.00    -0.084 Cl
ATOM     14  C   UNL A   1      33.470  26.722  25.560  1.00  0.00     0.032 A 
ATOM     15  C   UNL A   1      31.933  24.993  24.904  1.00  0.00     0.131 A 
ATOM     16  C   UNL A   1      29.904  25.415  23.502  1.00  0.00     0.049 C 
ATOM     17  C   UNL A   1      33.088  25.384  25.580  1.00  0.00     0.019 A 
ATOM     18  O   UNL A   1      31.508  23.689  24.924  1.00  0.00    -0.475 OA
ATOM     19  C   UNL A   1      33.870  24.391  26.306  1.00  0.00     0.025 C 
ATOM     20  C   UNL A   1      32.544  22.687  25.120  1.00  0.00     0.314 C 
BRANCH  20  21
ATOM     21  C   UNL A   1      33.076  22.202  23.759  1.00  0.00     0.429 C 
ATOM     22  F   UNL A   1      32.134  22.211  22.790  1.00  0.00    -0.167 F 
ATOM     23  F   UNL A   1      34.110  22.947  23.308  1.00  0.00    -0.167 F 
ATOM     24  F   UNL A   1      33.527  20.926  23.865  1.00  0.00    -0.167 F 
ENDBRANCH  20  21
ENDBRANCH   5   8
ENDBRANCH   3   4
ENDBRANCH   2   3
ENDBRANCH   1   2
BRANCH   1  25
ATOM     25  C   UNL A   1      39.063  20.386  25.756  1.00  0.00     0.116 C 
BRANCH  25  26
ATOM     26  N   UNL A   1      39.972  19.248  25.751  1.00  0.00    -0.352 N 
ATOM     27  C   UNL A   1      41.315  19.238  26.041  1.00  0.00     0.251 C 
ATOM     28  H   UNL A   1      39.576  18.380  25.510  1.00  0.00     0.163 HD
ATOM     29  O   UNL A   1      41.979  18.215  25.935  1.00  0.00    -0.269 OA
BRANCH  27  30
ATOM     30  C   UNL A   1      41.951  20.508  26.435  1.00  0.00     0.039 A 
ATOM     31  C   UNL A   1      42.389  21.376  25.436  1.00  0.00     0.014 A 
ATOM     32  C   UNL A   1      42.009  20.872  27.784  1.00  0.00     0.014 A 
ATOM     33  C   UNL A   1      42.817  22.654  25.786  1.00  0.00     0.010 A 
ATOM     34  C   UNL A   1      42.370  22.169  28.123  1.00  0.00     0.010 A 
ATOM     35  C   UNL A   1      42.772  23.071  27.127  1.00  0.00    -0.014 A 
BRANCH  35  36
ATOM     36  C   UNL A   1      43.147  24.453  27.501  1.00  0.00     0.031 A 
ATOM     37  C   UNL A   1      44.582  24.882  27.434  1.00  0.00     0.074 A 
ATOM     38  C   UNL A   1      42.200  25.304  27.938  1.00  0.00     0.049 A 
ATOM     39  N   UNL A   1      45.109  26.044  27.720  1.00  0.00    -0.248 NA
ATOM     40  C   UNL A   1      45.559  23.864  27.014  1.00  0.00     0.031 C 
ATOM     41  C   UNL A   1      40.780  24.983  28.098  1.00  0.00     0.029 A 
ATOM     42  N   UNL A   1      42.290  26.618  28.320  1.00  0.00    -0.354 N 
ATOM     43  C   UNL A   1      46.475  25.894  27.520  1.00  0.00     0.074 A 
ATOM     44  C   UNL A   1      46.703  24.516  27.148  1.00  0.00     0.031 C 
ATOM     45  C   UNL A   1      40.124  26.085  28.500  1.00  0.00     0.029 A 
ATOM     46  C   UNL A   1      41.079  27.179  28.646  1.00  0.00     0.049 A 
ATOM     47  H   UNL A   1      43.140  27.112  28.358  1.00  0.00     0.167 HD
ATOM     48  C   UNL A   1      47.446  26.831  27.604  1.00  0.00     0.037 A 
ATOM     49  C   UNL A   1      40.775  28.441  29.002  1.00  0.00     0.037 A 
ATOM     50  C   UNL A   1      47.213  28.208  27.940  1.00  0.00     0.049 A 
ATOM     51  C   UNL A   1      41.870  29.465  29.085  1.00  0.00     0.074 A 
ATOM     52  C   UNL A   1      48.123  29.249  27.996  1.00  0.00     0.029 A 
ATOM     53  N   UNL A   1      45.975  28.736  28.271  1.00  0.00    -0.354 N 
ATOM     54  N   UNL A   1      43.149  29.325  28.838  1.00  0.00    -0.248 NA
ATOM     55  C   UNL A   1      41.480  30.821  29.496  1.00  0.00     0.031 C 
ATOM     56  C   UNL A   1      47.436  30.405  28.384  1.00  0.00     0.029 A 
ATOM     57  C   UNL A   1      46.098  30.087  28.545  1.00  0.00     0.049 A 
ATOM     58  H   UNL A   1      45.134  28.226  28.306  1.00  0.00     0.167 HD
ATOM     59  C   UNL A   1      43.715  30.575  29.044  1.00  0.00     0.074 A 
ATOM     60  C   UNL A   1      42.639  31.464  29.431  1.00  0.00     0.031 C 
ATOM     61  C   UNL A   1      45.011  30.952  28.925  1.00  0.00     0.037 A 
BRANCH  48  62
ATOM     62  C   UNL A   1      48.844  26.389  27.301  1.00  0.00     0.057 A 
ATOM     63  C   UNL A   1      49.713  25.969  28.317  1.00  0.00     0.134 A 
ATOM     64  C   UNL A   1      49.329  26.379  25.989  1.00  0.00     0.134 A 
ATOM     65  F   UNL A   1      49.313  25.975  29.598  1.00  0.00    -0.206 F 
ATOM     66  C   UNL A   1      51.024  25.579  28.042  1.00  0.00     0.040 A 
ATOM     67  C   UNL A   1      50.632  25.972  25.697  1.00  0.00     0.040 A 
ATOM     68  F   UNL A   1      48.548  26.771  24.971  1.00  0.00    -0.206 F 
ATOM     69  C   UNL A   1      51.484  25.576  26.726  1.00  0.00     0.006 A 
ENDBRANCH  48  62
BRANCH  49  70
ATOM     70  C   UNL A   1      39.362  28.817  29.241  1.00  0.00     0.057 A 
ATOM     71  C   UNL A   1      38.795  28.683  30.514  1.00  0.00     0.134 A 
ATOM     72  C   UNL A   1      38.555  29.334  28.222  1.00  0.00     0.134 A 
ATOM     73  F   UNL A   1      39.518  28.179  31.524  1.00  0.00    -0.206 F 
ATOM     74  C   UNL A   1      37.472  29.046  30.765  1.00  0.00     0.040 A 
ATOM     75  C   UNL A   1      37.234  29.716  28.463  1.00  0.00     0.040 A 
ATOM     76  F   UNL A   1      39.046  29.491  26.984  1.00  0.00    -0.206 F 
ATOM     77  C   UNL A   1      36.689  29.570  29.738  1.00  0.00     0.006 A 
ENDBRANCH  49  70
BRANCH  61  78
ATOM     78  C   UNL A   1      45.339  32.385  29.205  1.00  0.00     0.057 A 
ATOM     79  C   UNL A   1      45.764  32.801  30.472  1.00  0.00     0.134 A 
ATOM     80  C   UNL A   1      45.304  33.340  28.181  1.00  0.00     0.134 A 
ATOM     81  F   UNL A   1      45.807  31.932  31.494  1.00  0.00    -0.206 F 
ATOM     82  C   UNL A   1      46.143  34.122  30.713  1.00  0.00     0.040 A 
ATOM     83  C   UNL A   1      45.696  34.659  28.406  1.00  0.00     0.040 A 
ATOM     84  F   UNL A   1      44.911  32.997  26.945  1.00  0.00    -0.206 F 
ATOM     85  C   UNL A   1      46.118  35.053  29.675  1.00  0.00     0.006 A 
ENDBRANCH  61  78
ENDBRANCH  35  36
ENDBRANCH  27  30
ENDBRANCH  25  26
ENDBRANCH   1  25
TORSDOF 12
ENDMDL
MODEL 3
REMARK VINA RESULT:     -12.0      4.143      8.029
REMARK SMILES Cc1c(Cl)cc2c(c1C)O[C@@H](C(F)(F)F)C(C(=O)NCCCCNC(=O)c1ccc(-c3c4nc(c(-c5c(F)cccc5F)c5ccc([nH]5)c(-c5c(F)cccc5F)c5nc(c(-c6c(F)cccc6F)c6ccc3[nH]6)C=C5)C=C4)cc1)=C2
REMARK SMILES IDX 22 1 21 2 20 3 19 4 17 5 18 6 16 8 1 9 2 10 3 11 8 12 4 13
REMARK SMILES IDX 5 14 7 15 9 16 6 17 10 18 81 19 11 20 12 21 13 22 14 23
REMARK SMILES IDX 15 24 23 25 24 26 25 27 26 29 27 30 28 31 80 32 29 33 79 34
REMARK SMILES IDX 30 35 31 36 32 37 73 38 33 39 78 40 72 41 74 42 34 43 77 44
REMARK SMILES IDX 71 45 70 46 35 48 61 49 44 50 60 51 45 52 48 53 59 54 75 55
REMARK SMILES IDX 46 56 47 57 58 59 76 60 49 61 36 62 37 63 42 64 38 65 39 66
REMARK SMILES IDX 41 67 43 68 40 69 62 70 63 71 68 72 64 73 65 74 67 75 69 76
REMARK SMILES IDX 66 77 50 78 51 79 56 80 52 81 53 82 55 83 57 84 54 85
REMARK H PARENT 19 7 24 28 74 47 48 58
REMARK Flexibility Score: inf
ROOT
ATOM      1  C   UNL A   1      37.253  23.519  25.280  1.00  0.00     0.023 C 
ENDROOT
BRANCH   1   2
ATOM      2  C   UNL A   1      37.287  22.008  25.059  1.00  0.00     0.023 C 
BRANCH   2   3
ATOM      3  C   UNL A   1      35.930  21.387  24.735  1.00  0.00     0.116 C 
BRANCH   3   4
ATOM      4  N   UNL A   1      35.169  21.117  25.939  1.00  0.00    -0.352 N 
ATOM      5  C   UNL A   1      34.043  21.597  26.515  1.00  0.00     0.251 C 
ATOM      6  O   UNL A   1      33.695  21.013  27.547  1.00  0.00    -0.270 OA
ATOM      7  H   UNL A   1      35.577  20.400  26.477  1.00  0.00     0.163 HD
BRANCH   5   8
ATOM      8  C   UNL A   1      33.231  22.743  26.007  1.00  0.00     0.067 C 
ATOM      9  C   UNL A   1      31.026  28.593  24.102  1.00  0.00     0.046 C 
ATOM     10  C   UNL A   1      31.731  27.398  24.692  1.00  0.00    -0.026 A 
ATOM     11  C   UNL A   1      33.003  27.510  25.291  1.00  0.00     0.045 A 
ATOM     12  C   UNL A   1      31.109  26.125  24.656  1.00  0.00    -0.004 A 
ATOM     13  Cl  UNL A   1      33.846  29.018  25.411  1.00  0.00    -0.084 Cl
ATOM     14  C   UNL A   1      33.652  26.391  25.825  1.00  0.00     0.032 A 
ATOM     15  C   UNL A   1      31.794  25.010  25.178  1.00  0.00     0.131 A 
ATOM     16  C   UNL A   1      29.751  25.898  24.038  1.00  0.00     0.049 C 
ATOM     17  C   UNL A   1      33.052  25.137  25.764  1.00  0.00     0.019 A 
ATOM     18  O   UNL A   1      31.157  23.796  25.124  1.00  0.00    -0.475 OA
ATOM     19  C   UNL A   1      33.715  23.961  26.312  1.00  0.00     0.025 C 
ATOM     20  C   UNL A   1      32.022  22.626  25.120  1.00  0.00     0.314 C 
BRANCH  20  21
ATOM     21  C   UNL A   1      32.343  22.210  23.674  1.00  0.00     0.429 C 
ATOM     22  F   UNL A   1      33.466  22.788  23.194  1.00  0.00    -0.167 F 
ATOM     23  F   UNL A   1      32.500  20.874  23.538  1.00  0.00    -0.167 F 
ATOM     24  F   UNL A   1      31.325  22.572  22.850  1.00  0.00    -0.167 F 
ENDBRANCH  20  21
ENDBRANCH   5   8
ENDBRANCH   3   4
ENDBRANCH   2   3
ENDBRANCH   1   2
BRANCH   1  25
ATOM     25  C   UNL A   1      38.173  24.032  26.380  1.00  0.00     0.116 C 
BRANCH  25  26
ATOM     26  N   UNL A   1      39.588  23.821  26.108  1.00  0.00    -0.352 N 
ATOM     27  C   UNL A   1      40.655  24.555  26.566  1.00  0.00     0.251 C 
ATOM     28  H   UNL A   1      39.807  23.059  25.525  1.00  0.00     0.163 HD
ATOM     29  O   UNL A   1      41.799  24.306  26.206  1.00  0.00    -0.269 OA
BRANCH  27  30
ATOM     30  C   UNL A   1      40.384  25.691  27.466  1.00  0.00     0.039 A 
ATOM     31  C   UNL A   1      39.532  25.494  28.554  1.00  0.00     0.014 A 
ATOM     32  C   UNL A   1      41.057  26.903  27.287  1.00  0.00     0.014 A 
ATOM     33  C   UNL A   1      39.415  26.496  29.513  1.00  0.00     0.010 A 
ATOM     34  C   UNL A   1      40.992  27.871  28.280  1.00  0.00     0.010 A 
ATOM     35  C   UNL A   1      40.175  27.673  29.403  1.00  0.00    -0.014 A 
BRANCH  35  36
ATOM     36  C   UNL A   1      40.121  28.709  30.458  1.00  0.00     0.031 A 
ATOM     37  C   UNL A   1      39.119  29.820  30.363  1.00  0.00     0.074 A 
ATOM     38  C   UNL A   1      41.000  28.667  31.477  1.00  0.00     0.049 A 
ATOM     39  N   UNL A   1      38.916  30.819  31.183  1.00  0.00    -0.248 NA
ATOM     40  C   UNL A   1      38.247  29.827  29.178  1.00  0.00     0.031 C 
ATOM     41  C   UNL A   1      42.055  27.666  31.646  1.00  0.00     0.029 A 
ATOM     42  N   UNL A   1      41.139  29.485  32.569  1.00  0.00    -0.354 N 
ATOM     43  C   UNL A   1      37.900  31.571  30.611  1.00  0.00     0.074 A 
ATOM     44  C   UNL A   1      37.570  30.951  29.347  1.00  0.00     0.031 C 
ATOM     45  C   UNL A   1      42.702  27.901  32.800  1.00  0.00     0.029 A 
ATOM     46  C   UNL A   1      42.123  29.080  33.437  1.00  0.00     0.049 A 
ATOM     47  H   UNL A   1      40.588  30.287  32.716  1.00  0.00     0.167 HD
ATOM     48  C   UNL A   1      37.275  32.661  31.111  1.00  0.00     0.037 A 
ATOM     49  C   UNL A   1      42.499  29.593  34.624  1.00  0.00     0.037 A 
ATOM     50  C   UNL A   1      37.581  33.256  32.382  1.00  0.00     0.049 A 
ATOM     51  C   UNL A   1      41.787  30.800  35.160  1.00  0.00     0.074 A 
ATOM     52  C   UNL A   1      36.966  34.328  33.004  1.00  0.00     0.029 A 
ATOM     53  N   UNL A   1      38.589  32.821  33.228  1.00  0.00    -0.354 N 
ATOM     54  N   UNL A   1      40.789  31.469  34.636  1.00  0.00    -0.248 NA
ATOM     55  C   UNL A   1      42.253  31.325  36.452  1.00  0.00     0.031 C 
ATOM     56  C   UNL A   1      37.618  34.555  34.221  1.00  0.00     0.029 A 
ATOM     57  C   UNL A   1      38.621  33.611  34.364  1.00  0.00     0.049 A 
ATOM     58  H   UNL A   1      39.191  32.064  33.048  1.00  0.00     0.167 HD
ATOM     59  C   UNL A   1      40.494  32.481  35.540  1.00  0.00     0.074 A 
ATOM     60  C   UNL A   1      41.414  32.335  36.649  1.00  0.00     0.031 C 
ATOM     61  C   UNL A   1      39.546  33.445  35.457  1.00  0.00     0.037 A 
BRANCH  48  62
ATOM     62  C   UNL A   1      36.179  33.256  30.281  1.00  0.00     0.057 A 
ATOM     63  C   UNL A   1      34.831  32.994  30.556  1.00  0.00     0.134 A 
ATOM     64  C   UNL A   1      36.469  34.098  29.201  1.00  0.00     0.134 A 
ATOM     65  F   UNL A   1      34.490  32.178  31.565  1.00  0.00    -0.206 F 
ATOM     66  C   UNL A   1      33.809  33.526  29.770  1.00  0.00     0.040 A 
ATOM     67  C   UNL A   1      35.455  34.655  28.420  1.00  0.00     0.040 A 
ATOM     68  F   UNL A   1      37.740  34.388  28.886  1.00  0.00    -0.206 F 
ATOM     69  C   UNL A   1      34.121  34.364  28.700  1.00  0.00     0.006 A 
ENDBRANCH  48  62
BRANCH  49  70
ATOM     70  C   UNL A   1      43.559  28.921  35.411  1.00  0.00     0.057 A 
ATOM     71  C   UNL A   1      43.229  27.974  36.387  1.00  0.00     0.134 A 
ATOM     72  C   UNL A   1      44.916  29.186  35.197  1.00  0.00     0.134 A 
ATOM     73  F   UNL A   1      41.944  27.690  36.643  1.00  0.00    -0.206 F 
ATOM     74  C   UNL A   1      44.211  27.316  37.128  1.00  0.00     0.040 A 
ATOM     75  C   UNL A   1      45.910  28.526  35.921  1.00  0.00     0.040 A 
ATOM     76  F   UNL A   1      45.292  30.080  34.271  1.00  0.00    -0.206 F 
ATOM     77  C   UNL A   1      45.557  27.589  36.891  1.00  0.00     0.006 A 
ENDBRANCH  49  70
BRANCH  61  78
ATOM     78  C   UNL A   1      39.446  34.412  36.594  1.00  0.00     0.057 A 
ATOM     79  C   UNL A   1      38.765  34.084  37.772  1.00  0.00     0.134 A 
ATOM     80  C   UNL A   1      40.103  35.648  36.541  1.00  0.00     0.134 A 
ATOM     81  F   UNL A   1      38.110  32.918  37.876  1.00  0.00    -0.206 F 
ATOM     82  C   UNL A   1      38.738  34.956  38.861  1.00  0.00     0.040 A 
ATOM     83  C   UNL A   1      40.096  36.520  37.628  1.00  0.00     0.040 A 
ATOM     84  F   UNL A   1      40.777  36.013  35.440  1.00  0.00    -0.206 F 
ATOM     85  C   UNL A   1      39.412  36.174  38.793  1.00  0.00     0.006 A 
ENDBRANCH  61  78
ENDBRANCH  35  36
ENDBRANCH  27  30
ENDBRANCH  25  26
ENDBRANCH   1  25
TORSDOF 12
ENDMDL
