MODEL 1
REMARK VINA RESULT:     -12.3      0.000      0.000
REMARK SMILES NS(=O)(=O)c1ccc(-n2nc(C(=O)NCCCCNC(=O)c3ccc(-c4c5nc(c(-c6c(F)cccc6F)c6ccc([nH]6)c(-c6c(F)cccc6F)c6nc(c(-c7c(F)cccc7F)c7ccc4[nH]7)C=C6)C=C5)cc3)cc2-c2cc3ccccc3s2)cc1
REMARK SMILES IDX 16 1 15 2 14 3 12 4 13 5 11 7 9 8 10 9 77 10 76 11 8 12 5 13
REMARK SMILES IDX 6 14 88 15 7 16 87 17 2 18 3 19 4 20 1 21 78 24 79 25 86 26
REMARK SMILES IDX 80 27 85 28 81 29 84 30 82 31 83 32 17 33 18 34 19 35 20 36
REMARK SMILES IDX 21 38 22 39 23 40 75 41 24 42 74 43 25 44 26 45 27 46 68 47
REMARK SMILES IDX 28 48 73 49 67 50 69 51 29 52 72 53 66 54 65 55 30 57 56 58
REMARK SMILES IDX 39 59 55 60 40 61 43 62 54 63 70 64 41 65 42 66 53 68 71 69
REMARK SMILES IDX 44 70 31 71 32 72 37 73 33 74 34 75 36 76 38 77 35 78 57 79
REMARK SMILES IDX 58 80 63 81 59 82 60 83 62 84 64 85 61 86 45 87 46 88 51 89
REMARK SMILES IDX 47 90 48 91 50 92 52 93 49 94
REMARK H PARENT 14 6 1 22 1 23 19 37 69 56 43 67
REMARK Flexibility Score: inf
ROOT
ATOM      1  C   UNL A   1      33.262  34.435  28.227  1.00  0.00     0.023 C 
ENDROOT
BRANCH   1   2
ATOM      2  C   UNL A   1      33.185  32.922  27.968  1.00  0.00     0.116 C 
BRANCH   2   3
ATOM      3  N   UNL A   1      34.491  32.279  28.016  1.00  0.00    -0.351 N 
ATOM      4  C   UNL A   1      34.955  31.066  27.529  1.00  0.00     0.271 C 
ATOM      5  O   UNL A   1      36.169  30.871  27.631  1.00  0.00    -0.267 OA
ATOM      6  H   UNL A   1      35.176  32.807  28.485  1.00  0.00     0.163 HD
BRANCH   4   7
ATOM      7  C   UNL A   1      34.048  30.103  26.870  1.00  0.00     0.151 A 
ATOM      8  N   UNL A   1      33.425  28.225  26.014  1.00  0.00    -0.231 N 
ATOM      9  N   UNL A   1      34.199  28.768  26.996  1.00  0.00    -0.162 NA
ATOM     10  C   UNL A   1      32.815  29.210  25.273  1.00  0.00     0.085 A 
ATOM     11  C   UNL A   1      32.945  30.354  26.037  1.00  0.00     0.066 A 
BRANCH   8  12
ATOM     12  C   UNL A   1      33.105  26.849  26.033  1.00  0.00     0.065 A 
ATOM     13  C   UNL A   1      32.665  24.111  26.174  1.00  0.00     0.082 A 
ATOM     14  C   UNL A   1      31.684  24.996  26.639  1.00  0.00     0.024 A 
ATOM     15  C   UNL A   1      33.866  24.584  25.641  1.00  0.00     0.024 A 
ATOM     16  C   UNL A   1      31.914  26.376  26.592  1.00  0.00     0.030 A 
ATOM     17  C   UNL A   1      34.071  25.957  25.540  1.00  0.00     0.030 A 
BRANCH  13  18
ATOM     18  S   UNL A   1      32.411  22.364  26.298  1.00  0.00     0.238 S 
ATOM     19  O   UNL A   1      33.603  21.674  25.878  1.00  0.00    -0.207 OA
ATOM     20  O   UNL A   1      31.101  22.045  25.772  1.00  0.00    -0.207 OA
BRANCH  18  21
ATOM     21  N   UNL A   1      32.313  22.149  27.959  1.00  0.00    -0.225 NA
ATOM     22  H   UNL A   1      33.140  22.547  28.403  1.00  0.00     0.137 HD
ATOM     23  H   UNL A   1      32.259  21.153  28.170  1.00  0.00     0.137 HD
ENDBRANCH  18  21
ENDBRANCH  13  18
ENDBRANCH   8  12
BRANCH  10  24
ATOM     24  C   UNL A   1      32.282  29.202  23.938  1.00  0.00     0.054 A 
ATOM     25  C   UNL A   1      32.725  28.376  22.911  1.00  0.00     0.031 A 
ATOM     26  S   UNL A   1      30.545  29.218  23.802  1.00  0.00    -0.134 S 
ATOM     27  C   UNL A   1      31.859  27.206  22.924  1.00  0.00    -0.007 A 
ATOM     28  C   UNL A   1      30.623  27.507  23.514  1.00  0.00     0.035 A 
ATOM     29  C   UNL A   1      32.124  25.859  22.584  1.00  0.00     0.009 A 
ATOM     30  C   UNL A   1      29.675  26.518  23.823  1.00  0.00     0.019 A 
ATOM     31  C   UNL A   1      31.211  24.861  22.945  1.00  0.00     0.001 A 
ATOM     32  C   UNL A   1      30.012  25.185  23.572  1.00  0.00     0.001 A 
ENDBRANCH  10  24
ENDBRANCH   4   7
ENDBRANCH   2   3
ENDBRANCH   1   2
BRANCH   1  33
ATOM     33  C   UNL A   1      33.161  34.871  29.698  1.00  0.00     0.023 C 
BRANCH  33  34
ATOM     34  C   UNL A   1      34.432  34.693  30.523  1.00  0.00     0.116 C 
BRANCH  34  35
ATOM     35  N   UNL A   1      34.504  35.546  31.719  1.00  0.00    -0.352 N 
ATOM     36  C   UNL A   1      35.065  35.240  32.954  1.00  0.00     0.251 C 
ATOM     37  H   UNL A   1      34.106  36.442  31.635  1.00  0.00     0.163 HD
ATOM     38  O   UNL A   1      34.741  35.835  33.973  1.00  0.00    -0.269 OA
BRANCH  36  39
ATOM     39  C   UNL A   1      36.101  34.195  32.999  1.00  0.00     0.039 A 
ATOM     40  C   UNL A   1      35.826  32.827  33.102  1.00  0.00     0.014 A 
ATOM     41  C   UNL A   1      37.401  34.648  32.839  1.00  0.00     0.014 A 
ATOM     42  C   UNL A   1      36.880  31.923  32.946  1.00  0.00     0.010 A 
ATOM     43  C   UNL A   1      38.352  33.773  32.413  1.00  0.00     0.010 A 
ATOM     44  C   UNL A   1      38.143  32.413  32.582  1.00  0.00    -0.014 A 
BRANCH  44  45
ATOM     45  C   UNL A   1      39.280  31.554  32.282  1.00  0.00     0.031 A 
ATOM     46  C   UNL A   1      40.045  31.107  33.472  1.00  0.00     0.074 A 
ATOM     47  C   UNL A   1      39.444  30.996  31.058  1.00  0.00     0.049 A 
ATOM     48  N   UNL A   1      41.239  31.454  33.820  1.00  0.00    -0.248 NA
ATOM     49  C   UNL A   1      39.345  30.295  34.482  1.00  0.00     0.031 C 
ATOM     50  C   UNL A   1      38.560  31.095  29.882  1.00  0.00     0.029 A 
ATOM     51  N   UNL A   1      40.392  30.120  30.629  1.00  0.00    -0.354 N 
ATOM     52  C   UNL A   1      41.529  30.710  34.961  1.00  0.00     0.074 A 
ATOM     53  C   UNL A   1      40.272  30.204  35.439  1.00  0.00     0.031 C 
ATOM     54  C   UNL A   1      38.881  30.141  28.981  1.00  0.00     0.029 A 
ATOM     55  C   UNL A   1      40.106  29.504  29.415  1.00  0.00     0.049 A 
ATOM     56  H   UNL A   1      41.214  29.938  31.138  1.00  0.00     0.167 HD
ATOM     57  C   UNL A   1      42.809  30.334  35.236  1.00  0.00     0.037 A 
ATOM     58  C   UNL A   1      40.831  28.538  28.801  1.00  0.00     0.037 A 
ATOM     59  C   UNL A   1      43.744  31.085  34.431  1.00  0.00     0.049 A 
ATOM     60  C   UNL A   1      42.190  28.586  29.383  1.00  0.00     0.074 A 
ATOM     61  C   UNL A   1      44.084  32.415  34.291  1.00  0.00     0.029 A 
ATOM     62  N   UNL A   1      44.225  30.452  33.313  1.00  0.00    -0.354 N 
ATOM     63  N   UNL A   1      43.008  29.590  29.230  1.00  0.00    -0.248 NA
ATOM     64  C   UNL A   1      42.473  27.716  30.511  1.00  0.00     0.031 C 
ATOM     65  C   UNL A   1      44.360  32.585  32.901  1.00  0.00     0.029 A 
ATOM     66  C   UNL A   1      44.242  31.342  32.275  1.00  0.00     0.049 A 
ATOM     67  H   UNL A   1      44.512  29.511  33.266  1.00  0.00     0.167 HD
ATOM     68  C   UNL A   1      43.623  29.735  30.464  1.00  0.00     0.074 A 
ATOM     69  C   UNL A   1      43.344  28.486  31.170  1.00  0.00     0.031 C 
ATOM     70  C   UNL A   1      44.042  30.963  30.892  1.00  0.00     0.037 A 
BRANCH  57  71
ATOM     71  C   UNL A   1      43.205  29.008  35.860  1.00  0.00     0.057 A 
ATOM     72  C   UNL A   1      44.103  29.015  36.945  1.00  0.00     0.134 A 
ATOM     73  C   UNL A   1      43.011  27.746  35.262  1.00  0.00     0.134 A 
ATOM     74  F   UNL A   1      44.375  30.152  37.605  1.00  0.00    -0.206 F 
ATOM     75  C   UNL A   1      44.829  27.883  37.331  1.00  0.00     0.040 A 
ATOM     76  C   UNL A   1      43.693  26.596  35.674  1.00  0.00     0.040 A 
ATOM     77  F   UNL A   1      42.234  27.562  34.190  1.00  0.00    -0.206 F 
ATOM     78  C   UNL A   1      44.635  26.669  36.685  1.00  0.00     0.006 A 
ENDBRANCH  57  71
BRANCH  58  79
ATOM     79  C   UNL A   1      40.354  27.402  27.983  1.00  0.00     0.057 A 
ATOM     80  C   UNL A   1      40.862  27.158  26.700  1.00  0.00     0.134 A 
ATOM     81  C   UNL A   1      39.602  26.363  28.559  1.00  0.00     0.134 A 
ATOM     82  F   UNL A   1      41.626  28.075  26.087  1.00  0.00    -0.206 F 
ATOM     83  C   UNL A   1      40.654  25.942  26.035  1.00  0.00     0.040 A 
ATOM     84  C   UNL A   1      39.387  25.143  27.907  1.00  0.00     0.040 A 
ATOM     85  F   UNL A   1      39.132  26.466  29.812  1.00  0.00    -0.206 F 
ATOM     86  C   UNL A   1      39.926  24.924  26.645  1.00  0.00     0.006 A 
ENDBRANCH  58  79
BRANCH  70  87
ATOM     87  C   UNL A   1      44.099  32.071  29.872  1.00  0.00     0.057 A 
ATOM     88  C   UNL A   1      43.070  32.998  29.645  1.00  0.00     0.134 A 
ATOM     89  C   UNL A   1      45.298  32.285  29.187  1.00  0.00     0.134 A 
ATOM     90  F   UNL A   1      41.917  32.933  30.318  1.00  0.00    -0.206 F 
ATOM     91  C   UNL A   1      43.216  34.063  28.751  1.00  0.00     0.040 A 
ATOM     92  C   UNL A   1      45.470  33.362  28.314  1.00  0.00     0.040 A 
ATOM     93  F   UNL A   1      46.346  31.470  29.391  1.00  0.00    -0.206 F 
ATOM     94  C   UNL A   1      44.423  34.251  28.086  1.00  0.00     0.006 A 
ENDBRANCH  70  87
ENDBRANCH  44  45
ENDBRANCH  36  39
ENDBRANCH  34  35
ENDBRANCH  33  34
ENDBRANCH   1  33
TORSDOF 15
ENDMDL
MODEL 2
REMARK VINA RESULT:     -12.3      2.498      6.199
REMARK SMILES NS(=O)(=O)c1ccc(-n2nc(C(=O)NCCCCNC(=O)c3ccc(-c4c5nc(c(-c6c(F)cccc6F)c6ccc([nH]6)c(-c6c(F)cccc6F)c6nc(c(-c7c(F)cccc7F)c7ccc4[nH]7)C=C6)C=C5)cc3)cc2-c2cc3ccccc3s2)cc1
REMARK SMILES IDX 16 1 15 2 14 3 12 4 13 5 11 7 9 8 10 9 77 10 76 11 8 12 5 13
REMARK SMILES IDX 6 14 88 15 7 16 87 17 2 18 3 19 4 20 1 21 78 24 79 25 86 26
REMARK SMILES IDX 80 27 85 28 81 29 84 30 82 31 83 32 17 33 18 34 19 35 20 36
REMARK SMILES IDX 21 38 22 39 23 40 75 41 24 42 74 43 25 44 26 45 27 46 68 47
REMARK SMILES IDX 28 48 73 49 67 50 69 51 29 52 72 53 66 54 65 55 30 57 56 58
REMARK SMILES IDX 39 59 55 60 40 61 43 62 54 63 70 64 41 65 42 66 53 68 71 69
REMARK SMILES IDX 44 70 31 71 32 72 37 73 33 74 34 75 36 76 38 77 35 78 57 79
REMARK SMILES IDX 58 80 63 81 59 82 60 83 62 84 64 85 61 86 45 87 46 88 51 89
REMARK SMILES IDX 47 90 48 91 50 92 52 93 49 94
REMARK H PARENT 14 6 1 22 1 23 19 37 69 56 43 67
REMARK Flexibility Score: inf
ROOT
ATOM      1  C   UNL A   1      30.292  32.037  25.737  1.00  0.00     0.023 C 
ENDROOT
BRANCH   1   2
ATOM      2  C   UNL A   1      30.219  32.674  24.340  1.00  0.00     0.116 C 
BRANCH   2   3
ATOM      3  N   UNL A   1      29.054  32.235  23.584  1.00  0.00    -0.351 N 
ATOM      4  C   UNL A   1      28.692  31.006  23.054  1.00  0.00     0.271 C 
ATOM      5  O   UNL A   1      27.561  30.938  22.567  1.00  0.00    -0.267 OA
ATOM      6  H   UNL A   1      28.396  32.948  23.416  1.00  0.00     0.163 HD
BRANCH   4   7
ATOM      7  C   UNL A   1      29.593  29.837  23.134  1.00  0.00     0.151 A 
ATOM      8  N   UNL A   1      30.567  28.135  24.030  1.00  0.00    -0.231 N 
ATOM      9  N   UNL A   1      29.396  28.833  24.014  1.00  0.00    -0.162 NA
ATOM     10  C   UNL A   1      31.489  28.708  23.186  1.00  0.00     0.085 A 
ATOM     11  C   UNL A   1      30.749  29.558  22.385  1.00  0.00     0.066 A 
BRANCH   8  12
ATOM     12  C   UNL A   1      30.626  26.849  24.612  1.00  0.00     0.065 A 
ATOM     13  C   UNL A   1      30.590  24.387  25.897  1.00  0.00     0.082 A 
ATOM     14  C   UNL A   1      30.416  24.448  24.507  1.00  0.00     0.024 A 
ATOM     15  C   UNL A   1      30.778  25.549  26.649  1.00  0.00     0.024 A 
ATOM     16  C   UNL A   1      30.410  25.690  23.861  1.00  0.00     0.030 A 
ATOM     17  C   UNL A   1      30.830  26.779  25.999  1.00  0.00     0.030 A 
BRANCH  13  18
ATOM     18  S   UNL A   1      30.526  22.828  26.729  1.00  0.00     0.238 S 
ATOM     19  O   UNL A   1      30.645  21.763  25.766  1.00  0.00    -0.207 OA
ATOM     20  O   UNL A   1      29.469  22.868  27.717  1.00  0.00    -0.207 OA
BRANCH  18  21
ATOM     21  N   UNL A   1      31.967  22.837  27.587  1.00  0.00    -0.225 NA
ATOM     22  H   UNL A   1      32.613  23.502  27.161  1.00  0.00     0.137 HD
ATOM     23  H   UNL A   1      32.379  21.905  27.572  1.00  0.00     0.137 HD
ENDBRANCH  18  21
ENDBRANCH  13  18
ENDBRANCH   8  12
BRANCH  10  24
ATOM     24  C   UNL A   1      32.924  28.640  23.159  1.00  0.00     0.054 A 
ATOM     25  C   UNL A   1      33.732  28.478  24.277  1.00  0.00     0.031 A 
ATOM     26  S   UNL A   1      33.624  27.621  21.931  1.00  0.00    -0.134 S 
ATOM     27  C   UNL A   1      33.983  27.049  24.399  1.00  0.00    -0.007 A 
ATOM     28  C   UNL A   1      33.838  26.411  23.159  1.00  0.00     0.035 A 
ATOM     29  C   UNL A   1      34.191  26.243  25.542  1.00  0.00     0.009 A 
ATOM     30  C   UNL A   1      33.839  25.013  23.026  1.00  0.00     0.019 A 
ATOM     31  C   UNL A   1      34.132  24.849  25.427  1.00  0.00     0.001 A 
ATOM     32  C   UNL A   1      33.941  24.244  24.189  1.00  0.00     0.001 A 
ENDBRANCH  10  24
ENDBRANCH   4   7
ENDBRANCH   2   3
ENDBRANCH   1   2
BRANCH   1  33
ATOM     33  C   UNL A   1      31.623  31.355  26.095  1.00  0.00     0.023 C 
BRANCH  33  34
ATOM     34  C   UNL A   1      32.399  31.995  27.241  1.00  0.00     0.116 C 
BRANCH  34  35
ATOM     35  N   UNL A   1      32.207  33.448  27.368  1.00  0.00    -0.352 N 
ATOM     36  C   UNL A   1      32.833  34.318  28.254  1.00  0.00     0.251 C 
ATOM     37  H   UNL A   1      31.556  33.853  26.751  1.00  0.00     0.163 HD
ATOM     38  O   UNL A   1      32.341  35.400  28.548  1.00  0.00    -0.269 OA
BRANCH  36  39
ATOM     39  C   UNL A   1      34.137  33.917  28.807  1.00  0.00     0.039 A 
ATOM     40  C   UNL A   1      34.298  33.267  30.035  1.00  0.00     0.014 A 
ATOM     41  C   UNL A   1      35.223  34.146  27.977  1.00  0.00     0.014 A 
ATOM     42  C   UNL A   1      35.561  32.771  30.365  1.00  0.00     0.010 A 
ATOM     43  C   UNL A   1      36.361  33.425  28.173  1.00  0.00     0.010 A 
ATOM     44  C   UNL A   1      36.586  32.841  29.410  1.00  0.00    -0.014 A 
BRANCH  44  45
ATOM     45  C   UNL A   1      37.904  32.254  29.604  1.00  0.00     0.031 A 
ATOM     46  C   UNL A   1      38.024  30.846  29.151  1.00  0.00     0.074 A 
ATOM     47  C   UNL A   1      38.983  33.016  29.907  1.00  0.00     0.049 A 
ATOM     48  N   UNL A   1      38.170  29.791  29.881  1.00  0.00    -0.248 NA
ATOM     49  C   UNL A   1      37.800  30.554  27.725  1.00  0.00     0.031 C 
ATOM     50  C   UNL A   1      39.056  34.482  30.051  1.00  0.00     0.029 A 
ATOM     51  N   UNL A   1      40.285  32.650  30.048  1.00  0.00    -0.354 N 
ATOM     52  C   UNL A   1      38.305  28.731  28.987  1.00  0.00     0.074 A 
ATOM     53  C   UNL A   1      37.847  29.220  27.716  1.00  0.00     0.031 C 
ATOM     54  C   UNL A   1      40.344  34.886  30.019  1.00  0.00     0.029 A 
ATOM     55  C   UNL A   1      41.187  33.710  30.058  1.00  0.00     0.049 A 
ATOM     56  H   UNL A   1      40.566  31.711  30.136  1.00  0.00     0.167 HD
ATOM     57  C   UNL A   1      39.060  27.644  29.311  1.00  0.00     0.037 A 
ATOM     58  C   UNL A   1      42.538  33.629  30.103  1.00  0.00     0.037 A 
ATOM     59  C   UNL A   1      39.341  27.623  30.727  1.00  0.00     0.049 A 
ATOM     60  C   UNL A   1      42.871  32.279  30.609  1.00  0.00     0.074 A 
ATOM     61  C   UNL A   1      38.594  27.545  31.884  1.00  0.00     0.029 A 
ATOM     62  N   UNL A   1      40.576  28.089  31.105  1.00  0.00    -0.354 N 
ATOM     63  N   UNL A   1      42.597  31.871  31.817  1.00  0.00    -0.248 NA
ATOM     64  C   UNL A   1      43.101  31.228  29.633  1.00  0.00     0.031 C 
ATOM     65  C   UNL A   1      39.272  28.379  32.824  1.00  0.00     0.029 A 
ATOM     66  C   UNL A   1      40.430  28.870  32.219  1.00  0.00     0.049 A 
ATOM     67  H   UNL A   1      41.427  27.893  30.650  1.00  0.00     0.167 HD
ATOM     68  C   UNL A   1      42.189  30.555  31.661  1.00  0.00     0.074 A 
ATOM     69  C   UNL A   1      42.633  30.183  30.319  1.00  0.00     0.031 C 
ATOM     70  C   UNL A   1      41.280  30.003  32.518  1.00  0.00     0.037 A 
BRANCH  57  71
ATOM     71  C   UNL A   1      39.922  26.869  28.331  1.00  0.00     0.057 A 
ATOM     72  C   UNL A   1      40.834  27.580  27.529  1.00  0.00     0.134 A 
ATOM     73  C   UNL A   1      39.678  25.543  27.917  1.00  0.00     0.134 A 
ATOM     74  F   UNL A   1      41.157  28.851  27.815  1.00  0.00    -0.206 F 
ATOM     75  C   UNL A   1      41.375  27.051  26.351  1.00  0.00     0.040 A 
ATOM     76  C   UNL A   1      40.254  24.987  26.770  1.00  0.00     0.040 A 
ATOM     77  F   UNL A   1      38.803  24.740  28.529  1.00  0.00    -0.206 F 
ATOM     78  C   UNL A   1      41.075  25.754  25.960  1.00  0.00     0.006 A 
ENDBRANCH  57  71
BRANCH  58  79
ATOM     79  C   UNL A   1      43.540  34.509  29.463  1.00  0.00     0.057 A 
ATOM     80  C   UNL A   1      43.861  34.388  28.104  1.00  0.00     0.134 A 
ATOM     81  C   UNL A   1      43.989  35.678  30.104  1.00  0.00     0.134 A 
ATOM     82  F   UNL A   1      43.440  33.328  27.399  1.00  0.00    -0.206 F 
ATOM     83  C   UNL A   1      44.568  35.383  27.414  1.00  0.00     0.040 A 
ATOM     84  C   UNL A   1      44.696  36.679  29.427  1.00  0.00     0.040 A 
ATOM     85  F   UNL A   1      43.673  35.925  31.384  1.00  0.00    -0.206 F 
ATOM     86  C   UNL A   1      44.976  36.539  28.074  1.00  0.00     0.006 A 
ENDBRANCH  58  79
BRANCH  70  87
ATOM     87  C   UNL A   1      40.985  30.751  33.793  1.00  0.00     0.057 A 
ATOM     88  C   UNL A   1      39.919  31.649  33.961  1.00  0.00     0.134 A 
ATOM     89  C   UNL A   1      41.734  30.448  34.933  1.00  0.00     0.134 A 
ATOM     90  F   UNL A   1      39.089  31.936  32.953  1.00  0.00    -0.206 F 
ATOM     91  C   UNL A   1      39.638  32.243  35.195  1.00  0.00     0.040 A 
ATOM     92  C   UNL A   1      41.446  31.009  36.179  1.00  0.00     0.040 A 
ATOM     93  F   UNL A   1      42.738  29.558  34.862  1.00  0.00    -0.206 F 
ATOM     94  C   UNL A   1      40.400  31.918  36.311  1.00  0.00     0.006 A 
ENDBRANCH  70  87
ENDBRANCH  44  45
ENDBRANCH  36  39
ENDBRANCH  34  35
ENDBRANCH  33  34
ENDBRANCH   1  33
TORSDOF 15
ENDMDL
MODEL 3
REMARK VINA RESULT:     -12.2      3.968      9.213
REMARK SMILES NS(=O)(=O)c1ccc(-n2nc(C(=O)NCCCCNC(=O)c3ccc(-c4c5nc(c(-c6c(F)cccc6F)c6ccc([nH]6)c(-c6c(F)cccc6F)c6nc(c(-c7c(F)cccc7F)c7ccc4[nH]7)C=C6)C=C5)cc3)cc2-c2cc3ccccc3s2)cc1
REMARK SMILES IDX 16 1 15 2 14 3 12 4 13 5 11 7 9 8 10 9 77 10 76 11 8 12 5 13
REMARK SMILES IDX 6 14 88 15 7 16 87 17 2 18 3 19 4 20 1 21 78 24 79 25 86 26
REMARK SMILES IDX 80 27 85 28 81 29 84 30 82 31 83 32 17 33 18 34 19 35 20 36
REMARK SMILES IDX 21 38 22 39 23 40 75 41 24 42 74 43 25 44 26 45 27 46 68 47
REMARK SMILES IDX 28 48 73 49 67 50 69 51 29 52 72 53 66 54 65 55 30 57 56 58
REMARK SMILES IDX 39 59 55 60 40 61 43 62 54 63 70 64 41 65 42 66 53 68 71 69
REMARK SMILES IDX 44 70 31 71 32 72 37 73 33 74 34 75 36 76 38 77 35 78 57 79
REMARK SMILES IDX 58 80 63 81 59 82 60 83 62 84 64 85 61 86 45 87 46 88 51 89
REMARK SMILES IDX 47 90 48 91 50 92 52 93 49 94
REMARK H PARENT 14 6 1 22 1 23 19 37 69 56 43 67
REMARK Flexibility Score: inf
ROOT
ATOM      1  C   UNL A   1      41.025  19.181  26.354  1.00  0.00     0.023 C 
ENDROOT
BRANCH   1   2
ATOM      2  C   UNL A   1      40.026  20.214  25.809  1.00  0.00     0.116 C 
BRANCH   2   3
ATOM      3  N   UNL A   1      40.133  21.503  26.479  1.00  0.00    -0.351 N 
ATOM      4  C   UNL A   1      39.237  22.549  26.643  1.00  0.00     0.271 C 
ATOM      5  O   UNL A   1      39.604  23.464  27.383  1.00  0.00    -0.267 OA
ATOM      6  H   UNL A   1      41.010  21.663  26.896  1.00  0.00     0.163 HD
BRANCH   4   7
ATOM      7  C   UNL A   1      37.899  22.523  26.015  1.00  0.00     0.151 A 
ATOM      8  N   UNL A   1      35.969  23.274  25.416  1.00  0.00    -0.231 N 
ATOM      9  N   UNL A   1      37.263  23.647  25.625  1.00  0.00    -0.162 NA
ATOM     10  C   UNL A   1      35.796  21.938  25.693  1.00  0.00     0.085 A 
ATOM     11  C   UNL A   1      37.077  21.419  25.731  1.00  0.00     0.066 A 
BRANCH   8  12
ATOM     12  C   UNL A   1      35.083  24.123  24.717  1.00  0.00     0.065 A 
ATOM     13  C   UNL A   1      33.460  25.960  23.411  1.00  0.00     0.082 A 
ATOM     14  C   UNL A   1      34.004  24.884  22.697  1.00  0.00     0.024 A 
ATOM     15  C   UNL A   1      33.724  26.126  24.772  1.00  0.00     0.024 A 
ATOM     16  C   UNL A   1      34.842  23.970  23.348  1.00  0.00     0.030 A 
ATOM     17  C   UNL A   1      34.510  25.186  25.433  1.00  0.00     0.030 A 
BRANCH  13  18
ATOM     18  S   UNL A   1      32.460  27.158  22.579  1.00  0.00     0.238 S 
ATOM     19  O   UNL A   1      32.115  28.215  23.493  1.00  0.00    -0.207 OA
ATOM     20  O   UNL A   1      31.470  26.466  21.781  1.00  0.00    -0.207 OA
BRANCH  18  21
ATOM     21  N   UNL A   1      33.552  27.823  21.493  1.00  0.00    -0.225 NA
ATOM     22  H   UNL A   1      34.081  27.077  21.042  1.00  0.00     0.137 HD
ATOM     23  H   UNL A   1      34.193  28.441  21.991  1.00  0.00     0.137 HD
ENDBRANCH  18  21
ENDBRANCH  13  18
ENDBRANCH   8  12
BRANCH  10  24
ATOM     24  C   UNL A   1      34.622  21.183  26.040  1.00  0.00     0.054 A 
ATOM     25  C   UNL A   1      33.504  21.705  26.680  1.00  0.00     0.031 A 
ATOM     26  S   UNL A   1      33.998  20.120  24.810  1.00  0.00    -0.134 S 
ATOM     27  C   UNL A   1      32.568  22.077  25.629  1.00  0.00    -0.007 A 
ATOM     28  C   UNL A   1      32.809  21.338  24.462  1.00  0.00     0.035 A 
ATOM     29  C   UNL A   1      31.609  23.114  25.574  1.00  0.00     0.009 A 
ATOM     30  C   UNL A   1      32.175  21.628  23.243  1.00  0.00     0.019 A 
ATOM     31  C   UNL A   1      31.019  23.450  24.349  1.00  0.00     0.001 A 
ATOM     32  C   UNL A   1      31.313  22.727  23.197  1.00  0.00     0.001 A 
ENDBRANCH  10  24
ENDBRANCH   4   7
ENDBRANCH   2   3
ENDBRANCH   1   2
BRANCH   1  33
ATOM     33  C   UNL A   1      42.402  19.151  25.669  1.00  0.00     0.023 C 
BRANCH  33  34
ATOM     34  C   UNL A   1      43.282  20.373  25.914  1.00  0.00     0.116 C 
BRANCH  34  35
ATOM     35  N   UNL A   1      44.709  20.161  25.627  1.00  0.00    -0.352 N 
ATOM     36  C   UNL A   1      45.645  21.101  25.210  1.00  0.00     0.251 C 
ATOM     37  H   UNL A   1      45.041  19.242  25.745  1.00  0.00     0.163 HD
ATOM     38  O   UNL A   1      46.674  20.771  24.634  1.00  0.00    -0.269 OA
BRANCH  36  39
ATOM     39  C   UNL A   1      45.382  22.517  25.514  1.00  0.00     0.039 A 
ATOM     40  C   UNL A   1      44.442  23.299  24.836  1.00  0.00     0.014 A 
ATOM     41  C   UNL A   1      46.075  23.022  26.603  1.00  0.00     0.014 A 
ATOM     42  C   UNL A   1      44.149  24.570  25.337  1.00  0.00     0.010 A 
ATOM     43  C   UNL A   1      45.587  24.124  27.235  1.00  0.00     0.010 A 
ATOM     44  C   UNL A   1      44.720  24.965  26.556  1.00  0.00    -0.014 A 
BRANCH  44  45
ATOM     45  C   UNL A   1      44.394  26.217  27.225  1.00  0.00     0.031 A 
ATOM     46  C   UNL A   1      45.263  27.360  26.848  1.00  0.00     0.074 A 
ATOM     47  C   UNL A   1      43.234  26.376  27.906  1.00  0.00     0.049 A 
ATOM     48  N   UNL A   1      46.141  27.959  27.580  1.00  0.00    -0.248 NA
ATOM     49  C   UNL A   1      45.268  27.793  25.441  1.00  0.00     0.031 C 
ATOM     50  C   UNL A   1      42.128  25.414  28.068  1.00  0.00     0.029 A 
ATOM     51  N   UNL A   1      42.740  27.484  28.520  1.00  0.00    -0.354 N 
ATOM     52  C   UNL A   1      46.631  29.004  26.801  1.00  0.00     0.074 A 
ATOM     53  C   UNL A   1      46.235  28.714  25.450  1.00  0.00     0.031 C 
ATOM     54  C   UNL A   1      41.024  26.050  28.515  1.00  0.00     0.029 A 
ATOM     55  C   UNL A   1      41.394  27.405  28.864  1.00  0.00     0.049 A 
ATOM     56  H   UNL A   1      43.291  28.278  28.706  1.00  0.00     0.167 HD
ATOM     57  C   UNL A   1      47.059  30.160  27.381  1.00  0.00     0.037 A 
ATOM     58  C   UNL A   1      40.633  28.385  29.407  1.00  0.00     0.037 A 
ATOM     59  C   UNL A   1      47.249  29.976  28.801  1.00  0.00     0.049 A 
ATOM     60  C   UNL A   1      41.562  29.371  30.000  1.00  0.00     0.074 A 
ATOM     61  C   UNL A   1      48.053  29.188  29.598  1.00  0.00     0.029 A 
ATOM     62  N   UNL A   1      46.233  30.420  29.609  1.00  0.00    -0.354 N 
ATOM     63  N   UNL A   1      42.333  29.117  31.020  1.00  0.00    -0.248 NA
ATOM     64  C   UNL A   1      41.966  30.500  29.179  1.00  0.00     0.031 C 
ATOM     65  C   UNL A   1      47.243  28.845  30.722  1.00  0.00     0.029 A 
ATOM     66  C   UNL A   1      46.013  29.492  30.590  1.00  0.00     0.049 A 
ATOM     67  H   UNL A   1      45.743  31.268  29.502  1.00  0.00     0.167 HD
ATOM     68  C   UNL A   1      43.531  29.750  30.724  1.00  0.00     0.074 A 
ATOM     69  C   UNL A   1      43.206  30.678  29.643  1.00  0.00     0.031 C 
ATOM     70  C   UNL A   1      44.715  29.247  31.183  1.00  0.00     0.037 A 
BRANCH  57  71
ATOM     71  C   UNL A   1      46.866  31.545  26.791  1.00  0.00     0.057 A 
ATOM     72  C   UNL A   1      47.967  32.423  26.762  1.00  0.00     0.134 A 
ATOM     73  C   UNL A   1      45.617  32.155  26.556  1.00  0.00     0.134 A 
ATOM     74  F   UNL A   1      49.214  31.971  26.967  1.00  0.00    -0.206 F 
ATOM     75  C   UNL A   1      47.823  33.808  26.620  1.00  0.00     0.040 A 
ATOM     76  C   UNL A   1      45.468  33.531  26.361  1.00  0.00     0.040 A 
ATOM     77  F   UNL A   1      44.462  31.483  26.598  1.00  0.00    -0.206 F 
ATOM     78  C   UNL A   1      46.567  34.369  26.432  1.00  0.00     0.006 A 
ENDBRANCH  57  71
BRANCH  58  79
ATOM     79  C   UNL A   1      39.199  28.675  29.184  1.00  0.00     0.057 A 
ATOM     80  C   UNL A   1      38.279  28.676  30.242  1.00  0.00     0.134 A 
ATOM     81  C   UNL A   1      38.756  29.241  27.977  1.00  0.00     0.134 A 
ATOM     82  F   UNL A   1      38.627  28.195  31.444  1.00  0.00    -0.206 F 
ATOM     83  C   UNL A   1      36.998  29.231  30.113  1.00  0.00     0.040 A 
ATOM     84  C   UNL A   1      37.480  29.798  27.834  1.00  0.00     0.040 A 
ATOM     85  F   UNL A   1      39.582  29.355  26.925  1.00  0.00    -0.206 F 
ATOM     86  C   UNL A   1      36.600  29.807  28.910  1.00  0.00     0.006 A 
ENDBRANCH  58  79
BRANCH  70  87
ATOM     87  C   UNL A   1      44.651  28.193  32.258  1.00  0.00     0.057 A 
ATOM     88  C   UNL A   1      44.446  28.457  33.621  1.00  0.00     0.134 A 
ATOM     89  C   UNL A   1      44.667  26.849  31.875  1.00  0.00     0.134 A 
ATOM     90  F   UNL A   1      44.325  29.708  34.075  1.00  0.00    -0.206 F 
ATOM     91  C   UNL A   1      44.301  27.431  34.561  1.00  0.00     0.040 A 
ATOM     92  C   UNL A   1      44.492  25.814  32.797  1.00  0.00     0.040 A 
ATOM     93  F   UNL A   1      44.807  26.518  30.581  1.00  0.00    -0.206 F 
ATOM     94  C   UNL A   1      44.318  26.104  34.148  1.00  0.00     0.006 A 
ENDBRANCH  70  87
ENDBRANCH  44  45
ENDBRANCH  36  39
ENDBRANCH  34  35
ENDBRANCH  33  34
ENDBRANCH   1  33
TORSDOF 15
ENDMDL
