MODEL 1
REMARK VINA RESULT:     -12.0      0.000      0.000
REMARK SMILES CC(=O)O[C@H]1C[C@@H](C(=O)NCCCCNC(=O)c2ccc(-c3c4nc(c(-c5c(F)cccc5F)c5ccc([nH]5)c(-c5c(F)cccc5F)c5nc(c(-c6c(F)cccc6F)c6ccc3[nH]6)C=C5)C=C4)cc2)N(S(=O)(=O)c2ccc(F)cc2)C1
REMARK SMILES IDX 12 1 11 2 10 3 8 4 9 5 7 7 5 8 6 9 83 10 72 11 4 12 2 13
REMARK SMILES IDX 1 14 3 15 73 16 74 17 75 18 76 19 77 20 82 21 78 22 81 23
REMARK SMILES IDX 79 24 80 25 13 26 14 27 15 28 16 29 17 31 18 32 19 33 71 34
REMARK SMILES IDX 20 35 70 36 21 37 22 38 23 39 64 40 24 41 69 42 63 43 65 44
REMARK SMILES IDX 25 45 68 46 62 47 61 48 26 50 52 51 35 52 51 53 36 54 39 55
REMARK SMILES IDX 50 56 66 57 37 58 38 59 49 61 67 62 40 63 27 64 28 65 33 66
REMARK SMILES IDX 29 67 30 68 32 69 34 70 31 71 53 72 54 73 59 74 55 75 56 76
REMARK SMILES IDX 58 77 60 78 57 79 41 80 42 81 47 82 43 83 44 84 46 85 48 86
REMARK SMILES IDX 45 87
REMARK H PARENT 10 6 15 30 65 49 39 60
REMARK Flexibility Score: inf
ROOT
ATOM      1  C   UNL A   1      36.362  20.349  24.961  1.00  0.00     0.023 C 
ENDROOT
BRANCH   1   2
ATOM      2  C   UNL A   1      35.326  21.173  25.720  1.00  0.00     0.116 C 
BRANCH   2   3
ATOM      3  N   UNL A   1      34.023  20.541  25.773  1.00  0.00    -0.355 N 
ATOM      4  C   UNL A   1      32.837  20.786  25.166  1.00  0.00     0.238 C 
ATOM      5  O   UNL A   1      31.962  19.931  25.358  1.00  0.00    -0.273 OA
ATOM      6  H   UNL A   1      33.994  19.765  26.381  1.00  0.00     0.163 HD
BRANCH   4   7
ATOM      7  C   UNL A   1      32.516  21.969  24.264  1.00  0.00     0.166 C 
ATOM      8  C   UNL A   1      32.785  23.781  22.774  1.00  0.00     0.193 C 
ATOM      9  C   UNL A   1      33.596  22.754  23.548  1.00  0.00     0.077 C 
ATOM     10  C   UNL A   1      31.616  24.116  23.709  1.00  0.00     0.148 C 
ATOM     11  N   UNL A   1      31.581  23.040  24.769  1.00  0.00    -0.182 NA
BRANCH   8  12
ATOM     12  O   UNL A   1      33.622  24.919  22.514  1.00  0.00    -0.461 OA
BRANCH  12  13
ATOM     13  C   UNL A   1      33.257  25.937  21.697  1.00  0.00     0.302 C 
ATOM     14  C   UNL A   1      32.995  27.269  22.334  1.00  0.00     0.139 C 
ATOM     15  O   UNL A   1      33.110  25.757  20.494  1.00  0.00    -0.253 OA
ENDBRANCH  12  13
ENDBRANCH   8  12
BRANCH  11  16
ATOM     16  S   UNL A   1      31.813  23.687  26.338  1.00  0.00     0.243 S 
ATOM     17  O   UNL A   1      30.537  23.618  27.022  1.00  0.00    -0.207 OA
ATOM     18  O   UNL A   1      32.975  23.030  26.897  1.00  0.00    -0.207 OA
BRANCH  16  19
ATOM     19  C   UNL A   1      32.251  25.399  26.158  1.00  0.00     0.082 A 
ATOM     20  C   UNL A   1      33.586  25.748  25.916  1.00  0.00     0.025 A 
ATOM     21  C   UNL A   1      31.304  26.394  26.430  1.00  0.00     0.025 A 
ATOM     22  C   UNL A   1      33.951  27.096  25.880  1.00  0.00     0.040 A 
ATOM     23  C   UNL A   1      31.664  27.739  26.351  1.00  0.00     0.040 A 
ATOM     24  C   UNL A   1      32.984  28.078  26.076  1.00  0.00     0.123 A 
ATOM     25  F   UNL A   1      33.333  29.369  26.023  1.00  0.00    -0.207 F 
ENDBRANCH  16  19
ENDBRANCH  11  16
ENDBRANCH   4   7
ENDBRANCH   2   3
ENDBRANCH   1   2
BRANCH   1  26
ATOM     26  C   UNL A   1      37.683  21.068  24.673  1.00  0.00     0.023 C 
BRANCH  26  27
ATOM     27  C   UNL A   1      38.736  20.997  25.775  1.00  0.00     0.116 C 
BRANCH  27  28
ATOM     28  N   UNL A   1      39.668  19.890  25.627  1.00  0.00    -0.352 N 
ATOM     29  C   UNL A   1      41.002  19.831  25.951  1.00  0.00     0.251 C 
ATOM     30  H   UNL A   1      39.290  19.068  25.239  1.00  0.00     0.163 HD
ATOM     31  O   UNL A   1      41.657  18.826  25.698  1.00  0.00    -0.269 OA
BRANCH  29  32
ATOM     32  C   UNL A   1      41.656  21.007  26.558  1.00  0.00     0.039 A 
ATOM     33  C   UNL A   1      42.174  21.992  25.713  1.00  0.00     0.014 A 
ATOM     34  C   UNL A   1      41.706  21.167  27.945  1.00  0.00     0.014 A 
ATOM     35  C   UNL A   1      42.653  23.185  26.257  1.00  0.00     0.010 A 
ATOM     36  C   UNL A   1      42.126  22.382  28.482  1.00  0.00     0.010 A 
ATOM     37  C   UNL A   1      42.579  23.411  27.641  1.00  0.00    -0.014 A 
BRANCH  37  38
ATOM     38  C   UNL A   1      42.899  24.739  28.219  1.00  0.00     0.031 A 
ATOM     39  C   UNL A   1      41.821  25.765  28.420  1.00  0.00     0.074 A 
ATOM     40  C   UNL A   1      44.187  25.052  28.471  1.00  0.00     0.049 A 
ATOM     41  N   UNL A   1      41.930  27.007  28.814  1.00  0.00    -0.248 NA
ATOM     42  C   UNL A   1      40.444  25.350  28.111  1.00  0.00     0.031 C 
ATOM     43  C   UNL A   1      45.330  24.161  28.261  1.00  0.00     0.029 A 
ATOM     44  N   UNL A   1      44.754  26.213  28.933  1.00  0.00    -0.354 N 
ATOM     45  C   UNL A   1      40.642  27.527  28.786  1.00  0.00     0.074 A 
ATOM     46  C   UNL A   1      39.773  26.477  28.301  1.00  0.00     0.031 C 
ATOM     47  C   UNL A   1      46.459  24.805  28.598  1.00  0.00     0.029 A 
ATOM     48  C   UNL A   1      46.125  26.165  29.007  1.00  0.00     0.049 A 
ATOM     49  H   UNL A   1      44.228  27.006  29.188  1.00  0.00     0.167 HD
ATOM     50  C   UNL A   1      40.225  28.763  29.148  1.00  0.00     0.037 A 
ATOM     51  C   UNL A   1      47.018  27.116  29.342  1.00  0.00     0.037 A 
ATOM     52  C   UNL A   1      41.090  29.794  29.660  1.00  0.00     0.049 A 
ATOM     53  C   UNL A   1      46.525  28.482  29.731  1.00  0.00     0.074 A 
ATOM     54  C   UNL A   1      40.744  31.041  30.151  1.00  0.00     0.029 A 
ATOM     55  N   UNL A   1      42.471  29.702  29.736  1.00  0.00    -0.354 N 
ATOM     56  N   UNL A   1      45.294  28.927  29.796  1.00  0.00    -0.248 NA
ATOM     57  C   UNL A   1      47.544  29.479  30.090  1.00  0.00     0.031 C 
ATOM     58  C   UNL A   1      41.920  31.725  30.473  1.00  0.00     0.029 A 
ATOM     59  C   UNL A   1      42.995  30.887  30.226  1.00  0.00     0.049 A 
ATOM     60  H   UNL A   1      43.001  28.913  29.480  1.00  0.00     0.167 HD
ATOM     61  C   UNL A   1      45.389  30.248  30.213  1.00  0.00     0.074 A 
ATOM     62  C   UNL A   1      46.797  30.525  30.410  1.00  0.00     0.031 C 
ATOM     63  C   UNL A   1      44.399  31.151  30.410  1.00  0.00     0.037 A 
BRANCH  50  64
ATOM     64  C   UNL A   1      38.766  29.078  29.007  1.00  0.00     0.057 A 
ATOM     65  C   UNL A   1      37.886  29.008  30.094  1.00  0.00     0.134 A 
ATOM     66  C   UNL A   1      38.249  29.526  27.785  1.00  0.00     0.134 A 
ATOM     67  F   UNL A   1      38.316  28.579  31.290  1.00  0.00    -0.206 F 
ATOM     68  C   UNL A   1      36.540  29.356  29.967  1.00  0.00     0.040 A 
ATOM     69  C   UNL A   1      36.910  29.901  27.651  1.00  0.00     0.040 A 
ATOM     70  F   UNL A   1      39.039  29.623  26.705  1.00  0.00    -0.206 F 
ATOM     71  C   UNL A   1      36.051  29.813  28.745  1.00  0.00     0.006 A 
ENDBRANCH  50  64
BRANCH  51  72
ATOM     72  C   UNL A   1      48.473  26.818  29.312  1.00  0.00     0.057 A 
ATOM     73  C   UNL A   1      49.243  27.079  28.174  1.00  0.00     0.134 A 
ATOM     74  C   UNL A   1      49.123  26.248  30.414  1.00  0.00     0.134 A 
ATOM     75  F   UNL A   1      48.672  27.604  27.080  1.00  0.00    -0.206 F 
ATOM     76  C   UNL A   1      50.602  26.764  28.123  1.00  0.00     0.040 A 
ATOM     77  C   UNL A   1      50.487  25.953  30.387  1.00  0.00     0.040 A 
ATOM     78  F   UNL A   1      48.442  25.979  31.538  1.00  0.00    -0.206 F 
ATOM     79  C   UNL A   1      51.228  26.204  29.234  1.00  0.00     0.006 A 
ENDBRANCH  51  72
BRANCH  63  80
ATOM     80  C   UNL A   1      44.801  32.524  30.862  1.00  0.00     0.057 A 
ATOM     81  C   UNL A   1      45.029  33.559  29.947  1.00  0.00     0.134 A 
ATOM     82  C   UNL A   1      44.914  32.825  32.225  1.00  0.00     0.134 A 
ATOM     83  F   UNL A   1      44.951  33.330  28.628  1.00  0.00    -0.206 F 
ATOM     84  C   UNL A   1      45.371  34.844  30.372  1.00  0.00     0.040 A 
ATOM     85  C   UNL A   1      45.230  34.113  32.663  1.00  0.00     0.040 A 
ATOM     86  F   UNL A   1      44.702  31.880  33.153  1.00  0.00    -0.206 F 
ATOM     87  C   UNL A   1      45.463  35.125  31.734  1.00  0.00     0.006 A 
ENDBRANCH  63  80
ENDBRANCH  37  38
ENDBRANCH  29  32
ENDBRANCH  27  28
ENDBRANCH  26  27
ENDBRANCH   1  26
TORSDOF 15
ENDMDL
MODEL 2
REMARK VINA RESULT:     -12.0      4.745      9.515
REMARK SMILES CC(=O)O[C@H]1C[C@@H](C(=O)NCCCCNC(=O)c2ccc(-c3c4nc(c(-c5c(F)cccc5F)c5ccc([nH]5)c(-c5c(F)cccc5F)c5nc(c(-c6c(F)cccc6F)c6ccc3[nH]6)C=C5)C=C4)cc2)N(S(=O)(=O)c2ccc(F)cc2)C1
REMARK SMILES IDX 12 1 11 2 10 3 8 4 9 5 7 7 5 8 6 9 83 10 72 11 4 12 2 13
REMARK SMILES IDX 1 14 3 15 73 16 74 17 75 18 76 19 77 20 82 21 78 22 81 23
REMARK SMILES IDX 79 24 80 25 13 26 14 27 15 28 16 29 17 31 18 32 19 33 71 34
REMARK SMILES IDX 20 35 70 36 21 37 22 38 23 39 64 40 24 41 69 42 63 43 65 44
REMARK SMILES IDX 25 45 68 46 62 47 61 48 26 50 52 51 35 52 51 53 36 54 39 55
REMARK SMILES IDX 50 56 66 57 37 58 38 59 49 61 67 62 40 63 27 64 28 65 33 66
REMARK SMILES IDX 29 67 30 68 32 69 34 70 31 71 53 72 54 73 59 74 55 75 56 76
REMARK SMILES IDX 58 77 60 78 57 79 41 80 42 81 47 82 43 83 44 84 46 85 48 86
REMARK SMILES IDX 45 87
REMARK H PARENT 10 6 15 30 65 49 39 60
REMARK Flexibility Score: inf
ROOT
ATOM      1  C   UNL A   1      31.983  30.233  26.843  1.00  0.00     0.023 C 
ENDROOT
BRANCH   1   2
ATOM      2  C   UNL A   1      32.905  29.595  25.809  1.00  0.00     0.116 C 
BRANCH   2   3
ATOM      3  N   UNL A   1      32.377  29.654  24.461  1.00  0.00    -0.355 N 
ATOM      4  C   UNL A   1      31.631  28.809  23.708  1.00  0.00     0.238 C 
ATOM      5  O   UNL A   1      31.249  29.269  22.624  1.00  0.00    -0.273 OA
ATOM      6  H   UNL A   1      32.610  30.488  23.990  1.00  0.00     0.163 HD
BRANCH   4   7
ATOM      7  C   UNL A   1      31.207  27.399  24.093  1.00  0.00     0.166 C 
ATOM      8  C   UNL A   1      30.670  25.504  25.395  1.00  0.00     0.193 C 
ATOM      9  C   UNL A   1      31.178  26.931  25.533  1.00  0.00     0.077 C 
ATOM     10  C   UNL A   1      31.300  25.008  24.087  1.00  0.00     0.148 C 
ATOM     11  N   UNL A   1      31.807  26.228  23.355  1.00  0.00    -0.182 NA
BRANCH   8  12
ATOM     12  O   UNL A   1      31.112  24.751  26.536  1.00  0.00    -0.461 OA
BRANCH  12  13
ATOM     13  C   UNL A   1      30.733  23.472  26.772  1.00  0.00     0.302 C 
ATOM     14  C   UNL A   1      31.529  22.386  26.111  1.00  0.00     0.139 C 
ATOM     15  O   UNL A   1      29.755  23.222  27.467  1.00  0.00    -0.253 OA
ENDBRANCH  12  13
ENDBRANCH   8  12
BRANCH  11  16
ATOM     16  S   UNL A   1      33.502  26.166  23.116  1.00  0.00     0.243 S 
ATOM     17  O   UNL A   1      33.726  25.980  21.696  1.00  0.00    -0.207 OA
ATOM     18  O   UNL A   1      34.067  27.309  23.798  1.00  0.00    -0.207 OA
BRANCH  16  19
ATOM     19  C   UNL A   1      34.116  24.730  23.963  1.00  0.00     0.082 A 
ATOM     20  C   UNL A   1      34.577  24.852  25.280  1.00  0.00     0.025 A 
ATOM     21  C   UNL A   1      34.299  23.532  23.263  1.00  0.00     0.025 A 
ATOM     22  C   UNL A   1      35.158  23.749  25.912  1.00  0.00     0.040 A 
ATOM     23  C   UNL A   1      34.841  22.422  23.911  1.00  0.00     0.040 A 
ATOM     24  C   UNL A   1      35.265  22.541  25.230  1.00  0.00     0.123 A 
ATOM     25  F   UNL A   1      35.805  21.480  25.844  1.00  0.00    -0.207 F 
ENDBRANCH  16  19
ENDBRANCH  11  16
ENDBRANCH   4   7
ENDBRANCH   2   3
ENDBRANCH   1   2
BRANCH   1  26
ATOM     26  C   UNL A   1      31.791  31.746  26.700  1.00  0.00     0.023 C 
BRANCH  26  27
ATOM     27  C   UNL A   1      32.864  32.619  27.344  1.00  0.00     0.116 C 
BRANCH  27  28
ATOM     28  N   UNL A   1      32.422  33.973  27.637  1.00  0.00    -0.352 N 
ATOM     29  C   UNL A   1      32.969  34.898  28.493  1.00  0.00     0.251 C 
ATOM     30  H   UNL A   1      31.616  34.268  27.153  1.00  0.00     0.163 HD
ATOM     31  O   UNL A   1      32.424  35.983  28.665  1.00  0.00    -0.269 OA
BRANCH  29  32
ATOM     32  C   UNL A   1      34.192  34.556  29.248  1.00  0.00     0.039 A 
ATOM     33  C   UNL A   1      34.055  34.054  30.544  1.00  0.00     0.014 A 
ATOM     34  C   UNL A   1      35.455  34.674  28.663  1.00  0.00     0.014 A 
ATOM     35  C   UNL A   1      35.179  33.575  31.220  1.00  0.00     0.010 A 
ATOM     36  C   UNL A   1      36.565  34.139  29.313  1.00  0.00     0.010 A 
ATOM     37  C   UNL A   1      36.433  33.562  30.586  1.00  0.00    -0.014 A 
BRANCH  37  38
ATOM     38  C   UNL A   1      37.598  32.883  31.204  1.00  0.00     0.031 A 
ATOM     39  C   UNL A   1      38.219  31.683  30.550  1.00  0.00     0.074 A 
ATOM     40  C   UNL A   1      38.031  33.295  32.414  1.00  0.00     0.049 A 
ATOM     41  N   UNL A   1      39.172  30.904  30.994  1.00  0.00    -0.248 NA
ATOM     42  C   UNL A   1      37.682  31.290  29.238  1.00  0.00     0.031 C 
ATOM     43  C   UNL A   1      37.469  34.412  33.177  1.00  0.00     0.029 A 
ATOM     44  N   UNL A   1      39.025  32.808  33.224  1.00  0.00    -0.354 N 
ATOM     45  C   UNL A   1      39.338  29.922  30.026  1.00  0.00     0.074 A 
ATOM     46  C   UNL A   1      38.363  30.180  28.990  1.00  0.00     0.031 C 
ATOM     47  C   UNL A   1      38.131  34.527  34.340  1.00  0.00     0.029 A 
ATOM     48  C   UNL A   1      39.132  33.470  34.424  1.00  0.00     0.049 A 
ATOM     49  H   UNL A   1      39.608  32.055  32.971  1.00  0.00     0.167 HD
ATOM     50  C   UNL A   1      40.235  28.907  30.002  1.00  0.00     0.037 A 
ATOM     51  C   UNL A   1      39.929  33.238  35.484  1.00  0.00     0.037 A 
ATOM     52  C   UNL A   1      41.224  28.674  31.022  1.00  0.00     0.049 A 
ATOM     53  C   UNL A   1      40.908  32.098  35.431  1.00  0.00     0.074 A 
ATOM     54  C   UNL A   1      42.241  27.735  31.034  1.00  0.00     0.029 A 
ATOM     55  N   UNL A   1      41.311  29.375  32.214  1.00  0.00    -0.354 N 
ATOM     56  N   UNL A   1      41.122  31.239  34.465  1.00  0.00    -0.248 NA
ATOM     57  C   UNL A   1      41.755  31.893  36.615  1.00  0.00     0.031 C 
ATOM     58  C   UNL A   1      42.911  27.833  32.257  1.00  0.00     0.029 A 
ATOM     59  C   UNL A   1      42.339  28.862  32.987  1.00  0.00     0.049 A 
ATOM     60  H   UNL A   1      40.730  30.126  32.473  1.00  0.00     0.167 HD
ATOM     61  C   UNL A   1      42.132  30.401  34.918  1.00  0.00     0.074 A 
ATOM     62  C   UNL A   1      42.507  30.870  36.236  1.00  0.00     0.031 C 
ATOM     63  C   UNL A   1      42.696  29.335  34.301  1.00  0.00     0.037 A 
BRANCH  50  64
ATOM     64  C   UNL A   1      40.194  27.966  28.835  1.00  0.00     0.057 A 
ATOM     65  C   UNL A   1      40.887  28.232  27.647  1.00  0.00     0.134 A 
ATOM     66  C   UNL A   1      39.513  26.746  28.928  1.00  0.00     0.134 A 
ATOM     67  F   UNL A   1      41.552  29.386  27.492  1.00  0.00    -0.206 F 
ATOM     68  C   UNL A   1      40.889  27.324  26.586  1.00  0.00     0.040 A 
ATOM     69  C   UNL A   1      39.528  25.820  27.883  1.00  0.00     0.040 A 
ATOM     70  F   UNL A   1      38.835  26.427  30.040  1.00  0.00    -0.206 F 
ATOM     71  C   UNL A   1      40.217  26.110  26.706  1.00  0.00     0.006 A 
ENDBRANCH  50  64
BRANCH  51  72
ATOM     72  C   UNL A   1      39.828  34.091  36.695  1.00  0.00     0.057 A 
ATOM     73  C   UNL A   1      38.996  33.739  37.763  1.00  0.00     0.134 A 
ATOM     74  C   UNL A   1      40.546  35.288  36.805  1.00  0.00     0.134 A 
ATOM     75  F   UNL A   1      38.267  32.614  37.707  1.00  0.00    -0.206 F 
ATOM     76  C   UNL A   1      38.864  34.555  38.888  1.00  0.00     0.040 A 
ATOM     77  C   UNL A   1      40.444  36.102  37.935  1.00  0.00     0.040 A 
ATOM     78  F   UNL A   1      41.365  35.681  35.818  1.00  0.00    -0.206 F 
ATOM     79  C   UNL A   1      39.593  35.739  38.977  1.00  0.00     0.006 A 
ENDBRANCH  51  72
BRANCH  63  80
ATOM     80  C   UNL A   1      43.776  28.604  35.041  1.00  0.00     0.057 A 
ATOM     81  C   UNL A   1      43.487  27.512  35.869  1.00  0.00     0.134 A 
ATOM     82  C   UNL A   1      45.121  28.964  34.886  1.00  0.00     0.134 A 
ATOM     83  F   UNL A   1      42.217  27.128  36.069  1.00  0.00    -0.206 F 
ATOM     84  C   UNL A   1      44.498  26.812  36.530  1.00  0.00     0.040 A 
ATOM     85  C   UNL A   1      46.142  28.255  35.522  1.00  0.00     0.040 A 
ATOM     86  F   UNL A   1      45.465  29.996  34.102  1.00  0.00    -0.206 F 
ATOM     87  C   UNL A   1      45.830  27.178  36.350  1.00  0.00     0.006 A 
ENDBRANCH  63  80
ENDBRANCH  37  38
ENDBRANCH  29  32
ENDBRANCH  27  28
ENDBRANCH  26  27
ENDBRANCH   1  26
TORSDOF 15
ENDMDL
MODEL 3
REMARK VINA RESULT:     -11.9      0.431      6.158
REMARK SMILES CC(=O)O[C@H]1C[C@@H](C(=O)NCCCCNC(=O)c2ccc(-c3c4nc(c(-c5c(F)cccc5F)c5ccc([nH]5)c(-c5c(F)cccc5F)c5nc(c(-c6c(F)cccc6F)c6ccc3[nH]6)C=C5)C=C4)cc2)N(S(=O)(=O)c2ccc(F)cc2)C1
REMARK SMILES IDX 12 1 11 2 10 3 8 4 9 5 7 7 5 8 6 9 83 10 72 11 4 12 2 13
REMARK SMILES IDX 1 14 3 15 73 16 74 17 75 18 76 19 77 20 82 21 78 22 81 23
REMARK SMILES IDX 79 24 80 25 13 26 14 27 15 28 16 29 17 31 18 32 19 33 71 34
REMARK SMILES IDX 20 35 70 36 21 37 22 38 23 39 64 40 24 41 69 42 63 43 65 44
REMARK SMILES IDX 25 45 68 46 62 47 61 48 26 50 52 51 35 52 51 53 36 54 39 55
REMARK SMILES IDX 50 56 66 57 37 58 38 59 49 61 67 62 40 63 27 64 28 65 33 66
REMARK SMILES IDX 29 67 30 68 32 69 34 70 31 71 53 72 54 73 59 74 55 75 56 76
REMARK SMILES IDX 58 77 60 78 57 79 41 80 42 81 47 82 43 83 44 84 46 85 48 86
REMARK SMILES IDX 45 87
REMARK H PARENT 10 6 15 30 65 49 39 60
REMARK Flexibility Score: inf
ROOT
ATOM      1  C   UNL A   1      36.376  20.264  24.989  1.00  0.00     0.023 C 
ENDROOT
BRANCH   1   2
ATOM      2  C   UNL A   1      35.360  21.185  25.656  1.00  0.00     0.116 C 
BRANCH   2   3
ATOM      3  N   UNL A   1      34.039  20.599  25.758  1.00  0.00    -0.355 N 
ATOM      4  C   UNL A   1      32.842  20.879  25.185  1.00  0.00     0.238 C 
ATOM      5  O   UNL A   1      31.946  20.056  25.415  1.00  0.00    -0.273 OA
ATOM      6  H   UNL A   1      34.003  19.831  26.375  1.00  0.00     0.163 HD
BRANCH   4   7
ATOM      7  C   UNL A   1      32.533  22.063  24.282  1.00  0.00     0.166 C 
ATOM      8  C   UNL A   1      32.816  23.854  22.769  1.00  0.00     0.193 C 
ATOM      9  C   UNL A   1      33.616  22.810  23.531  1.00  0.00     0.077 C 
ATOM     10  C   UNL A   1      31.681  24.231  23.731  1.00  0.00     0.148 C 
ATOM     11  N   UNL A   1      31.643  23.165  24.801  1.00  0.00    -0.182 NA
BRANCH   8  12
ATOM     12  O   UNL A   1      33.679  24.965  22.478  1.00  0.00    -0.461 OA
BRANCH  12  13
ATOM     13  C   UNL A   1      33.302  26.013  21.705  1.00  0.00     0.302 C 
ATOM     14  C   UNL A   1      33.056  27.322  22.395  1.00  0.00     0.139 C 
ATOM     15  O   UNL A   1      33.134  25.878  20.499  1.00  0.00    -0.253 OA
ENDBRANCH  12  13
ENDBRANCH   8  12
BRANCH  11  16
ATOM     16  S   UNL A   1      31.935  23.818  26.358  1.00  0.00     0.243 S 
ATOM     17  O   UNL A   1      30.701  23.701  27.109  1.00  0.00    -0.207 OA
ATOM     18  O   UNL A   1      33.148  23.204  26.852  1.00  0.00    -0.207 OA
BRANCH  16  19
ATOM     19  C   UNL A   1      32.298  25.545  26.161  1.00  0.00     0.082 A 
ATOM     20  C   UNL A   1      33.623  25.952  25.951  1.00  0.00     0.025 A 
ATOM     21  C   UNL A   1      31.300  26.499  26.388  1.00  0.00     0.025 A 
ATOM     22  C   UNL A   1      33.927  27.315  25.902  1.00  0.00     0.040 A 
ATOM     23  C   UNL A   1      31.600  27.858  26.296  1.00  0.00     0.040 A 
ATOM     24  C   UNL A   1      32.910  28.253  26.054  1.00  0.00     0.123 A 
ATOM     25  F   UNL A   1      33.201  29.559  25.988  1.00  0.00    -0.207 F 
ENDBRANCH  16  19
ENDBRANCH  11  16
ENDBRANCH   4   7
ENDBRANCH   2   3
ENDBRANCH   1   2
BRANCH   1  26
ATOM     26  C   UNL A   1      37.729  20.906  24.670  1.00  0.00     0.023 C 
BRANCH  26  27
ATOM     27  C   UNL A   1      38.756  20.896  25.798  1.00  0.00     0.116 C 
BRANCH  27  28
ATOM     28  N   UNL A   1      39.719  19.810  25.707  1.00  0.00    -0.352 N 
ATOM     29  C   UNL A   1      41.053  19.804  26.033  1.00  0.00     0.251 C 
ATOM     30  H   UNL A   1      39.363  18.958  25.362  1.00  0.00     0.163 HD
ATOM     31  O   UNL A   1      41.736  18.806  25.832  1.00  0.00    -0.269 OA
BRANCH  29  32
ATOM     32  C   UNL A   1      41.673  21.028  26.579  1.00  0.00     0.039 A 
ATOM     33  C   UNL A   1      42.247  21.938  25.688  1.00  0.00     0.014 A 
ATOM     34  C   UNL A   1      41.638  21.304  27.948  1.00  0.00     0.014 A 
ATOM     35  C   UNL A   1      42.697  23.173  26.158  1.00  0.00     0.010 A 
ATOM     36  C   UNL A   1      42.030  22.560  28.406  1.00  0.00     0.010 A 
ATOM     37  C   UNL A   1      42.539  23.515  27.511  1.00  0.00    -0.014 A 
BRANCH  37  38
ATOM     38  C   UNL A   1      42.828  24.887  27.994  1.00  0.00     0.031 A 
ATOM     39  C   UNL A   1      44.207  25.260  28.456  1.00  0.00     0.074 A 
ATOM     40  C   UNL A   1      41.814  25.769  28.109  1.00  0.00     0.049 A 
ATOM     41  N   UNL A   1      44.619  26.375  29.002  1.00  0.00    -0.248 NA
ATOM     42  C   UNL A   1      45.255  24.238  28.308  1.00  0.00     0.031 C 
ATOM     43  C   UNL A   1      40.419  25.506  27.750  1.00  0.00     0.029 A 
ATOM     44  N   UNL A   1      41.795  27.057  28.584  1.00  0.00    -0.354 N 
ATOM     45  C   UNL A   1      45.967  26.184  29.280  1.00  0.00     0.074 A 
ATOM     46  C   UNL A   1      46.295  24.835  28.875  1.00  0.00     0.031 C 
ATOM     47  C   UNL A   1      39.682  26.597  28.011  1.00  0.00     0.029 A 
ATOM     48  C   UNL A   1      40.542  27.621  28.595  1.00  0.00     0.049 A 
ATOM     49  H   UNL A   1      42.602  27.532  28.888  1.00  0.00     0.167 HD
ATOM     50  C   UNL A   1      46.850  27.063  29.809  1.00  0.00     0.037 A 
ATOM     51  C   UNL A   1      40.125  28.820  29.046  1.00  0.00     0.037 A 
ATOM     52  C   UNL A   1      46.525  28.416  30.180  1.00  0.00     0.049 A 
ATOM     53  C   UNL A   1      41.128  29.771  29.637  1.00  0.00     0.074 A 
ATOM     54  C   UNL A   1      47.376  29.412  30.627  1.00  0.00     0.029 A 
ATOM     55  N   UNL A   1      45.249  28.956  30.162  1.00  0.00    -0.354 N 
ATOM     56  N   UNL A   1      42.418  29.613  29.799  1.00  0.00    -0.248 NA
ATOM     57  C   UNL A   1      40.618  31.066  30.111  1.00  0.00     0.031 C 
ATOM     58  C   UNL A   1      46.606  30.539  30.930  1.00  0.00     0.029 A 
ATOM     59  C   UNL A   1      45.284  30.260  30.628  1.00  0.00     0.049 A 
ATOM     60  H   UNL A   1      44.439  28.485  29.861  1.00  0.00     0.167 HD
ATOM     61  C   UNL A   1      42.875  30.788  30.381  1.00  0.00     0.074 A 
ATOM     62  C   UNL A   1      41.728  31.661  30.520  1.00  0.00     0.031 C 
ATOM     63  C   UNL A   1      44.132  31.114  30.769  1.00  0.00     0.037 A 
BRANCH  50  64
ATOM     64  C   UNL A   1      48.260  26.597  30.021  1.00  0.00     0.057 A 
ATOM     65  C   UNL A   1      48.646  25.914  31.181  1.00  0.00     0.134 A 
ATOM     66  C   UNL A   1      49.225  26.769  29.021  1.00  0.00     0.134 A 
ATOM     67  F   UNL A   1      47.770  25.724  32.180  1.00  0.00    -0.206 F 
ATOM     68  C   UNL A   1      49.946  25.435  31.347  1.00  0.00     0.040 A 
ATOM     69  C   UNL A   1      50.522  26.273  29.165  1.00  0.00     0.040 A 
ATOM     70  F   UNL A   1      48.920  27.408  27.882  1.00  0.00    -0.206 F 
ATOM     71  C   UNL A   1      50.886  25.605  30.333  1.00  0.00     0.006 A 
ENDBRANCH  50  64
BRANCH  51  72
ATOM     72  C   UNL A   1      38.688  29.186  28.972  1.00  0.00     0.057 A 
ATOM     73  C   UNL A   1      37.855  29.082  30.091  1.00  0.00     0.134 A 
ATOM     74  C   UNL A   1      38.110  29.633  27.777  1.00  0.00     0.134 A 
ATOM     75  F   UNL A   1      38.345  28.641  31.259  1.00  0.00    -0.206 F 
ATOM     76  C   UNL A   1      36.494  29.386  30.020  1.00  0.00     0.040 A 
ATOM     77  C   UNL A   1      36.757  29.965  27.698  1.00  0.00     0.040 A 
ATOM     78  F   UNL A   1      38.856  29.760  26.670  1.00  0.00    -0.206 F 
ATOM     79  C   UNL A   1      35.943  29.834  28.821  1.00  0.00     0.006 A 
ENDBRANCH  51  72
BRANCH  63  80
ATOM     80  C   UNL A   1      44.333  32.468  31.381  1.00  0.00     0.057 A 
ATOM     81  C   UNL A   1      44.290  32.660  32.768  1.00  0.00     0.134 A 
ATOM     82  C   UNL A   1      44.620  33.581  30.581  1.00  0.00     0.134 A 
ATOM     83  F   UNL A   1      44.005  31.636  33.587  1.00  0.00    -0.206 F 
ATOM     84  C   UNL A   1      44.511  33.915  33.337  1.00  0.00     0.040 A 
ATOM     85  C   UNL A   1      44.868  34.836  31.140  1.00  0.00     0.040 A 
ATOM     86  F   UNL A   1      44.683  33.463  29.246  1.00  0.00    -0.206 F 
ATOM     87  C   UNL A   1      44.810  35.005  32.522  1.00  0.00     0.006 A 
ENDBRANCH  63  80
ENDBRANCH  37  38
ENDBRANCH  29  32
ENDBRANCH  27  28
ENDBRANCH  26  27
ENDBRANCH   1  26
TORSDOF 15
ENDMDL
