MODEL 1
REMARK VINA RESULT:     -14.1      0.000      0.000
REMARK SMILES CC(=O)O[C@@H]1CC[C@@]23C(=O)O[C@]4(CC[C@]2(O)C1)[C@H]3CC[C@]1(C)[C@H](C(=O)NCCCCNC(=O)c2ccc(-c3c5nc(c(-c6c(F)cccc6F)c6ccc([nH]6)c(-c6c(F)cccc6F)c6nc(c(-c7c(F)cccc7F)c7ccc3[nH]7)C=C6)C=C5)cc2)CC[C@@H]14
REMARK SMILES IDX 28 1 27 2 26 3 24 4 25 5 23 7 5 8 6 9 17 10 7 11 15 12 8 13
REMARK SMILES IDX 14 14 9 15 18 16 13 17 10 18 11 19 12 20 19 21 90 22 20 23
REMARK SMILES IDX 21 24 89 25 22 26 88 27 4 28 2 29 1 30 3 31 16 32 29 34
REMARK SMILES IDX 30 35 31 36 32 37 33 39 34 40 35 41 87 42 36 43 86 44 37 45
REMARK SMILES IDX 38 46 39 47 80 48 40 49 85 50 79 51 81 52 41 53 84 54 78 55
REMARK SMILES IDX 77 56 42 58 68 59 51 60 67 61 52 62 55 63 66 64 82 65 53 66
REMARK SMILES IDX 54 67 65 69 83 70 56 71 43 72 44 73 49 74 45 75 46 76 48 77
REMARK SMILES IDX 50 78 47 79 69 80 70 81 75 82 71 83 72 84 74 85 76 86 73 87
REMARK SMILES IDX 57 88 58 89 63 90 59 91 60 92 62 93 64 94 61 95
REMARK H PARENT 26 6 16 33 31 38 81 57 55 68
REMARK Flexibility Score: inf
ROOT
ATOM      1  C   UNL A   1      31.860  30.597  26.850  1.00  0.00     0.023 C 
ENDROOT
BRANCH   1   2
ATOM      2  C   UNL A   1      32.241  30.063  25.457  1.00  0.00     0.116 C 
BRANCH   2   3
ATOM      3  N   UNL A   1      31.037  29.742  24.714  1.00  0.00    -0.356 N 
ATOM      4  C   UNL A   1      30.785  29.012  23.602  1.00  0.00     0.223 C 
ATOM      5  O   UNL A   1      29.654  29.186  23.125  1.00  0.00    -0.275 OA
ATOM      6  H   UNL A   1      30.227  30.143  25.103  1.00  0.00     0.163 HD
BRANCH   4   7
ATOM      7  C   UNL A   1      31.694  27.958  22.948  1.00  0.00     0.085 C 
ATOM      8  C   UNL A   1      32.990  20.454  25.670  1.00  0.00     0.179 C 
ATOM      9  C   UNL A   1      31.781  21.315  25.373  1.00  0.00     0.047 C 
ATOM     10  C   UNL A   1      34.019  21.296  26.426  1.00  0.00     0.081 C 
ATOM     11  C   UNL A   1      32.226  22.575  24.643  1.00  0.00     0.026 C 
ATOM     12  C   UNL A   1      34.375  22.685  25.840  1.00  0.00     0.085 C 
ATOM     13  C   UNL A   1      33.243  23.609  25.598  1.00  0.00     0.103 C 
ATOM     14  C   UNL A   1      35.017  22.673  24.364  1.00  0.00     0.041 C 
ATOM     15  C   UNL A   1      32.127  24.509  25.754  1.00  0.00     0.316 C 
ATOM     16  C   UNL A   1      34.138  25.026  25.082  1.00  0.00     0.054 C 
ATOM     17  C   UNL A   1      34.328  23.732  23.241  1.00  0.00     0.052 C 
ATOM     18  O   UNL A   1      31.290  24.664  26.625  1.00  0.00    -0.251 OA
ATOM     19  O   UNL A   1      32.099  24.988  24.431  1.00  0.00    -0.458 OA
ATOM     20  C   UNL A   1      33.454  24.983  23.804  1.00  0.00     0.120 C 
ATOM     21  C   UNL A   1      34.110  26.423  25.728  1.00  0.00     0.009 C 
ATOM     22  C   UNL A   1      33.377  26.130  22.809  1.00  0.00     0.040 C 
ATOM     23  C   UNL A   1      33.314  27.511  24.984  1.00  0.00     0.008 C 
ATOM     24  C   UNL A   1      33.133  27.530  23.454  1.00  0.00    -0.014 C 
ATOM     25  C   UNL A   1      32.136  25.880  21.904  1.00  0.00     0.009 C 
ATOM     26  C   UNL A   1      34.133  28.539  22.846  1.00  0.00     0.012 C 
ATOM     27  C   UNL A   1      30.987  26.680  22.527  1.00  0.00     0.014 C 
BRANCH   8  28
ATOM     28  O   UNL A   1      33.502  19.978  24.407  1.00  0.00    -0.462 OA
BRANCH  28  29
ATOM     29  C   UNL A   1      33.267  18.678  24.092  1.00  0.00     0.302 C 
ATOM     30  C   UNL A   1      34.514  17.864  24.285  1.00  0.00     0.139 C 
ATOM     31  O   UNL A   1      32.201  18.226  23.702  1.00  0.00    -0.253 OA
ENDBRANCH  28  29
ENDBRANCH   8  28
BRANCH  12  32
ATOM     32  O   UNL A   1      35.297  23.278  26.762  1.00  0.00    -0.389 OA
ATOM     33  H   UNL A   1      35.323  24.237  26.620  1.00  0.00     0.211 HD
ENDBRANCH  12  32
ENDBRANCH   4   7
ENDBRANCH   2   3
ENDBRANCH   1   2
BRANCH   1  34
ATOM     34  C   UNL A   1      31.342  32.024  26.880  1.00  0.00     0.023 C 
BRANCH  34  35
ATOM     35  C   UNL A   1      32.424  33.071  26.722  1.00  0.00     0.116 C 
BRANCH  35  36
ATOM     36  N   UNL A   1      32.268  34.206  27.626  1.00  0.00    -0.352 N 
ATOM     37  C   UNL A   1      33.050  34.549  28.704  1.00  0.00     0.251 C 
ATOM     38  H   UNL A   1      31.506  34.802  27.439  1.00  0.00     0.163 HD
ATOM     39  O   UNL A   1      32.737  35.463  29.457  1.00  0.00    -0.269 OA
BRANCH  37  40
ATOM     40  C   UNL A   1      34.262  33.750  28.961  1.00  0.00     0.039 A 
ATOM     41  C   UNL A   1      35.512  34.350  28.814  1.00  0.00     0.014 A 
ATOM     42  C   UNL A   1      34.141  32.460  29.485  1.00  0.00     0.014 A 
ATOM     43  C   UNL A   1      36.641  33.693  29.299  1.00  0.00     0.010 A 
ATOM     44  C   UNL A   1      35.250  31.857  30.061  1.00  0.00     0.010 A 
ATOM     45  C   UNL A   1      36.508  32.473  29.984  1.00  0.00    -0.014 A 
BRANCH  45  46
ATOM     46  C   UNL A   1      37.665  31.839  30.663  1.00  0.00     0.031 A 
ATOM     47  C   UNL A   1      38.455  30.775  29.958  1.00  0.00     0.074 A 
ATOM     48  C   UNL A   1      37.942  32.161  31.942  1.00  0.00     0.049 A 
ATOM     49  N   UNL A   1      39.444  30.047  30.409  1.00  0.00    -0.248 NA
ATOM     50  C   UNL A   1      38.063  30.465  28.574  1.00  0.00     0.031 C 
ATOM     51  C   UNL A   1      37.203  33.131  32.755  1.00  0.00     0.029 A 
ATOM     52  N   UNL A   1      38.915  31.695  32.790  1.00  0.00    -0.354 N 
ATOM     53  C   UNL A   1      39.782  29.190  29.371  1.00  0.00     0.074 A 
ATOM     54  C   UNL A   1      38.855  29.442  28.291  1.00  0.00     0.031 C 
ATOM     55  C   UNL A   1      37.767  33.209  33.970  1.00  0.00     0.029 A 
ATOM     56  C   UNL A   1      38.876  32.264  34.041  1.00  0.00     0.049 A 
ATOM     57  H   UNL A   1      39.578  31.017  32.527  1.00  0.00     0.167 HD
ATOM     58  C   UNL A   1      40.792  28.291  29.315  1.00  0.00     0.037 A 
ATOM     59  C   UNL A   1      39.643  32.041  35.125  1.00  0.00     0.037 A 
ATOM     60  C   UNL A   1      41.725  28.060  30.385  1.00  0.00     0.049 A 
ATOM     61  C   UNL A   1      40.749  31.026  35.040  1.00  0.00     0.074 A 
ATOM     62  C   UNL A   1      42.828  27.225  30.400  1.00  0.00     0.029 A 
ATOM     63  N   UNL A   1      41.660  28.663  31.632  1.00  0.00    -0.354 N 
ATOM     64  N   UNL A   1      41.112  30.282  34.023  1.00  0.00    -0.248 NA
ATOM     65  C   UNL A   1      41.553  30.821  36.252  1.00  0.00     0.031 C 
ATOM     66  C   UNL A   1      43.400  27.283  31.675  1.00  0.00     0.029 A 
ATOM     67  C   UNL A   1      42.685  28.193  32.437  1.00  0.00     0.049 A 
ATOM     68  H   UNL A   1      40.986  29.327  31.905  1.00  0.00     0.167 HD
ATOM     69  C   UNL A   1      42.194  29.534  34.465  1.00  0.00     0.074 A 
ATOM     70  C   UNL A   1      42.444  29.932  35.835  1.00  0.00     0.031 C 
ATOM     71  C   UNL A   1      42.914  28.599  33.800  1.00  0.00     0.037 A 
BRANCH  58  72
ATOM     72  C   UNL A   1      40.941  27.497  28.050  1.00  0.00     0.057 A 
ATOM     73  C   UNL A   1      41.731  27.949  26.984  1.00  0.00     0.134 A 
ATOM     74  C   UNL A   1      40.316  26.252  27.909  1.00  0.00     0.134 A 
ATOM     75  F   UNL A   1      42.346  29.140  27.049  1.00  0.00    -0.206 F 
ATOM     76  C   UNL A   1      41.873  27.202  25.813  1.00  0.00     0.040 A 
ATOM     77  C   UNL A   1      40.473  25.484  26.754  1.00  0.00     0.040 A 
ATOM     78  F   UNL A   1      39.548  25.759  28.893  1.00  0.00    -0.206 F 
ATOM     79  C   UNL A   1      41.250  25.961  25.699  1.00  0.00     0.006 A 
ENDBRANCH  58  72
BRANCH  59  80
ATOM     80  C   UNL A   1      39.400  32.797  36.380  1.00  0.00     0.057 A 
ATOM     81  C   UNL A   1      38.475  32.345  37.328  1.00  0.00     0.134 A 
ATOM     82  C   UNL A   1      40.074  33.992  36.658  1.00  0.00     0.134 A 
ATOM     83  F   UNL A   1      37.782  31.216  37.110  1.00  0.00    -0.206 F 
ATOM     84  C   UNL A   1      38.213  33.062  38.496  1.00  0.00     0.040 A 
ATOM     85  C   UNL A   1      39.842  34.705  37.836  1.00  0.00     0.040 A 
ATOM     86  F   UNL A   1      40.978  34.477  35.795  1.00  0.00    -0.206 F 
ATOM     87  C   UNL A   1      38.903  34.245  38.755  1.00  0.00     0.006 A 
ENDBRANCH  59  80
BRANCH  71  88
ATOM     88  C   UNL A   1      44.047  27.953  34.542  1.00  0.00     0.057 A 
ATOM     89  C   UNL A   1      45.324  28.526  34.579  1.00  0.00     0.134 A 
ATOM     90  C   UNL A   1      43.849  26.766  35.258  1.00  0.00     0.134 A 
ATOM     91  F   UNL A   1      45.583  29.656  33.902  1.00  0.00    -0.206 F 
ATOM     92  C   UNL A   1      46.370  27.931  35.284  1.00  0.00     0.040 A 
ATOM     93  C   UNL A   1      44.880  26.176  35.991  1.00  0.00     0.040 A 
ATOM     94  F   UNL A   1      42.647  26.171  35.272  1.00  0.00    -0.206 F 
ATOM     95  C   UNL A   1      46.147  26.755  36.000  1.00  0.00     0.006 A 
ENDBRANCH  71  88
ENDBRANCH  45  46
ENDBRANCH  37  40
ENDBRANCH  35  36
ENDBRANCH  34  35
ENDBRANCH   1  34
TORSDOF 14
ENDMDL
MODEL 2
REMARK VINA RESULT:     -14.1      4.085      8.801
REMARK SMILES CC(=O)O[C@@H]1CC[C@@]23C(=O)O[C@]4(CC[C@]2(O)C1)[C@H]3CC[C@]1(C)[C@H](C(=O)NCCCCNC(=O)c2ccc(-c3c5nc(c(-c6c(F)cccc6F)c6ccc([nH]6)c(-c6c(F)cccc6F)c6nc(c(-c7c(F)cccc7F)c7ccc3[nH]7)C=C6)C=C5)cc2)CC[C@@H]14
REMARK SMILES IDX 28 1 27 2 26 3 24 4 25 5 23 7 5 8 6 9 17 10 7 11 15 12 8 13
REMARK SMILES IDX 14 14 9 15 18 16 13 17 10 18 11 19 12 20 19 21 90 22 20 23
REMARK SMILES IDX 21 24 89 25 22 26 88 27 4 28 2 29 1 30 3 31 16 32 29 34
REMARK SMILES IDX 30 35 31 36 32 37 33 39 34 40 35 41 87 42 36 43 86 44 37 45
REMARK SMILES IDX 38 46 39 47 80 48 40 49 85 50 79 51 81 52 41 53 84 54 78 55
REMARK SMILES IDX 77 56 42 58 68 59 51 60 67 61 52 62 55 63 66 64 82 65 53 66
REMARK SMILES IDX 54 67 65 69 83 70 56 71 43 72 44 73 49 74 45 75 46 76 48 77
REMARK SMILES IDX 50 78 47 79 69 80 70 81 75 82 71 83 72 84 74 85 76 86 73 87
REMARK SMILES IDX 57 88 58 89 63 90 59 91 60 92 62 93 64 94 61 95
REMARK H PARENT 26 6 16 33 31 38 81 57 55 68
REMARK Flexibility Score: inf
ROOT
ATOM      1  C   UNL A   1      37.093  22.127  24.270  1.00  0.00     0.023 C 
ENDROOT
BRANCH   1   2
ATOM      2  C   UNL A   1      35.586  22.185  23.964  1.00  0.00     0.116 C 
BRANCH   2   3
ATOM      3  N   UNL A   1      34.953  20.956  24.401  1.00  0.00    -0.356 N 
ATOM      4  C   UNL A   1      33.939  20.670  25.251  1.00  0.00     0.223 C 
ATOM      5  O   UNL A   1      33.857  19.473  25.562  1.00  0.00    -0.275 OA
ATOM      6  H   UNL A   1      35.346  20.153  23.989  1.00  0.00     0.163 HD
BRANCH   4   7
ATOM      7  C   UNL A   1      32.861  21.632  25.779  1.00  0.00     0.085 C 
ATOM      8  C   UNL A   1      30.884  28.783  22.559  1.00  0.00     0.179 C 
ATOM      9  C   UNL A   1      31.054  27.365  22.054  1.00  0.00     0.047 C 
ATOM     10  C   UNL A   1      32.051  29.115  23.490  1.00  0.00     0.081 C 
ATOM     11  C   UNL A   1      31.206  26.422  23.238  1.00  0.00     0.026 C 
ATOM     12  C   UNL A   1      32.389  28.094  24.605  1.00  0.00     0.085 C 
ATOM     13  C   UNL A   1      32.645  26.701  24.170  1.00  0.00     0.103 C 
ATOM     14  C   UNL A   1      31.217  27.818  25.673  1.00  0.00     0.041 C 
ATOM     15  C   UNL A   1      33.213  25.511  23.589  1.00  0.00     0.316 C 
ATOM     16  C   UNL A   1      33.091  25.999  25.713  1.00  0.00     0.054 C 
ATOM     17  C   UNL A   1      30.858  26.196  25.987  1.00  0.00     0.052 C 
ATOM     18  O   UNL A   1      33.959  25.310  22.648  1.00  0.00    -0.251 OA
ATOM     19  O   UNL A   1      32.403  24.579  24.266  1.00  0.00    -0.458 OA
ATOM     20  C   UNL A   1      31.976  25.077  25.607  1.00  0.00     0.120 C 
ATOM     21  C   UNL A   1      34.417  25.296  26.060  1.00  0.00     0.009 C 
ATOM     22  C   UNL A   1      31.813  23.799  26.413  1.00  0.00     0.040 C 
ATOM     23  C   UNL A   1      34.377  23.759  26.158  1.00  0.00     0.008 C 
ATOM     24  C   UNL A   1      33.125  22.971  26.584  1.00  0.00    -0.014 C 
ATOM     25  C   UNL A   1      30.848  22.868  25.621  1.00  0.00     0.009 C 
ATOM     26  C   UNL A   1      33.270  22.570  28.070  1.00  0.00     0.012 C 
ATOM     27  C   UNL A   1      31.740  21.933  24.797  1.00  0.00     0.014 C 
BRANCH   8  28
ATOM     28  O   UNL A   1      29.612  28.848  23.240  1.00  0.00    -0.462 OA
BRANCH  28  29
ATOM     29  C   UNL A   1      28.529  29.201  22.498  1.00  0.00     0.302 C 
ATOM     30  C   UNL A   1      27.270  28.730  23.165  1.00  0.00     0.139 C 
ATOM     31  O   UNL A   1      28.565  29.807  21.438  1.00  0.00    -0.253 OA
ENDBRANCH  28  29
ENDBRANCH   8  28
BRANCH  12  32
ATOM     32  O   UNL A   1      33.542  28.612  25.278  1.00  0.00    -0.389 OA
ATOM     33  H   UNL A   1      33.408  29.553  25.471  1.00  0.00     0.211 HD
ENDBRANCH  12  32
ENDBRANCH   4   7
ENDBRANCH   2   3
ENDBRANCH   1   2
BRANCH   1  34
ATOM     34  C   UNL A   1      37.560  20.882  25.005  1.00  0.00     0.023 C 
BRANCH  34  35
ATOM     35  C   UNL A   1      38.885  21.054  25.718  1.00  0.00     0.116 C 
BRANCH  35  36
ATOM     36  N   UNL A   1      39.718  19.856  25.690  1.00  0.00    -0.352 N 
ATOM     37  C   UNL A   1      41.047  19.736  26.022  1.00  0.00     0.251 C 
ATOM     38  H   UNL A   1      39.271  19.030  25.396  1.00  0.00     0.163 HD
ATOM     39  O   UNL A   1      41.661  18.693  25.836  1.00  0.00    -0.269 OA
BRANCH  37  40
ATOM     40  C   UNL A   1      41.734  20.921  26.567  1.00  0.00     0.039 A 
ATOM     41  C   UNL A   1      42.310  21.835  25.685  1.00  0.00     0.014 A 
ATOM     42  C   UNL A   1      41.672  21.187  27.937  1.00  0.00     0.014 A 
ATOM     43  C   UNL A   1      42.729  23.073  26.168  1.00  0.00     0.010 A 
ATOM     44  C   UNL A   1      41.990  22.457  28.395  1.00  0.00     0.010 A 
ATOM     45  C   UNL A   1      42.510  23.416  27.513  1.00  0.00    -0.014 A 
BRANCH  45  46
ATOM     46  C   UNL A   1      42.782  24.786  28.014  1.00  0.00     0.031 A 
ATOM     47  C   UNL A   1      44.171  25.165  28.439  1.00  0.00     0.074 A 
ATOM     48  C   UNL A   1      41.761  25.652  28.169  1.00  0.00     0.049 A 
ATOM     49  N   UNL A   1      44.593  26.280  28.977  1.00  0.00    -0.248 NA
ATOM     50  C   UNL A   1      45.220  24.147  28.264  1.00  0.00     0.031 C 
ATOM     51  C   UNL A   1      40.356  25.375  27.855  1.00  0.00     0.029 A 
ATOM     52  N   UNL A   1      41.744  26.939  28.642  1.00  0.00    -0.354 N 
ATOM     53  C   UNL A   1      45.948  26.092  29.215  1.00  0.00     0.074 A 
ATOM     54  C   UNL A   1      46.265  24.738  28.821  1.00  0.00     0.031 C 
ATOM     55  C   UNL A   1      39.622  26.468  28.116  1.00  0.00     0.029 A 
ATOM     56  C   UNL A   1      40.492  27.505  28.658  1.00  0.00     0.049 A 
ATOM     57  H   UNL A   1      42.553  27.412  28.943  1.00  0.00     0.167 HD
ATOM     58  C   UNL A   1      46.851  26.979  29.694  1.00  0.00     0.037 A 
ATOM     59  C   UNL A   1      40.090  28.722  29.072  1.00  0.00     0.037 A 
ATOM     60  C   UNL A   1      46.534  28.332  30.062  1.00  0.00     0.049 A 
ATOM     61  C   UNL A   1      41.112  29.683  29.614  1.00  0.00     0.074 A 
ATOM     62  C   UNL A   1      47.389  29.332  30.488  1.00  0.00     0.029 A 
ATOM     63  N   UNL A   1      45.257  28.873  30.054  1.00  0.00    -0.354 N 
ATOM     64  N   UNL A   1      42.406  29.521  29.754  1.00  0.00    -0.248 NA
ATOM     65  C   UNL A   1      40.619  30.995  30.054  1.00  0.00     0.031 C 
ATOM     66  C   UNL A   1      46.623  30.463  30.788  1.00  0.00     0.029 A 
ATOM     67  C   UNL A   1      45.297  30.184  30.500  1.00  0.00     0.049 A 
ATOM     68  H   UNL A   1      44.442  28.396  29.774  1.00  0.00     0.167 HD
ATOM     69  C   UNL A   1      42.884  30.714  30.280  1.00  0.00     0.074 A 
ATOM     70  C   UNL A   1      41.744  31.598  30.412  1.00  0.00     0.031 C 
ATOM     71  C   UNL A   1      44.150  31.046  30.628  1.00  0.00     0.037 A 
BRANCH  58  72
ATOM     72  C   UNL A   1      48.270  26.511  29.837  1.00  0.00     0.057 A 
ATOM     73  C   UNL A   1      49.225  26.731  28.835  1.00  0.00     0.134 A 
ATOM     74  C   UNL A   1      48.695  25.863  31.003  1.00  0.00     0.134 A 
ATOM     75  F   UNL A   1      48.880  27.333  27.686  1.00  0.00    -0.206 F 
ATOM     76  C   UNL A   1      50.545  26.301  28.978  1.00  0.00     0.040 A 
ATOM     77  C   UNL A   1      50.019  25.454  31.169  1.00  0.00     0.040 A 
ATOM     78  F   UNL A   1      47.833  25.624  32.003  1.00  0.00    -0.206 F 
ATOM     79  C   UNL A   1      50.948  25.668  30.152  1.00  0.00     0.006 A 
ENDBRANCH  58  72
BRANCH  59  80
ATOM     80  C   UNL A   1      38.658  29.106  28.984  1.00  0.00     0.057 A 
ATOM     81  C   UNL A   1      38.108  29.573  27.784  1.00  0.00     0.134 A 
ATOM     82  C   UNL A   1      37.809  29.029  30.094  1.00  0.00     0.134 A 
ATOM     83  F   UNL A   1      38.876  29.688  26.690  1.00  0.00    -0.206 F 
ATOM     84  C   UNL A   1      36.772  29.967  27.695  1.00  0.00     0.040 A 
ATOM     85  C   UNL A   1      36.464  29.394  30.012  1.00  0.00     0.040 A 
ATOM     86  F   UNL A   1      38.270  28.584  31.271  1.00  0.00    -0.206 F 
ATOM     87  C   UNL A   1      35.944  29.873  28.812  1.00  0.00     0.006 A 
ENDBRANCH  59  80
BRANCH  71  88
ATOM     88  C   UNL A   1      44.370  32.428  31.171  1.00  0.00     0.057 A 
ATOM     89  C   UNL A   1      44.335  32.693  32.545  1.00  0.00     0.134 A 
ATOM     90  C   UNL A   1      44.658  33.496  30.312  1.00  0.00     0.134 A 
ATOM     91  F   UNL A   1      44.051  31.716  33.420  1.00  0.00    -0.206 F 
ATOM     92  C   UNL A   1      44.557  33.977  33.045  1.00  0.00     0.040 A 
ATOM     93  C   UNL A   1      44.910  34.778  30.802  1.00  0.00     0.040 A 
ATOM     94  F   UNL A   1      44.716  33.307  28.985  1.00  0.00    -0.206 F 
ATOM     95  C   UNL A   1      44.853  35.022  32.172  1.00  0.00     0.006 A 
ENDBRANCH  71  88
ENDBRANCH  45  46
ENDBRANCH  37  40
ENDBRANCH  35  36
ENDBRANCH  34  35
ENDBRANCH   1  34
TORSDOF 14
ENDMDL
MODEL 3
REMARK VINA RESULT:     -14.0      0.322      1.556
REMARK SMILES CC(=O)O[C@@H]1CC[C@@]23C(=O)O[C@]4(CC[C@]2(O)C1)[C@H]3CC[C@]1(C)[C@H](C(=O)NCCCCNC(=O)c2ccc(-c3c5nc(c(-c6c(F)cccc6F)c6ccc([nH]6)c(-c6c(F)cccc6F)c6nc(c(-c7c(F)cccc7F)c7ccc3[nH]7)C=C6)C=C5)cc2)CC[C@@H]14
REMARK SMILES IDX 28 1 27 2 26 3 24 4 25 5 23 7 5 8 6 9 17 10 7 11 15 12 8 13
REMARK SMILES IDX 14 14 9 15 18 16 13 17 10 18 11 19 12 20 19 21 90 22 20 23
REMARK SMILES IDX 21 24 89 25 22 26 88 27 4 28 2 29 1 30 3 31 16 32 29 34
REMARK SMILES IDX 30 35 31 36 32 37 33 39 34 40 35 41 87 42 36 43 86 44 37 45
REMARK SMILES IDX 38 46 39 47 80 48 40 49 85 50 79 51 81 52 41 53 84 54 78 55
REMARK SMILES IDX 77 56 42 58 68 59 51 60 67 61 52 62 55 63 66 64 82 65 53 66
REMARK SMILES IDX 54 67 65 69 83 70 56 71 43 72 44 73 49 74 45 75 46 76 48 77
REMARK SMILES IDX 50 78 47 79 69 80 70 81 75 82 71 83 72 84 74 85 76 86 73 87
REMARK SMILES IDX 57 88 58 89 63 90 59 91 60 92 62 93 64 94 61 95
REMARK H PARENT 26 6 16 33 31 38 81 57 55 68
REMARK Flexibility Score: inf
ROOT
ATOM      1  C   UNL A   1      31.912  30.583  26.797  1.00  0.00     0.023 C 
ENDROOT
BRANCH   1   2
ATOM      2  C   UNL A   1      32.258  30.107  25.374  1.00  0.00     0.116 C 
BRANCH   2   3
ATOM      3  N   UNL A   1      31.052  29.657  24.706  1.00  0.00    -0.356 N 
ATOM      4  C   UNL A   1      30.809  28.851  23.647  1.00  0.00     0.223 C 
ATOM      5  O   UNL A   1      29.649  28.913  23.214  1.00  0.00    -0.275 OA
ATOM      6  H   UNL A   1      30.231  30.017  25.111  1.00  0.00     0.163 HD
BRANCH   4   7
ATOM      7  C   UNL A   1      31.768  27.833  23.006  1.00  0.00     0.085 C 
ATOM      8  C   UNL A   1      33.125  20.295  25.603  1.00  0.00     0.179 C 
ATOM      9  C   UNL A   1      31.910  21.137  25.277  1.00  0.00     0.047 C 
ATOM     10  C   UNL A   1      34.103  21.142  26.420  1.00  0.00     0.081 C 
ATOM     11  C   UNL A   1      32.354  22.424  24.596  1.00  0.00     0.026 C 
ATOM     12  C   UNL A   1      34.451  22.552  25.881  1.00  0.00     0.085 C 
ATOM     13  C   UNL A   1      33.308  23.457  25.615  1.00  0.00     0.103 C 
ATOM     14  C   UNL A   1      35.152  22.590  24.433  1.00  0.00     0.041 C 
ATOM     15  C   UNL A   1      32.166  24.327  25.746  1.00  0.00     0.316 C 
ATOM     16  C   UNL A   1      34.191  24.905  25.169  1.00  0.00     0.054 C 
ATOM     17  C   UNL A   1      34.484  23.660  23.307  1.00  0.00     0.052 C 
ATOM     18  O   UNL A   1      31.292  24.443  26.585  1.00  0.00    -0.251 OA
ATOM     19  O   UNL A   1      32.181  24.838  24.434  1.00  0.00    -0.458 OA
ATOM     20  C   UNL A   1      33.559  24.878  23.863  1.00  0.00     0.120 C 
ATOM     21  C   UNL A   1      34.105  26.285  25.846  1.00  0.00     0.009 C 
ATOM     22  C   UNL A   1      33.496  26.046  22.893  1.00  0.00     0.040 C 
ATOM     23  C   UNL A   1      33.314  27.373  25.095  1.00  0.00     0.008 C 
ATOM     24  C   UNL A   1      33.195  27.424  23.560  1.00  0.00    -0.014 C 
ATOM     25  C   UNL A   1      32.299  25.791  21.932  1.00  0.00     0.009 C 
ATOM     26  C   UNL A   1      34.195  28.470  23.016  1.00  0.00     0.012 C 
ATOM     27  C   UNL A   1      31.107  26.550  22.527  1.00  0.00     0.014 C 
BRANCH   8  28
ATOM     28  O   UNL A   1      33.698  19.862  24.351  1.00  0.00    -0.462 OA
BRANCH  28  29
ATOM     29  C   UNL A   1      33.741  18.524  24.119  1.00  0.00     0.302 C 
ATOM     30  C   UNL A   1      32.601  18.115  23.233  1.00  0.00     0.139 C 
ATOM     31  O   UNL A   1      34.579  17.755  24.567  1.00  0.00    -0.253 OA
ENDBRANCH  28  29
ENDBRANCH   8  28
BRANCH  12  32
ATOM     32  O   UNL A   1      35.321  23.142  26.853  1.00  0.00    -0.389 OA
ATOM     33  H   UNL A   1      35.050  24.060  27.014  1.00  0.00     0.211 HD
ENDBRANCH  12  32
ENDBRANCH   4   7
ENDBRANCH   2   3
ENDBRANCH   1   2
BRANCH   1  34
ATOM     34  C   UNL A   1      31.388  32.004  26.899  1.00  0.00     0.023 C 
BRANCH  34  35
ATOM     35  C   UNL A   1      32.452  33.064  26.704  1.00  0.00     0.116 C 
BRANCH  35  36
ATOM     36  N   UNL A   1      32.301  34.208  27.598  1.00  0.00    -0.352 N 
ATOM     37  C   UNL A   1      33.087  34.561  28.669  1.00  0.00     0.251 C 
ATOM     38  H   UNL A   1      31.539  34.802  27.408  1.00  0.00     0.163 HD
ATOM     39  O   UNL A   1      32.777  35.481  29.415  1.00  0.00    -0.269 OA
BRANCH  37  40
ATOM     40  C   UNL A   1      34.299  33.763  28.930  1.00  0.00     0.039 A 
ATOM     41  C   UNL A   1      35.550  34.359  28.768  1.00  0.00     0.014 A 
ATOM     42  C   UNL A   1      34.180  32.480  29.472  1.00  0.00     0.014 A 
ATOM     43  C   UNL A   1      36.681  33.706  29.254  1.00  0.00     0.010 A 
ATOM     44  C   UNL A   1      35.291  31.883  30.049  1.00  0.00     0.010 A 
ATOM     45  C   UNL A   1      36.549  32.496  29.956  1.00  0.00    -0.014 A 
BRANCH  45  46
ATOM     46  C   UNL A   1      37.709  31.869  30.637  1.00  0.00     0.031 A 
ATOM     47  C   UNL A   1      38.499  30.800  29.938  1.00  0.00     0.074 A 
ATOM     48  C   UNL A   1      37.990  32.202  31.913  1.00  0.00     0.049 A 
ATOM     49  N   UNL A   1      39.490  30.077  30.392  1.00  0.00    -0.248 NA
ATOM     50  C   UNL A   1      38.103  30.478  28.558  1.00  0.00     0.031 C 
ATOM     51  C   UNL A   1      37.253  33.177  32.719  1.00  0.00     0.029 A 
ATOM     52  N   UNL A   1      38.967  31.744  32.761  1.00  0.00    -0.354 N 
ATOM     53  C   UNL A   1      39.825  29.212  29.360  1.00  0.00     0.074 A 
ATOM     54  C   UNL A   1      38.895  29.454  28.281  1.00  0.00     0.031 C 
ATOM     55  C   UNL A   1      37.821  33.266  33.932  1.00  0.00     0.029 A 
ATOM     56  C   UNL A   1      38.931  32.323  34.007  1.00  0.00     0.049 A 
ATOM     57  H   UNL A   1      39.630  31.065  32.501  1.00  0.00     0.167 HD
ATOM     58  C   UNL A   1      40.837  28.314  29.308  1.00  0.00     0.037 A 
ATOM     59  C   UNL A   1      39.702  32.110  35.091  1.00  0.00     0.037 A 
ATOM     60  C   UNL A   1      41.774  28.093  30.376  1.00  0.00     0.049 A 
ATOM     61  C   UNL A   1      40.809  31.096  35.010  1.00  0.00     0.074 A 
ATOM     62  C   UNL A   1      42.877  27.260  30.395  1.00  0.00     0.029 A 
ATOM     63  N   UNL A   1      41.712  28.706  31.619  1.00  0.00    -0.354 N 
ATOM     64  N   UNL A   1      41.169  30.344  33.998  1.00  0.00    -0.248 NA
ATOM     65  C   UNL A   1      41.617  30.902  36.221  1.00  0.00     0.031 C 
ATOM     66  C   UNL A   1      43.454  27.329  31.668  1.00  0.00     0.029 A 
ATOM     67  C   UNL A   1      42.740  28.244  32.424  1.00  0.00     0.049 A 
ATOM     68  H   UNL A   1      41.037  29.371  31.889  1.00  0.00     0.167 HD
ATOM     69  C   UNL A   1      42.254  29.601  34.443  1.00  0.00     0.074 A 
ATOM     70  C   UNL A   1      42.508  30.011  35.809  1.00  0.00     0.031 C 
ATOM     71  C   UNL A   1      42.973  28.661  33.783  1.00  0.00     0.037 A 
BRANCH  58  72
ATOM     72  C   UNL A   1      40.983  27.510  28.049  1.00  0.00     0.057 A 
ATOM     73  C   UNL A   1      40.345  26.274  27.884  1.00  0.00     0.134 A 
ATOM     74  C   UNL A   1      41.743  27.993  26.977  1.00  0.00     0.134 A 
ATOM     75  F   UNL A   1      39.613  25.747  28.878  1.00  0.00    -0.206 F 
ATOM     76  C   UNL A   1      40.478  25.535  26.707  1.00  0.00     0.040 A 
ATOM     77  C   UNL A   1      41.860  27.277  25.785  1.00  0.00     0.040 A 
ATOM     78  F   UNL A   1      42.378  29.172  27.067  1.00  0.00    -0.206 F 
ATOM     79  C   UNL A   1      41.231  26.040  25.649  1.00  0.00     0.006 A 
ENDBRANCH  58  72
BRANCH  59  80
ATOM     80  C   UNL A   1      39.462  32.876  36.340  1.00  0.00     0.057 A 
ATOM     81  C   UNL A   1      40.135  34.078  36.591  1.00  0.00     0.134 A 
ATOM     82  C   UNL A   1      38.568  32.423  37.317  1.00  0.00     0.134 A 
ATOM     83  F   UNL A   1      41.020  34.554  35.701  1.00  0.00    -0.206 F 
ATOM     84  C   UNL A   1      39.943  34.791  37.775  1.00  0.00     0.040 A 
ATOM     85  C   UNL A   1      38.346  33.141  38.494  1.00  0.00     0.040 A 
ATOM     86  F   UNL A   1      37.886  31.283  37.136  1.00  0.00    -0.206 F 
ATOM     87  C   UNL A   1      39.041  34.324  38.729  1.00  0.00     0.006 A 
ENDBRANCH  59  80
BRANCH  71  88
ATOM     88  C   UNL A   1      44.109  28.023  34.527  1.00  0.00     0.057 A 
ATOM     89  C   UNL A   1      43.945  26.831  35.241  1.00  0.00     0.134 A 
ATOM     90  C   UNL A   1      45.391  28.588  34.494  1.00  0.00     0.134 A 
ATOM     91  F   UNL A   1      42.740  26.247  35.323  1.00  0.00    -0.206 F 
ATOM     92  C   UNL A   1      45.010  26.233  35.917  1.00  0.00     0.040 A 
ATOM     93  C   UNL A   1      46.470  27.984  35.142  1.00  0.00     0.040 A 
ATOM     94  F   UNL A   1      45.619  29.724  33.819  1.00  0.00    -0.206 F 
ATOM     95  C   UNL A   1      46.279  26.806  35.861  1.00  0.00     0.006 A 
ENDBRANCH  71  88
ENDBRANCH  45  46
ENDBRANCH  37  40
ENDBRANCH  35  36
ENDBRANCH  34  35
ENDBRANCH   1  34
TORSDOF 14
ENDMDL
