MODEL 1
REMARK VINA RESULT:     -11.2      0.000      0.000
REMARK SMILES CC[C@@H]1C=CC[C@@H]2C(=O)N(CCCC(=O)NCCCCNC(=O)c3ccc(-c4c5nc(c(-c6c(F)cccc6F)c6ccc([nH]6)c(-c6c(F)cccc6F)c6nc(c(-c7c(F)cccc7F)c7ccc4[nH]7)C=C6)C=C5)cc3)C(=O)[C@@H]21
REMARK SMILES IDX 17 1 16 2 14 3 15 4 13 6 12 7 11 8 10 9 3 10 4 11 80 12 5 13
REMARK SMILES IDX 7 14 78 15 6 16 8 17 79 18 9 19 2 20 1 21 18 22 19 23 20 24
REMARK SMILES IDX 21 25 22 26 23 28 24 29 25 30 77 31 26 32 76 33 27 34 28 35
REMARK SMILES IDX 29 36 70 37 30 38 75 39 69 40 71 41 31 42 74 43 68 44 67 45
REMARK SMILES IDX 32 47 58 48 41 49 57 50 42 51 45 52 56 53 72 54 43 55 44 56
REMARK SMILES IDX 55 58 73 59 46 60 33 61 34 62 39 63 35 64 36 65 38 66 40 67
REMARK SMILES IDX 37 68 59 69 60 70 65 71 61 72 62 73 64 74 66 75 63 76 47 77
REMARK SMILES IDX 48 78 53 79 49 80 50 81 52 82 54 83 51 84
REMARK H PARENT 16 5 21 27 71 46 45 57
REMARK Flexibility Score: inf
ROOT
ATOM      1  C   UNL A   1      37.405  22.694  25.396  1.00  0.00     0.116 C 
ENDROOT
BRANCH   1   2
ATOM      2  N   UNL A   1      36.257  22.744  26.269  1.00  0.00    -0.356 N 
ATOM      3  C   UNL A   1      35.107  23.460  26.222  1.00  0.00     0.220 C 
ATOM      4  O   UNL A   1      34.265  23.195  27.088  1.00  0.00    -0.275 OA
ATOM      5  H   UNL A   1      36.322  22.145  27.048  1.00  0.00     0.163 HD
BRANCH   3   6
ATOM      6  C   UNL A   1      34.775  24.485  25.149  1.00  0.00     0.102 C 
BRANCH   6   7
ATOM      7  C   UNL A   1      33.816  24.143  24.015  1.00  0.00     0.032 C 
BRANCH   7   8
ATOM      8  C   UNL A   1      32.314  24.376  24.134  1.00  0.00     0.129 C 
BRANCH   8   9
ATOM      9  N   UNL A   1      31.785  25.566  24.788  1.00  0.00    -0.282 N 
ATOM     10  C   UNL A   1      32.380  28.654  24.585  1.00  0.00     0.024 C 
ATOM     11  C   UNL A   1      33.538  28.281  25.486  1.00  0.00    -0.027 C 
ATOM     12  C   UNL A   1      31.115  27.790  24.826  1.00  0.00     0.099 C 
ATOM     13  C   UNL A   1      33.315  27.968  26.771  1.00  0.00    -0.030 C 
ATOM     14  C   UNL A   1      31.001  27.230  26.250  1.00  0.00     0.096 C 
ATOM     15  C   UNL A   1      31.149  26.515  24.041  1.00  0.00     0.233 C 
ATOM     16  C   UNL A   1      31.908  27.879  27.294  1.00  0.00     0.041 C 
ATOM     17  C   UNL A   1      31.458  25.797  26.089  1.00  0.00     0.233 C 
ATOM     18  O   UNL A   1      30.638  26.355  22.942  1.00  0.00    -0.274 OA
ATOM     19  O   UNL A   1      31.412  25.013  27.021  1.00  0.00    -0.274 OA
BRANCH  10  20
ATOM     20  C   UNL A   1      32.767  28.867  23.104  1.00  0.00     0.005 C 
ATOM     21  C   UNL A   1      34.222  28.662  22.697  1.00  0.00     0.004 C 
ENDBRANCH  10  20
ENDBRANCH   8   9
ENDBRANCH   7   8
ENDBRANCH   6   7
ENDBRANCH   3   6
ENDBRANCH   1   2
BRANCH   1  22
ATOM     22  C   UNL A   1      37.332  21.511  24.427  1.00  0.00     0.023 C 
BRANCH  22  23
ATOM     23  C   UNL A   1      37.872  20.208  24.985  1.00  0.00     0.023 C 
BRANCH  23  24
ATOM     24  C   UNL A   1      39.080  20.394  25.885  1.00  0.00     0.116 C 
BRANCH  24  25
ATOM     25  N   UNL A   1      40.098  19.358  25.758  1.00  0.00    -0.352 N 
ATOM     26  C   UNL A   1      41.438  19.473  26.060  1.00  0.00     0.251 C 
ATOM     27  H   UNL A   1      39.796  18.482  25.421  1.00  0.00     0.163 HD
ATOM     28  O   UNL A   1      42.223  18.553  25.865  1.00  0.00    -0.269 OA
BRANCH  26  29
ATOM     29  C   UNL A   1      41.914  20.768  26.583  1.00  0.00     0.039 A 
ATOM     30  C   UNL A   1      42.278  21.772  25.687  1.00  0.00     0.014 A 
ATOM     31  C   UNL A   1      41.855  21.021  27.956  1.00  0.00     0.014 A 
ATOM     32  C   UNL A   1      42.527  23.057  26.169  1.00  0.00     0.010 A 
ATOM     33  C   UNL A   1      41.978  22.323  28.413  1.00  0.00     0.010 A 
ATOM     34  C   UNL A   1      42.346  23.351  27.531  1.00  0.00    -0.014 A 
BRANCH  34  35
ATOM     35  C   UNL A   1      42.609  24.706  28.074  1.00  0.00     0.031 A 
ATOM     36  C   UNL A   1      44.014  25.078  28.471  1.00  0.00     0.074 A 
ATOM     37  C   UNL A   1      41.599  25.581  28.251  1.00  0.00     0.049 A 
ATOM     38  N   UNL A   1      44.459  26.187  29.007  1.00  0.00    -0.248 NA
ATOM     39  C   UNL A   1      45.052  24.051  28.277  1.00  0.00     0.031 C 
ATOM     40  C   UNL A   1      40.188  25.323  27.957  1.00  0.00     0.029 A 
ATOM     41  N   UNL A   1      41.609  26.869  28.722  1.00  0.00    -0.354 N 
ATOM     42  C   UNL A   1      45.815  25.977  29.225  1.00  0.00     0.074 A 
ATOM     43  C   UNL A   1      46.103  24.613  28.850  1.00  0.00     0.031 C 
ATOM     44  C   UNL A   1      39.476  26.433  28.213  1.00  0.00     0.029 A 
ATOM     45  C   UNL A   1      40.371  27.466  28.724  1.00  0.00     0.049 A 
ATOM     46  H   UNL A   1      42.426  27.324  29.031  1.00  0.00     0.167 HD
ATOM     47  C   UNL A   1      46.751  26.854  29.656  1.00  0.00     0.037 A 
ATOM     48  C   UNL A   1      40.007  28.710  29.090  1.00  0.00     0.037 A 
ATOM     49  C   UNL A   1      46.468  28.220  29.997  1.00  0.00     0.049 A 
ATOM     50  C   UNL A   1      41.064  29.667  29.575  1.00  0.00     0.074 A 
ATOM     51  C   UNL A   1      47.347  29.209  30.401  1.00  0.00     0.029 A 
ATOM     52  N   UNL A   1      45.204  28.792  29.968  1.00  0.00    -0.354 N 
ATOM     53  N   UNL A   1      42.354  29.479  29.712  1.00  0.00    -0.248 NA
ATOM     54  C   UNL A   1      40.613  31.017  29.942  1.00  0.00     0.031 C 
ATOM     55  C   UNL A   1      46.607  30.367  30.665  1.00  0.00     0.029 A 
ATOM     56  C   UNL A   1      45.277  30.116  30.363  1.00  0.00     0.049 A 
ATOM     57  H   UNL A   1      44.378  28.325  29.706  1.00  0.00     0.167 HD
ATOM     58  C   UNL A   1      42.874  30.694  30.140  1.00  0.00     0.074 A 
ATOM     59  C   UNL A   1      41.759  31.615  30.230  1.00  0.00     0.031 C 
ATOM     60  C   UNL A   1      44.159  31.022  30.427  1.00  0.00     0.037 A 
BRANCH  47  61
ATOM     61  C   UNL A   1      48.163  26.353  29.769  1.00  0.00     0.057 A 
ATOM     62  C   UNL A   1      48.645  25.756  30.943  1.00  0.00     0.134 A 
ATOM     63  C   UNL A   1      49.052  26.466  28.694  1.00  0.00     0.134 A 
ATOM     64  F   UNL A   1      47.852  25.631  32.018  1.00  0.00    -0.206 F 
ATOM     65  C   UNL A   1      49.969  25.327  31.057  1.00  0.00     0.040 A 
ATOM     66  C   UNL A   1      50.367  26.010  28.783  1.00  0.00     0.040 A 
ATOM     67  F   UNL A   1      48.658  27.024  27.538  1.00  0.00    -0.206 F 
ATOM     68  C   UNL A   1      50.833  25.448  29.971  1.00  0.00     0.006 A 
ENDBRANCH  47  61
BRANCH  48  69
ATOM     69  C   UNL A   1      38.590  29.143  28.973  1.00  0.00     0.057 A 
ATOM     70  C   UNL A   1      37.728  29.096  30.076  1.00  0.00     0.134 A 
ATOM     71  C   UNL A   1      38.056  29.592  27.759  1.00  0.00     0.134 A 
ATOM     72  F   UNL A   1      38.174  28.659  31.263  1.00  0.00    -0.206 F 
ATOM     73  C   UNL A   1      36.382  29.452  29.971  1.00  0.00     0.040 A 
ATOM     74  C   UNL A   1      36.718  29.978  27.647  1.00  0.00     0.040 A 
ATOM     75  F   UNL A   1      38.829  29.670  26.667  1.00  0.00    -0.206 F 
ATOM     76  C   UNL A   1      35.875  29.898  28.753  1.00  0.00     0.006 A 
ENDBRANCH  48  69
BRANCH  60  77
ATOM     77  C   UNL A   1      44.439  32.449  30.801  1.00  0.00     0.057 A 
ATOM     78  C   UNL A   1      44.461  32.881  32.133  1.00  0.00     0.134 A 
ATOM     79  C   UNL A   1      44.732  33.393  29.809  1.00  0.00     0.134 A 
ATOM     80  F   UNL A   1      44.180  32.030  33.131  1.00  0.00    -0.206 F 
ATOM     81  C   UNL A   1      44.733  34.210  32.462  1.00  0.00     0.040 A 
ATOM     82  C   UNL A   1      45.038  34.717  30.127  1.00  0.00     0.040 A 
ATOM     83  F   UNL A   1      44.742  33.043  28.514  1.00  0.00    -0.206 F 
ATOM     84  C   UNL A   1      45.030  35.131  31.457  1.00  0.00     0.006 A 
ENDBRANCH  60  77
ENDBRANCH  34  35
ENDBRANCH  26  29
ENDBRANCH  24  25
ENDBRANCH  23  24
ENDBRANCH  22  23
ENDBRANCH   1  22
TORSDOF 15
ENDMDL
MODEL 2
REMARK VINA RESULT:     -11.1      4.119      9.218
REMARK SMILES CC[C@@H]1C=CC[C@@H]2C(=O)N(CCCC(=O)NCCCCNC(=O)c3ccc(-c4c5nc(c(-c6c(F)cccc6F)c6ccc([nH]6)c(-c6c(F)cccc6F)c6nc(c(-c7c(F)cccc7F)c7ccc4[nH]7)C=C6)C=C5)cc3)C(=O)[C@@H]21
REMARK SMILES IDX 17 1 16 2 14 3 15 4 13 6 12 7 11 8 10 9 3 10 4 11 80 12 5 13
REMARK SMILES IDX 7 14 78 15 6 16 8 17 79 18 9 19 2 20 1 21 18 22 19 23 20 24
REMARK SMILES IDX 21 25 22 26 23 28 24 29 25 30 77 31 26 32 76 33 27 34 28 35
REMARK SMILES IDX 29 36 70 37 30 38 75 39 69 40 71 41 31 42 74 43 68 44 67 45
REMARK SMILES IDX 32 47 58 48 41 49 57 50 42 51 45 52 56 53 72 54 43 55 44 56
REMARK SMILES IDX 55 58 73 59 46 60 33 61 34 62 39 63 35 64 36 65 38 66 40 67
REMARK SMILES IDX 37 68 59 69 60 70 65 71 61 72 62 73 64 74 66 75 63 76 47 77
REMARK SMILES IDX 48 78 53 79 49 80 50 81 52 82 54 83 51 84
REMARK H PARENT 16 5 21 27 71 46 45 57
REMARK Flexibility Score: inf
ROOT
ATOM      1  C   UNL A   1      32.122  29.816  25.407  1.00  0.00     0.116 C 
ENDROOT
BRANCH   1   2
ATOM      2  N   UNL A   1      31.003  29.966  24.507  1.00  0.00    -0.356 N 
ATOM      3  C   UNL A   1      30.330  29.078  23.734  1.00  0.00     0.220 C 
ATOM      4  O   UNL A   1      29.337  29.516  23.143  1.00  0.00    -0.275 OA
ATOM      5  H   UNL A   1      30.663  30.888  24.443  1.00  0.00     0.163 HD
BRANCH   3   6
ATOM      6  C   UNL A   1      30.676  27.602  23.619  1.00  0.00     0.102 C 
BRANCH   6   7
ATOM      7  C   UNL A   1      29.968  26.566  24.484  1.00  0.00     0.032 C 
BRANCH   7   8
ATOM      8  C   UNL A   1      30.476  26.197  25.873  1.00  0.00     0.129 C 
BRANCH   8   9
ATOM      9  N   UNL A   1      31.505  25.181  26.055  1.00  0.00    -0.282 N 
ATOM     10  C   UNL A   1      33.698  23.892  24.196  1.00  0.00     0.024 C 
ATOM     11  C   UNL A   1      32.518  23.072  23.719  1.00  0.00    -0.027 C 
ATOM     12  C   UNL A   1      33.612  24.272  25.697  1.00  0.00     0.099 C 
ATOM     13  C   UNL A   1      32.004  22.116  24.507  1.00  0.00    -0.030 C 
ATOM     14  C   UNL A   1      32.803  23.285  26.547  1.00  0.00     0.096 C 
ATOM     15  C   UNL A   1      32.818  25.523  25.913  1.00  0.00     0.233 C 
ATOM     16  C   UNL A   1      32.523  21.928  25.906  1.00  0.00     0.041 C 
ATOM     17  C   UNL A   1      31.472  23.987  26.708  1.00  0.00     0.233 C 
ATOM     18  O   UNL A   1      33.291  26.648  26.001  1.00  0.00    -0.274 OA
ATOM     19  O   UNL A   1      30.596  23.521  27.416  1.00  0.00    -0.274 OA
BRANCH  10  20
ATOM     20  C   UNL A   1      34.104  25.038  23.242  1.00  0.00     0.005 C 
ATOM     21  C   UNL A   1      33.162  25.400  22.099  1.00  0.00     0.004 C 
ENDBRANCH  10  20
ENDBRANCH   8   9
ENDBRANCH   7   8
ENDBRANCH   6   7
ENDBRANCH   3   6
ENDBRANCH   1   2
BRANCH   1  22
ATOM     22  C   UNL A   1      31.846  30.458  26.770  1.00  0.00     0.023 C 
BRANCH  22  23
ATOM     23  C   UNL A   1      31.561  31.946  26.716  1.00  0.00     0.023 C 
BRANCH  23  24
ATOM     24  C   UNL A   1      32.687  32.796  27.275  1.00  0.00     0.116 C 
BRANCH  24  25
ATOM     25  N   UNL A   1      32.297  34.150  27.650  1.00  0.00    -0.352 N 
ATOM     26  C   UNL A   1      32.935  34.974  28.552  1.00  0.00     0.251 C 
ATOM     27  H   UNL A   1      31.494  34.515  27.211  1.00  0.00     0.163 HD
ATOM     28  O   UNL A   1      32.493  36.081  28.838  1.00  0.00    -0.269 OA
BRANCH  26  29
ATOM     29  C   UNL A   1      34.151  34.459  29.211  1.00  0.00     0.039 A 
ATOM     30  C   UNL A   1      34.024  33.665  30.350  1.00  0.00     0.014 A 
ATOM     31  C   UNL A   1      35.396  34.650  28.607  1.00  0.00     0.014 A 
ATOM     32  C   UNL A   1      35.148  33.008  30.851  1.00  0.00     0.010 A 
ATOM     33  C   UNL A   1      36.480  33.897  29.030  1.00  0.00     0.010 A 
ATOM     34  C   UNL A   1      36.378  33.092  30.176  1.00  0.00    -0.014 A 
BRANCH  34  35
ATOM     35  C   UNL A   1      37.592  32.411  30.687  1.00  0.00     0.031 A 
ATOM     36  C   UNL A   1      38.243  32.917  31.947  1.00  0.00     0.074 A 
ATOM     37  C   UNL A   1      38.133  31.377  30.012  1.00  0.00     0.049 A 
ATOM     38  N   UNL A   1      39.331  32.502  32.544  1.00  0.00    -0.248 NA
ATOM     39  C   UNL A   1      37.607  34.073  32.604  1.00  0.00     0.031 C 
ATOM     40  C   UNL A   1      37.630  30.826  28.752  1.00  0.00     0.029 A 
ATOM     41  N   UNL A   1      39.229  30.603  30.296  1.00  0.00    -0.354 N 
ATOM     42  C   UNL A   1      39.511  33.355  33.626  1.00  0.00     0.074 A 
ATOM     43  C   UNL A   1      38.479  34.361  33.555  1.00  0.00     0.031 C 
ATOM     44  C   UNL A   1      38.389  29.777  28.396  1.00  0.00     0.029 A 
ATOM     45  C   UNL A   1      39.453  29.604  29.379  1.00  0.00     0.049 A 
ATOM     46  H   UNL A   1      39.803  30.751  31.083  1.00  0.00     0.167 HD
ATOM     47  C   UNL A   1      40.428  33.284  34.620  1.00  0.00     0.037 A 
ATOM     48  C   UNL A   1      40.407  28.654  29.346  1.00  0.00     0.037 A 
ATOM     49  C   UNL A   1      41.434  32.263  34.706  1.00  0.00     0.049 A 
ATOM     50  C   UNL A   1      41.422  28.598  30.457  1.00  0.00     0.074 A 
ATOM     51  C   UNL A   1      42.384  32.068  35.693  1.00  0.00     0.029 A 
ATOM     52  N   UNL A   1      41.617  31.258  33.767  1.00  0.00    -0.354 N 
ATOM     53  N   UNL A   1      41.541  29.369  31.512  1.00  0.00    -0.248 NA
ATOM     54  C   UNL A   1      42.427  27.529  30.380  1.00  0.00     0.031 C 
ATOM     55  C   UNL A   1      43.174  30.973  35.326  1.00  0.00     0.029 A 
ATOM     56  C   UNL A   1      42.675  30.449  34.143  1.00  0.00     0.049 A 
ATOM     57  H   UNL A   1      41.075  31.138  32.954  1.00  0.00     0.167 HD
ATOM     58  C   UNL A   1      42.604  28.853  32.243  1.00  0.00     0.074 A 
ATOM     59  C   UNL A   1      43.089  27.699  31.515  1.00  0.00     0.031 C 
ATOM     60  C   UNL A   1      43.129  29.292  33.415  1.00  0.00     0.037 A 
BRANCH  47  61
ATOM     61  C   UNL A   1      40.366  34.337  35.689  1.00  0.00     0.057 A 
ATOM     62  C   UNL A   1      39.589  34.174  36.846  1.00  0.00     0.134 A 
ATOM     63  C   UNL A   1      41.088  35.529  35.564  1.00  0.00     0.134 A 
ATOM     64  F   UNL A   1      38.856  33.064  37.022  1.00  0.00    -0.206 F 
ATOM     65  C   UNL A   1      39.503  35.172  37.818  1.00  0.00     0.040 A 
ATOM     66  C   UNL A   1      41.039  36.520  36.545  1.00  0.00     0.040 A 
ATOM     67  F   UNL A   1      41.855  35.752  34.485  1.00  0.00    -0.206 F 
ATOM     68  C   UNL A   1      40.236  36.348  37.671  1.00  0.00     0.006 A 
ENDBRANCH  47  61
BRANCH  48  69
ATOM     69  C   UNL A   1      40.428  27.649  28.251  1.00  0.00     0.057 A 
ATOM     70  C   UNL A   1      39.760  26.424  28.383  1.00  0.00     0.134 A 
ATOM     71  C   UNL A   1      41.126  27.874  27.059  1.00  0.00     0.134 A 
ATOM     72  F   UNL A   1      39.088  26.141  29.509  1.00  0.00    -0.206 F 
ATOM     73  C   UNL A   1      39.810  25.450  27.385  1.00  0.00     0.040 A 
ATOM     74  C   UNL A   1      41.160  26.920  26.040  1.00  0.00     0.040 A 
ATOM     75  F   UNL A   1      41.777  29.029  26.864  1.00  0.00    -0.206 F 
ATOM     76  C   UNL A   1      40.510  25.699  26.206  1.00  0.00     0.006 A 
ENDBRANCH  48  69
BRANCH  60  77
ATOM     77  C   UNL A   1      44.243  28.484  34.016  1.00  0.00     0.057 A 
ATOM     78  C   UNL A   1      45.591  28.775  33.774  1.00  0.00     0.134 A 
ATOM     79  C   UNL A   1      43.956  27.423  34.884  1.00  0.00     0.134 A 
ATOM     80  F   UNL A   1      45.935  29.772  32.944  1.00  0.00    -0.206 F 
ATOM     81  C   UNL A   1      46.614  28.019  34.350  1.00  0.00     0.040 A 
ATOM     82  C   UNL A   1      44.969  26.680  35.492  1.00  0.00     0.040 A 
ATOM     83  F   UNL A   1      42.685  27.099  35.169  1.00  0.00    -0.206 F 
ATOM     84  C   UNL A   1      46.303  26.972  35.217  1.00  0.00     0.006 A 
ENDBRANCH  60  77
ENDBRANCH  34  35
ENDBRANCH  26  29
ENDBRANCH  24  25
ENDBRANCH  23  24
ENDBRANCH  22  23
ENDBRANCH   1  22
TORSDOF 15
ENDMDL
MODEL 3
REMARK VINA RESULT:     -10.9      0.893      1.968
REMARK SMILES CC[C@@H]1C=CC[C@@H]2C(=O)N(CCCC(=O)NCCCCNC(=O)c3ccc(-c4c5nc(c(-c6c(F)cccc6F)c6ccc([nH]6)c(-c6c(F)cccc6F)c6nc(c(-c7c(F)cccc7F)c7ccc4[nH]7)C=C6)C=C5)cc3)C(=O)[C@@H]21
REMARK SMILES IDX 17 1 16 2 14 3 15 4 13 6 12 7 11 8 10 9 3 10 4 11 80 12 5 13
REMARK SMILES IDX 7 14 78 15 6 16 8 17 79 18 9 19 2 20 1 21 18 22 19 23 20 24
REMARK SMILES IDX 21 25 22 26 23 28 24 29 25 30 77 31 26 32 76 33 27 34 28 35
REMARK SMILES IDX 29 36 70 37 30 38 75 39 69 40 71 41 31 42 74 43 68 44 67 45
REMARK SMILES IDX 32 47 58 48 41 49 57 50 42 51 45 52 56 53 72 54 43 55 44 56
REMARK SMILES IDX 55 58 73 59 46 60 33 61 34 62 39 63 35 64 36 65 38 66 40 67
REMARK SMILES IDX 37 68 59 69 60 70 65 71 61 72 62 73 64 74 66 75 63 76 47 77
REMARK SMILES IDX 48 78 53 79 49 80 50 81 52 82 54 83 51 84
REMARK H PARENT 16 5 21 27 71 46 45 57
REMARK Flexibility Score: inf
ROOT
ATOM      1  C   UNL A   1      37.627  23.459  25.759  1.00  0.00     0.116 C 
ENDROOT
BRANCH   1   2
ATOM      2  N   UNL A   1      36.420  22.902  26.322  1.00  0.00    -0.356 N 
ATOM      3  C   UNL A   1      35.333  22.325  25.755  1.00  0.00     0.220 C 
ATOM      4  O   UNL A   1      34.498  21.855  26.537  1.00  0.00    -0.275 OA
ATOM      5  H   UNL A   1      36.379  22.952  27.305  1.00  0.00     0.163 HD
BRANCH   3   6
ATOM      6  C   UNL A   1      35.127  22.161  24.258  1.00  0.00     0.102 C 
BRANCH   6   7
ATOM      7  C   UNL A   1      34.629  23.324  23.408  1.00  0.00     0.032 C 
BRANCH   7   8
ATOM      8  C   UNL A   1      33.381  24.114  23.780  1.00  0.00     0.129 C 
BRANCH   8   9
ATOM      9  N   UNL A   1      33.362  25.571  23.714  1.00  0.00    -0.282 N 
ATOM     10  C   UNL A   1      31.657  27.828  25.101  1.00  0.00     0.024 C 
ATOM     11  C   UNL A   1      30.658  27.446  24.029  1.00  0.00    -0.027 C 
ATOM     12  C   UNL A   1      33.131  27.688  24.640  1.00  0.00     0.099 C 
ATOM     13  C   UNL A   1      30.878  27.793  22.752  1.00  0.00    -0.030 C 
ATOM     14  C   UNL A   1      33.332  27.846  23.127  1.00  0.00     0.096 C 
ATOM     15  C   UNL A   1      33.648  26.296  24.833  1.00  0.00     0.233 C 
ATOM     16  C   UNL A   1      32.165  28.466  22.362  1.00  0.00     0.041 C 
ATOM     17  C   UNL A   1      33.470  26.416  22.652  1.00  0.00     0.233 C 
ATOM     18  O   UNL A   1      34.270  25.909  25.813  1.00  0.00    -0.274 OA
ATOM     19  O   UNL A   1      33.734  26.161  21.490  1.00  0.00    -0.274 OA
BRANCH  10  20
ATOM     20  C   UNL A   1      31.340  27.255  26.501  1.00  0.00     0.005 C 
ATOM     21  C   UNL A   1      31.650  28.113  27.723  1.00  0.00     0.004 C 
ENDBRANCH  10  20
ENDBRANCH   8   9
ENDBRANCH   7   8
ENDBRANCH   6   7
ENDBRANCH   3   6
ENDBRANCH   1   2
BRANCH   1  22
ATOM     22  C   UNL A   1      38.866  22.651  26.158  1.00  0.00     0.023 C 
BRANCH  22  23
ATOM     23  C   UNL A   1      38.955  21.281  25.515  1.00  0.00     0.023 C 
BRANCH  23  24
ATOM     24  C   UNL A   1      39.424  20.198  26.469  1.00  0.00     0.116 C 
BRANCH  24  25
ATOM     25  N   UNL A   1      40.489  19.348  25.948  1.00  0.00    -0.352 N 
ATOM     26  C   UNL A   1      41.836  19.638  25.914  1.00  0.00     0.251 C 
ATOM     27  H   UNL A   1      40.217  18.475  25.583  1.00  0.00     0.163 HD
ATOM     28  O   UNL A   1      42.647  18.874  25.404  1.00  0.00    -0.269 OA
BRANCH  26  29
ATOM     29  C   UNL A   1      42.273  20.933  26.472  1.00  0.00     0.039 A 
ATOM     30  C   UNL A   1      42.608  21.970  25.602  1.00  0.00     0.014 A 
ATOM     31  C   UNL A   1      42.206  21.148  27.850  1.00  0.00     0.014 A 
ATOM     32  C   UNL A   1      42.819  23.249  26.117  1.00  0.00     0.010 A 
ATOM     33  C   UNL A   1      42.290  22.442  28.341  1.00  0.00     0.010 A 
ATOM     34  C   UNL A   1      42.628  23.502  27.486  1.00  0.00    -0.014 A 
BRANCH  34  35
ATOM     35  C   UNL A   1      42.850  24.850  28.065  1.00  0.00     0.031 A 
ATOM     36  C   UNL A   1      44.241  25.250  28.482  1.00  0.00     0.074 A 
ATOM     37  C   UNL A   1      41.816  25.693  28.254  1.00  0.00     0.049 A 
ATOM     38  N   UNL A   1      44.652  26.356  29.048  1.00  0.00    -0.248 NA
ATOM     39  C   UNL A   1      45.308  24.256  28.271  1.00  0.00     0.031 C 
ATOM     40  C   UNL A   1      40.415  25.405  27.942  1.00  0.00     0.029 A 
ATOM     41  N   UNL A   1      41.787  26.969  28.757  1.00  0.00    -0.354 N 
ATOM     42  C   UNL A   1      46.012  26.177  29.272  1.00  0.00     0.074 A 
ATOM     43  C   UNL A   1      46.339  24.831  28.867  1.00  0.00     0.031 C 
ATOM     44  C   UNL A   1      39.671  26.489  28.219  1.00  0.00     0.029 A 
ATOM     45  C   UNL A   1      40.534  27.533  28.763  1.00  0.00     0.049 A 
ATOM     46  H   UNL A   1      42.590  27.438  29.083  1.00  0.00     0.167 HD
ATOM     47  C   UNL A   1      46.921  27.068  29.733  1.00  0.00     0.037 A 
ATOM     48  C   UNL A   1      40.134  28.757  29.156  1.00  0.00     0.037 A 
ATOM     49  C   UNL A   1      46.598  28.418  30.105  1.00  0.00     0.049 A 
ATOM     50  C   UNL A   1      41.161  29.730  29.673  1.00  0.00     0.074 A 
ATOM     51  C   UNL A   1      47.447  29.419  30.541  1.00  0.00     0.029 A 
ATOM     52  N   UNL A   1      45.320  28.956  30.080  1.00  0.00    -0.354 N 
ATOM     53  N   UNL A   1      42.455  29.572  29.817  1.00  0.00    -0.248 NA
ATOM     54  C   UNL A   1      40.671  31.057  30.069  1.00  0.00     0.031 C 
ATOM     55  C   UNL A   1      46.675  30.550  30.826  1.00  0.00     0.029 A 
ATOM     56  C   UNL A   1      45.355  30.271  30.507  1.00  0.00     0.049 A 
ATOM     57  H   UNL A   1      44.509  28.474  29.799  1.00  0.00     0.167 HD
ATOM     58  C   UNL A   1      42.938  30.790  30.278  1.00  0.00     0.074 A 
ATOM     59  C   UNL A   1      41.799  31.679  30.381  1.00  0.00     0.031 C 
ATOM     60  C   UNL A   1      44.212  31.145  30.583  1.00  0.00     0.037 A 
BRANCH  47  61
ATOM     61  C   UNL A   1      48.344  26.602  29.845  1.00  0.00     0.057 A 
ATOM     62  C   UNL A   1      49.266  26.777  28.801  1.00  0.00     0.134 A 
ATOM     63  C   UNL A   1      48.803  25.971  31.007  1.00  0.00     0.134 A 
ATOM     64  F   UNL A   1      48.890  27.358  27.652  1.00  0.00    -0.206 F 
ATOM     65  C   UNL A   1      50.577  26.307  28.895  1.00  0.00     0.040 A 
ATOM     66  C   UNL A   1      50.120  25.528  31.126  1.00  0.00     0.040 A 
ATOM     67  F   UNL A   1      47.977  25.773  32.047  1.00  0.00    -0.206 F 
ATOM     68  C   UNL A   1      51.009  25.686  30.065  1.00  0.00     0.006 A 
ENDBRANCH  47  61
BRANCH  48  69
ATOM     69  C   UNL A   1      38.706  29.155  29.037  1.00  0.00     0.057 A 
ATOM     70  C   UNL A   1      37.846  29.093  30.141  1.00  0.00     0.134 A 
ATOM     71  C   UNL A   1      38.161  29.584  27.822  1.00  0.00     0.134 A 
ATOM     72  F   UNL A   1      38.304  28.674  31.330  1.00  0.00    -0.206 F 
ATOM     73  C   UNL A   1      36.492  29.416  30.035  1.00  0.00     0.040 A 
ATOM     74  C   UNL A   1      36.814  29.937  27.708  1.00  0.00     0.040 A 
ATOM     75  F   UNL A   1      38.931  29.674  26.728  1.00  0.00    -0.206 F 
ATOM     76  C   UNL A   1      35.974  29.842  28.815  1.00  0.00     0.006 A 
ENDBRANCH  48  69
BRANCH  60  77
ATOM     77  C   UNL A   1      44.451  32.569  30.995  1.00  0.00     0.057 A 
ATOM     78  C   UNL A   1      44.429  32.973  32.336  1.00  0.00     0.134 A 
ATOM     79  C   UNL A   1      44.747  33.541  30.031  1.00  0.00     0.134 A 
ATOM     80  F   UNL A   1      44.142  32.094  33.308  1.00  0.00    -0.206 F 
ATOM     81  C   UNL A   1      44.663  34.300  32.700  1.00  0.00     0.040 A 
ATOM     82  C   UNL A   1      45.016  34.864  30.385  1.00  0.00     0.040 A 
ATOM     83  F   UNL A   1      44.798  33.219  28.729  1.00  0.00    -0.206 F 
ATOM     84  C   UNL A   1      44.965  35.248  31.723  1.00  0.00     0.006 A 
ENDBRANCH  60  77
ENDBRANCH  34  35
ENDBRANCH  26  29
ENDBRANCH  24  25
ENDBRANCH  23  24
ENDBRANCH  22  23
ENDBRANCH   1  22
TORSDOF 15
ENDMDL
