MODEL 1
REMARK VINA RESULT:     -11.4      0.000      0.000
REMARK SMILES CC(C)Cc1ccc([C@H](C)C(=O)NCCCCNC(=O)c2ccc(-c3c4nc(c(-c5c(F)cccc5F)c5ccc([nH]5)c(-c5c(F)cccc5F)c5nc(c(-c6c(F)cccc6F)c6ccc3[nH]6)C=C5)C=C4)cc2)cc1
REMARK SMILES IDX 15 1 14 2 13 3 11 4 12 5 9 7 10 8 8 9 5 10 6 11 76 12 7 13
REMARK SMILES IDX 75 14 4 15 2 16 1 17 3 18 16 19 17 20 18 21 19 22 20 24
REMARK SMILES IDX 21 25 22 26 74 27 23 28 73 29 24 30 25 31 26 32 67 33 27 34
REMARK SMILES IDX 72 35 66 36 68 37 28 38 71 39 65 40 64 41 29 43 55 44 38 45
REMARK SMILES IDX 54 46 39 47 42 48 53 49 69 50 40 51 41 52 52 54 70 55 43 56
REMARK SMILES IDX 30 57 31 58 36 59 32 60 33 61 35 62 37 63 34 64 56 65 57 66
REMARK SMILES IDX 62 67 58 68 59 69 61 70 63 71 60 72 44 73 45 74 50 75 46 76
REMARK SMILES IDX 47 77 49 78 51 79 48 80
REMARK H PARENT 13 6 18 23 68 42 42 53
REMARK Flexibility Score: inf
ROOT
ATOM      1  C   UNL A   1      31.750  29.142  27.431  1.00  0.00     0.023 C 
ENDROOT
BRANCH   1   2
ATOM      2  C   UNL A   1      32.040  27.862  26.655  1.00  0.00     0.116 C 
BRANCH   2   3
ATOM      3  N   UNL A   1      31.019  26.850  26.854  1.00  0.00    -0.356 N 
ATOM      4  C   UNL A   1      30.405  26.037  25.944  1.00  0.00     0.227 C 
ATOM      5  O   UNL A   1      29.621  25.187  26.376  1.00  0.00    -0.274 OA
ATOM      6  H   UNL A   1      30.723  26.732  27.786  1.00  0.00     0.163 HD
BRANCH   4   7
ATOM      7  C   UNL A   1      30.656  26.177  24.433  1.00  0.00     0.105 C 
ATOM      8  C   UNL A   1      30.500  24.808  23.764  1.00  0.00     0.023 C 
BRANCH   7   9
ATOM      9  C   UNL A   1      29.886  27.350  23.837  1.00  0.00    -0.036 A 
ATOM     10  C   UNL A   1      28.502  29.689  23.062  1.00  0.00    -0.048 A 
ATOM     11  C   UNL A   1      29.889  29.712  23.233  1.00  0.00     0.004 A 
ATOM     12  C   UNL A   1      27.828  28.469  23.187  1.00  0.00     0.004 A 
ATOM     13  C   UNL A   1      30.572  28.556  23.613  1.00  0.00     0.005 A 
ATOM     14  C   UNL A   1      28.513  27.309  23.559  1.00  0.00     0.005 A 
BRANCH  10  15
ATOM     15  C   UNL A   1      27.744  30.966  22.787  1.00  0.00     0.038 C 
BRANCH  15  16
ATOM     16  C   UNL A   1      28.570  32.016  22.010  1.00  0.00    -0.013 C 
ATOM     17  C   UNL A   1      27.896  32.431  20.699  1.00  0.00     0.008 C 
ATOM     18  C   UNL A   1      28.801  33.249  22.884  1.00  0.00     0.008 C 
ENDBRANCH  15  16
ENDBRANCH  10  15
ENDBRANCH   7   9
ENDBRANCH   4   7
ENDBRANCH   2   3
ENDBRANCH   1   2
BRANCH   1  19
ATOM     19  C   UNL A   1      31.807  30.422  26.602  1.00  0.00     0.023 C 
BRANCH  19  20
ATOM     20  C   UNL A   1      32.928  31.387  26.975  1.00  0.00     0.116 C 
BRANCH  20  21
ATOM     21  N   UNL A   1      32.450  32.720  27.320  1.00  0.00    -0.352 N 
ATOM     22  C   UNL A   1      33.034  33.664  28.130  1.00  0.00     0.251 C 
ATOM     23  H   UNL A   1      31.590  32.978  26.918  1.00  0.00     0.163 HD
ATOM     24  O   UNL A   1      32.438  34.701  28.411  1.00  0.00    -0.269 OA
BRANCH  22  25
ATOM     25  C   UNL A   1      34.375  33.406  28.694  1.00  0.00     0.039 A 
ATOM     26  C   UNL A   1      34.481  32.713  29.902  1.00  0.00     0.014 A 
ATOM     27  C   UNL A   1      35.522  33.800  28.001  1.00  0.00     0.014 A 
ATOM     28  C   UNL A   1      35.741  32.333  30.370  1.00  0.00     0.010 A 
ATOM     29  C   UNL A   1      36.768  33.357  28.429  1.00  0.00     0.010 A 
ATOM     30  C   UNL A   1      36.889  32.610  29.612  1.00  0.00    -0.014 A 
BRANCH  30  31
ATOM     31  C   UNL A   1      38.229  32.115  30.017  1.00  0.00     0.031 A 
ATOM     32  C   UNL A   1      38.735  30.803  29.488  1.00  0.00     0.074 A 
ATOM     33  C   UNL A   1      38.943  32.793  30.936  1.00  0.00     0.049 A 
ATOM     34  N   UNL A   1      39.808  30.133  29.824  1.00  0.00    -0.248 NA
ATOM     35  C   UNL A   1      37.907  30.141  28.467  1.00  0.00     0.031 C 
ATOM     36  C   UNL A   1      38.542  34.054  31.563  1.00  0.00     0.029 A 
ATOM     37  N   UNL A   1      40.151  32.503  31.520  1.00  0.00    -0.354 N 
ATOM     38  C   UNL A   1      39.770  28.963  29.077  1.00  0.00     0.074 A 
ATOM     39  C   UNL A   1      38.548  28.993  28.302  1.00  0.00     0.031 C 
ATOM     40  C   UNL A   1      39.491  34.434  32.435  1.00  0.00     0.029 A 
ATOM     41  C   UNL A   1      40.546  33.426  32.458  1.00  0.00     0.049 A 
ATOM     42  H   UNL A   1      40.686  31.708  31.289  1.00  0.00     0.167 HD
ATOM     43  C   UNL A   1      40.680  27.961  29.029  1.00  0.00     0.037 A 
ATOM     44  C   UNL A   1      41.628  33.450  33.260  1.00  0.00     0.037 A 
ATOM     45  C   UNL A   1      41.911  27.950  29.773  1.00  0.00     0.049 A 
ATOM     46  C   UNL A   1      42.627  32.330  33.181  1.00  0.00     0.074 A 
ATOM     47  C   UNL A   1      42.931  27.015  29.737  1.00  0.00     0.029 A 
ATOM     48  N   UNL A   1      42.291  28.921  30.685  1.00  0.00    -0.354 N 
ATOM     49  N   UNL A   1      42.610  31.258  32.426  1.00  0.00    -0.248 NA
ATOM     50  C   UNL A   1      43.798  32.421  34.065  1.00  0.00     0.031 C 
ATOM     51  C   UNL A   1      43.912  27.402  30.654  1.00  0.00     0.029 A 
ATOM     52  C   UNL A   1      43.522  28.600  31.232  1.00  0.00     0.049 A 
ATOM     53  H   UNL A   1      41.764  29.722  30.911  1.00  0.00     0.167 HD
ATOM     54  C   UNL A   1      43.774  30.564  32.723  1.00  0.00     0.074 A 
ATOM     55  C   UNL A   1      44.482  31.339  33.721  1.00  0.00     0.031 C 
ATOM     56  C   UNL A   1      44.219  29.389  32.214  1.00  0.00     0.037 A 
BRANCH  43  57
ATOM     57  C   UNL A   1      40.377  26.796  28.136  1.00  0.00     0.057 A 
ATOM     58  C   UNL A   1      40.956  26.669  26.867  1.00  0.00     0.134 A 
ATOM     59  C   UNL A   1      39.522  25.771  28.562  1.00  0.00     0.134 A 
ATOM     60  F   UNL A   1      41.773  27.623  26.395  1.00  0.00    -0.206 F 
ATOM     61  C   UNL A   1      40.678  25.577  26.044  1.00  0.00     0.040 A 
ATOM     62  C   UNL A   1      39.257  24.662  27.759  1.00  0.00     0.040 A 
ATOM     63  F   UNL A   1      38.939  25.828  29.769  1.00  0.00    -0.206 F 
ATOM     64  C   UNL A   1      39.831  24.566  26.492  1.00  0.00     0.006 A 
ENDBRANCH  43  57
BRANCH  44  65
ATOM     65  C   UNL A   1      41.834  34.580  34.199  1.00  0.00     0.057 A 
ATOM     66  C   UNL A   1      41.404  34.499  35.527  1.00  0.00     0.134 A 
ATOM     67  C   UNL A   1      42.454  35.768  33.792  1.00  0.00     0.134 A 
ATOM     68  F   UNL A   1      40.786  33.394  35.969  1.00  0.00    -0.206 F 
ATOM     69  C   UNL A   1      41.566  35.563  36.415  1.00  0.00     0.040 A 
ATOM     70  C   UNL A   1      42.643  36.831  34.676  1.00  0.00     0.040 A 
ATOM     71  F   UNL A   1      42.894  35.906  32.533  1.00  0.00    -0.206 F 
ATOM     72  C   UNL A   1      42.192  36.733  35.990  1.00  0.00     0.006 A 
ENDBRANCH  44  65
BRANCH  56  73
ATOM     73  C   UNL A   1      45.546  28.888  32.698  1.00  0.00     0.057 A 
ATOM     74  C   UNL A   1      45.654  28.013  33.784  1.00  0.00     0.134 A 
ATOM     75  C   UNL A   1      46.726  29.249  32.034  1.00  0.00     0.134 A 
ATOM     76  F   UNL A   1      44.561  27.642  34.469  1.00  0.00    -0.206 F 
ATOM     77  C   UNL A   1      46.891  27.523  34.204  1.00  0.00     0.040 A 
ATOM     78  C   UNL A   1      47.967  28.748  32.431  1.00  0.00     0.040 A 
ATOM     79  F   UNL A   1      46.690  30.079  30.980  1.00  0.00    -0.206 F 
ATOM     80  C   UNL A   1      48.052  27.885  33.521  1.00  0.00     0.006 A 
ENDBRANCH  56  73
ENDBRANCH  30  31
ENDBRANCH  22  25
ENDBRANCH  20  21
ENDBRANCH  19  20
ENDBRANCH   1  19
TORSDOF 14
ENDMDL
MODEL 2
REMARK VINA RESULT:     -11.2      1.838      6.573
REMARK SMILES CC(C)Cc1ccc([C@H](C)C(=O)NCCCCNC(=O)c2ccc(-c3c4nc(c(-c5c(F)cccc5F)c5ccc([nH]5)c(-c5c(F)cccc5F)c5nc(c(-c6c(F)cccc6F)c6ccc3[nH]6)C=C5)C=C4)cc2)cc1
REMARK SMILES IDX 15 1 14 2 13 3 11 4 12 5 9 7 10 8 8 9 5 10 6 11 76 12 7 13
REMARK SMILES IDX 75 14 4 15 2 16 1 17 3 18 16 19 17 20 18 21 19 22 20 24
REMARK SMILES IDX 21 25 22 26 74 27 23 28 73 29 24 30 25 31 26 32 67 33 27 34
REMARK SMILES IDX 72 35 66 36 68 37 28 38 71 39 65 40 64 41 29 43 55 44 38 45
REMARK SMILES IDX 54 46 39 47 42 48 53 49 69 50 40 51 41 52 52 54 70 55 43 56
REMARK SMILES IDX 30 57 31 58 36 59 32 60 33 61 35 62 37 63 34 64 56 65 57 66
REMARK SMILES IDX 62 67 58 68 59 69 61 70 63 71 60 72 44 73 45 74 50 75 46 76
REMARK SMILES IDX 47 77 49 78 51 79 48 80
REMARK H PARENT 13 6 18 23 68 42 42 53
REMARK Flexibility Score: inf
ROOT
ATOM      1  C   UNL A   1      31.686  30.727  26.164  1.00  0.00     0.023 C 
ENDROOT
BRANCH   1   2
ATOM      2  C   UNL A   1      32.652  29.799  26.891  1.00  0.00     0.116 C 
BRANCH   2   3
ATOM      3  N   UNL A   1      32.033  28.545  27.276  1.00  0.00    -0.356 N 
ATOM      4  C   UNL A   1      31.949  27.365  26.592  1.00  0.00     0.227 C 
ATOM      5  O   UNL A   1      31.439  26.404  27.175  1.00  0.00    -0.274 OA
ATOM      6  H   UNL A   1      31.606  28.545  28.164  1.00  0.00     0.163 HD
BRANCH   4   7
ATOM      7  C   UNL A   1      32.449  27.230  25.144  1.00  0.00     0.105 C 
ATOM      8  C   UNL A   1      32.978  25.810  24.921  1.00  0.00     0.023 C 
BRANCH   7   9
ATOM      9  C   UNL A   1      31.438  27.777  24.142  1.00  0.00    -0.036 A 
ATOM     10  C   UNL A   1      29.593  29.112  22.469  1.00  0.00    -0.048 A 
ATOM     11  C   UNL A   1      30.958  29.403  22.391  1.00  0.00     0.004 A 
ATOM     12  C   UNL A   1      29.171  28.083  23.319  1.00  0.00     0.004 A 
ATOM     13  C   UNL A   1      31.868  28.742  23.216  1.00  0.00     0.005 A 
ATOM     14  C   UNL A   1      30.084  27.414  24.139  1.00  0.00     0.005 A 
BRANCH  10  15
ATOM     15  C   UNL A   1      28.592  29.921  21.679  1.00  0.00     0.038 C 
BRANCH  15  16
ATOM     16  C   UNL A   1      28.524  31.404  22.107  1.00  0.00    -0.013 C 
ATOM     17  C   UNL A   1      28.000  32.309  20.988  1.00  0.00     0.008 C 
ATOM     18  C   UNL A   1      27.639  31.550  23.345  1.00  0.00     0.008 C 
ENDBRANCH  15  16
ENDBRANCH  10  15
ENDBRANCH   7   9
ENDBRANCH   4   7
ENDBRANCH   2   3
ENDBRANCH   1   2
BRANCH   1  19
ATOM     19  C   UNL A   1      31.450  32.072  26.847  1.00  0.00     0.023 C 
BRANCH  19  20
ATOM     20  C   UNL A   1      32.713  32.822  27.256  1.00  0.00     0.116 C 
BRANCH  20  21
ATOM     21  N   UNL A   1      32.465  34.209  27.630  1.00  0.00    -0.352 N 
ATOM     22  C   UNL A   1      33.072  34.964  28.604  1.00  0.00     0.251 C 
ATOM     23  H   UNL A   1      31.764  34.667  27.112  1.00  0.00     0.163 HD
ATOM     24  O   UNL A   1      32.660  36.090  28.869  1.00  0.00    -0.269 OA
BRANCH  22  25
ATOM     25  C   UNL A   1      34.204  34.394  29.361  1.00  0.00     0.039 A 
ATOM     26  C   UNL A   1      33.946  33.686  30.539  1.00  0.00     0.014 A 
ATOM     27  C   UNL A   1      35.510  34.512  28.879  1.00  0.00     0.014 A 
ATOM     28  C   UNL A   1      34.989  33.017  31.183  1.00  0.00     0.010 A 
ATOM     29  C   UNL A   1      36.532  33.785  29.479  1.00  0.00     0.010 A 
ATOM     30  C   UNL A   1      36.280  33.022  30.631  1.00  0.00    -0.014 A 
BRANCH  30  31
ATOM     31  C   UNL A   1      37.383  32.223  31.220  1.00  0.00     0.031 A 
ATOM     32  C   UNL A   1      37.908  32.562  32.587  1.00  0.00     0.074 A 
ATOM     33  C   UNL A   1      37.980  31.262  30.487  1.00  0.00     0.049 A 
ATOM     34  N   UNL A   1      38.949  32.080  33.217  1.00  0.00    -0.248 NA
ATOM     35  C   UNL A   1      37.183  33.604  33.331  1.00  0.00     0.031 C 
ATOM     36  C   UNL A   1      37.597  30.869  29.130  1.00  0.00     0.029 A 
ATOM     37  N   UNL A   1      39.052  30.455  30.776  1.00  0.00    -0.354 N 
ATOM     38  C   UNL A   1      39.018  32.777  34.416  1.00  0.00     0.074 A 
ATOM     39  C   UNL A   1      37.941  33.743  34.409  1.00  0.00     0.031 C 
ATOM     40  C   UNL A   1      38.414  29.889  28.708  1.00  0.00     0.029 A 
ATOM     41  C   UNL A   1      39.400  29.613  29.747  1.00  0.00     0.049 A 
ATOM     42  H   UNL A   1      39.526  30.476  31.639  1.00  0.00     0.167 HD
ATOM     43  C   UNL A   1      39.891  32.615  35.439  1.00  0.00     0.037 A 
ATOM     44  C   UNL A   1      40.412  28.730  29.646  1.00  0.00     0.037 A 
ATOM     45  C   UNL A   1      40.939  31.629  35.460  1.00  0.00     0.049 A 
ATOM     46  C   UNL A   1      41.362  28.563  30.799  1.00  0.00     0.074 A 
ATOM     47  C   UNL A   1      41.828  31.339  36.480  1.00  0.00     0.029 A 
ATOM     48  N   UNL A   1      41.236  30.771  34.413  1.00  0.00    -0.354 N 
ATOM     49  N   UNL A   1      41.379  29.186  31.952  1.00  0.00    -0.248 NA
ATOM     50  C   UNL A   1      42.434  27.569  30.637  1.00  0.00     0.031 C 
ATOM     51  C   UNL A   1      42.687  30.329  36.037  1.00  0.00     0.029 A 
ATOM     52  C   UNL A   1      42.307  29.962  34.755  1.00  0.00     0.049 A 
ATOM     53  H   UNL A   1      40.757  30.741  33.553  1.00  0.00     0.167 HD
ATOM     54  C   UNL A   1      42.442  28.643  32.661  1.00  0.00     0.074 A 
ATOM     55  C   UNL A   1      43.041  27.633  31.814  1.00  0.00     0.031 C 
ATOM     56  C   UNL A   1      42.882  28.953  33.906  1.00  0.00     0.037 A 
BRANCH  43  57
ATOM     57  C   UNL A   1      39.743  33.522  36.623  1.00  0.00     0.057 A 
ATOM     58  C   UNL A   1      38.915  33.195  37.704  1.00  0.00     0.134 A 
ATOM     59  C   UNL A   1      40.463  34.722  36.699  1.00  0.00     0.134 A 
ATOM     60  F   UNL A   1      38.189  32.067  37.687  1.00  0.00    -0.206 F 
ATOM     61  C   UNL A   1      38.789  34.040  38.808  1.00  0.00     0.040 A 
ATOM     62  C   UNL A   1      40.365  35.562  37.809  1.00  0.00     0.040 A 
ATOM     63  F   UNL A   1      41.278  35.092  35.700  1.00  0.00    -0.206 F 
ATOM     64  C   UNL A   1      39.521  35.224  38.865  1.00  0.00     0.006 A 
ENDBRANCH  43  57
BRANCH  44  65
ATOM     65  C   UNL A   1      40.574  27.922  28.411  1.00  0.00     0.057 A 
ATOM     66  C   UNL A   1      39.971  26.665  28.290  1.00  0.00     0.134 A 
ATOM     67  C   UNL A   1      41.337  28.380  27.330  1.00  0.00     0.134 A 
ATOM     68  F   UNL A   1      39.244  26.166  29.301  1.00  0.00    -0.206 F 
ATOM     69  C   UNL A   1      40.135  25.882  27.148  1.00  0.00     0.040 A 
ATOM     70  C   UNL A   1      41.491  27.617  26.172  1.00  0.00     0.040 A 
ATOM     71  F   UNL A   1      41.935  29.579  27.383  1.00  0.00    -0.206 F 
ATOM     72  C   UNL A   1      40.895  26.361  26.081  1.00  0.00     0.006 A 
ENDBRANCH  44  65
BRANCH  56  73
ATOM     73  C   UNL A   1      44.042  28.168  34.440  1.00  0.00     0.057 A 
ATOM     74  C   UNL A   1      45.359  28.626  34.322  1.00  0.00     0.134 A 
ATOM     75  C   UNL A   1      43.830  26.965  35.126  1.00  0.00     0.134 A 
ATOM     76  F   UNL A   1      45.628  29.764  33.664  1.00  0.00    -0.206 F 
ATOM     77  C   UNL A   1      46.430  27.906  34.855  1.00  0.00     0.040 A 
ATOM     78  C   UNL A   1      44.890  26.248  35.682  1.00  0.00     0.040 A 
ATOM     79  F   UNL A   1      42.590  26.477  35.279  1.00  0.00    -0.206 F 
ATOM     80  C   UNL A   1      46.195  26.717  35.545  1.00  0.00     0.006 A 
ENDBRANCH  56  73
ENDBRANCH  30  31
ENDBRANCH  22  25
ENDBRANCH  20  21
ENDBRANCH  19  20
ENDBRANCH   1  19
TORSDOF 14
ENDMDL
MODEL 3
REMARK VINA RESULT:     -11.2      4.619      9.590
REMARK SMILES CC(C)Cc1ccc([C@H](C)C(=O)NCCCCNC(=O)c2ccc(-c3c4nc(c(-c5c(F)cccc5F)c5ccc([nH]5)c(-c5c(F)cccc5F)c5nc(c(-c6c(F)cccc6F)c6ccc3[nH]6)C=C5)C=C4)cc2)cc1
REMARK SMILES IDX 15 1 14 2 13 3 11 4 12 5 9 7 10 8 8 9 5 10 6 11 76 12 7 13
REMARK SMILES IDX 75 14 4 15 2 16 1 17 3 18 16 19 17 20 18 21 19 22 20 24
REMARK SMILES IDX 21 25 22 26 74 27 23 28 73 29 24 30 25 31 26 32 67 33 27 34
REMARK SMILES IDX 72 35 66 36 68 37 28 38 71 39 65 40 64 41 29 43 55 44 38 45
REMARK SMILES IDX 54 46 39 47 42 48 53 49 69 50 40 51 41 52 52 54 70 55 43 56
REMARK SMILES IDX 30 57 31 58 36 59 32 60 33 61 35 62 37 63 34 64 56 65 57 66
REMARK SMILES IDX 62 67 58 68 59 69 61 70 63 71 60 72 44 73 45 74 50 75 46 76
REMARK SMILES IDX 47 77 49 78 51 79 48 80
REMARK H PARENT 13 6 18 23 68 42 42 53
REMARK Flexibility Score: inf
ROOT
ATOM      1  C   UNL A   1      36.059  21.193  25.019  1.00  0.00     0.023 C 
ENDROOT
BRANCH   1   2
ATOM      2  C   UNL A   1      35.481  22.603  24.961  1.00  0.00     0.116 C 
BRANCH   2   3
ATOM      3  N   UNL A   1      35.054  22.971  23.624  1.00  0.00    -0.356 N 
ATOM      4  C   UNL A   1      33.800  22.987  23.080  1.00  0.00     0.227 C 
ATOM      5  O   UNL A   1      33.682  23.427  21.933  1.00  0.00    -0.274 OA
ATOM      6  H   UNL A   1      35.776  23.251  23.016  1.00  0.00     0.163 HD
BRANCH   4   7
ATOM      7  C   UNL A   1      32.577  22.459  23.849  1.00  0.00     0.105 C 
ATOM      8  C   UNL A   1      31.330  23.232  23.408  1.00  0.00     0.023 C 
BRANCH   7   9
ATOM      9  C   UNL A   1      32.511  20.937  23.833  1.00  0.00    -0.036 A 
ATOM     10  C   UNL A   1      32.755  18.121  23.857  1.00  0.00    -0.048 A 
ATOM     11  C   UNL A   1      32.893  18.853  25.039  1.00  0.00     0.004 A 
ATOM     12  C   UNL A   1      32.399  18.797  22.684  1.00  0.00     0.004 A 
ATOM     13  C   UNL A   1      32.770  20.243  25.027  1.00  0.00     0.005 A 
ATOM     14  C   UNL A   1      32.267  20.188  22.673  1.00  0.00     0.005 A 
BRANCH  10  15
ATOM     15  C   UNL A   1      33.024  16.636  23.842  1.00  0.00     0.038 C 
BRANCH  15  16
ATOM     16  C   UNL A   1      33.426  16.068  25.221  1.00  0.00    -0.013 C 
ATOM     17  C   UNL A   1      32.687  14.768  25.554  1.00  0.00     0.008 C 
ATOM     18  C   UNL A   1      34.936  15.830  25.268  1.00  0.00     0.008 C 
ENDBRANCH  15  16
ENDBRANCH  10  15
ENDBRANCH   7   9
ENDBRANCH   4   7
ENDBRANCH   2   3
ENDBRANCH   1   2
BRANCH   1  19
ATOM     19  C   UNL A   1      37.516  21.077  24.581  1.00  0.00     0.023 C 
BRANCH  19  20
ATOM     20  C   UNL A   1      38.536  21.065  25.715  1.00  0.00     0.116 C 
BRANCH  20  21
ATOM     21  N   UNL A   1      39.453  19.934  25.653  1.00  0.00    -0.352 N 
ATOM     22  C   UNL A   1      40.785  19.882  25.986  1.00  0.00     0.251 C 
ATOM     23  H   UNL A   1      39.064  19.091  25.327  1.00  0.00     0.163 HD
ATOM     24  O   UNL A   1      41.446  18.871  25.764  1.00  0.00    -0.269 OA
BRANCH  22  25
ATOM     25  C   UNL A   1      41.429  21.070  26.582  1.00  0.00     0.039 A 
ATOM     26  C   UNL A   1      41.993  22.031  25.739  1.00  0.00     0.014 A 
ATOM     27  C   UNL A   1      41.427  21.257  27.966  1.00  0.00     0.014 A 
ATOM     28  C   UNL A   1      42.471  23.226  26.280  1.00  0.00     0.010 A 
ATOM     29  C   UNL A   1      41.835  22.476  28.495  1.00  0.00     0.010 A 
ATOM     30  C   UNL A   1      42.351  23.477  27.656  1.00  0.00    -0.014 A 
BRANCH  30  31
ATOM     31  C   UNL A   1      42.736  24.784  28.247  1.00  0.00     0.031 A 
ATOM     32  C   UNL A   1      41.696  25.847  28.457  1.00  0.00     0.074 A 
ATOM     33  C   UNL A   1      44.033  25.049  28.497  1.00  0.00     0.049 A 
ATOM     34  N   UNL A   1      41.849  27.093  28.827  1.00  0.00    -0.248 NA
ATOM     35  C   UNL A   1      40.301  25.467  28.185  1.00  0.00     0.031 C 
ATOM     36  C   UNL A   1      45.145  24.119  28.291  1.00  0.00     0.029 A 
ATOM     37  N   UNL A   1      44.638  26.190  28.961  1.00  0.00    -0.354 N 
ATOM     38  C   UNL A   1      40.577  27.650  28.806  1.00  0.00     0.074 A 
ATOM     39  C   UNL A   1      39.670  26.620  28.348  1.00  0.00     0.031 C 
ATOM     40  C   UNL A   1      46.294  24.723  28.638  1.00  0.00     0.029 A 
ATOM     41  C   UNL A   1      46.005  26.092  29.050  1.00  0.00     0.049 A 
ATOM     42  H   UNL A   1      44.139  27.003  29.208  1.00  0.00     0.167 HD
ATOM     43  C   UNL A   1      40.197  28.903  29.154  1.00  0.00     0.037 A 
ATOM     44  C   UNL A   1      46.925  27.008  29.409  1.00  0.00     0.037 A 
ATOM     45  C   UNL A   1      41.095  29.914  29.644  1.00  0.00     0.049 A 
ATOM     46  C   UNL A   1      46.477  28.389  29.799  1.00  0.00     0.074 A 
ATOM     47  C   UNL A   1      40.796  31.189  30.091  1.00  0.00     0.029 A 
ATOM     48  N   UNL A   1      42.469  29.764  29.755  1.00  0.00    -0.354 N 
ATOM     49  N   UNL A   1      45.264  28.885  29.834  1.00  0.00    -0.248 NA
ATOM     50  C   UNL A   1      47.525  29.339  30.201  1.00  0.00     0.031 C 
ATOM     51  C   UNL A   1      41.992  31.823  30.438  1.00  0.00     0.029 A 
ATOM     52  C   UNL A   1      43.033  30.929  30.246  1.00  0.00     0.049 A 
ATOM     53  H   UNL A   1      42.969  28.949  29.519  1.00  0.00     0.167 HD
ATOM     54  C   UNL A   1      45.399  30.190  30.285  1.00  0.00     0.074 A 
ATOM     55  C   UNL A   1      46.811  30.409  30.521  1.00  0.00     0.031 C 
ATOM     56  C   UNL A   1      44.439  31.126  30.487  1.00  0.00     0.037 A 
BRANCH  43  57
ATOM     57  C   UNL A   1      38.744  29.245  29.022  1.00  0.00     0.057 A 
ATOM     58  C   UNL A   1      38.183  29.619  27.794  1.00  0.00     0.134 A 
ATOM     59  C   UNL A   1      37.888  29.169  30.128  1.00  0.00     0.134 A 
ATOM     60  F   UNL A   1      38.952  29.724  26.700  1.00  0.00    -0.206 F 
ATOM     61  C   UNL A   1      36.827  29.928  27.676  1.00  0.00     0.040 A 
ATOM     62  C   UNL A   1      36.526  29.450  30.016  1.00  0.00     0.040 A 
ATOM     63  F   UNL A   1      38.360  28.812  31.332  1.00  0.00    -0.206 F 
ATOM     64  C   UNL A   1      35.994  29.837  28.788  1.00  0.00     0.006 A 
ENDBRANCH  43  57
BRANCH  44  65
ATOM     65  C   UNL A   1      48.365  26.648  29.431  1.00  0.00     0.057 A 
ATOM     66  C   UNL A   1      49.187  26.904  28.329  1.00  0.00     0.134 A 
ATOM     67  C   UNL A   1      48.950  26.033  30.545  1.00  0.00     0.134 A 
ATOM     68  F   UNL A   1      48.678  27.474  27.226  1.00  0.00    -0.206 F 
ATOM     69  C   UNL A   1      50.536  26.548  28.323  1.00  0.00     0.040 A 
ATOM     70  C   UNL A   1      50.303  25.691  30.561  1.00  0.00     0.040 A 
ATOM     71  F   UNL A   1      48.216  25.766  31.635  1.00  0.00    -0.206 F 
ATOM     72  C   UNL A   1      51.099  25.942  29.446  1.00  0.00     0.006 A 
ENDBRANCH  44  65
BRANCH  56  73
ATOM     73  C   UNL A   1      44.876  32.456  31.022  1.00  0.00     0.057 A 
ATOM     74  C   UNL A   1      44.988  32.697  32.396  1.00  0.00     0.134 A 
ATOM     75  C   UNL A   1      45.237  33.489  30.148  1.00  0.00     0.134 A 
ATOM     76  F   UNL A   1      44.644  31.752  33.283  1.00  0.00    -0.206 F 
ATOM     77  C   UNL A   1      45.431  33.928  32.884  1.00  0.00     0.040 A 
ATOM     78  C   UNL A   1      45.703  34.716  30.624  1.00  0.00     0.040 A 
ATOM     79  F   UNL A   1      45.159  33.318  28.819  1.00  0.00    -0.206 F 
ATOM     80  C   UNL A   1      45.798  34.938  31.996  1.00  0.00     0.006 A 
ENDBRANCH  56  73
ENDBRANCH  30  31
ENDBRANCH  22  25
ENDBRANCH  20  21
ENDBRANCH  19  20
ENDBRANCH   1  19
TORSDOF 14
ENDMDL
