MODEL 1
REMARK VINA RESULT:     -10.9      0.000      0.000
REMARK SMILES CC(C)(C)N(CC(=O)NCCCCNC(=O)c1ccc(-c2c3nc(c(-c4c(F)cccc4F)c4ccc([nH]4)c(-c4c(F)cccc4F)c4nc(c(-c5c(F)cccc5F)c5ccc2[nH]5)C=C4)C=C3)cc1)C(=O)NC[C@H]1CCOC1
REMARK SMILES IDX 10 1 9 2 7 3 8 4 6 6 5 7 2 8 1 9 3 10 4 11 71 12 72 13 73 14
REMARK SMILES IDX 74 16 75 17 76 18 79 19 77 20 78 21 11 22 12 23 13 24 14 25
REMARK SMILES IDX 15 26 16 28 17 29 18 30 70 31 19 32 69 33 20 34 21 35 22 36
REMARK SMILES IDX 63 37 23 38 68 39 62 40 64 41 24 42 67 43 61 44 60 45 25 47
REMARK SMILES IDX 51 48 34 49 50 50 35 51 38 52 49 53 65 54 36 55 37 56 48 58
REMARK SMILES IDX 66 59 39 60 26 61 27 62 32 63 28 64 29 65 31 66 33 67 30 68
REMARK SMILES IDX 52 69 53 70 58 71 54 72 55 73 57 74 59 75 56 76 40 77 41 78
REMARK SMILES IDX 46 79 42 80 43 81 45 82 47 83 44 84
REMARK H PARENT 9 5 73 15 14 27 64 46 38 57
REMARK Flexibility Score: inf
ROOT
ATOM      1  C   UNL A   1      36.197  22.136  25.808  1.00  0.00     0.116 C 
ENDROOT
BRANCH   1   2
ATOM      2  N   UNL A   1      35.384  22.109  26.997  1.00  0.00    -0.355 N 
ATOM      3  C   UNL A   1      34.238  22.803  27.243  1.00  0.00     0.239 C 
ATOM      4  O   UNL A   1      33.498  22.367  28.131  1.00  0.00    -0.273 OA
ATOM      5  H   UNL A   1      35.693  21.517  27.720  1.00  0.00     0.163 HD
BRANCH   3   6
ATOM      6  C   UNL A   1      33.769  23.964  26.344  1.00  0.00     0.221 C 
BRANCH   6   7
ATOM      7  N   UNL A   1      32.405  23.922  25.793  1.00  0.00    -0.311 N 
BRANCH   7   8
ATOM      8  C   UNL A   1      32.132  23.077  24.546  1.00  0.00     0.037 C 
ATOM      9  C   UNL A   1      33.297  23.045  23.516  1.00  0.00     0.034 C 
ATOM     10  C   UNL A   1      30.902  23.576  23.745  1.00  0.00     0.034 C 
ATOM     11  C   UNL A   1      31.903  21.602  24.951  1.00  0.00     0.034 C 
ENDBRANCH   7   8
BRANCH   7  12
ATOM     12  C   UNL A   1      31.310  24.384  26.493  1.00  0.00     0.318 C 
ATOM     13  O   UNL A   1      30.607  23.641  27.186  1.00  0.00    -0.249 OA
ATOM     14  N   UNL A   1      30.884  25.656  26.512  1.00  0.00    -0.338 N 
ATOM     15  H   UNL A   1      30.008  25.704  26.959  1.00  0.00     0.165 HD
BRANCH  14  16
ATOM     16  C   UNL A   1      31.291  26.994  26.091  1.00  0.00     0.123 C 
BRANCH  16  17
ATOM     17  C   UNL A   1      31.389  27.084  24.570  1.00  0.00     0.036 C 
ATOM     18  C   UNL A   1      30.055  27.276  23.871  1.00  0.00     0.036 C 
ATOM     19  C   UNL A   1      32.164  28.299  24.081  1.00  0.00     0.165 C 
ATOM     20  C   UNL A   1      30.486  27.834  22.533  1.00  0.00     0.160 C 
ATOM     21  O   UNL A   1      31.641  28.641  22.786  1.00  0.00    -0.381 OA
ENDBRANCH  16  17
ENDBRANCH  14  16
ENDBRANCH   7  12
ENDBRANCH   6   7
ENDBRANCH   3   6
ENDBRANCH   1   2
BRANCH   1  22
ATOM     22  C   UNL A   1      36.315  20.777  25.128  1.00  0.00     0.023 C 
BRANCH  22  23
ATOM     23  C   UNL A   1      37.724  20.394  24.681  1.00  0.00     0.023 C 
BRANCH  23  24
ATOM     24  C   UNL A   1      38.807  20.520  25.747  1.00  0.00     0.116 C 
BRANCH  24  25
ATOM     25  N   UNL A   1      39.811  19.465  25.707  1.00  0.00    -0.352 N 
ATOM     26  C   UNL A   1      41.130  19.522  26.091  1.00  0.00     0.251 C 
ATOM     27  H   UNL A   1      39.504  18.597  25.359  1.00  0.00     0.163 HD
ATOM     28  O   UNL A   1      41.863  18.548  25.953  1.00  0.00    -0.269 OA
BRANCH  26  29
ATOM     29  C   UNL A   1      41.670  20.790  26.622  1.00  0.00     0.039 A 
ATOM     30  C   UNL A   1      42.197  21.720  25.724  1.00  0.00     0.014 A 
ATOM     31  C   UNL A   1      41.591  21.083  27.985  1.00  0.00     0.014 A 
ATOM     32  C   UNL A   1      42.563  22.986  26.182  1.00  0.00     0.010 A 
ATOM     33  C   UNL A   1      41.886  22.368  28.427  1.00  0.00     0.010 A 
ATOM     34  C   UNL A   1      42.366  23.335  27.528  1.00  0.00    -0.014 A 
BRANCH  34  35
ATOM     35  C   UNL A   1      42.646  24.705  28.021  1.00  0.00     0.031 A 
ATOM     36  C   UNL A   1      44.044  25.085  28.422  1.00  0.00     0.074 A 
ATOM     37  C   UNL A   1      41.633  25.581  28.177  1.00  0.00     0.049 A 
ATOM     38  N   UNL A   1      44.473  26.191  28.975  1.00  0.00    -0.248 NA
ATOM     39  C   UNL A   1      45.093  24.077  28.198  1.00  0.00     0.031 C 
ATOM     40  C   UNL A   1      40.226  25.317  27.867  1.00  0.00     0.029 A 
ATOM     41  N   UNL A   1      41.632  26.869  28.647  1.00  0.00    -0.354 N 
ATOM     42  C   UNL A   1      45.833  26.005  29.178  1.00  0.00     0.074 A 
ATOM     43  C   UNL A   1      46.151  24.664  28.739  1.00  0.00     0.031 C 
ATOM     44  C   UNL A   1      39.503  26.417  28.133  1.00  0.00     0.029 A 
ATOM     45  C   UNL A   1      40.386  27.449  28.666  1.00  0.00     0.049 A 
ATOM     46  H   UNL A   1      42.447  27.335  28.944  1.00  0.00     0.167 HD
ATOM     47  C   UNL A   1      46.743  26.882  29.664  1.00  0.00     0.037 A 
ATOM     48  C   UNL A   1      40.001  28.673  29.073  1.00  0.00     0.037 A 
ATOM     49  C   UNL A   1      46.436  28.227  30.071  1.00  0.00     0.049 A 
ATOM     50  C   UNL A   1      41.035  29.629  29.602  1.00  0.00     0.074 A 
ATOM     51  C   UNL A   1      47.294  29.202  30.546  1.00  0.00     0.029 A 
ATOM     52  N   UNL A   1      45.168  28.787  30.039  1.00  0.00    -0.354 N 
ATOM     53  N   UNL A   1      42.326  29.453  29.750  1.00  0.00    -0.248 NA
ATOM     54  C   UNL A   1      40.557  30.956  30.017  1.00  0.00     0.031 C 
ATOM     55  C   UNL A   1      46.541  30.350  30.821  1.00  0.00     0.029 A 
ATOM     56  C   UNL A   1      45.221  30.096  30.486  1.00  0.00     0.049 A 
ATOM     57  H   UNL A   1      44.352  28.323  29.743  1.00  0.00     0.167 HD
ATOM     58  C   UNL A   1      42.818  30.655  30.242  1.00  0.00     0.074 A 
ATOM     59  C   UNL A   1      41.690  31.554  30.358  1.00  0.00     0.031 C 
ATOM     60  C   UNL A   1      44.091  30.983  30.570  1.00  0.00     0.037 A 
BRANCH  47  61
ATOM     61  C   UNL A   1      48.166  26.418  29.759  1.00  0.00     0.057 A 
ATOM     62  C   UNL A   1      49.071  26.614  28.707  1.00  0.00     0.134 A 
ATOM     63  C   UNL A   1      48.646  25.803  30.921  1.00  0.00     0.134 A 
ATOM     64  F   UNL A   1      48.668  27.183  27.562  1.00  0.00    -0.206 F 
ATOM     65  C   UNL A   1      50.399  26.197  28.801  1.00  0.00     0.040 A 
ATOM     66  C   UNL A   1      49.979  25.403  31.035  1.00  0.00     0.040 A 
ATOM     67  F   UNL A   1      47.832  25.589  31.965  1.00  0.00    -0.206 F 
ATOM     68  C   UNL A   1      50.858  25.597  29.971  1.00  0.00     0.006 A 
ENDBRANCH  47  61
BRANCH  48  69
ATOM     69  C   UNL A   1      38.579  29.085  28.976  1.00  0.00     0.057 A 
ATOM     70  C   UNL A   1      38.059  29.594  27.779  1.00  0.00     0.134 A 
ATOM     71  C   UNL A   1      37.718  29.015  30.075  1.00  0.00     0.134 A 
ATOM     72  F   UNL A   1      38.844  29.703  26.696  1.00  0.00    -0.206 F 
ATOM     73  C   UNL A   1      36.742  30.045  27.687  1.00  0.00     0.040 A 
ATOM     74  C   UNL A   1      36.391  29.441  29.992  1.00  0.00     0.040 A 
ATOM     75  F   UNL A   1      38.154  28.531  31.248  1.00  0.00    -0.206 F 
ATOM     76  C   UNL A   1      35.903  29.967  28.797  1.00  0.00     0.006 A 
ENDBRANCH  48  69
BRANCH  60  77
ATOM     77  C   UNL A   1      44.336  32.386  31.036  1.00  0.00     0.057 A 
ATOM     78  C   UNL A   1      44.618  33.423  30.140  1.00  0.00     0.134 A 
ATOM     79  C   UNL A   1      44.250  32.706  32.396  1.00  0.00     0.134 A 
ATOM     80  F   UNL A   1      44.726  33.176  28.826  1.00  0.00    -0.206 F 
ATOM     81  C   UNL A   1      44.826  34.730  30.584  1.00  0.00     0.040 A 
ATOM     82  C   UNL A   1      44.435  34.012  32.850  1.00  0.00     0.040 A 
ATOM     83  F   UNL A   1      43.975  31.758  33.304  1.00  0.00    -0.206 F 
ATOM     84  C   UNL A   1      44.730  35.028  31.941  1.00  0.00     0.006 A 
ENDBRANCH  60  77
ENDBRANCH  34  35
ENDBRANCH  26  29
ENDBRANCH  24  25
ENDBRANCH  23  24
ENDBRANCH  22  23
ENDBRANCH   1  22
TORSDOF 16
ENDMDL
MODEL 2
REMARK VINA RESULT:     -10.8      1.458      7.021
REMARK SMILES CC(C)(C)N(CC(=O)NCCCCNC(=O)c1ccc(-c2c3nc(c(-c4c(F)cccc4F)c4ccc([nH]4)c(-c4c(F)cccc4F)c4nc(c(-c5c(F)cccc5F)c5ccc2[nH]5)C=C4)C=C3)cc1)C(=O)NC[C@H]1CCOC1
REMARK SMILES IDX 10 1 9 2 7 3 8 4 6 6 5 7 2 8 1 9 3 10 4 11 71 12 72 13 73 14
REMARK SMILES IDX 74 16 75 17 76 18 79 19 77 20 78 21 11 22 12 23 13 24 14 25
REMARK SMILES IDX 15 26 16 28 17 29 18 30 70 31 19 32 69 33 20 34 21 35 22 36
REMARK SMILES IDX 63 37 23 38 68 39 62 40 64 41 24 42 67 43 61 44 60 45 25 47
REMARK SMILES IDX 51 48 34 49 50 50 35 51 38 52 49 53 65 54 36 55 37 56 48 58
REMARK SMILES IDX 66 59 39 60 26 61 27 62 32 63 28 64 29 65 31 66 33 67 30 68
REMARK SMILES IDX 52 69 53 70 58 71 54 72 55 73 57 74 59 75 56 76 40 77 41 78
REMARK SMILES IDX 46 79 42 80 43 81 45 82 47 83 44 84
REMARK H PARENT 9 5 73 15 14 27 64 46 38 57
REMARK Flexibility Score: inf
ROOT
ATOM      1  C   UNL A   1      36.344  23.184  25.283  1.00  0.00     0.116 C 
ENDROOT
BRANCH   1   2
ATOM      2  N   UNL A   1      35.738  22.732  26.510  1.00  0.00    -0.355 N 
ATOM      3  C   UNL A   1      34.428  22.811  26.874  1.00  0.00     0.239 C 
ATOM      4  O   UNL A   1      34.047  22.043  27.765  1.00  0.00    -0.273 OA
ATOM      5  H   UNL A   1      36.344  22.315  27.164  1.00  0.00     0.163 HD
BRANCH   3   6
ATOM      6  C   UNL A   1      33.407  23.667  26.100  1.00  0.00     0.221 C 
BRANCH   6   7
ATOM      7  N   UNL A   1      32.474  22.994  25.182  1.00  0.00    -0.311 N 
BRANCH   7   8
ATOM      8  C   UNL A   1      32.428  23.431  23.716  1.00  0.00     0.037 C 
ATOM      9  C   UNL A   1      32.531  22.269  22.688  1.00  0.00     0.034 C 
ATOM     10  C   UNL A   1      33.582  24.398  23.347  1.00  0.00     0.034 C 
ATOM     11  C   UNL A   1      31.077  24.124  23.416  1.00  0.00     0.034 C 
ENDBRANCH   7   8
BRANCH   7  12
ATOM     12  C   UNL A   1      31.837  21.815  25.509  1.00  0.00     0.318 C 
ATOM     13  O   UNL A   1      30.657  21.781  25.874  1.00  0.00    -0.249 OA
ATOM     14  N   UNL A   1      32.398  20.597  25.473  1.00  0.00    -0.338 N 
ATOM     15  H   UNL A   1      31.791  19.943  25.889  1.00  0.00     0.165 HD
BRANCH  14  16
ATOM     16  C   UNL A   1      33.608  19.920  25.019  1.00  0.00     0.123 C 
BRANCH  16  17
ATOM     17  C   UNL A   1      33.292  18.518  24.504  1.00  0.00     0.036 C 
ATOM     18  C   UNL A   1      34.518  17.686  24.172  1.00  0.00     0.036 C 
ATOM     19  C   UNL A   1      32.598  17.635  25.530  1.00  0.00     0.165 C 
ATOM     20  C   UNL A   1      33.957  16.282  24.207  1.00  0.00     0.160 C 
ATOM     21  O   UNL A   1      32.954  16.275  25.229  1.00  0.00    -0.381 OA
ENDBRANCH  16  17
ENDBRANCH  14  16
ENDBRANCH   7  12
ENDBRANCH   6   7
ENDBRANCH   3   6
ENDBRANCH   1   2
BRANCH   1  22
ATOM     22  C   UNL A   1      36.686  22.048  24.326  1.00  0.00     0.023 C 
BRANCH  22  23
ATOM     23  C   UNL A   1      37.300  20.812  24.978  1.00  0.00     0.023 C 
BRANCH  23  24
ATOM     24  C   UNL A   1      38.640  21.034  25.670  1.00  0.00     0.116 C 
BRANCH  24  25
ATOM     25  N   UNL A   1      39.547  19.896  25.596  1.00  0.00    -0.352 N 
ATOM     26  C   UNL A   1      40.861  19.819  25.995  1.00  0.00     0.251 C 
ATOM     27  H   UNL A   1      39.170  19.073  25.210  1.00  0.00     0.163 HD
ATOM     28  O   UNL A   1      41.507  18.790  25.822  1.00  0.00    -0.269 OA
BRANCH  26  29
ATOM     29  C   UNL A   1      41.504  21.012  26.583  1.00  0.00     0.039 A 
ATOM     30  C   UNL A   1      42.050  21.969  25.725  1.00  0.00     0.014 A 
ATOM     31  C   UNL A   1      41.504  21.213  27.965  1.00  0.00     0.014 A 
ATOM     32  C   UNL A   1      42.517  23.175  26.249  1.00  0.00     0.010 A 
ATOM     33  C   UNL A   1      41.901  22.444  28.477  1.00  0.00     0.010 A 
ATOM     34  C   UNL A   1      42.402  23.440  27.624  1.00  0.00    -0.014 A 
BRANCH  34  35
ATOM     35  C   UNL A   1      42.791  24.752  28.193  1.00  0.00     0.031 A 
ATOM     36  C   UNL A   1      41.749  25.815  28.405  1.00  0.00     0.074 A 
ATOM     37  C   UNL A   1      44.088  25.013  28.448  1.00  0.00     0.049 A 
ATOM     38  N   UNL A   1      41.902  27.057  28.786  1.00  0.00    -0.248 NA
ATOM     39  C   UNL A   1      40.355  25.440  28.121  1.00  0.00     0.031 C 
ATOM     40  C   UNL A   1      45.200  24.081  28.241  1.00  0.00     0.029 A 
ATOM     41  N   UNL A   1      44.693  26.147  28.927  1.00  0.00    -0.354 N 
ATOM     42  C   UNL A   1      40.630  27.613  28.774  1.00  0.00     0.074 A 
ATOM     43  C   UNL A   1      39.723  26.591  28.298  1.00  0.00     0.031 C 
ATOM     44  C   UNL A   1      46.346  24.673  28.614  1.00  0.00     0.029 A 
ATOM     45  C   UNL A   1      46.058  26.036  29.050  1.00  0.00     0.049 A 
ATOM     46  H   UNL A   1      44.197  26.965  29.161  1.00  0.00     0.167 HD
ATOM     47  C   UNL A   1      40.246  28.856  29.151  1.00  0.00     0.037 A 
ATOM     48  C   UNL A   1      46.971  26.934  29.462  1.00  0.00     0.037 A 
ATOM     49  C   UNL A   1      41.141  29.862  29.655  1.00  0.00     0.049 A 
ATOM     50  C   UNL A   1      46.515  28.305  29.880  1.00  0.00     0.074 A 
ATOM     51  C   UNL A   1      40.844  31.140  30.093  1.00  0.00     0.029 A 
ATOM     52  N   UNL A   1      42.510  29.696  29.798  1.00  0.00    -0.354 N 
ATOM     53  N   UNL A   1      45.302  28.802  29.902  1.00  0.00    -0.248 NA
ATOM     54  C   UNL A   1      47.557  29.238  30.335  1.00  0.00     0.031 C 
ATOM     55  C   UNL A   1      42.038  31.756  30.484  1.00  0.00     0.029 A 
ATOM     56  C   UNL A   1      43.072  30.849  30.318  1.00  0.00     0.049 A 
ATOM     57  H   UNL A   1      43.009  28.880  29.564  1.00  0.00     0.167 HD
ATOM     58  C   UNL A   1      45.430  30.092  30.403  1.00  0.00     0.074 A 
ATOM     59  C   UNL A   1      46.836  30.295  30.682  1.00  0.00     0.031 C 
ATOM     60  C   UNL A   1      44.470  31.024  30.612  1.00  0.00     0.037 A 
BRANCH  47  61
ATOM     61  C   UNL A   1      38.787  29.186  29.051  1.00  0.00     0.057 A 
ATOM     62  C   UNL A   1      38.206  29.572  27.836  1.00  0.00     0.134 A 
ATOM     63  C   UNL A   1      37.949  29.084  30.167  1.00  0.00     0.134 A 
ATOM     64  F   UNL A   1      38.960  29.704  26.734  1.00  0.00    -0.206 F 
ATOM     65  C   UNL A   1      36.845  29.864  27.739  1.00  0.00     0.040 A 
ATOM     66  C   UNL A   1      36.581  29.350  30.076  1.00  0.00     0.040 A 
ATOM     67  F   UNL A   1      38.442  28.717  31.359  1.00  0.00    -0.206 F 
ATOM     68  C   UNL A   1      36.027  29.745  28.860  1.00  0.00     0.006 A 
ENDBRANCH  47  61
BRANCH  48  69
ATOM     69  C   UNL A   1      48.408  26.569  29.529  1.00  0.00     0.057 A 
ATOM     70  C   UNL A   1      48.935  25.932  30.660  1.00  0.00     0.134 A 
ATOM     71  C   UNL A   1      49.293  26.875  28.490  1.00  0.00     0.134 A 
ATOM     72  F   UNL A   1      48.138  25.632  31.696  1.00  0.00    -0.206 F 
ATOM     73  C   UNL A   1      50.294  25.638  30.766  1.00  0.00     0.040 A 
ATOM     74  C   UNL A   1      50.651  26.566  28.574  1.00  0.00     0.040 A 
ATOM     75  F   UNL A   1      48.849  27.479  27.377  1.00  0.00    -0.206 F 
ATOM     76  C   UNL A   1      51.157  25.954  29.719  1.00  0.00     0.006 A 
ENDBRANCH  48  69
BRANCH  60  77
ATOM     77  C   UNL A   1      44.901  32.326  31.215  1.00  0.00     0.057 A 
ATOM     78  C   UNL A   1      44.950  32.518  32.600  1.00  0.00     0.134 A 
ATOM     79  C   UNL A   1      45.308  33.386  30.396  1.00  0.00     0.134 A 
ATOM     80  F   UNL A   1      44.560  31.544  33.437  1.00  0.00    -0.206 F 
ATOM     81  C   UNL A   1      45.370  33.729  33.151  1.00  0.00     0.040 A 
ATOM     82  C   UNL A   1      45.751  34.594  30.935  1.00  0.00     0.040 A 
ATOM     83  F   UNL A   1      45.291  33.261  29.060  1.00  0.00    -0.206 F 
ATOM     84  C   UNL A   1      45.778  34.770  32.318  1.00  0.00     0.006 A 
ENDBRANCH  60  77
ENDBRANCH  34  35
ENDBRANCH  26  29
ENDBRANCH  24  25
ENDBRANCH  23  24
ENDBRANCH  22  23
ENDBRANCH   1  22
TORSDOF 16
ENDMDL
MODEL 3
REMARK VINA RESULT:     -10.8      1.944      3.573
REMARK SMILES CC(C)(C)N(CC(=O)NCCCCNC(=O)c1ccc(-c2c3nc(c(-c4c(F)cccc4F)c4ccc([nH]4)c(-c4c(F)cccc4F)c4nc(c(-c5c(F)cccc5F)c5ccc2[nH]5)C=C4)C=C3)cc1)C(=O)NC[C@H]1CCOC1
REMARK SMILES IDX 10 1 9 2 7 3 8 4 6 6 5 7 2 8 1 9 3 10 4 11 71 12 72 13 73 14
REMARK SMILES IDX 74 16 75 17 76 18 79 19 77 20 78 21 11 22 12 23 13 24 14 25
REMARK SMILES IDX 15 26 16 28 17 29 18 30 70 31 19 32 69 33 20 34 21 35 22 36
REMARK SMILES IDX 63 37 23 38 68 39 62 40 64 41 24 42 67 43 61 44 60 45 25 47
REMARK SMILES IDX 51 48 34 49 50 50 35 51 38 52 49 53 65 54 36 55 37 56 48 58
REMARK SMILES IDX 66 59 39 60 26 61 27 62 32 63 28 64 29 65 31 66 33 67 30 68
REMARK SMILES IDX 52 69 53 70 58 71 54 72 55 73 57 74 59 75 56 76 40 77 41 78
REMARK SMILES IDX 46 79 42 80 43 81 45 82 47 83 44 84
REMARK H PARENT 9 5 73 15 14 27 64 46 38 57
REMARK Flexibility Score: inf
ROOT
ATOM      1  C   UNL A   1      37.184  22.369  25.365  1.00  0.00     0.116 C 
ENDROOT
BRANCH   1   2
ATOM      2  N   UNL A   1      36.318  22.552  26.503  1.00  0.00    -0.355 N 
ATOM      3  C   UNL A   1      35.035  23.010  26.512  1.00  0.00     0.239 C 
ATOM      4  O   UNL A   1      34.350  22.736  27.503  1.00  0.00    -0.273 OA
ATOM      5  H   UNL A   1      36.699  22.318  27.379  1.00  0.00     0.163 HD
BRANCH   3   6
ATOM      6  C   UNL A   1      34.387  23.672  25.280  1.00  0.00     0.221 C 
BRANCH   6   7
ATOM      7  N   UNL A   1      33.128  23.113  24.761  1.00  0.00    -0.311 N 
BRANCH   7   8
ATOM      8  C   UNL A   1      31.807  23.798  25.121  1.00  0.00     0.037 C 
ATOM      9  C   UNL A   1      30.818  23.967  23.934  1.00  0.00     0.034 C 
ATOM     10  C   UNL A   1      32.011  25.229  25.681  1.00  0.00     0.034 C 
ATOM     11  C   UNL A   1      31.046  22.953  26.171  1.00  0.00     0.034 C 
ENDBRANCH   7   8
BRANCH   7  12
ATOM     12  C   UNL A   1      33.096  22.173  23.754  1.00  0.00     0.318 C 
ATOM     13  O   UNL A   1      33.272  22.469  22.567  1.00  0.00    -0.249 OA
ATOM     14  N   UNL A   1      32.881  20.860  23.927  1.00  0.00    -0.338 N 
ATOM     15  H   UNL A   1      32.759  20.427  23.051  1.00  0.00     0.165 HD
BRANCH  14  16
ATOM     16  C   UNL A   1      32.769  19.860  24.985  1.00  0.00     0.123 C 
BRANCH  16  17
ATOM     17  C   UNL A   1      32.997  18.453  24.437  1.00  0.00     0.036 C 
ATOM     18  C   UNL A   1      34.459  18.088  24.251  1.00  0.00     0.036 C 
ATOM     19  C   UNL A   1      32.528  17.351  25.377  1.00  0.00     0.165 C 
ATOM     20  C   UNL A   1      34.397  16.578  24.221  1.00  0.00     0.160 C 
ATOM     21  O   UNL A   1      33.349  16.199  25.119  1.00  0.00    -0.381 OA
ENDBRANCH  16  17
ENDBRANCH  14  16
ENDBRANCH   7  12
ENDBRANCH   6   7
ENDBRANCH   3   6
ENDBRANCH   1   2
BRANCH   1  22
ATOM     22  C   UNL A   1      36.907  21.080  24.599  1.00  0.00     0.023 C 
BRANCH  22  23
ATOM     23  C   UNL A   1      37.772  19.888  25.001  1.00  0.00     0.023 C 
BRANCH  23  24
ATOM     24  C   UNL A   1      39.064  20.232  25.733  1.00  0.00     0.116 C 
BRANCH  24  25
ATOM     25  N   UNL A   1      40.033  19.144  25.780  1.00  0.00    -0.352 N 
ATOM     26  C   UNL A   1      41.372  19.202  26.086  1.00  0.00     0.251 C 
ATOM     27  H   UNL A   1      39.682  18.251  25.564  1.00  0.00     0.163 HD
ATOM     28  O   UNL A   1      42.067  18.192  26.038  1.00  0.00    -0.269 OA
BRANCH  26  29
ATOM     29  C   UNL A   1      41.978  20.507  26.419  1.00  0.00     0.039 A 
ATOM     30  C   UNL A   1      42.362  21.352  25.376  1.00  0.00     0.014 A 
ATOM     31  C   UNL A   1      42.098  20.918  27.749  1.00  0.00     0.014 A 
ATOM     32  C   UNL A   1      42.785  22.649  25.664  1.00  0.00     0.010 A 
ATOM     33  C   UNL A   1      42.449  22.234  28.029  1.00  0.00     0.010 A 
ATOM     34  C   UNL A   1      42.786  23.115  26.989  1.00  0.00    -0.014 A 
BRANCH  34  35
ATOM     35  C   UNL A   1      43.129  24.521  27.314  1.00  0.00     0.031 A 
ATOM     36  C   UNL A   1      44.563  24.971  27.273  1.00  0.00     0.074 A 
ATOM     37  C   UNL A   1      42.163  25.370  27.716  1.00  0.00     0.049 A 
ATOM     38  N   UNL A   1      45.079  26.120  27.625  1.00  0.00    -0.248 NA
ATOM     39  C   UNL A   1      45.551  23.987  26.802  1.00  0.00     0.031 C 
ATOM     40  C   UNL A   1      40.741  25.041  27.841  1.00  0.00     0.029 A 
ATOM     41  N   UNL A   1      42.234  26.683  28.105  1.00  0.00    -0.354 N 
ATOM     42  C   UNL A   1      46.447  25.993  27.433  1.00  0.00     0.074 A 
ATOM     43  C   UNL A   1      46.690  24.639  26.984  1.00  0.00     0.031 C 
ATOM     44  C   UNL A   1      40.072  26.130  28.254  1.00  0.00     0.029 A 
ATOM     45  C   UNL A   1      41.019  27.221  28.458  1.00  0.00     0.049 A 
ATOM     46  H   UNL A   1      43.076  27.193  28.131  1.00  0.00     0.167 HD
ATOM     47  C   UNL A   1      47.414  26.927  27.592  1.00  0.00     0.037 A 
ATOM     48  C   UNL A   1      40.708  28.454  28.901  1.00  0.00     0.037 A 
ATOM     49  C   UNL A   1      47.172  28.282  28.008  1.00  0.00     0.049 A 
ATOM     50  C   UNL A   1      41.803  29.473  29.062  1.00  0.00     0.074 A 
ATOM     51  C   UNL A   1      48.081  29.312  28.166  1.00  0.00     0.029 A 
ATOM     52  N   UNL A   1      45.923  28.797  28.319  1.00  0.00    -0.354 N 
ATOM     53  N   UNL A   1      43.088  29.349  28.837  1.00  0.00    -0.248 NA
ATOM     54  C   UNL A   1      41.400  30.806  29.534  1.00  0.00     0.031 C 
ATOM     55  C   UNL A   1      47.384  30.448  28.594  1.00  0.00     0.029 A 
ATOM     56  C   UNL A   1      46.038  30.131  28.669  1.00  0.00     0.049 A 
ATOM     57  H   UNL A   1      45.079  28.289  28.295  1.00  0.00     0.167 HD
ATOM     58  C   UNL A   1      43.642  30.594  29.107  1.00  0.00     0.074 A 
ATOM     59  C   UNL A   1      42.552  31.460  29.503  1.00  0.00     0.031 C 
ATOM     60  C   UNL A   1      44.937  30.984  29.036  1.00  0.00     0.037 A 
BRANCH  47  61
ATOM     61  C   UNL A   1      48.825  26.517  27.292  1.00  0.00     0.057 A 
ATOM     62  C   UNL A   1      49.656  25.976  28.282  1.00  0.00     0.134 A 
ATOM     63  C   UNL A   1      49.347  26.628  25.998  1.00  0.00     0.134 A 
ATOM     64  F   UNL A   1      49.219  25.858  29.545  1.00  0.00    -0.206 F 
ATOM     65  C   UNL A   1      50.963  25.578  28.000  1.00  0.00     0.040 A 
ATOM     66  C   UNL A   1      50.645  26.211  25.698  1.00  0.00     0.040 A 
ATOM     67  F   UNL A   1      48.602  27.135  25.004  1.00  0.00    -0.206 F 
ATOM     68  C   UNL A   1      51.458  25.689  26.703  1.00  0.00     0.006 A 
ENDBRANCH  47  61
BRANCH  48  69
ATOM     69  C   UNL A   1      39.300  28.812  29.202  1.00  0.00     0.057 A 
ATOM     70  C   UNL A   1      38.495  29.431  28.238  1.00  0.00     0.134 A 
ATOM     71  C   UNL A   1      38.736  28.579  30.461  1.00  0.00     0.134 A 
ATOM     72  F   UNL A   1      38.988  29.697  27.018  1.00  0.00    -0.206 F 
ATOM     73  C   UNL A   1      37.189  29.831  28.523  1.00  0.00     0.040 A 
ATOM     74  C   UNL A   1      37.424  28.954  30.753  1.00  0.00     0.040 A 
ATOM     75  F   UNL A   1      39.454  27.984  31.426  1.00  0.00    -0.206 F 
ATOM     76  C   UNL A   1      36.650  29.590  29.785  1.00  0.00     0.006 A 
ENDBRANCH  48  69
BRANCH  60  77
ATOM     77  C   UNL A   1      45.237  32.419  29.344  1.00  0.00     0.057 A 
ATOM     78  C   UNL A   1      45.186  33.412  28.360  1.00  0.00     0.134 A 
ATOM     79  C   UNL A   1      45.543  32.814  30.652  1.00  0.00     0.134 A 
ATOM     80  F   UNL A   1      44.911  33.093  27.085  1.00  0.00    -0.206 F 
ATOM     81  C   UNL A   1      45.450  34.748  28.662  1.00  0.00     0.040 A 
ATOM     82  C   UNL A   1      45.787  34.150  30.971  1.00  0.00     0.040 A 
ATOM     83  F   UNL A   1      45.600  31.910  31.642  1.00  0.00    -0.206 F 
ATOM     84  C   UNL A   1      45.746  35.121  29.971  1.00  0.00     0.006 A 
ENDBRANCH  60  77
ENDBRANCH  34  35
ENDBRANCH  26  29
ENDBRANCH  24  25
ENDBRANCH  23  24
ENDBRANCH  22  23
ENDBRANCH   1  22
TORSDOF 16
ENDMDL
