MODEL 1
REMARK VINA RESULT:     -10.4      0.000      0.000
REMARK SMILES CCN(CCC#N)C(=O)c1ccncc1/C=C/C(=O)NCCCCNC(=O)c1ccc(-c2c3nc(c(-c4c(F)cccc4F)c4ccc([nH]4)c(-c4c(F)cccc4F)c4nc(c(-c5c(F)cccc5F)c5ccc2[nH]5)C=C4)C=C3)cc1
REMARK SMILES IDX 18 1 19 2 20 3 17 5 16 6 15 7 10 8 11 9 12 10 14 11 13 12
REMARK SMILES IDX 8 13 9 14 3 15 2 16 1 17 4 18 5 19 6 20 7 21 21 22 22 23
REMARK SMILES IDX 23 24 24 25 25 26 26 27 27 29 28 30 29 31 81 32 30 33 80 34
REMARK SMILES IDX 31 35 32 36 33 37 74 38 34 39 79 40 73 41 75 42 35 43 78 44
REMARK SMILES IDX 72 45 71 46 36 48 62 49 45 50 61 51 46 52 49 53 60 54 76 55
REMARK SMILES IDX 47 56 48 57 59 59 77 60 50 61 37 62 38 63 43 64 39 65 40 66
REMARK SMILES IDX 42 67 44 68 41 69 63 70 64 71 69 72 65 73 66 74 68 75 70 76
REMARK SMILES IDX 67 77 51 78 52 79 57 80 53 81 54 82 56 83 58 84 55 85
REMARK H PARENT 20 4 25 28 75 47 49 58
REMARK Flexibility Score: inf
ROOT
ATOM      1  C   UNL A   1      33.512  28.225  24.049  1.00  0.00     0.244 C 
ATOM      2  O   UNL A   1      33.836  28.077  22.875  1.00  0.00    -0.270 OA
ATOM      3  N   UNL A   1      33.569  29.455  24.643  1.00  0.00    -0.353 N 
ATOM      4  H   UNL A   1      33.907  30.193  24.085  1.00  0.00     0.163 HD
ENDROOT
BRANCH   1   5
ATOM      5  C   UNL A   1      33.227  27.051  24.902  1.00  0.00     0.072 C 
ATOM      6  C   UNL A   1      33.510  25.770  24.595  1.00  0.00     0.016 C 
BRANCH   6   7
ATOM      7  C   UNL A   1      32.845  24.738  25.408  1.00  0.00     0.006 A 
ATOM      8  C   UNL A   1      32.787  23.362  25.058  1.00  0.00     0.050 A 
ATOM      9  C   UNL A   1      31.682  22.650  25.524  1.00  0.00     0.034 A 
ATOM     10  C   UNL A   1      30.872  23.211  26.504  1.00  0.00     0.112 A 
ATOM     11  C   UNL A   1      32.005  25.190  26.429  1.00  0.00     0.119 A 
ATOM     12  N   UNL A   1      31.040  24.445  27.004  1.00  0.00    -0.264 NA
BRANCH   8  13
ATOM     13  C   UNL A   1      33.930  22.683  24.311  1.00  0.00     0.254 C 
ATOM     14  O   UNL A   1      34.035  22.902  23.103  1.00  0.00    -0.269 OA
BRANCH  13  15
ATOM     15  N   UNL A   1      34.965  21.907  24.917  1.00  0.00    -0.338 N 
BRANCH  15  16
ATOM     16  C   UNL A   1      35.741  22.596  25.973  1.00  0.00     0.116 C 
ATOM     17  C   UNL A   1      36.572  23.769  25.464  1.00  0.00     0.027 C 
ENDBRANCH  15  16
BRANCH  15  18
ATOM     18  C   UNL A   1      35.092  20.432  24.921  1.00  0.00     0.135 C 
BRANCH  18  19
ATOM     19  C   UNL A   1      33.761  19.668  24.954  1.00  0.00     0.141 C 
BRANCH  19  20
ATOM     20  C   UNL A   1      33.934  18.346  24.226  1.00  0.00     0.064 C 
ATOM     21  N   UNL A   1      34.078  17.248  23.622  1.00  0.00    -0.198 NA
ENDBRANCH  19  20
ENDBRANCH  18  19
ENDBRANCH  15  18
ENDBRANCH  13  15
ENDBRANCH   8  13
ENDBRANCH   6   7
ENDBRANCH   1   5
BRANCH   3  22
ATOM     22  C   UNL A   1      33.191  29.801  25.996  1.00  0.00     0.116 C 
BRANCH  22  23
ATOM     23  C   UNL A   1      31.720  30.136  26.196  1.00  0.00     0.023 C 
BRANCH  23  24
ATOM     24  C   UNL A   1      31.441  31.587  26.557  1.00  0.00     0.023 C 
BRANCH  24  25
ATOM     25  C   UNL A   1      32.650  32.376  27.035  1.00  0.00     0.116 C 
BRANCH  25  26
ATOM     26  N   UNL A   1      32.335  33.713  27.522  1.00  0.00    -0.352 N 
ATOM     27  C   UNL A   1      33.035  34.471  28.431  1.00  0.00     0.251 C 
ATOM     28  H   UNL A   1      31.521  34.124  27.154  1.00  0.00     0.163 HD
ATOM     29  O   UNL A   1      32.604  35.554  28.812  1.00  0.00    -0.269 OA
BRANCH  27  30
ATOM     30  C   UNL A   1      34.302  33.939  28.978  1.00  0.00     0.039 A 
ATOM     31  C   UNL A   1      34.259  33.091  30.087  1.00  0.00     0.014 A 
ATOM     32  C   UNL A   1      35.520  34.230  28.359  1.00  0.00     0.014 A 
ATOM     33  C   UNL A   1      35.434  32.486  30.536  1.00  0.00     0.010 A 
ATOM     34  C   UNL A   1      36.669  33.553  28.745  1.00  0.00     0.010 A 
ATOM     35  C   UNL A   1      36.643  32.687  29.849  1.00  0.00    -0.014 A 
BRANCH  35  36
ATOM     36  C   UNL A   1      37.902  32.042  30.298  1.00  0.00     0.031 A 
ATOM     37  C   UNL A   1      38.720  32.685  31.386  1.00  0.00     0.074 A 
ATOM     38  C   UNL A   1      38.340  30.920  29.694  1.00  0.00     0.049 A 
ATOM     39  N   UNL A   1      39.873  32.315  31.883  1.00  0.00    -0.248 NA
ATOM     40  C   UNL A   1      38.189  33.928  31.969  1.00  0.00     0.031 C 
ATOM     41  C   UNL A   1      37.673  30.235  28.584  1.00  0.00     0.029 A 
ATOM     42  N   UNL A   1      39.458  30.160  29.927  1.00  0.00    -0.354 N 
ATOM     43  C   UNL A   1      40.211  33.289  32.815  1.00  0.00     0.074 A 
ATOM     44  C   UNL A   1      39.175  34.296  32.773  1.00  0.00     0.031 C 
ATOM     45  C   UNL A   1      38.381  29.143  28.252  1.00  0.00     0.029 A 
ATOM     46  C   UNL A   1      39.564  29.064  29.105  1.00  0.00     0.049 A 
ATOM     47  H   UNL A   1      40.123  30.379  30.620  1.00  0.00     0.167 HD
ATOM     48  C   UNL A   1      41.271  33.326  33.655  1.00  0.00     0.037 A 
ATOM     49  C   UNL A   1      40.506  28.105  29.050  1.00  0.00     0.037 A 
ATOM     50  C   UNL A   1      42.277  32.302  33.729  1.00  0.00     0.049 A 
ATOM     51  C   UNL A   1      41.653  28.147  30.023  1.00  0.00     0.074 A 
ATOM     52  C   UNL A   1      43.360  32.215  34.586  1.00  0.00     0.029 A 
ATOM     53  N   UNL A   1      42.316  31.178  32.917  1.00  0.00    -0.354 N 
ATOM     54  N   UNL A   1      41.921  29.036  30.949  1.00  0.00    -0.248 NA
ATOM     55  C   UNL A   1      42.619  27.042  29.956  1.00  0.00     0.031 C 
ATOM     56  C   UNL A   1      44.073  31.053  34.272  1.00  0.00     0.029 A 
ATOM     57  C   UNL A   1      43.408  30.394  33.250  1.00  0.00     0.049 A 
ATOM     58  H   UNL A   1      41.665  30.969  32.209  1.00  0.00     0.167 HD
ATOM     59  C   UNL A   1      43.059  28.577  31.600  1.00  0.00     0.074 A 
ATOM     60  C   UNL A   1      43.425  27.326  30.970  1.00  0.00     0.031 C 
ATOM     61  C   UNL A   1      43.740  29.139  32.629  1.00  0.00     0.037 A 
BRANCH  48  62
ATOM     62  C   UNL A   1      41.385  34.508  34.574  1.00  0.00     0.057 A 
ATOM     63  C   UNL A   1      40.840  34.493  35.865  1.00  0.00     0.134 A 
ATOM     64  C   UNL A   1      42.073  35.660  34.176  1.00  0.00     0.134 A 
ATOM     65  F   UNL A   1      40.156  33.425  36.302  1.00  0.00    -0.206 F 
ATOM     66  C   UNL A   1      40.955  35.592  36.718  1.00  0.00     0.040 A 
ATOM     67  C   UNL A   1      42.218  36.754  35.031  1.00  0.00     0.040 A 
ATOM     68  F   UNL A   1      42.621  35.740  32.955  1.00  0.00    -0.206 F 
ATOM     69  C   UNL A   1      41.652  36.724  36.304  1.00  0.00     0.006 A 
ENDBRANCH  48  62
BRANCH  49  70
ATOM     70  C   UNL A   1      40.391  26.995  28.069  1.00  0.00     0.057 A 
ATOM     71  C   UNL A   1      41.038  27.057  26.829  1.00  0.00     0.134 A 
ATOM     72  C   UNL A   1      39.611  25.863  28.332  1.00  0.00     0.134 A 
ATOM     73  F   UNL A   1      41.786  28.124  26.512  1.00  0.00    -0.206 F 
ATOM     74  C   UNL A   1      40.889  26.051  25.873  1.00  0.00     0.040 A 
ATOM     75  C   UNL A   1      39.474  24.837  27.396  1.00  0.00     0.040 A 
ATOM     76  F   UNL A   1      38.973  25.738  29.505  1.00  0.00    -0.206 F 
ATOM     77  C   UNL A   1      40.107  24.934  26.158  1.00  0.00     0.006 A 
ENDBRANCH  49  70
BRANCH  61  78
ATOM     78  C   UNL A   1      44.906  28.374  33.179  1.00  0.00     0.057 A 
ATOM     79  C   UNL A   1      44.760  27.418  34.191  1.00  0.00     0.134 A 
ATOM     80  C   UNL A   1      46.193  28.580  32.663  1.00  0.00     0.134 A 
ATOM     81  F   UNL A   1      43.556  27.181  34.734  1.00  0.00    -0.206 F 
ATOM     82  C   UNL A   1      45.856  26.713  34.692  1.00  0.00     0.040 A 
ATOM     83  C   UNL A   1      47.292  27.863  33.137  1.00  0.00     0.040 A 
ATOM     84  F   UNL A   1      46.400  29.474  31.685  1.00  0.00    -0.206 F 
ATOM     85  C   UNL A   1      47.126  26.931  34.159  1.00  0.00     0.006 A 
ENDBRANCH  61  78
ENDBRANCH  35  36
ENDBRANCH  27  30
ENDBRANCH  25  26
ENDBRANCH  24  25
ENDBRANCH  23  24
ENDBRANCH  22  23
ENDBRANCH   3  22
TORSDOF 18
ENDMDL
MODEL 2
REMARK VINA RESULT:     -10.3      2.676      3.947
REMARK SMILES CCN(CCC#N)C(=O)c1ccncc1/C=C/C(=O)NCCCCNC(=O)c1ccc(-c2c3nc(c(-c4c(F)cccc4F)c4ccc([nH]4)c(-c4c(F)cccc4F)c4nc(c(-c5c(F)cccc5F)c5ccc2[nH]5)C=C4)C=C3)cc1
REMARK SMILES IDX 18 1 19 2 20 3 17 5 16 6 15 7 10 8 11 9 12 10 14 11 13 12
REMARK SMILES IDX 8 13 9 14 3 15 2 16 1 17 4 18 5 19 6 20 7 21 21 22 22 23
REMARK SMILES IDX 23 24 24 25 25 26 26 27 27 29 28 30 29 31 81 32 30 33 80 34
REMARK SMILES IDX 31 35 32 36 33 37 74 38 34 39 79 40 73 41 75 42 35 43 78 44
REMARK SMILES IDX 72 45 71 46 36 48 62 49 45 50 61 51 46 52 49 53 60 54 76 55
REMARK SMILES IDX 47 56 48 57 59 59 77 60 50 61 37 62 38 63 43 64 39 65 40 66
REMARK SMILES IDX 42 67 44 68 41 69 63 70 64 71 69 72 65 73 66 74 68 75 70 76
REMARK SMILES IDX 67 77 51 78 52 79 57 80 53 81 54 82 56 83 58 84 55 85
REMARK H PARENT 20 4 25 28 75 47 49 58
REMARK Flexibility Score: inf
ROOT
ATOM      1  C   UNL A   1      35.218  29.993  27.724  1.00  0.00     0.244 C 
ATOM      2  O   UNL A   1      36.175  29.246  27.901  1.00  0.00    -0.270 OA
ATOM      3  N   UNL A   1      35.250  31.290  28.156  1.00  0.00    -0.353 N 
ATOM      4  H   UNL A   1      36.064  31.569  28.634  1.00  0.00     0.163 HD
ENDROOT
BRANCH   1   5
ATOM      5  C   UNL A   1      33.940  29.462  27.203  1.00  0.00     0.072 C 
ATOM      6  C   UNL A   1      33.801  28.661  26.129  1.00  0.00     0.016 C 
BRANCH   6   7
ATOM      7  C   UNL A   1      32.442  28.529  25.579  1.00  0.00     0.006 A 
ATOM      8  C   UNL A   1      31.837  27.290  25.236  1.00  0.00     0.050 A 
ATOM      9  C   UNL A   1      30.887  27.324  24.216  1.00  0.00     0.034 A 
ATOM     10  C   UNL A   1      30.381  28.548  23.796  1.00  0.00     0.112 A 
ATOM     11  C   UNL A   1      31.832  29.702  25.126  1.00  0.00     0.119 A 
ATOM     12  N   UNL A   1      30.796  29.736  24.265  1.00  0.00    -0.264 NA
BRANCH   8  13
ATOM     13  C   UNL A   1      32.133  26.017  26.022  1.00  0.00     0.254 C 
ATOM     14  O   UNL A   1      31.531  25.845  27.084  1.00  0.00    -0.269 OA
BRANCH  13  15
ATOM     15  N   UNL A   1      32.964  24.945  25.574  1.00  0.00    -0.338 N 
BRANCH  15  16
ATOM     16  C   UNL A   1      32.310  23.619  25.507  1.00  0.00     0.116 C 
ATOM     17  C   UNL A   1      31.029  23.603  24.679  1.00  0.00     0.027 C 
ENDBRANCH  15  16
BRANCH  15  18
ATOM     18  C   UNL A   1      34.223  25.051  24.803  1.00  0.00     0.135 C 
BRANCH  18  19
ATOM     19  C   UNL A   1      34.233  24.289  23.471  1.00  0.00     0.141 C 
BRANCH  19  20
ATOM     20  C   UNL A   1      33.708  25.203  22.377  1.00  0.00     0.064 C 
ATOM     21  N   UNL A   1      33.273  25.961  21.468  1.00  0.00    -0.198 NA
ENDBRANCH  19  20
ENDBRANCH  18  19
ENDBRANCH  15  18
ENDBRANCH  13  15
ENDBRANCH   8  13
ENDBRANCH   6   7
ENDBRANCH   1   5
BRANCH   3  22
ATOM     22  C   UNL A   1      34.227  32.300  27.993  1.00  0.00     0.116 C 
BRANCH  22  23
ATOM     23  C   UNL A   1      34.318  33.478  28.951  1.00  0.00     0.023 C 
BRANCH  23  24
ATOM     24  C   UNL A   1      33.205  34.503  28.807  1.00  0.00     0.023 C 
BRANCH  24  25
ATOM     25  C   UNL A   1      33.466  35.838  29.488  1.00  0.00     0.116 C 
BRANCH  25  26
ATOM     26  N   UNL A   1      32.525  36.159  30.553  1.00  0.00    -0.352 N 
ATOM     27  C   UNL A   1      32.609  35.832  31.886  1.00  0.00     0.251 C 
ATOM     28  H   UNL A   1      31.730  36.673  30.285  1.00  0.00     0.163 HD
ATOM     29  O   UNL A   1      31.694  36.099  32.659  1.00  0.00    -0.269 OA
BRANCH  27  30
ATOM     30  C   UNL A   1      33.807  35.112  32.370  1.00  0.00     0.039 A 
ATOM     31  C   UNL A   1      33.671  33.800  32.829  1.00  0.00     0.014 A 
ATOM     32  C   UNL A   1      35.067  35.714  32.312  1.00  0.00     0.014 A 
ATOM     33  C   UNL A   1      34.810  33.071  33.171  1.00  0.00     0.010 A 
ATOM     34  C   UNL A   1      36.204  34.956  32.559  1.00  0.00     0.010 A 
ATOM     35  C   UNL A   1      36.088  33.632  33.009  1.00  0.00    -0.014 A 
BRANCH  35  36
ATOM     36  C   UNL A   1      37.315  32.870  33.352  1.00  0.00     0.031 A 
ATOM     37  C   UNL A   1      38.036  33.161  34.641  1.00  0.00     0.074 A 
ATOM     38  C   UNL A   1      37.812  31.964  32.486  1.00  0.00     0.049 A 
ATOM     39  N   UNL A   1      39.149  32.649  35.101  1.00  0.00    -0.248 NA
ATOM     40  C   UNL A   1      37.445  34.189  35.514  1.00  0.00     0.031 C 
ATOM     41  C   UNL A   1      37.244  31.637  31.177  1.00  0.00     0.029 A 
ATOM     42  N   UNL A   1      38.918  31.156  32.579  1.00  0.00    -0.354 N 
ATOM     43  C   UNL A   1      39.400  33.309  36.298  1.00  0.00     0.074 A 
ATOM     44  C   UNL A   1      38.359  34.297  36.466  1.00  0.00     0.031 C 
ATOM     45  C   UNL A   1      37.990  30.679  30.601  1.00  0.00     0.029 A 
ATOM     46  C   UNL A   1      39.101  30.343  31.486  1.00  0.00     0.049 A 
ATOM     47  H   UNL A   1      39.522  31.158  33.356  1.00  0.00     0.167 HD
ATOM     48  C   UNL A   1      40.389  33.089  37.195  1.00  0.00     0.037 A 
ATOM     49  C   UNL A   1      40.056  29.430  31.232  1.00  0.00     0.037 A 
ATOM     50  C   UNL A   1      41.398  32.076  37.050  1.00  0.00     0.049 A 
ATOM     51  C   UNL A   1      41.121  29.176  32.265  1.00  0.00     0.074 A 
ATOM     52  C   UNL A   1      42.410  31.732  37.929  1.00  0.00     0.029 A 
ATOM     53  N   UNL A   1      41.515  31.234  35.955  1.00  0.00    -0.354 N 
ATOM     54  N   UNL A   1      41.303  29.756  33.426  1.00  0.00    -0.248 NA
ATOM     55  C   UNL A   1      42.103  28.125  31.959  1.00  0.00     0.031 C 
ATOM     56  C   UNL A   1      43.159  30.702  37.351  1.00  0.00     0.029 A 
ATOM     57  C   UNL A   1      42.585  30.374  36.133  1.00  0.00     0.049 A 
ATOM     58  H   UNL A   1      40.925  31.246  35.166  1.00  0.00     0.167 HD
ATOM     59  C   UNL A   1      42.391  29.115  34.006  1.00  0.00     0.074 A 
ATOM     60  C   UNL A   1      42.821  28.095  33.073  1.00  0.00     0.031 C 
ATOM     61  C   UNL A   1      42.981  29.347  35.204  1.00  0.00     0.037 A 
BRANCH  48  62
ATOM     62  C   UNL A   1      40.416  33.954  38.422  1.00  0.00     0.057 A 
ATOM     63  C   UNL A   1      41.169  35.135  38.475  1.00  0.00     0.134 A 
ATOM     64  C   UNL A   1      39.658  33.620  39.550  1.00  0.00     0.134 A 
ATOM     65  F   UNL A   1      41.930  35.504  37.433  1.00  0.00    -0.206 F 
ATOM     66  C   UNL A   1      41.187  35.939  39.616  1.00  0.00     0.040 A 
ATOM     67  C   UNL A   1      39.645  34.431  40.686  1.00  0.00     0.040 A 
ATOM     68  F   UNL A   1      38.912  32.505  39.565  1.00  0.00    -0.206 F 
ATOM     69  C   UNL A   1      40.416  35.591  40.723  1.00  0.00     0.006 A 
ENDBRANCH  48  62
BRANCH  49  70
ATOM     70  C   UNL A   1      40.033  28.652  29.967  1.00  0.00     0.057 A 
ATOM     71  C   UNL A   1      40.745  29.083  28.841  1.00  0.00     0.134 A 
ATOM     72  C   UNL A   1      39.278  27.480  29.842  1.00  0.00     0.134 A 
ATOM     73  F   UNL A   1      41.473  30.208  28.894  1.00  0.00    -0.206 F 
ATOM     74  C   UNL A   1      40.683  28.396  27.628  1.00  0.00     0.040 A 
ATOM     75  C   UNL A   1      39.228  26.769  28.642  1.00  0.00     0.040 A 
ATOM     76  F   UNL A   1      38.581  27.008  30.886  1.00  0.00    -0.206 F 
ATOM     77  C   UNL A   1      39.925  27.233  27.527  1.00  0.00     0.006 A 
ENDBRANCH  49  70
BRANCH  61  78
ATOM     78  C   UNL A   1      44.109  28.443  35.601  1.00  0.00     0.057 A 
ATOM     79  C   UNL A   1      43.898  27.262  36.324  1.00  0.00     0.134 A 
ATOM     80  C   UNL A   1      45.424  28.746  35.226  1.00  0.00     0.134 A 
ATOM     81  F   UNL A   1      42.663  26.920  36.722  1.00  0.00    -0.206 F 
ATOM     82  C   UNL A   1      44.958  26.430  36.685  1.00  0.00     0.040 A 
ATOM     83  C   UNL A   1      46.489  27.909  35.558  1.00  0.00     0.040 A 
ATOM     84  F   UNL A   1      45.694  29.857  34.523  1.00  0.00    -0.206 F 
ATOM     85  C   UNL A   1      46.258  26.750  36.296  1.00  0.00     0.006 A 
ENDBRANCH  61  78
ENDBRANCH  35  36
ENDBRANCH  27  30
ENDBRANCH  25  26
ENDBRANCH  24  25
ENDBRANCH  23  24
ENDBRANCH  22  23
ENDBRANCH   3  22
TORSDOF 18
ENDMDL
MODEL 3
REMARK VINA RESULT:     -10.2      0.847      6.348
REMARK SMILES CCN(CCC#N)C(=O)c1ccncc1/C=C/C(=O)NCCCCNC(=O)c1ccc(-c2c3nc(c(-c4c(F)cccc4F)c4ccc([nH]4)c(-c4c(F)cccc4F)c4nc(c(-c5c(F)cccc5F)c5ccc2[nH]5)C=C4)C=C3)cc1
REMARK SMILES IDX 18 1 19 2 20 3 17 5 16 6 15 7 10 8 11 9 12 10 14 11 13 12
REMARK SMILES IDX 8 13 9 14 3 15 2 16 1 17 4 18 5 19 6 20 7 21 21 22 22 23
REMARK SMILES IDX 23 24 24 25 25 26 26 27 27 29 28 30 29 31 81 32 30 33 80 34
REMARK SMILES IDX 31 35 32 36 33 37 74 38 34 39 79 40 73 41 75 42 35 43 78 44
REMARK SMILES IDX 72 45 71 46 36 48 62 49 45 50 61 51 46 52 49 53 60 54 76 55
REMARK SMILES IDX 47 56 48 57 59 59 77 60 50 61 37 62 38 63 43 64 39 65 40 66
REMARK SMILES IDX 42 67 44 68 41 69 63 70 64 71 69 72 65 73 66 74 68 75 70 76
REMARK SMILES IDX 67 77 51 78 52 79 57 80 53 81 54 82 56 83 58 84 55 85
REMARK H PARENT 20 4 25 28 75 47 49 58
REMARK Flexibility Score: inf
ROOT
ATOM      1  C   UNL A   1      33.474  28.218  24.018  1.00  0.00     0.244 C 
ATOM      2  O   UNL A   1      33.994  28.035  22.922  1.00  0.00    -0.270 OA
ATOM      3  N   UNL A   1      33.374  29.475  24.547  1.00  0.00    -0.353 N 
ATOM      4  H   UNL A   1      33.766  30.203  24.014  1.00  0.00     0.163 HD
ENDROOT
BRANCH   1   5
ATOM      5  C   UNL A   1      33.105  27.069  24.873  1.00  0.00     0.072 C 
ATOM      6  C   UNL A   1      33.470  25.789  24.668  1.00  0.00     0.016 C 
BRANCH   6   7
ATOM      7  C   UNL A   1      32.727  24.766  25.423  1.00  0.00     0.006 A 
ATOM      8  C   UNL A   1      32.529  23.432  24.976  1.00  0.00     0.050 A 
ATOM      9  C   UNL A   1      31.371  22.794  25.421  1.00  0.00     0.034 A 
ATOM     10  C   UNL A   1      30.642  23.353  26.462  1.00  0.00     0.112 A 
ATOM     11  C   UNL A   1      31.957  25.217  26.498  1.00  0.00     0.119 A 
ATOM     12  N   UNL A   1      30.938  24.525  27.046  1.00  0.00    -0.264 NA
BRANCH   8  13
ATOM     13  C   UNL A   1      33.585  22.706  24.149  1.00  0.00     0.254 C 
ATOM     14  O   UNL A   1      33.494  22.768  22.921  1.00  0.00    -0.269 OA
BRANCH  13  15
ATOM     15  N   UNL A   1      34.743  22.057  24.676  1.00  0.00    -0.338 N 
BRANCH  15  16
ATOM     16  C   UNL A   1      34.483  20.829  25.459  1.00  0.00     0.116 C 
ATOM     17  C   UNL A   1      33.826  19.711  24.655  1.00  0.00     0.027 C 
ENDBRANCH  15  16
BRANCH  15  18
ATOM     18  C   UNL A   1      36.142  22.210  24.216  1.00  0.00     0.135 C 
BRANCH  18  19
ATOM     19  C   UNL A   1      37.027  23.082  25.116  1.00  0.00     0.141 C 
BRANCH  19  20
ATOM     20  C   UNL A   1      38.199  22.250  25.610  1.00  0.00     0.064 C 
ATOM     21  N   UNL A   1      39.170  21.559  26.021  1.00  0.00    -0.198 NA
ENDBRANCH  19  20
ENDBRANCH  18  19
ENDBRANCH  15  18
ENDBRANCH  13  15
ENDBRANCH   8  13
ENDBRANCH   6   7
ENDBRANCH   1   5
BRANCH   3  22
ATOM     22  C   UNL A   1      32.761  29.859  25.800  1.00  0.00     0.116 C 
BRANCH  22  23
ATOM     23  C   UNL A   1      31.414  30.555  25.679  1.00  0.00     0.023 C 
BRANCH  23  24
ATOM     24  C   UNL A   1      31.239  31.766  26.581  1.00  0.00     0.023 C 
BRANCH  24  25
ATOM     25  C   UNL A   1      32.520  32.524  26.897  1.00  0.00     0.116 C 
BRANCH  25  26
ATOM     26  N   UNL A   1      32.304  33.831  27.505  1.00  0.00    -0.352 N 
ATOM     27  C   UNL A   1      33.073  34.461  28.455  1.00  0.00     0.251 C 
ATOM     28  H   UNL A   1      31.510  34.324  27.196  1.00  0.00     0.163 HD
ATOM     29  O   UNL A   1      32.722  35.532  28.939  1.00  0.00    -0.269 OA
BRANCH  27  30
ATOM     30  C   UNL A   1      34.314  33.805  28.920  1.00  0.00     0.039 A 
ATOM     31  C   UNL A   1      35.534  34.187  28.359  1.00  0.00     0.014 A 
ATOM     32  C   UNL A   1      34.273  32.859  29.947  1.00  0.00     0.014 A 
ATOM     33  C   UNL A   1      36.721  33.664  28.875  1.00  0.00     0.010 A 
ATOM     34  C   UNL A   1      35.457  32.415  30.522  1.00  0.00     0.010 A 
ATOM     35  C   UNL A   1      36.694  32.798  29.981  1.00  0.00    -0.014 A 
BRANCH  35  36
ATOM     36  C   UNL A   1      37.943  32.241  30.557  1.00  0.00     0.031 A 
ATOM     37  C   UNL A   1      38.554  31.004  29.954  1.00  0.00     0.074 A 
ATOM     38  C   UNL A   1      38.496  32.807  31.648  1.00  0.00     0.049 A 
ATOM     39  N   UNL A   1      39.607  30.330  30.337  1.00  0.00    -0.248 NA
ATOM     40  C   UNL A   1      37.869  30.430  28.783  1.00  0.00     0.031 C 
ATOM     41  C   UNL A   1      37.966  33.968  32.366  1.00  0.00     0.029 A 
ATOM     42  N   UNL A   1      39.626  32.471  32.351  1.00  0.00    -0.354 N 
ATOM     43  C   UNL A   1      39.694  29.244  29.473  1.00  0.00     0.074 A 
ATOM     44  C   UNL A   1      38.557  29.316  28.585  1.00  0.00     0.031 C 
ATOM     45  C   UNL A   1      38.784  34.264  33.388  1.00  0.00     0.029 A 
ATOM     46  C   UNL A   1      39.880  33.300  33.417  1.00  0.00     0.049 A 
ATOM     47  H   UNL A   1      40.201  31.709  32.112  1.00  0.00     0.167 HD
ATOM     48  C   UNL A   1      40.653  28.292  29.404  1.00  0.00     0.037 A 
ATOM     49  C   UNL A   1      40.885  33.283  34.312  1.00  0.00     0.037 A 
ATOM     50  C   UNL A   1      41.808  28.247  30.258  1.00  0.00     0.049 A 
ATOM     51  C   UNL A   1      41.961  32.238  34.186  1.00  0.00     0.074 A 
ATOM     52  C   UNL A   1      42.868  27.358  30.232  1.00  0.00     0.029 A 
ATOM     53  N   UNL A   1      42.058  29.139  31.290  1.00  0.00    -0.354 N 
ATOM     54  N   UNL A   1      42.069  31.261  33.319  1.00  0.00    -0.248 NA
ATOM     55  C   UNL A   1      43.065  32.305  35.155  1.00  0.00     0.031 C 
ATOM     56  C   UNL A   1      43.746  27.694  31.267  1.00  0.00     0.029 A 
ATOM     57  C   UNL A   1      43.254  28.819  31.910  1.00  0.00     0.049 A 
ATOM     58  H   UNL A   1      41.472  29.888  31.544  1.00  0.00     0.167 HD
ATOM     59  C   UNL A   1      43.269  30.625  33.609  1.00  0.00     0.074 A 
ATOM     60  C   UNL A   1      43.857  31.332  34.727  1.00  0.00     0.031 C 
ATOM     61  C   UNL A   1      43.836  29.552  33.004  1.00  0.00     0.037 A 
BRANCH  48  62
ATOM     62  C   UNL A   1      40.498  27.229  28.355  1.00  0.00     0.057 A 
ATOM     63  C   UNL A   1      39.680  26.108  28.556  1.00  0.00     0.134 A 
ATOM     64  C   UNL A   1      41.148  27.341  27.120  1.00  0.00     0.134 A 
ATOM     65  F   UNL A   1      39.042  25.933  29.723  1.00  0.00    -0.206 F 
ATOM     66  C   UNL A   1      39.535  25.126  27.575  1.00  0.00     0.040 A 
ATOM     67  C   UNL A   1      40.988  26.380  26.121  1.00  0.00     0.040 A 
ATOM     68  F   UNL A   1      41.943  28.390  26.861  1.00  0.00    -0.206 F 
ATOM     69  C   UNL A   1      40.184  25.265  26.350  1.00  0.00     0.006 A 
ENDBRANCH  48  62
BRANCH  49  70
ATOM     70  C   UNL A   1      40.954  34.310  35.382  1.00  0.00     0.057 A 
ATOM     71  C   UNL A   1      40.364  34.091  36.633  1.00  0.00     0.134 A 
ATOM     72  C   UNL A   1      41.582  35.544  35.174  1.00  0.00     0.134 A 
ATOM     73  F   UNL A   1      39.732  32.935  36.887  1.00  0.00    -0.206 F 
ATOM     74  C   UNL A   1      40.367  35.071  37.627  1.00  0.00     0.040 A 
ATOM     75  C   UNL A   1      41.616  36.523  36.169  1.00  0.00     0.040 A 
ATOM     76  F   UNL A   1      42.175  35.813  34.002  1.00  0.00    -0.206 F 
ATOM     77  C   UNL A   1      40.998  36.291  37.396  1.00  0.00     0.006 A 
ENDBRANCH  49  70
BRANCH  61  78
ATOM     78  C   UNL A   1      45.186  29.121  33.494  1.00  0.00     0.057 A 
ATOM     79  C   UNL A   1      45.340  28.187  34.525  1.00  0.00     0.134 A 
ATOM     80  C   UNL A   1      46.349  29.629  32.901  1.00  0.00     0.134 A 
ATOM     81  F   UNL A   1      44.265  27.670  35.141  1.00  0.00    -0.206 F 
ATOM     82  C   UNL A   1      46.604  27.795  34.970  1.00  0.00     0.040 A 
ATOM     83  C   UNL A   1      47.617  29.225  33.318  1.00  0.00     0.040 A 
ATOM     84  F   UNL A   1      46.271  30.520  31.900  1.00  0.00    -0.206 F 
ATOM     85  C   UNL A   1      47.747  28.310  34.361  1.00  0.00     0.006 A 
ENDBRANCH  61  78
ENDBRANCH  35  36
ENDBRANCH  27  30
ENDBRANCH  25  26
ENDBRANCH  24  25
ENDBRANCH  23  24
ENDBRANCH  22  23
ENDBRANCH   3  22
TORSDOF 18
ENDMDL
