MODEL 1
REMARK VINA RESULT:     -10.6      0.000      0.000
REMARK SMILES C[NH+](C)CCNC(=O)NC1(CC(=O)NCCCCNC(=O)c2ccc(-c3c4nc(c(-c5c(F)cccc5F)c5ccc([nH]5)c(-c5c(F)cccc5F)c5nc(c(-c6c(F)cccc6F)c6ccc3[nH]6)C=C5)C=C4)cc2)CCC1
REMARK SMILES IDX 15 1 14 2 12 3 13 4 11 6 10 7 76 8 78 9 77 10 9 11 6 12 7 13
REMARK SMILES IDX 8 15 5 17 4 18 2 19 1 20 3 21 16 23 17 24 18 25 19 26 20 27
REMARK SMILES IDX 21 29 22 30 23 31 75 32 24 33 74 34 25 35 26 36 27 37 68 38
REMARK SMILES IDX 28 39 73 40 67 41 69 42 29 43 72 44 66 45 65 46 30 48 56 49
REMARK SMILES IDX 39 50 55 51 40 52 43 53 54 54 70 55 41 56 42 57 53 59 71 60
REMARK SMILES IDX 44 61 31 62 32 63 37 64 33 65 34 66 36 67 38 68 35 69 57 70
REMARK SMILES IDX 58 71 63 72 59 73 60 74 62 75 64 76 61 77 45 78 46 79 51 80
REMARK SMILES IDX 47 81 48 82 50 83 52 84 49 85
REMARK H PARENT 14 5 6 14 9 16 2 22 19 28 69 47 43 58
REMARK Flexibility Score: inf
ROOT
ATOM      1  C   UNL A   1      36.080  21.433  25.500  1.00  0.00     0.116 C 
ENDROOT
BRANCH   1   2
ATOM      2  N   UNL A   1      35.192  21.612  26.631  1.00  0.00    -0.356 N 
ATOM      3  C   UNL A   1      33.956  22.167  26.757  1.00  0.00     0.222 C 
ATOM      4  O   UNL A   1      33.327  21.876  27.781  1.00  0.00    -0.275 OA
ATOM      5  H   UNL A   1      35.557  21.263  27.477  1.00  0.00     0.163 HD
BRANCH   3   6
ATOM      6  C   UNL A   1      33.293  22.981  25.679  1.00  0.00     0.128 C 
BRANCH   6   7
ATOM      7  C   UNL A   1      31.982  22.538  25.013  1.00  0.00     0.051 C 
ATOM      8  C   UNL A   1      32.170  21.010  24.561  1.00  0.00     0.029 C 
ATOM      9  C   UNL A   1      31.744  22.774  23.482  1.00  0.00     0.029 C 
ATOM     10  C   UNL A   1      32.556  21.512  23.170  1.00  0.00     0.005 C 
BRANCH   7  11
ATOM     11  N   UNL A   1      30.743  22.573  25.860  1.00  0.00    -0.332 N 
ATOM     12  N   UNL A   1      30.474  24.713  26.830  1.00  0.00    -0.332 N 
ATOM     13  C   UNL A   1      30.268  23.382  26.833  1.00  0.00     0.315 C 
ATOM     14  H   UNL A   1      30.933  25.122  27.600  1.00  0.00     0.165 HD
ATOM     15  O   UNL A   1      29.581  22.881  27.723  1.00  0.00    -0.249 OA
ATOM     16  H   UNL A   1      30.130  21.829  25.658  1.00  0.00     0.165 HD
BRANCH  12  17
ATOM     17  C   UNL A   1      30.048  25.562  25.745  1.00  0.00     0.179 C 
BRANCH  17  18
ATOM     18  C   UNL A   1      31.136  26.222  24.854  1.00  0.00     0.283 C 
BRANCH  18  19
ATOM     19  N   UNL A   1      31.576  27.613  24.875  1.00  0.00    -0.338 N 
ATOM     20  C   UNL A   1      30.968  28.490  23.898  1.00  0.00     0.332 C 
ATOM     21  C   UNL A   1      31.663  28.213  26.198  1.00  0.00     0.332 C 
ATOM     22  H   UNL A   1      32.540  27.518  24.553  1.00  0.00     0.347 HD
ENDBRANCH  18  19
ENDBRANCH  17  18
ENDBRANCH  12  17
ENDBRANCH   7  11
ENDBRANCH   6   7
ENDBRANCH   3   6
ENDBRANCH   1   2
BRANCH   1  23
ATOM     23  C   UNL A   1      36.250  20.001  24.970  1.00  0.00     0.023 C 
BRANCH  23  24
ATOM     24  C   UNL A   1      37.601  19.295  24.911  1.00  0.00     0.023 C 
BRANCH  24  25
ATOM     25  C   UNL A   1      38.824  20.072  25.349  1.00  0.00     0.116 C 
BRANCH  25  26
ATOM     26  N   UNL A   1      39.899  19.163  25.696  1.00  0.00    -0.352 N 
ATOM     27  C   UNL A   1      41.180  19.472  26.088  1.00  0.00     0.251 C 
ATOM     28  H   UNL A   1      39.685  18.204  25.644  1.00  0.00     0.163 HD
ATOM     29  O   UNL A   1      42.060  18.622  26.003  1.00  0.00    -0.269 OA
BRANCH  27  30
ATOM     30  C   UNL A   1      41.504  20.819  26.621  1.00  0.00     0.039 A 
ATOM     31  C   UNL A   1      41.951  21.807  25.739  1.00  0.00     0.014 A 
ATOM     32  C   UNL A   1      41.438  21.091  27.992  1.00  0.00     0.014 A 
ATOM     33  C   UNL A   1      42.314  23.067  26.226  1.00  0.00     0.010 A 
ATOM     34  C   UNL A   1      41.731  22.368  28.468  1.00  0.00     0.010 A 
ATOM     35  C   UNL A   1      42.198  23.360  27.594  1.00  0.00    -0.014 A 
BRANCH  35  36
ATOM     36  C   UNL A   1      42.609  24.681  28.135  1.00  0.00     0.031 A 
ATOM     37  C   UNL A   1      41.581  25.760  28.352  1.00  0.00     0.074 A 
ATOM     38  C   UNL A   1      43.908  24.929  28.390  1.00  0.00     0.049 A 
ATOM     39  N   UNL A   1      41.745  26.991  28.767  1.00  0.00    -0.248 NA
ATOM     40  C   UNL A   1      40.184  25.416  28.038  1.00  0.00     0.031 C 
ATOM     41  C   UNL A   1      45.004  23.982  28.187  1.00  0.00     0.029 A 
ATOM     42  N   UNL A   1      44.526  26.058  28.868  1.00  0.00    -0.354 N 
ATOM     43  C   UNL A   1      40.481  27.568  28.750  1.00  0.00     0.074 A 
ATOM     44  C   UNL A   1      39.568  26.571  28.236  1.00  0.00     0.031 C 
ATOM     45  C   UNL A   1      46.158  24.561  28.555  1.00  0.00     0.029 A 
ATOM     46  C   UNL A   1      45.888  25.930  28.987  1.00  0.00     0.049 A 
ATOM     47  H   UNL A   1      44.039  26.880  29.102  1.00  0.00     0.167 HD
ATOM     48  C   UNL A   1      40.109  28.808  29.149  1.00  0.00     0.037 A 
ATOM     49  C   UNL A   1      46.815  26.819  29.391  1.00  0.00     0.037 A 
ATOM     50  C   UNL A   1      41.016  29.791  29.681  1.00  0.00     0.049 A 
ATOM     51  C   UNL A   1      46.380  28.194  29.817  1.00  0.00     0.074 A 
ATOM     52  C   UNL A   1      40.729  31.055  30.169  1.00  0.00     0.029 A 
ATOM     53  N   UNL A   1      42.387  29.623  29.792  1.00  0.00    -0.354 N 
ATOM     54  N   UNL A   1      45.172  28.704  29.860  1.00  0.00    -0.248 NA
ATOM     55  C   UNL A   1      47.437  29.117  30.255  1.00  0.00     0.031 C 
ATOM     56  C   UNL A   1      41.933  31.666  30.533  1.00  0.00     0.029 A 
ATOM     57  C   UNL A   1      42.964  30.767  30.317  1.00  0.00     0.049 A 
ATOM     58  H   UNL A   1      42.879  28.808  29.535  1.00  0.00     0.167 HD
ATOM     59  C   UNL A   1      45.321  29.994  30.350  1.00  0.00     0.074 A 
ATOM     60  C   UNL A   1      46.734  30.184  30.606  1.00  0.00     0.031 C 
ATOM     61  C   UNL A   1      44.373  30.939  30.567  1.00  0.00     0.037 A 
BRANCH  48  62
ATOM     62  C   UNL A   1      38.657  29.170  29.024  1.00  0.00     0.057 A 
ATOM     63  C   UNL A   1      37.777  29.081  30.111  1.00  0.00     0.134 A 
ATOM     64  C   UNL A   1      38.138  29.642  27.812  1.00  0.00     0.134 A 
ATOM     65  F   UNL A   1      38.206  28.626  31.298  1.00  0.00    -0.206 F 
ATOM     66  C   UNL A   1      36.427  29.419  29.988  1.00  0.00     0.040 A 
ATOM     67  C   UNL A   1      36.797  30.009  27.684  1.00  0.00     0.040 A 
ATOM     68  F   UNL A   1      38.926  29.759  26.732  1.00  0.00    -0.206 F 
ATOM     69  C   UNL A   1      35.935  29.891  28.774  1.00  0.00     0.006 A 
ENDBRANCH  48  62
BRANCH  49  70
ATOM     70  C   UNL A   1      48.248  26.429  29.435  1.00  0.00     0.057 A 
ATOM     71  C   UNL A   1      49.094  26.665  28.345  1.00  0.00     0.134 A 
ATOM     72  C   UNL A   1      48.802  25.808  30.561  1.00  0.00     0.134 A 
ATOM     73  F   UNL A   1      48.615  27.238  27.231  1.00  0.00    -0.206 F 
ATOM     74  C   UNL A   1      50.436  26.284  28.365  1.00  0.00     0.040 A 
ATOM     75  C   UNL A   1      50.150  25.444  30.604  1.00  0.00     0.040 A 
ATOM     76  F   UNL A   1      48.046  25.560  31.640  1.00  0.00    -0.206 F 
ATOM     77  C   UNL A   1      50.968  25.676  29.501  1.00  0.00     0.006 A 
ENDBRANCH  49  70
BRANCH  61  78
ATOM     78  C   UNL A   1      44.830  32.252  31.132  1.00  0.00     0.057 A 
ATOM     79  C   UNL A   1      44.933  32.468  32.512  1.00  0.00     0.134 A 
ATOM     80  C   UNL A   1      45.207  33.300  30.284  1.00  0.00     0.134 A 
ATOM     81  F   UNL A   1      44.575  31.507  33.378  1.00  0.00    -0.206 F 
ATOM     82  C   UNL A   1      45.372  33.687  33.028  1.00  0.00     0.040 A 
ATOM     83  C   UNL A   1      45.673  34.515  30.787  1.00  0.00     0.040 A 
ATOM     84  F   UNL A   1      45.140  33.157  28.950  1.00  0.00    -0.206 F 
ATOM     85  C   UNL A   1      45.750  34.713  32.164  1.00  0.00     0.006 A 
ENDBRANCH  61  78
ENDBRANCH  35  36
ENDBRANCH  27  30
ENDBRANCH  25  26
ENDBRANCH  24  25
ENDBRANCH  23  24
ENDBRANCH   1  23
TORSDOF 16
ENDMDL
MODEL 2
REMARK VINA RESULT:     -10.6      0.957      6.733
REMARK SMILES C[NH+](C)CCNC(=O)NC1(CC(=O)NCCCCNC(=O)c2ccc(-c3c4nc(c(-c5c(F)cccc5F)c5ccc([nH]5)c(-c5c(F)cccc5F)c5nc(c(-c6c(F)cccc6F)c6ccc3[nH]6)C=C5)C=C4)cc2)CCC1
REMARK SMILES IDX 15 1 14 2 12 3 13 4 11 6 10 7 76 8 78 9 77 10 9 11 6 12 7 13
REMARK SMILES IDX 8 15 5 17 4 18 2 19 1 20 3 21 16 23 17 24 18 25 19 26 20 27
REMARK SMILES IDX 21 29 22 30 23 31 75 32 24 33 74 34 25 35 26 36 27 37 68 38
REMARK SMILES IDX 28 39 73 40 67 41 69 42 29 43 72 44 66 45 65 46 30 48 56 49
REMARK SMILES IDX 39 50 55 51 40 52 43 53 54 54 70 55 41 56 42 57 53 59 71 60
REMARK SMILES IDX 44 61 31 62 32 63 37 64 33 65 34 66 36 67 38 68 35 69 57 70
REMARK SMILES IDX 58 71 63 72 59 73 60 74 62 75 64 76 61 77 45 78 46 79 51 80
REMARK SMILES IDX 47 81 48 82 50 83 52 84 49 85
REMARK H PARENT 14 5 6 14 9 16 2 22 19 28 69 47 43 58
REMARK Flexibility Score: inf
ROOT
ATOM      1  C   UNL A   1      36.305  21.492  25.066  1.00  0.00     0.116 C 
ENDROOT
BRANCH   1   2
ATOM      2  N   UNL A   1      35.747  21.947  26.323  1.00  0.00    -0.356 N 
ATOM      3  C   UNL A   1      34.873  22.941  26.640  1.00  0.00     0.222 C 
ATOM      4  O   UNL A   1      34.343  22.869  27.755  1.00  0.00    -0.275 OA
ATOM      5  H   UNL A   1      36.065  21.436  27.103  1.00  0.00     0.163 HD
BRANCH   3   6
ATOM      6  C   UNL A   1      34.437  24.009  25.674  1.00  0.00     0.128 C 
BRANCH   6   7
ATOM      7  C   UNL A   1      33.205  24.888  25.933  1.00  0.00     0.051 C 
ATOM      8  C   UNL A   1      32.567  25.246  24.504  1.00  0.00     0.029 C 
ATOM      9  C   UNL A   1      33.345  26.445  26.059  1.00  0.00     0.029 C 
ATOM     10  C   UNL A   1      33.349  26.559  24.531  1.00  0.00     0.005 C 
BRANCH   7  11
ATOM     11  N   UNL A   1      32.096  24.284  26.744  1.00  0.00    -0.332 N 
ATOM     12  N   UNL A   1      31.064  22.528  25.544  1.00  0.00    -0.332 N 
ATOM     13  C   UNL A   1      31.031  23.497  26.479  1.00  0.00     0.315 C 
ATOM     14  H   UNL A   1      30.415  22.562  24.803  1.00  0.00     0.165 HD
ATOM     15  O   UNL A   1      30.013  23.646  27.155  1.00  0.00    -0.249 OA
ATOM     16  H   UNL A   1      32.162  24.516  27.700  1.00  0.00     0.165 HD
BRANCH  12  17
ATOM     17  C   UNL A   1      32.012  21.441  25.585  1.00  0.00     0.179 C 
BRANCH  17  18
ATOM     18  C   UNL A   1      32.381  20.734  24.253  1.00  0.00     0.283 C 
BRANCH  18  19
ATOM     19  N   UNL A   1      32.844  19.362  24.076  1.00  0.00    -0.338 N 
ATOM     20  C   UNL A   1      32.853  18.532  25.261  1.00  0.00     0.332 C 
ATOM     21  C   UNL A   1      32.310  18.676  22.908  1.00  0.00     0.332 C 
ATOM     22  H   UNL A   1      33.834  19.513  23.875  1.00  0.00     0.347 HD
ENDBRANCH  18  19
ENDBRANCH  17  18
ENDBRANCH  12  17
ENDBRANCH   7  11
ENDBRANCH   6   7
ENDBRANCH   3   6
ENDBRANCH   1   2
BRANCH   1  23
ATOM     23  C   UNL A   1      36.545  19.981  24.920  1.00  0.00     0.023 C 
BRANCH  23  24
ATOM     24  C   UNL A   1      37.940  19.363  24.897  1.00  0.00     0.023 C 
BRANCH  24  25
ATOM     25  C   UNL A   1      39.022  20.029  25.719  1.00  0.00     0.116 C 
BRANCH  25  26
ATOM     26  N   UNL A   1      40.170  19.153  25.844  1.00  0.00    -0.352 N 
ATOM     27  C   UNL A   1      41.488  19.499  26.026  1.00  0.00     0.251 C 
ATOM     28  H   UNL A   1      39.982  18.189  25.791  1.00  0.00     0.163 HD
ATOM     29  O   UNL A   1      42.368  18.688  25.759  1.00  0.00    -0.269 OA
BRANCH  27  30
ATOM     30  C   UNL A   1      41.852  20.840  26.549  1.00  0.00     0.039 A 
ATOM     31  C   UNL A   1      41.672  21.109  27.909  1.00  0.00     0.014 A 
ATOM     32  C   UNL A   1      42.300  21.854  25.695  1.00  0.00     0.014 A 
ATOM     33  C   UNL A   1      41.956  22.381  28.414  1.00  0.00     0.010 A 
ATOM     34  C   UNL A   1      42.650  23.100  26.210  1.00  0.00     0.010 A 
ATOM     35  C   UNL A   1      42.456  23.385  27.569  1.00  0.00    -0.014 A 
BRANCH  35  36
ATOM     36  C   UNL A   1      42.733  24.753  28.080  1.00  0.00     0.031 A 
ATOM     37  C   UNL A   1      44.132  25.139  28.480  1.00  0.00     0.074 A 
ATOM     38  C   UNL A   1      41.724  25.632  28.227  1.00  0.00     0.049 A 
ATOM     39  N   UNL A   1      44.569  26.262  28.993  1.00  0.00    -0.248 NA
ATOM     40  C   UNL A   1      45.177  24.117  28.302  1.00  0.00     0.031 C 
ATOM     41  C   UNL A   1      40.321  25.368  27.912  1.00  0.00     0.029 A 
ATOM     42  N   UNL A   1      41.725  26.926  28.688  1.00  0.00    -0.354 N 
ATOM     43  C   UNL A   1      45.929  26.078  29.209  1.00  0.00     0.074 A 
ATOM     44  C   UNL A   1      46.237  24.719  28.821  1.00  0.00     0.031 C 
ATOM     45  C   UNL A   1      39.598  26.470  28.170  1.00  0.00     0.029 A 
ATOM     46  C   UNL A   1      40.480  27.506  28.701  1.00  0.00     0.049 A 
ATOM     47  H   UNL A   1      42.540  27.392  28.982  1.00  0.00     0.167 HD
ATOM     48  C   UNL A   1      46.843  26.965  29.667  1.00  0.00     0.037 A 
ATOM     49  C   UNL A   1      40.094  28.731  29.103  1.00  0.00     0.037 A 
ATOM     50  C   UNL A   1      46.538  28.324  30.032  1.00  0.00     0.049 A 
ATOM     51  C   UNL A   1      41.126  29.696  29.620  1.00  0.00     0.074 A 
ATOM     52  C   UNL A   1      47.403  29.320  30.450  1.00  0.00     0.029 A 
ATOM     53  N   UNL A   1      45.266  28.876  30.026  1.00  0.00    -0.354 N 
ATOM     54  N   UNL A   1      42.419  29.530  29.755  1.00  0.00    -0.248 NA
ATOM     55  C   UNL A   1      40.643  31.021  30.036  1.00  0.00     0.031 C 
ATOM     56  C   UNL A   1      46.649  30.461  30.740  1.00  0.00     0.029 A 
ATOM     57  C   UNL A   1      45.320  30.192  30.455  1.00  0.00     0.049 A 
ATOM     58  H   UNL A   1      44.446  28.403  29.755  1.00  0.00     0.167 HD
ATOM     59  C   UNL A   1      42.908  30.732  30.249  1.00  0.00     0.074 A 
ATOM     60  C   UNL A   1      41.774  31.625  30.373  1.00  0.00     0.031 C 
ATOM     61  C   UNL A   1      44.181  31.067  30.572  1.00  0.00     0.037 A 
BRANCH  48  62
ATOM     62  C   UNL A   1      48.262  26.493  29.799  1.00  0.00     0.057 A 
ATOM     63  C   UNL A   1      48.718  25.833  30.949  1.00  0.00     0.134 A 
ATOM     64  C   UNL A   1      49.177  26.671  28.754  1.00  0.00     0.134 A 
ATOM     65  F   UNL A   1      47.898  25.639  31.992  1.00  0.00    -0.206 F 
ATOM     66  C   UNL A   1      50.040  25.396  31.065  1.00  0.00     0.040 A 
ATOM     67  C   UNL A   1      50.493  26.215  28.848  1.00  0.00     0.040 A 
ATOM     68  F   UNL A   1      48.806  27.288  27.621  1.00  0.00    -0.206 F 
ATOM     69  C   UNL A   1      50.930  25.581  30.010  1.00  0.00     0.006 A 
ENDBRANCH  48  62
BRANCH  49  70
ATOM     70  C   UNL A   1      38.665  29.126  29.011  1.00  0.00     0.057 A 
ATOM     71  C   UNL A   1      38.112  29.562  27.802  1.00  0.00     0.134 A 
ATOM     72  C   UNL A   1      37.822  29.081  30.129  1.00  0.00     0.134 A 
ATOM     73  F   UNL A   1      38.876  29.645  26.702  1.00  0.00    -0.206 F 
ATOM     74  C   UNL A   1      36.777  29.955  27.708  1.00  0.00     0.040 A 
ATOM     75  C   UNL A   1      36.477  29.448  30.043  1.00  0.00     0.040 A 
ATOM     76  F   UNL A   1      38.289  28.666  31.315  1.00  0.00    -0.206 F 
ATOM     77  C   UNL A   1      35.954  29.893  28.831  1.00  0.00     0.006 A 
ENDBRANCH  49  70
BRANCH  61  78
ATOM     78  C   UNL A   1      44.418  32.464  31.066  1.00  0.00     0.057 A 
ATOM     79  C   UNL A   1      44.674  33.525  30.189  1.00  0.00     0.134 A 
ATOM     80  C   UNL A   1      44.353  32.758  32.434  1.00  0.00     0.134 A 
ATOM     81  F   UNL A   1      44.761  33.309  28.867  1.00  0.00    -0.206 F 
ATOM     82  C   UNL A   1      44.878  34.824  30.655  1.00  0.00     0.040 A 
ATOM     83  C   UNL A   1      44.530  34.057  32.911  1.00  0.00     0.040 A 
ATOM     84  F   UNL A   1      44.103  31.788  33.328  1.00  0.00    -0.206 F 
ATOM     85  C   UNL A   1      44.800  35.094  32.021  1.00  0.00     0.006 A 
ENDBRANCH  61  78
ENDBRANCH  35  36
ENDBRANCH  27  30
ENDBRANCH  25  26
ENDBRANCH  24  25
ENDBRANCH  23  24
ENDBRANCH   1  23
TORSDOF 16
ENDMDL
MODEL 3
REMARK VINA RESULT:     -10.4      2.112      7.667
REMARK SMILES C[NH+](C)CCNC(=O)NC1(CC(=O)NCCCCNC(=O)c2ccc(-c3c4nc(c(-c5c(F)cccc5F)c5ccc([nH]5)c(-c5c(F)cccc5F)c5nc(c(-c6c(F)cccc6F)c6ccc3[nH]6)C=C5)C=C4)cc2)CCC1
REMARK SMILES IDX 15 1 14 2 12 3 13 4 11 6 10 7 76 8 78 9 77 10 9 11 6 12 7 13
REMARK SMILES IDX 8 15 5 17 4 18 2 19 1 20 3 21 16 23 17 24 18 25 19 26 20 27
REMARK SMILES IDX 21 29 22 30 23 31 75 32 24 33 74 34 25 35 26 36 27 37 68 38
REMARK SMILES IDX 28 39 73 40 67 41 69 42 29 43 72 44 66 45 65 46 30 48 56 49
REMARK SMILES IDX 39 50 55 51 40 52 43 53 54 54 70 55 41 56 42 57 53 59 71 60
REMARK SMILES IDX 44 61 31 62 32 63 37 64 33 65 34 66 36 67 38 68 35 69 57 70
REMARK SMILES IDX 58 71 63 72 59 73 60 74 62 75 64 76 61 77 45 78 46 79 51 80
REMARK SMILES IDX 47 81 48 82 50 83 52 84 49 85
REMARK H PARENT 14 5 6 14 9 16 2 22 19 28 69 47 43 58
REMARK Flexibility Score: inf
ROOT
ATOM      1  C   UNL A   1      30.591  26.670  25.640  1.00  0.00     0.116 C 
ENDROOT
BRANCH   1   2
ATOM      2  N   UNL A   1      30.638  25.506  26.501  1.00  0.00    -0.356 N 
ATOM      3  C   UNL A   1      31.250  24.296  26.385  1.00  0.00     0.222 C 
ATOM      4  O   UNL A   1      31.369  23.641  27.427  1.00  0.00    -0.275 OA
ATOM      5  H   UNL A   1      30.124  25.611  27.334  1.00  0.00     0.163 HD
BRANCH   3   6
ATOM      6  C   UNL A   1      31.883  23.799  25.114  1.00  0.00     0.128 C 
BRANCH   6   7
ATOM      7  C   UNL A   1      33.406  23.679  24.955  1.00  0.00     0.051 C 
ATOM      8  C   UNL A   1      34.029  25.133  25.220  1.00  0.00     0.029 C 
ATOM      9  C   UNL A   1      34.078  23.844  23.549  1.00  0.00     0.029 C 
ATOM     10  C   UNL A   1      34.019  25.367  23.710  1.00  0.00     0.005 C 
BRANCH   7  11
ATOM     11  N   UNL A   1      34.116  22.744  25.891  1.00  0.00    -0.332 N 
ATOM     12  N   UNL A   1      33.063  20.627  25.890  1.00  0.00    -0.332 N 
ATOM     13  C   UNL A   1      33.812  21.572  26.490  1.00  0.00     0.315 C 
ATOM     14  H   UNL A   1      32.232  20.332  26.330  1.00  0.00     0.165 HD
ATOM     15  O   UNL A   1      34.284  21.347  27.605  1.00  0.00    -0.249 OA
ATOM     16  H   UNL A   1      35.019  23.061  26.123  1.00  0.00     0.165 HD
BRANCH  12  17
ATOM     17  C   UNL A   1      33.429  20.030  24.629  1.00  0.00     0.179 C 
BRANCH  17  18
ATOM     18  C   UNL A   1      34.243  18.707  24.648  1.00  0.00     0.283 C 
BRANCH  18  19
ATOM     19  N   UNL A   1      33.722  17.344  24.637  1.00  0.00    -0.338 N 
ATOM     20  C   UNL A   1      34.670  16.294  24.941  1.00  0.00     0.332 C 
ATOM     21  C   UNL A   1      32.445  17.167  25.314  1.00  0.00     0.332 C 
ATOM     22  H   UNL A   1      33.526  17.218  23.644  1.00  0.00     0.347 HD
ENDBRANCH  18  19
ENDBRANCH  17  18
ENDBRANCH  12  17
ENDBRANCH   7  11
ENDBRANCH   6   7
ENDBRANCH   3   6
ENDBRANCH   1   2
BRANCH   1  23
ATOM     23  C   UNL A   1      31.666  27.745  25.867  1.00  0.00     0.023 C 
BRANCH  23  24
ATOM     24  C   UNL A   1      32.279  28.026  27.236  1.00  0.00     0.023 C 
BRANCH  24  25
ATOM     25  C   UNL A   1      33.692  28.567  27.281  1.00  0.00     0.116 C 
BRANCH  25  26
ATOM     26  N   UNL A   1      33.680  29.977  27.616  1.00  0.00    -0.352 N 
ATOM     27  C   UNL A   1      34.616  30.690  28.327  1.00  0.00     0.251 C 
ATOM     28  H   UNL A   1      32.904  30.489  27.294  1.00  0.00     0.163 HD
ATOM     29  O   UNL A   1      34.305  31.765  28.827  1.00  0.00    -0.269 OA
BRANCH  27  30
ATOM     30  C   UNL A   1      35.999  30.173  28.487  1.00  0.00     0.039 A 
ATOM     31  C   UNL A   1      36.396  29.671  29.730  1.00  0.00     0.014 A 
ATOM     32  C   UNL A   1      36.925  30.248  27.441  1.00  0.00     0.014 A 
ATOM     33  C   UNL A   1      37.709  29.230  29.919  1.00  0.00     0.010 A 
ATOM     34  C   UNL A   1      38.213  29.742  27.608  1.00  0.00     0.010 A 
ATOM     35  C   UNL A   1      38.626  29.253  28.856  1.00  0.00    -0.014 A 
BRANCH  35  36
ATOM     36  C   UNL A   1      40.034  28.819  29.045  1.00  0.00     0.031 A 
ATOM     37  C   UNL A   1      41.042  29.766  29.642  1.00  0.00     0.074 A 
ATOM     38  C   UNL A   1      40.420  27.593  28.642  1.00  0.00     0.049 A 
ATOM     39  N   UNL A   1      42.324  29.596  29.842  1.00  0.00    -0.248 NA
ATOM     40  C   UNL A   1      40.544  31.092  30.045  1.00  0.00     0.031 C 
ATOM     41  C   UNL A   1      39.551  26.598  28.017  1.00  0.00     0.029 A 
ATOM     42  N   UNL A   1      41.648  26.981  28.692  1.00  0.00    -0.354 N 
ATOM     43  C   UNL A   1      42.786  30.790  30.380  1.00  0.00     0.074 A 
ATOM     44  C   UNL A   1      41.660  31.696  30.426  1.00  0.00     0.031 C 
ATOM     45  C   UNL A   1      40.266  25.491  27.758  1.00  0.00     0.029 A 
ATOM     46  C   UNL A   1      41.651  25.712  28.167  1.00  0.00     0.049 A 
ATOM     47  H   UNL A   1      42.449  27.410  29.068  1.00  0.00     0.167 HD
ATOM     48  C   UNL A   1      44.030  31.099  30.817  1.00  0.00     0.037 A 
ATOM     49  C   UNL A   1      42.658  24.829  28.025  1.00  0.00     0.037 A 
ATOM     50  C   UNL A   1      45.145  30.188  30.790  1.00  0.00     0.049 A 
ATOM     51  C   UNL A   1      44.034  25.199  28.506  1.00  0.00     0.074 A 
ATOM     52  C   UNL A   1      46.431  30.384  31.264  1.00  0.00     0.029 A 
ATOM     53  N   UNL A   1      45.107  28.910  30.256  1.00  0.00    -0.354 N 
ATOM     54  N   UNL A   1      44.441  26.308  29.074  1.00  0.00    -0.248 NA
ATOM     55  C   UNL A   1      45.089  24.192  28.330  1.00  0.00     0.031 C 
ATOM     56  C   UNL A   1      47.182  29.240  30.976  1.00  0.00     0.029 A 
ATOM     57  C   UNL A   1      46.352  28.313  30.366  1.00  0.00     0.049 A 
ATOM     58  H   UNL A   1      44.311  28.488  29.857  1.00  0.00     0.167 HD
ATOM     59  C   UNL A   1      45.791  26.124  29.343  1.00  0.00     0.074 A 
ATOM     60  C   UNL A   1      46.129  24.791  28.893  1.00  0.00     0.031 C 
ATOM     61  C   UNL A   1      46.672  26.984  29.913  1.00  0.00     0.037 A 
BRANCH  48  62
ATOM     62  C   UNL A   1      44.251  32.481  31.363  1.00  0.00     0.057 A 
ATOM     63  C   UNL A   1      44.651  33.544  30.542  1.00  0.00     0.134 A 
ATOM     64  C   UNL A   1      44.032  32.759  32.718  1.00  0.00     0.134 A 
ATOM     65  F   UNL A   1      44.889  33.345  29.237  1.00  0.00    -0.206 F 
ATOM     66  C   UNL A   1      44.854  34.827  31.056  1.00  0.00     0.040 A 
ATOM     67  C   UNL A   1      44.206  34.043  33.237  1.00  0.00     0.040 A 
ATOM     68  F   UNL A   1      43.641  31.789  33.559  1.00  0.00    -0.206 F 
ATOM     69  C   UNL A   1      44.625  35.081  32.406  1.00  0.00     0.006 A 
ENDBRANCH  48  62
BRANCH  49  70
ATOM     70  C   UNL A   1      42.398  23.499  27.418  1.00  0.00     0.057 A 
ATOM     71  C   UNL A   1      42.027  22.405  28.208  1.00  0.00     0.134 A 
ATOM     72  C   UNL A   1      42.519  23.288  26.039  1.00  0.00     0.134 A 
ATOM     73  F   UNL A   1      41.915  22.541  29.538  1.00  0.00    -0.206 F 
ATOM     74  C   UNL A   1      41.801  21.145  27.654  1.00  0.00     0.040 A 
ATOM     75  C   UNL A   1      42.272  22.038  25.467  1.00  0.00     0.040 A 
ATOM     76  F   UNL A   1      42.865  24.297  25.227  1.00  0.00    -0.206 F 
ATOM     77  C   UNL A   1      41.918  20.961  26.277  1.00  0.00     0.006 A 
ENDBRANCH  49  70
BRANCH  61  78
ATOM     78  C   UNL A   1      48.079  26.497  30.101  1.00  0.00     0.057 A 
ATOM     79  C   UNL A   1      49.066  26.696  29.128  1.00  0.00     0.134 A 
ATOM     80  C   UNL A   1      48.459  25.855  31.286  1.00  0.00     0.134 A 
ATOM     81  F   UNL A   1      48.764  27.294  27.965  1.00  0.00    -0.206 F 
ATOM     82  C   UNL A   1      50.376  26.254  29.317  1.00  0.00     0.040 A 
ATOM     83  C   UNL A   1      49.771  25.431  31.498  1.00  0.00     0.040 A 
ATOM     84  F   UNL A   1      47.564  25.640  32.263  1.00  0.00    -0.206 F 
ATOM     85  C   UNL A   1      50.733  25.624  30.509  1.00  0.00     0.006 A 
ENDBRANCH  61  78
ENDBRANCH  35  36
ENDBRANCH  27  30
ENDBRANCH  25  26
ENDBRANCH  24  25
ENDBRANCH  23  24
ENDBRANCH   1  23
TORSDOF 16
ENDMDL
