MODEL 1
REMARK VINA RESULT:     -12.1      0.000      0.000
REMARK SMILES O=C(NCCCCNC(=O)c1ccc(NC(=O)c2ccc([N+](=O)[O-])cc2Cl)cc1Cl)c1ccc(-c2c3nc(c(-c4c(F)cccc4F)c4ccc([nH]4)c(-c4c(F)cccc4F)c4nc(c(-c5c(F)cccc5F)c5ccc2[nH]5)C=C4)C=C3)cc1
REMARK SMILES IDX 6 1 5 2 4 3 3 4 1 5 2 6 31 8 32 9 84 10 33 11 83 12 34 13
REMARK SMILES IDX 35 14 36 15 77 16 37 17 82 18 76 19 78 20 38 21 81 22 75 23
REMARK SMILES IDX 74 24 39 26 65 27 48 28 64 29 49 30 52 31 63 32 79 33 50 34
REMARK SMILES IDX 51 35 62 37 80 38 53 39 40 40 41 41 46 42 42 43 43 44 45 45
REMARK SMILES IDX 47 46 44 47 66 48 67 49 72 50 68 51 69 52 71 53 73 54 70 55
REMARK SMILES IDX 54 56 55 57 60 58 56 59 57 60 59 61 61 62 58 63 7 64 8 65
REMARK SMILES IDX 9 66 10 68 11 69 12 70 29 71 13 72 28 73 30 74 14 75 15 76
REMARK SMILES IDX 16 77 17 79 18 80 19 81 26 82 20 83 25 84 27 85 21 86 22 87
REMARK SMILES IDX 23 88 24 89
REMARK H PARENT 3 7 78 25 52 36 8 67 15 78
REMARK Flexibility Score: inf
ROOT
ATOM      1  C   UNL A   1      35.170  21.836  26.868  1.00  0.00     0.023 C 
ENDROOT
BRANCH   1   2
ATOM      2  C   UNL A   1      35.286  23.270  26.355  1.00  0.00     0.023 C 
BRANCH   2   3
ATOM      3  C   UNL A   1      36.631  23.651  25.748  1.00  0.00     0.116 C 
BRANCH   3   4
ATOM      4  N   UNL A   1      37.642  22.618  25.905  1.00  0.00    -0.352 N 
ATOM      5  O   UNL A   1      39.691  21.753  26.282  1.00  0.00    -0.269 OA
ATOM      6  C   UNL A   1      38.944  22.726  26.333  1.00  0.00     0.251 C 
ATOM      7  H   UNL A   1      37.351  21.707  25.670  1.00  0.00     0.163 HD
BRANCH   6   8
ATOM      8  C   UNL A   1      39.458  24.022  26.826  1.00  0.00     0.039 A 
ATOM      9  C   UNL A   1      39.341  24.377  28.173  1.00  0.00     0.014 A 
ATOM     10  C   UNL A   1      40.078  24.891  25.924  1.00  0.00     0.014 A 
ATOM     11  C   UNL A   1      39.709  25.653  28.587  1.00  0.00     0.010 A 
ATOM     12  C   UNL A   1      40.523  26.142  26.359  1.00  0.00     0.010 A 
ATOM     13  C   UNL A   1      40.314  26.545  27.687  1.00  0.00    -0.014 A 
BRANCH  13  14
ATOM     14  C   UNL A   1      40.780  27.870  28.166  1.00  0.00     0.031 A 
ATOM     15  C   UNL A   1      42.241  28.219  28.192  1.00  0.00     0.074 A 
ATOM     16  C   UNL A   1      39.865  28.763  28.590  1.00  0.00     0.049 A 
ATOM     17  N   UNL A   1      42.817  29.319  28.605  1.00  0.00    -0.248 NA
ATOM     18  C   UNL A   1      43.177  27.198  27.699  1.00  0.00     0.031 C 
ATOM     19  C   UNL A   1      38.420  28.529  28.630  1.00  0.00     0.029 A 
ATOM     20  N   UNL A   1      40.011  30.039  29.066  1.00  0.00    -0.354 N 
ATOM     21  C   UNL A   1      44.182  29.118  28.445  1.00  0.00     0.074 A 
ATOM     22  C   UNL A   1      44.350  27.780  27.916  1.00  0.00     0.031 C 
ATOM     23  C   UNL A   1      37.810  29.631  29.089  1.00  0.00     0.029 A 
ATOM     24  C   UNL A   1      38.823  30.626  29.426  1.00  0.00     0.049 A 
ATOM     25  H   UNL A   1      40.882  30.491  29.143  1.00  0.00     0.167 HD
ATOM     26  C   UNL A   1      45.199  29.974  28.709  1.00  0.00     0.037 A 
ATOM     27  C   UNL A   1      38.573  31.820  29.992  1.00  0.00     0.037 A 
ATOM     28  C   UNL A   1      45.024  31.309  29.221  1.00  0.00     0.049 A 
ATOM     29  C   UNL A   1      39.716  32.743  30.291  1.00  0.00     0.074 A 
ATOM     30  C   UNL A   1      45.987  32.273  29.465  1.00  0.00     0.029 A 
ATOM     31  N   UNL A   1      43.804  31.865  29.580  1.00  0.00    -0.354 N 
ATOM     32  N   UNL A   1      40.996  32.560  30.084  1.00  0.00    -0.248 NA
ATOM     33  C   UNL A   1      39.381  34.037  30.899  1.00  0.00     0.031 C 
ATOM     34  C   UNL A   1      45.356  33.394  30.016  1.00  0.00     0.029 A 
ATOM     35  C   UNL A   1      43.994  33.147  30.071  1.00  0.00     0.049 A 
ATOM     36  H   UNL A   1      42.933  31.415  29.496  1.00  0.00     0.167 HD
ATOM     37  C   UNL A   1      41.622  33.716  30.528  1.00  0.00     0.074 A 
ATOM     38  C   UNL A   1      40.577  34.603  30.997  1.00  0.00     0.031 C 
ATOM     39  C   UNL A   1      42.944  34.014  30.543  1.00  0.00     0.037 A 
BRANCH  26  40
ATOM     40  C   UNL A   1      46.598  29.482  28.470  1.00  0.00     0.057 A 
ATOM     41  C   UNL A   1      47.248  29.653  27.241  1.00  0.00     0.134 A 
ATOM     42  C   UNL A   1      47.318  28.858  29.498  1.00  0.00     0.134 A 
ATOM     43  F   UNL A   1      46.613  30.235  26.212  1.00  0.00    -0.206 F 
ATOM     44  C   UNL A   1      48.551  29.196  27.034  1.00  0.00     0.040 A 
ATOM     45  C   UNL A   1      48.629  28.418  29.310  1.00  0.00     0.040 A 
ATOM     46  F   UNL A   1      46.759  28.670  30.703  1.00  0.00    -0.206 F 
ATOM     47  C   UNL A   1      49.248  28.580  28.073  1.00  0.00     0.006 A 
ENDBRANCH  26  40
BRANCH  27  48
ATOM     48  C   UNL A   1      37.175  32.186  30.321  1.00  0.00     0.057 A 
ATOM     49  C   UNL A   1      36.632  31.924  31.583  1.00  0.00     0.134 A 
ATOM     50  C   UNL A   1      36.366  32.856  29.394  1.00  0.00     0.134 A 
ATOM     51  F   UNL A   1      37.354  31.275  32.507  1.00  0.00    -0.206 F 
ATOM     52  C   UNL A   1      35.333  32.313  31.912  1.00  0.00     0.040 A 
ATOM     53  C   UNL A   1      35.075  33.273  29.716  1.00  0.00     0.040 A 
ATOM     54  F   UNL A   1      36.836  33.145  28.171  1.00  0.00    -0.206 F 
ATOM     55  C   UNL A   1      34.553  32.999  30.979  1.00  0.00     0.006 A 
ENDBRANCH  27  48
BRANCH  39  56
ATOM     56  C   UNL A   1      43.333  35.362  31.074  1.00  0.00     0.057 A 
ATOM     57  C   UNL A   1      43.526  35.587  32.442  1.00  0.00     0.134 A 
ATOM     58  C   UNL A   1      43.554  36.436  30.202  1.00  0.00     0.134 A 
ATOM     59  F   UNL A   1      43.315  34.603  33.329  1.00  0.00    -0.206 F 
ATOM     60  C   UNL A   1      43.912  36.837  32.928  1.00  0.00     0.040 A 
ATOM     61  C   UNL A   1      43.961  37.684  30.673  1.00  0.00     0.040 A 
ATOM     62  F   UNL A   1      43.389  36.284  28.880  1.00  0.00    -0.206 F 
ATOM     63  C   UNL A   1      44.138  37.888  32.041  1.00  0.00     0.006 A 
ENDBRANCH  39  56
ENDBRANCH  13  14
ENDBRANCH   6   8
ENDBRANCH   3   4
ENDBRANCH   2   3
ENDBRANCH   1   2
BRANCH   1  64
ATOM     64  C   UNL A   1      33.790  21.414  27.361  1.00  0.00     0.116 C 
BRANCH  64  65
ATOM     65  N   UNL A   1      33.192  20.334  26.595  1.00  0.00    -0.352 N 
ATOM     66  C   UNL A   1      32.617  20.368  25.348  1.00  0.00     0.252 C 
ATOM     67  H   UNL A   1      33.200  19.452  27.032  1.00  0.00     0.163 HD
ATOM     68  O   UNL A   1      32.177  19.342  24.839  1.00  0.00    -0.269 OA
BRANCH  66  69
ATOM     69  C   UNL A   1      32.407  21.659  24.667  1.00  0.00     0.058 A 
ATOM     70  C   UNL A   1      33.300  21.964  23.639  1.00  0.00     0.017 A 
ATOM     71  C   UNL A   1      31.386  22.557  24.975  1.00  0.00     0.055 A 
ATOM     72  C   UNL A   1      33.092  23.091  22.843  1.00  0.00     0.027 A 
ATOM     73  C   UNL A   1      31.147  23.648  24.129  1.00  0.00     0.047 A 
ATOM     74  Cl  UNL A   1      30.394  22.396  26.379  1.00  0.00    -0.083 Cl
ATOM     75  C   UNL A   1      31.957  23.883  23.010  1.00  0.00     0.043 A 
BRANCH  75  76
ATOM     76  N   UNL A   1      31.542  24.901  22.126  1.00  0.00    -0.322 N 
ATOM     77  C   UNL A   1      31.550  26.278  22.204  1.00  0.00     0.257 C 
ATOM     78  H   UNL A   1      31.171  24.559  21.281  1.00  0.00     0.170 HD
ATOM     79  O   UNL A   1      31.082  26.954  21.291  1.00  0.00    -0.269 OA
BRANCH  77  80
ATOM     80  C   UNL A   1      32.081  26.984  23.377  1.00  0.00     0.059 A 
ATOM     81  C   UNL A   1      33.427  27.377  23.315  1.00  0.00     0.022 A 
ATOM     82  C   UNL A   1      31.288  27.323  24.482  1.00  0.00     0.060 A 
ATOM     83  C   UNL A   1      33.954  28.204  24.307  1.00  0.00     0.086 A 
ATOM     84  C   UNL A   1      31.809  28.161  25.472  1.00  0.00     0.107 A 
ATOM     85  Cl  UNL A   1      29.652  26.797  24.642  1.00  0.00    -0.083 Cl
ATOM     86  C   UNL A   1      33.132  28.621  25.363  1.00  0.00     0.270 A 
BRANCH  86  87
ATOM     87  N   UNL A   1      33.643  29.592  26.336  1.00  0.00     0.062 N 
ATOM     88  O   UNL A   1      32.936  30.576  26.591  1.00  0.00    -0.258 OA
ATOM     89  O   UNL A   1      34.739  29.350  26.862  1.00  0.00    -0.258 OA
ENDBRANCH  86  87
ENDBRANCH  77  80
ENDBRANCH  75  76
ENDBRANCH  66  69
ENDBRANCH  64  65
ENDBRANCH   1  64
TORSDOF 14
ENDMDL
MODEL 2
REMARK VINA RESULT:     -12.1      2.588      7.913
REMARK SMILES O=C(NCCCCNC(=O)c1ccc(NC(=O)c2ccc([N+](=O)[O-])cc2Cl)cc1Cl)c1ccc(-c2c3nc(c(-c4c(F)cccc4F)c4ccc([nH]4)c(-c4c(F)cccc4F)c4nc(c(-c5c(F)cccc5F)c5ccc2[nH]5)C=C4)C=C3)cc1
REMARK SMILES IDX 6 1 5 2 4 3 3 4 1 5 2 6 31 8 32 9 84 10 33 11 83 12 34 13
REMARK SMILES IDX 35 14 36 15 77 16 37 17 82 18 76 19 78 20 38 21 81 22 75 23
REMARK SMILES IDX 74 24 39 26 65 27 48 28 64 29 49 30 52 31 63 32 79 33 50 34
REMARK SMILES IDX 51 35 62 37 80 38 53 39 40 40 41 41 46 42 42 43 43 44 45 45
REMARK SMILES IDX 47 46 44 47 66 48 67 49 72 50 68 51 69 52 71 53 73 54 70 55
REMARK SMILES IDX 54 56 55 57 60 58 56 59 57 60 59 61 61 62 58 63 7 64 8 65
REMARK SMILES IDX 9 66 10 68 11 69 12 70 29 71 13 72 28 73 30 74 14 75 15 76
REMARK SMILES IDX 16 77 17 79 18 80 19 81 26 82 20 83 25 84 27 85 21 86 22 87
REMARK SMILES IDX 23 88 24 89
REMARK H PARENT 3 7 78 25 52 36 8 67 15 78
REMARK Flexibility Score: inf
ROOT
ATOM      1  C   UNL A   1      33.337  29.315  24.548  1.00  0.00     0.023 C 
ENDROOT
BRANCH   1   2
ATOM      2  C   UNL A   1      33.932  28.166  25.359  1.00  0.00     0.023 C 
BRANCH   2   3
ATOM      3  C   UNL A   1      33.788  28.279  26.873  1.00  0.00     0.116 C 
BRANCH   3   4
ATOM      4  N   UNL A   1      33.619  29.648  27.330  1.00  0.00    -0.352 N 
ATOM      5  O   UNL A   1      34.137  31.558  28.413  1.00  0.00    -0.269 OA
ATOM      6  C   UNL A   1      34.504  30.464  27.995  1.00  0.00     0.251 C 
ATOM      7  H   UNL A   1      32.743  30.052  27.134  1.00  0.00     0.163 HD
BRANCH   6   8
ATOM      8  C   UNL A   1      35.891  30.013  28.239  1.00  0.00     0.039 A 
ATOM      9  C   UNL A   1      36.277  29.516  29.487  1.00  0.00     0.014 A 
ATOM     10  C   UNL A   1      36.817  30.079  27.194  1.00  0.00     0.014 A 
ATOM     11  C   UNL A   1      37.615  29.224  29.731  1.00  0.00     0.010 A 
ATOM     12  C   UNL A   1      38.145  29.707  27.419  1.00  0.00     0.010 A 
ATOM     13  C   UNL A   1      38.561  29.306  28.698  1.00  0.00    -0.014 A 
BRANCH  13  14
ATOM     14  C   UNL A   1      39.968  28.908  28.954  1.00  0.00     0.031 A 
ATOM     15  C   UNL A   1      40.939  29.854  29.602  1.00  0.00     0.074 A 
ATOM     16  C   UNL A   1      40.369  27.677  28.587  1.00  0.00     0.049 A 
ATOM     17  N   UNL A   1      42.207  29.676  29.871  1.00  0.00    -0.248 NA
ATOM     18  C   UNL A   1      40.423  31.176  29.988  1.00  0.00     0.031 C 
ATOM     19  C   UNL A   1      39.521  26.678  27.932  1.00  0.00     0.029 A 
ATOM     20  N   UNL A   1      41.583  27.055  28.709  1.00  0.00    -0.354 N 
ATOM     21  C   UNL A   1      42.648  30.865  30.437  1.00  0.00     0.074 A 
ATOM     22  C   UNL A   1      41.516  31.767  30.452  1.00  0.00     0.031 C 
ATOM     23  C   UNL A   1      40.236  25.564  27.724  1.00  0.00     0.029 A 
ATOM     24  C   UNL A   1      41.603  25.788  28.181  1.00  0.00     0.049 A 
ATOM     25  H   UNL A   1      42.366  27.476  29.133  1.00  0.00     0.167 HD
ATOM     26  C   UNL A   1      43.882  31.171  30.906  1.00  0.00     0.037 A 
ATOM     27  C   UNL A   1      42.613  24.910  28.050  1.00  0.00     0.037 A 
ATOM     28  C   UNL A   1      45.000  30.262  30.901  1.00  0.00     0.049 A 
ATOM     29  C   UNL A   1      43.974  25.278  28.561  1.00  0.00     0.074 A 
ATOM     30  C   UNL A   1      46.274  30.459  31.407  1.00  0.00     0.029 A 
ATOM     31  N   UNL A   1      44.982  28.988  30.351  1.00  0.00    -0.354 N 
ATOM     32  N   UNL A   1      44.363  26.386  29.142  1.00  0.00    -0.248 NA
ATOM     33  C   UNL A   1      45.036  24.275  28.399  1.00  0.00     0.031 C 
ATOM     34  C   UNL A   1      47.040  29.322  31.121  1.00  0.00     0.029 A 
ATOM     35  C   UNL A   1      46.231  28.399  30.479  1.00  0.00     0.049 A 
ATOM     36  H   UNL A   1      44.198  28.565  29.933  1.00  0.00     0.167 HD
ATOM     37  C   UNL A   1      45.710  26.214  29.425  1.00  0.00     0.074 A 
ATOM     38  C   UNL A   1      46.067  24.886  28.968  1.00  0.00     0.031 C 
ATOM     39  C   UNL A   1      46.573  27.080  30.011  1.00  0.00     0.037 A 
BRANCH  26  40
ATOM     40  C   UNL A   1      44.096  32.557  31.444  1.00  0.00     0.057 A 
ATOM     41  C   UNL A   1      44.461  33.627  30.618  1.00  0.00     0.134 A 
ATOM     42  C   UNL A   1      43.901  32.830  32.804  1.00  0.00     0.134 A 
ATOM     43  F   UNL A   1      44.673  33.434  29.307  1.00  0.00    -0.206 F 
ATOM     44  C   UNL A   1      44.653  34.913  31.130  1.00  0.00     0.040 A 
ATOM     45  C   UNL A   1      44.065  34.115  33.323  1.00  0.00     0.040 A 
ATOM     46  F   UNL A   1      43.542  31.852  33.650  1.00  0.00    -0.206 F 
ATOM     47  C   UNL A   1      44.449  35.160  32.487  1.00  0.00     0.006 A 
ENDBRANCH  26  40
BRANCH  27  48
ATOM     48  C   UNL A   1      42.360  23.608  27.389  1.00  0.00     0.057 A 
ATOM     49  C   UNL A   1      42.492  23.456  26.005  1.00  0.00     0.134 A 
ATOM     50  C   UNL A   1      42.029  22.470  28.137  1.00  0.00     0.134 A 
ATOM     51  F   UNL A   1      42.794  24.512  25.237  1.00  0.00    -0.206 F 
ATOM     52  C   UNL A   1      42.303  22.220  25.387  1.00  0.00     0.040 A 
ATOM     53  C   UNL A   1      41.862  21.223  27.536  1.00  0.00     0.040 A 
ATOM     54  F   UNL A   1      41.900  22.551  29.470  1.00  0.00    -0.206 F 
ATOM     55  C   UNL A   1      41.996  21.096  26.155  1.00  0.00     0.006 A 
ENDBRANCH  27  48
BRANCH  39  56
ATOM     56  C   UNL A   1      47.984  26.611  30.203  1.00  0.00     0.057 A 
ATOM     57  C   UNL A   1      48.977  26.855  29.247  1.00  0.00     0.134 A 
ATOM     58  C   UNL A   1      48.361  25.943  31.375  1.00  0.00     0.134 A 
ATOM     59  F   UNL A   1      48.676  27.476  28.097  1.00  0.00    -0.206 F 
ATOM     60  C   UNL A   1      50.295  26.438  29.443  1.00  0.00     0.040 A 
ATOM     61  C   UNL A   1      49.679  25.541  31.592  1.00  0.00     0.040 A 
ATOM     62  F   UNL A   1      47.458  25.683  32.331  1.00  0.00    -0.206 F 
ATOM     63  C   UNL A   1      50.650  25.786  30.622  1.00  0.00     0.006 A 
ENDBRANCH  39  56
ENDBRANCH  13  14
ENDBRANCH   6   8
ENDBRANCH   3   4
ENDBRANCH   2   3
ENDBRANCH   1   2
BRANCH   1  64
ATOM     64  C   UNL A   1      33.314  29.120  23.035  1.00  0.00     0.116 C 
BRANCH  64  65
ATOM     65  N   UNL A   1      32.001  29.291  22.436  1.00  0.00    -0.352 N 
ATOM     66  C   UNL A   1      30.877  28.514  22.571  1.00  0.00     0.252 C 
ATOM     67  H   UNL A   1      31.905  30.076  21.850  1.00  0.00     0.163 HD
ATOM     68  O   UNL A   1      29.835  28.827  22.001  1.00  0.00    -0.269 OA
BRANCH  66  69
ATOM     69  C   UNL A   1      30.947  27.232  23.294  1.00  0.00     0.058 A 
ATOM     70  C   UNL A   1      30.522  27.251  24.623  1.00  0.00     0.017 A 
ATOM     71  C   UNL A   1      31.389  26.033  22.734  1.00  0.00     0.055 A 
ATOM     72  C   UNL A   1      30.415  26.059  25.341  1.00  0.00     0.027 A 
ATOM     73  C   UNL A   1      31.215  24.836  23.440  1.00  0.00     0.047 A 
ATOM     74  Cl  UNL A   1      32.167  25.954  21.195  1.00  0.00    -0.083 Cl
ATOM     75  C   UNL A   1      30.657  24.831  24.726  1.00  0.00     0.043 A 
BRANCH  75  76
ATOM     76  N   UNL A   1      30.365  23.572  25.289  1.00  0.00    -0.322 N 
ATOM     77  C   UNL A   1      31.152  22.507  25.677  1.00  0.00     0.257 C 
ATOM     78  H   UNL A   1      29.403  23.421  25.436  1.00  0.00     0.170 HD
ATOM     79  O   UNL A   1      30.637  21.480  26.112  1.00  0.00    -0.269 OA
BRANCH  77  80
ATOM     80  C   UNL A   1      32.615  22.542  25.557  1.00  0.00     0.059 A 
ATOM     81  C   UNL A   1      33.319  23.086  26.642  1.00  0.00     0.022 A 
ATOM     82  C   UNL A   1      33.300  22.003  24.459  1.00  0.00     0.060 A 
ATOM     83  C   UNL A   1      34.711  22.993  26.682  1.00  0.00     0.086 A 
ATOM     84  C   UNL A   1      34.693  21.897  24.501  1.00  0.00     0.107 A 
ATOM     85  Cl  UNL A   1      32.481  21.394  23.067  1.00  0.00    -0.083 Cl
ATOM     86  C   UNL A   1      35.388  22.367  25.627  1.00  0.00     0.270 A 
BRANCH  86  87
ATOM     87  N   UNL A   1      36.836  22.152  25.726  1.00  0.00     0.062 N 
ATOM     88  O   UNL A   1      37.278  21.049  25.376  1.00  0.00    -0.258 OA
ATOM     89  O   UNL A   1      37.528  23.099  26.126  1.00  0.00    -0.258 OA
ENDBRANCH  86  87
ENDBRANCH  77  80
ENDBRANCH  75  76
ENDBRANCH  66  69
ENDBRANCH  64  65
ENDBRANCH   1  64
TORSDOF 14
ENDMDL
MODEL 3
REMARK VINA RESULT:     -12.1      3.657      7.941
REMARK SMILES O=C(NCCCCNC(=O)c1ccc(NC(=O)c2ccc([N+](=O)[O-])cc2Cl)cc1Cl)c1ccc(-c2c3nc(c(-c4c(F)cccc4F)c4ccc([nH]4)c(-c4c(F)cccc4F)c4nc(c(-c5c(F)cccc5F)c5ccc2[nH]5)C=C4)C=C3)cc1
REMARK SMILES IDX 6 1 5 2 4 3 3 4 1 5 2 6 31 8 32 9 84 10 33 11 83 12 34 13
REMARK SMILES IDX 35 14 36 15 77 16 37 17 82 18 76 19 78 20 38 21 81 22 75 23
REMARK SMILES IDX 74 24 39 26 65 27 48 28 64 29 49 30 52 31 63 32 79 33 50 34
REMARK SMILES IDX 51 35 62 37 80 38 53 39 40 40 41 41 46 42 42 43 43 44 45 45
REMARK SMILES IDX 47 46 44 47 66 48 67 49 72 50 68 51 69 52 71 53 73 54 70 55
REMARK SMILES IDX 54 56 55 57 60 58 56 59 57 60 59 61 61 62 58 63 7 64 8 65
REMARK SMILES IDX 9 66 10 68 11 69 12 70 29 71 13 72 28 73 30 74 14 75 15 76
REMARK SMILES IDX 16 77 17 79 18 80 19 81 26 82 20 83 25 84 27 85 21 86 22 87
REMARK SMILES IDX 23 88 24 89
REMARK H PARENT 3 7 78 25 52 36 8 67 15 78
REMARK Flexibility Score: inf
ROOT
ATOM      1  C   UNL A   1      31.366  30.911  26.011  1.00  0.00     0.023 C 
ENDROOT
BRANCH   1   2
ATOM      2  C   UNL A   1      31.215  32.312  26.601  1.00  0.00     0.023 C 
BRANCH   2   3
ATOM      3  C   UNL A   1      32.466  32.901  27.241  1.00  0.00     0.116 C 
BRANCH   3   4
ATOM      4  N   UNL A   1      32.296  34.283  27.659  1.00  0.00    -0.352 N 
ATOM      5  O   UNL A   1      32.645  36.142  28.889  1.00  0.00    -0.269 OA
ATOM      6  C   UNL A   1      33.017  35.015  28.573  1.00  0.00     0.251 C 
ATOM      7  H   UNL A   1      31.557  34.766  27.224  1.00  0.00     0.163 HD
BRANCH   6   8
ATOM      8  C   UNL A   1      34.223  34.437  29.203  1.00  0.00     0.039 A 
ATOM      9  C   UNL A   1      35.488  34.618  28.637  1.00  0.00     0.014 A 
ATOM     10  C   UNL A   1      34.084  33.709  30.388  1.00  0.00     0.014 A 
ATOM     11  C   UNL A   1      36.587  33.953  29.170  1.00  0.00     0.010 A 
ATOM     12  C   UNL A   1      35.204  33.109  30.970  1.00  0.00     0.010 A 
ATOM     13  C   UNL A   1      36.459  33.200  30.349  1.00  0.00    -0.014 A 
BRANCH  13  14
ATOM     14  C   UNL A   1      37.659  32.569  30.953  1.00  0.00     0.031 A 
ATOM     15  C   UNL A   1      38.314  31.376  30.317  1.00  0.00     0.074 A 
ATOM     16  C   UNL A   1      38.152  33.081  32.096  1.00  0.00     0.049 A 
ATOM     17  N   UNL A   1      39.350  30.689  30.728  1.00  0.00    -0.248 NA
ATOM     18  C   UNL A   1      37.727  30.884  29.062  1.00  0.00     0.031 C 
ATOM     19  C   UNL A   1      37.588  34.225  32.816  1.00  0.00     0.029 A 
ATOM     20  N   UNL A   1      39.233  32.710  32.852  1.00  0.00    -0.354 N 
ATOM     21  C   UNL A   1      39.526  29.672  29.798  1.00  0.00     0.074 A 
ATOM     22  C   UNL A   1      38.476  29.818  28.812  1.00  0.00     0.031 C 
ATOM     23  C   UNL A   1      38.337  34.473  33.900  1.00  0.00     0.029 A 
ATOM     24  C   UNL A   1      39.398  33.474  33.980  1.00  0.00     0.049 A 
ATOM     25  H   UNL A   1      39.833  31.967  32.610  1.00  0.00     0.167 HD
ATOM     26  C   UNL A   1      40.480  28.710  29.770  1.00  0.00     0.037 A 
ATOM     27  C   UNL A   1      40.284  33.370  34.986  1.00  0.00     0.037 A 
ATOM     28  C   UNL A   1      41.531  28.580  30.747  1.00  0.00     0.049 A 
ATOM     29  C   UNL A   1      41.320  32.287  34.941  1.00  0.00     0.074 A 
ATOM     30  C   UNL A   1      42.579  27.675  30.772  1.00  0.00     0.029 A 
ATOM     31  N   UNL A   1      41.660  29.370  31.880  1.00  0.00    -0.354 N 
ATOM     32  N   UNL A   1      41.507  31.366  34.028  1.00  0.00    -0.248 NA
ATOM     33  C   UNL A   1      42.268  32.229  36.062  1.00  0.00     0.031 C 
ATOM     34  C   UNL A   1      43.314  27.887  31.944  1.00  0.00     0.029 A 
ATOM     35  C   UNL A   1      42.752  28.955  32.626  1.00  0.00     0.049 A 
ATOM     36  H   UNL A   1      41.064  30.117  32.118  1.00  0.00     0.167 HD
ATOM     37  C   UNL A   1      42.597  30.622  34.457  1.00  0.00     0.074 A 
ATOM     38  C   UNL A   1      43.042  31.213  35.703  1.00  0.00     0.031 C 
ATOM     39  C   UNL A   1      43.177  29.547  33.869  1.00  0.00     0.037 A 
BRANCH  26  40
ATOM     40  C   UNL A   1      40.418  27.705  28.655  1.00  0.00     0.057 A 
ATOM     41  C   UNL A   1      41.122  27.879  27.457  1.00  0.00     0.134 A 
ATOM     42  C   UNL A   1      39.668  26.531  28.798  1.00  0.00     0.134 A 
ATOM     43  F   UNL A   1      41.852  28.985  27.251  1.00  0.00    -0.206 F 
ATOM     44  C   UNL A   1      41.059  26.935  26.429  1.00  0.00     0.040 A 
ATOM     45  C   UNL A   1      39.617  25.568  27.788  1.00  0.00     0.040 A 
ATOM     46  F   UNL A   1      38.976  26.297  29.923  1.00  0.00    -0.206 F 
ATOM     47  C   UNL A   1      40.309  25.772  26.596  1.00  0.00     0.006 A 
ENDBRANCH  26  40
BRANCH  27  48
ATOM     48  C   UNL A   1      40.204  34.318  36.122  1.00  0.00     0.057 A 
ATOM     49  C   UNL A   1      40.830  35.567  36.073  1.00  0.00     0.134 A 
ATOM     50  C   UNL A   1      39.453  34.014  37.266  1.00  0.00     0.134 A 
ATOM     51  F   UNL A   1      41.573  35.908  35.010  1.00  0.00    -0.206 F 
ATOM     52  C   UNL A   1      40.715  36.482  37.121  1.00  0.00     0.040 A 
ATOM     53  C   UNL A   1      39.309  34.928  38.309  1.00  0.00     0.040 A 
ATOM     54  F   UNL A   1      38.820  32.836  37.366  1.00  0.00    -0.206 F 
ATOM     55  C   UNL A   1      39.944  36.166  38.240  1.00  0.00     0.006 A 
ENDBRANCH  27  48
BRANCH  39  56
ATOM     56  C   UNL A   1      44.365  28.949  34.562  1.00  0.00     0.057 A 
ATOM     57  C   UNL A   1      45.667  29.399  34.310  1.00  0.00     0.134 A 
ATOM     58  C   UNL A   1      44.200  27.940  35.519  1.00  0.00     0.134 A 
ATOM     59  F   UNL A   1      45.892  30.352  33.393  1.00  0.00    -0.206 F 
ATOM     60  C   UNL A   1      46.766  28.855  34.976  1.00  0.00     0.040 A 
ATOM     61  C   UNL A   1      45.288  27.405  36.207  1.00  0.00     0.040 A 
ATOM     62  F   UNL A   1      42.978  27.469  35.808  1.00  0.00    -0.206 F 
ATOM     63  C   UNL A   1      46.577  27.860  35.934  1.00  0.00     0.006 A 
ENDBRANCH  39  56
ENDBRANCH  13  14
ENDBRANCH   6   8
ENDBRANCH   3   4
ENDBRANCH   2   3
ENDBRANCH   1   2
BRANCH   1  64
ATOM     64  C   UNL A   1      32.769  30.314  26.065  1.00  0.00     0.116 C 
BRANCH  64  65
ATOM     65  N   UNL A   1      33.358  30.065  24.759  1.00  0.00    -0.352 N 
ATOM     66  C   UNL A   1      33.223  28.971  23.940  1.00  0.00     0.252 C 
ATOM     67  H   UNL A   1      33.934  30.784  24.414  1.00  0.00     0.163 HD
ATOM     68  O   UNL A   1      33.782  28.942  22.848  1.00  0.00    -0.269 OA
BRANCH  66  69
ATOM     69  C   UNL A   1      32.514  27.771  24.421  1.00  0.00     0.058 A 
ATOM     70  C   UNL A   1      33.281  26.853  25.140  1.00  0.00     0.017 A 
ATOM     71  C   UNL A   1      31.159  27.518  24.214  1.00  0.00     0.055 A 
ATOM     72  C   UNL A   1      32.667  25.762  25.758  1.00  0.00     0.027 A 
ATOM     73  C   UNL A   1      30.543  26.458  24.892  1.00  0.00     0.047 A 
ATOM     74  Cl  UNL A   1      30.190  28.453  23.133  1.00  0.00    -0.083 Cl
ATOM     75  C   UNL A   1      31.281  25.613  25.731  1.00  0.00     0.043 A 
BRANCH  75  76
ATOM     76  N   UNL A   1      30.551  24.683  26.500  1.00  0.00    -0.322 N 
ATOM     77  C   UNL A   1      30.709  23.336  26.749  1.00  0.00     0.257 C 
ATOM     78  H   UNL A   1      29.770  25.076  26.952  1.00  0.00     0.170 HD
ATOM     79  O   UNL A   1      29.891  22.732  27.440  1.00  0.00    -0.269 OA
BRANCH  77  80
ATOM     80  C   UNL A   1      31.826  22.569  26.183  1.00  0.00     0.059 A 
ATOM     81  C   UNL A   1      32.779  22.086  27.092  1.00  0.00     0.022 A 
ATOM     82  C   UNL A   1      31.921  22.262  24.818  1.00  0.00     0.060 A 
ATOM     83  C   UNL A   1      33.768  21.203  26.657  1.00  0.00     0.086 A 
ATOM     84  C   UNL A   1      32.902  21.368  24.380  1.00  0.00     0.107 A 
ATOM     85  Cl  UNL A   1      30.820  22.895  23.649  1.00  0.00    -0.083 Cl
ATOM     86  C   UNL A   1      33.802  20.821  25.309  1.00  0.00     0.270 A 
BRANCH  86  87
ATOM     87  N   UNL A   1      34.758  19.796  24.873  1.00  0.00     0.062 N 
ATOM     88  O   UNL A   1      35.964  20.058  24.969  1.00  0.00    -0.258 OA
ATOM     89  O   UNL A   1      34.295  18.722  24.464  1.00  0.00    -0.258 OA
ENDBRANCH  86  87
ENDBRANCH  77  80
ENDBRANCH  75  76
ENDBRANCH  66  69
ENDBRANCH  64  65
ENDBRANCH   1  64
TORSDOF 14
ENDMDL
