MODEL 1
REMARK VINA RESULT:     -12.0      0.000      0.000
REMARK SMILES C[C@@H]1C[N@@H+](Cc2cccc(C(=O)NCCCCNC(=O)c3ccc(-c4c5nc(c(-c6c(F)cccc6F)c6ccc([nH]6)c(-c6c(F)cccc6F)c6nc(c(-c7c(F)cccc7F)c7ccc4[nH]7)C=C6)C=C5)cc3)c2)CCN1C(=O)OC(C)(C)C
REMARK SMILES IDX 14 1 13 2 11 3 12 4 10 6 6 7 7 8 75 9 8 10 9 11 5 12 4 13
REMARK SMILES IDX 1 14 2 15 3 16 78 17 77 18 76 19 79 21 80 22 81 23 82 24
REMARK SMILES IDX 83 25 84 26 85 27 15 28 16 29 17 30 18 31 19 32 20 34 21 35
REMARK SMILES IDX 22 36 74 37 23 38 73 39 24 40 25 41 26 42 67 43 27 44 72 45
REMARK SMILES IDX 66 46 68 47 28 48 71 49 65 50 64 51 29 53 55 54 38 55 54 56
REMARK SMILES IDX 39 57 42 58 53 59 69 60 40 61 41 62 52 64 70 65 43 66 30 67
REMARK SMILES IDX 31 68 36 69 32 70 33 71 35 72 37 73 34 74 56 75 57 76 62 77
REMARK SMILES IDX 58 78 59 79 61 80 63 81 60 82 44 83 45 84 50 85 46 86 47 87
REMARK SMILES IDX 49 88 51 89 48 90
REMARK H PARENT 13 5 4 20 18 33 68 52 42 63
REMARK Flexibility Score: inf
ROOT
ATOM      1  C   UNL A   1      36.499  22.174  25.334  1.00  0.00     0.116 C 
ENDROOT
BRANCH   1   2
ATOM      2  N   UNL A   1      36.060  22.563  24.013  1.00  0.00    -0.352 N 
ATOM      3  C   UNL A   1      34.835  22.954  23.527  1.00  0.00     0.251 C 
ATOM      4  O   UNL A   1      34.795  23.325  22.353  1.00  0.00    -0.269 OA
ATOM      5  H   UNL A   1      36.773  22.546  23.334  1.00  0.00     0.163 HD
BRANCH   3   6
ATOM      6  C   UNL A   1      33.587  23.019  24.352  1.00  0.00     0.040 A 
ATOM      7  C   UNL A   1      31.672  24.180  25.350  1.00  0.00     0.007 A 
ATOM      8  C   UNL A   1      31.120  22.944  25.707  1.00  0.00     0.009 A 
ATOM      9  C   UNL A   1      32.958  24.197  24.769  1.00  0.00     0.023 A 
ATOM     10  C   UNL A   1      31.800  21.761  25.423  1.00  0.00     0.001 A 
ATOM     11  C   UNL A   1      33.007  21.798  24.720  1.00  0.00     0.014 A 
BRANCH   7  12
ATOM     12  C   UNL A   1      30.880  25.465  25.545  1.00  0.00     0.299 C 
BRANCH  12  13
ATOM     13  N   UNL A   1      31.204  26.603  24.652  1.00  0.00    -0.328 N 
ATOM     14  C   UNL A   1      32.781  29.288  24.041  1.00  0.00     0.037 C 
ATOM     15  C   UNL A   1      31.277  29.131  24.290  1.00  0.00     0.140 C 
ATOM     16  C   UNL A   1      30.973  27.938  25.263  1.00  0.00     0.287 C 
ATOM     17  N   UNL A   1      30.567  28.921  23.014  1.00  0.00    -0.294 N 
ATOM     18  C   UNL A   1      30.846  27.641  22.375  1.00  0.00     0.185 C 
ATOM     19  C   UNL A   1      30.509  26.516  23.358  1.00  0.00     0.284 C 
ATOM     20  H   UNL A   1      32.209  26.518  24.494  1.00  0.00     0.348 HD
BRANCH  17  21
ATOM     21  C   UNL A   1      29.536  29.709  22.529  1.00  0.00     0.410 C 
ATOM     22  O   UNL A   1      28.574  29.249  21.927  1.00  0.00    -0.224 OA
BRANCH  21  23
ATOM     23  O   UNL A   1      29.708  31.033  22.791  1.00  0.00    -0.444 OA
BRANCH  23  24
ATOM     24  C   UNL A   1      28.580  31.951  22.721  1.00  0.00     0.106 C 
ATOM     25  C   UNL A   1      28.040  32.060  21.289  1.00  0.00     0.056 C 
ATOM     26  C   UNL A   1      27.474  31.579  23.718  1.00  0.00     0.056 C 
ATOM     27  C   UNL A   1      29.150  33.321  23.126  1.00  0.00     0.056 C 
ENDBRANCH  23  24
ENDBRANCH  21  23
ENDBRANCH  17  21
ENDBRANCH  12  13
ENDBRANCH   7  12
ENDBRANCH   3   6
ENDBRANCH   1   2
BRANCH   1  28
ATOM     28  C   UNL A   1      36.707  20.663  25.431  1.00  0.00     0.023 C 
BRANCH  28  29
ATOM     29  C   UNL A   1      38.046  20.202  24.854  1.00  0.00     0.023 C 
BRANCH  29  30
ATOM     30  C   UNL A   1      39.233  20.380  25.796  1.00  0.00     0.116 C 
BRANCH  30  31
ATOM     31  N   UNL A   1      40.109  19.219  25.850  1.00  0.00    -0.352 N 
ATOM     32  C   UNL A   1      41.462  19.183  26.092  1.00  0.00     0.251 C 
ATOM     33  H   UNL A   1      39.678  18.348  25.694  1.00  0.00     0.163 HD
ATOM     34  O   UNL A   1      42.086  18.133  25.995  1.00  0.00    -0.269 OA
BRANCH  32  35
ATOM     35  C   UNL A   1      42.163  20.442  26.416  1.00  0.00     0.039 A 
ATOM     36  C   UNL A   1      42.725  21.185  25.376  1.00  0.00     0.014 A 
ATOM     37  C   UNL A   1      42.199  20.921  27.729  1.00  0.00     0.014 A 
ATOM     38  C   UNL A   1      43.254  22.448  25.645  1.00  0.00     0.010 A 
ATOM     39  C   UNL A   1      42.647  22.214  27.978  1.00  0.00     0.010 A 
ATOM     40  C   UNL A   1      43.175  22.993  26.938  1.00  0.00    -0.014 A 
BRANCH  40  41
ATOM     41  C   UNL A   1      43.621  24.384  27.205  1.00  0.00     0.031 A 
ATOM     42  C   UNL A   1      42.630  25.439  27.610  1.00  0.00     0.074 A 
ATOM     43  C   UNL A   1      44.917  24.709  27.030  1.00  0.00     0.049 A 
ATOM     44  N   UNL A   1      42.833  26.705  27.875  1.00  0.00    -0.248 NA
ATOM     45  C   UNL A   1      41.221  25.026  27.707  1.00  0.00     0.031 C 
ATOM     46  C   UNL A   1      45.966  23.791  26.575  1.00  0.00     0.029 A 
ATOM     47  N   UNL A   1      45.577  25.899  27.212  1.00  0.00    -0.354 N 
ATOM     48  C   UNL A   1      41.583  27.237  28.160  1.00  0.00     0.074 A 
ATOM     49  C   UNL A   1      40.620  26.174  27.975  1.00  0.00     0.031 C 
ATOM     50  C   UNL A   1      47.139  24.443  26.548  1.00  0.00     0.029 A 
ATOM     51  C   UNL A   1      46.922  25.831  26.940  1.00  0.00     0.049 A 
ATOM     52  H   UNL A   1      45.127  26.723  27.508  1.00  0.00     0.167 HD
ATOM     53  C   UNL A   1      41.269  28.491  28.563  1.00  0.00     0.037 A 
ATOM     54  C   UNL A   1      47.874  26.782  26.998  1.00  0.00     0.037 A 
ATOM     55  C   UNL A   1      42.234  29.542  28.757  1.00  0.00     0.049 A 
ATOM     56  C   UNL A   1      47.498  28.168  27.443  1.00  0.00     0.074 A 
ATOM     57  C   UNL A   1      42.025  30.827  29.229  1.00  0.00     0.029 A 
ATOM     58  N   UNL A   1      43.588  29.434  28.479  1.00  0.00    -0.354 N 
ATOM     59  N   UNL A   1      46.326  28.633  27.798  1.00  0.00    -0.248 NA
ATOM     60  C   UNL A   1      48.582  29.159  27.503  1.00  0.00     0.031 C 
ATOM     61  C   UNL A   1      43.241  31.514  29.178  1.00  0.00     0.029 A 
ATOM     62  C   UNL A   1      44.221  30.640  28.736  1.00  0.00     0.049 A 
ATOM     63  H   UNL A   1      44.034  28.622  28.148  1.00  0.00     0.167 HD
ATOM     64  C   UNL A   1      46.532  29.963  28.146  1.00  0.00     0.074 A 
ATOM     65  C   UNL A   1      47.947  30.221  27.979  1.00  0.00     0.031 C 
ATOM     66  C   UNL A   1      45.631  30.886  28.563  1.00  0.00     0.037 A 
BRANCH  53  67
ATOM     67  C   UNL A   1      39.820  28.794  28.819  1.00  0.00     0.057 A 
ATOM     68  C   UNL A   1      39.254  28.689  30.097  1.00  0.00     0.134 A 
ATOM     69  C   UNL A   1      38.987  29.230  27.780  1.00  0.00     0.134 A 
ATOM     70  F   UNL A   1      39.991  28.267  31.135  1.00  0.00    -0.206 F 
ATOM     71  C   UNL A   1      37.907  28.977  30.326  1.00  0.00     0.040 A 
ATOM     72  C   UNL A   1      37.647  29.552  28.004  1.00  0.00     0.040 A 
ATOM     73  F   UNL A   1      39.464  29.360  26.532  1.00  0.00    -0.206 F 
ATOM     74  C   UNL A   1      37.102  29.418  29.278  1.00  0.00     0.006 A 
ENDBRANCH  53  67
BRANCH  54  75
ATOM     75  C   UNL A   1      49.278  26.450  26.642  1.00  0.00     0.057 A 
ATOM     76  C   UNL A   1      49.772  26.677  25.352  1.00  0.00     0.134 A 
ATOM     77  C   UNL A   1      50.157  25.894  27.579  1.00  0.00     0.134 A 
ATOM     78  F   UNL A   1      48.975  27.191  24.403  1.00  0.00    -0.206 F 
ATOM     79  C   UNL A   1      51.082  26.343  25.000  1.00  0.00     0.040 A 
ATOM     80  C   UNL A   1      51.478  25.583  27.249  1.00  0.00     0.040 A 
ATOM     81  F   UNL A   1      49.749  25.660  28.835  1.00  0.00    -0.206 F 
ATOM     82  C   UNL A   1      51.940  25.799  25.953  1.00  0.00     0.006 A 
ENDBRANCH  54  75
BRANCH  66  83
ATOM     83  C   UNL A   1      46.155  32.255  28.894  1.00  0.00     0.057 A 
ATOM     84  C   UNL A   1      46.592  32.591  30.181  1.00  0.00     0.134 A 
ATOM     85  C   UNL A   1      46.248  33.240  27.903  1.00  0.00     0.134 A 
ATOM     86  F   UNL A   1      46.518  31.698  31.180  1.00  0.00    -0.206 F 
ATOM     87  C   UNL A   1      47.075  33.867  30.478  1.00  0.00     0.040 A 
ATOM     88  C   UNL A   1      46.759  34.509  28.179  1.00  0.00     0.040 A 
ATOM     89  F   UNL A   1      45.858  32.982  26.645  1.00  0.00    -0.206 F 
ATOM     90  C   UNL A   1      47.166  34.828  29.472  1.00  0.00     0.006 A 
ENDBRANCH  66  83
ENDBRANCH  40  41
ENDBRANCH  32  35
ENDBRANCH  30  31
ENDBRANCH  29  30
ENDBRANCH  28  29
ENDBRANCH   1  28
TORSDOF 16
ENDMDL
MODEL 2
REMARK VINA RESULT:     -11.9      0.707      6.020
REMARK SMILES C[C@@H]1C[N@@H+](Cc2cccc(C(=O)NCCCCNC(=O)c3ccc(-c4c5nc(c(-c6c(F)cccc6F)c6ccc([nH]6)c(-c6c(F)cccc6F)c6nc(c(-c7c(F)cccc7F)c7ccc4[nH]7)C=C6)C=C5)cc3)c2)CCN1C(=O)OC(C)(C)C
REMARK SMILES IDX 14 1 13 2 11 3 12 4 10 6 6 7 7 8 75 9 8 10 9 11 5 12 4 13
REMARK SMILES IDX 1 14 2 15 3 16 78 17 77 18 76 19 79 21 80 22 81 23 82 24
REMARK SMILES IDX 83 25 84 26 85 27 15 28 16 29 17 30 18 31 19 32 20 34 21 35
REMARK SMILES IDX 22 36 74 37 23 38 73 39 24 40 25 41 26 42 67 43 27 44 72 45
REMARK SMILES IDX 66 46 68 47 28 48 71 49 65 50 64 51 29 53 55 54 38 55 54 56
REMARK SMILES IDX 39 57 42 58 53 59 69 60 40 61 41 62 52 64 70 65 43 66 30 67
REMARK SMILES IDX 31 68 36 69 32 70 33 71 35 72 37 73 34 74 56 75 57 76 62 77
REMARK SMILES IDX 58 78 59 79 61 80 63 81 60 82 44 83 45 84 50 85 46 86 47 87
REMARK SMILES IDX 49 88 51 89 48 90
REMARK H PARENT 13 5 4 20 18 33 68 52 42 63
REMARK Flexibility Score: inf
ROOT
ATOM      1  C   UNL A   1      36.139  21.837  25.262  1.00  0.00     0.116 C 
ENDROOT
BRANCH   1   2
ATOM      2  N   UNL A   1      35.713  22.348  23.978  1.00  0.00    -0.352 N 
ATOM      3  C   UNL A   1      34.511  22.849  23.539  1.00  0.00     0.251 C 
ATOM      4  O   UNL A   1      34.483  23.306  22.395  1.00  0.00    -0.269 OA
ATOM      5  H   UNL A   1      36.416  22.334  23.289  1.00  0.00     0.163 HD
BRANCH   3   6
ATOM      6  C   UNL A   1      33.278  22.935  24.386  1.00  0.00     0.040 A 
ATOM      7  C   UNL A   1      31.395  24.124  25.409  1.00  0.00     0.007 A 
ATOM      8  C   UNL A   1      30.835  22.898  25.784  1.00  0.00     0.009 A 
ATOM      9  C   UNL A   1      32.671  24.123  24.806  1.00  0.00     0.023 A 
ATOM     10  C   UNL A   1      31.496  21.705  25.496  1.00  0.00     0.001 A 
ATOM     11  C   UNL A   1      32.690  21.723  24.772  1.00  0.00     0.014 A 
BRANCH   7  12
ATOM     12  C   UNL A   1      30.620  25.420  25.609  1.00  0.00     0.299 C 
BRANCH  12  13
ATOM     13  N   UNL A   1      31.145  26.633  24.938  1.00  0.00    -0.328 N 
ATOM     14  C   UNL A   1      33.309  28.939  24.669  1.00  0.00     0.037 C 
ATOM     15  C   UNL A   1      31.849  29.083  25.113  1.00  0.00     0.140 C 
ATOM     16  C   UNL A   1      31.338  27.793  25.846  1.00  0.00     0.287 C 
ATOM     17  N   UNL A   1      30.987  29.365  23.950  1.00  0.00    -0.294 N 
ATOM     18  C   UNL A   1      30.852  28.252  23.018  1.00  0.00     0.185 C 
ATOM     19  C   UNL A   1      30.327  27.032  23.781  1.00  0.00     0.284 C 
ATOM     20  H   UNL A   1      32.071  26.356  24.609  1.00  0.00     0.348 HD
BRANCH  17  21
ATOM     21  C   UNL A   1      30.158  30.467  23.812  1.00  0.00     0.410 C 
ATOM     22  O   UNL A   1      29.913  31.233  24.735  1.00  0.00    -0.224 OA
BRANCH  21  23
ATOM     23  O   UNL A   1      29.653  30.601  22.556  1.00  0.00    -0.444 OA
BRANCH  23  24
ATOM     24  C   UNL A   1      28.236  30.869  22.357  1.00  0.00     0.106 C 
ATOM     25  C   UNL A   1      27.368  29.777  22.995  1.00  0.00     0.056 C 
ATOM     26  C   UNL A   1      27.842  32.268  22.849  1.00  0.00     0.056 C 
ATOM     27  C   UNL A   1      28.027  30.820  20.834  1.00  0.00     0.056 C 
ENDBRANCH  23  24
ENDBRANCH  21  23
ENDBRANCH  17  21
ENDBRANCH  12  13
ENDBRANCH   7  12
ENDBRANCH   3   6
ENDBRANCH   1   2
BRANCH   1  28
ATOM     28  C   UNL A   1      36.577  20.376  25.165  1.00  0.00     0.023 C 
BRANCH  28  29
ATOM     29  C   UNL A   1      38.010  20.209  24.659  1.00  0.00     0.023 C 
BRANCH  29  30
ATOM     30  C   UNL A   1      39.078  20.334  25.742  1.00  0.00     0.116 C 
BRANCH  30  31
ATOM     31  N   UNL A   1      39.996  19.206  25.783  1.00  0.00    -0.352 N 
ATOM     32  C   UNL A   1      41.347  19.216  26.040  1.00  0.00     0.251 C 
ATOM     33  H   UNL A   1      39.600  18.322  25.604  1.00  0.00     0.163 HD
ATOM     34  O   UNL A   1      42.011  18.192  25.929  1.00  0.00    -0.269 OA
BRANCH  32  35
ATOM     35  C   UNL A   1      41.996  20.493  26.399  1.00  0.00     0.039 A 
ATOM     36  C   UNL A   1      42.368  21.367  25.376  1.00  0.00     0.014 A 
ATOM     37  C   UNL A   1      42.167  20.855  27.738  1.00  0.00     0.014 A 
ATOM     38  C   UNL A   1      42.841  22.640  25.702  1.00  0.00     0.010 A 
ATOM     39  C   UNL A   1      42.553  22.152  28.056  1.00  0.00     0.010 A 
ATOM     40  C   UNL A   1      42.891  23.060  27.042  1.00  0.00    -0.014 A 
BRANCH  40  41
ATOM     41  C   UNL A   1      43.271  24.453  27.388  1.00  0.00     0.031 A 
ATOM     42  C   UNL A   1      44.707  24.892  27.323  1.00  0.00     0.074 A 
ATOM     43  C   UNL A   1      42.323  25.311  27.814  1.00  0.00     0.049 A 
ATOM     44  N   UNL A   1      45.226  26.062  27.596  1.00  0.00    -0.248 NA
ATOM     45  C   UNL A   1      45.694  23.877  26.921  1.00  0.00     0.031 C 
ATOM     46  C   UNL A   1      40.904  24.987  27.985  1.00  0.00     0.029 A 
ATOM     47  N   UNL A   1      42.407  26.631  28.183  1.00  0.00    -0.354 N 
ATOM     48  C   UNL A   1      46.595  25.921  27.409  1.00  0.00     0.074 A 
ATOM     49  C   UNL A   1      46.833  24.539  27.059  1.00  0.00     0.031 C 
ATOM     50  C   UNL A   1      40.248  26.086  28.391  1.00  0.00     0.029 A 
ATOM     51  C   UNL A   1      41.202  27.178  28.550  1.00  0.00     0.049 A 
ATOM     52  H   UNL A   1      43.252  27.136  28.185  1.00  0.00     0.167 HD
ATOM     53  C   UNL A   1      47.562  26.865  27.495  1.00  0.00     0.037 A 
ATOM     54  C   UNL A   1      40.899  28.422  28.970  1.00  0.00     0.037 A 
ATOM     55  C   UNL A   1      47.318  28.244  27.832  1.00  0.00     0.049 A 
ATOM     56  C   UNL A   1      41.992  29.449  29.064  1.00  0.00     0.074 A 
ATOM     57  C   UNL A   1      48.220  29.292  27.879  1.00  0.00     0.029 A 
ATOM     58  N   UNL A   1      46.083  28.764  28.190  1.00  0.00    -0.354 N 
ATOM     59  N   UNL A   1      43.269  29.326  28.794  1.00  0.00    -0.248 NA
ATOM     60  C   UNL A   1      41.600  30.793  29.513  1.00  0.00     0.031 C 
ATOM     61  C   UNL A   1      47.544  30.431  28.325  1.00  0.00     0.029 A 
ATOM     62  C   UNL A   1      46.207  30.110  28.493  1.00  0.00     0.049 A 
ATOM     63  H   UNL A   1      45.242  28.252  28.224  1.00  0.00     0.167 HD
ATOM     64  C   UNL A   1      43.828  30.578  29.018  1.00  0.00     0.074 A 
ATOM     65  C   UNL A   1      42.747  31.451  29.423  1.00  0.00     0.031 C 
ATOM     66  C   UNL A   1      45.121  30.968  28.899  1.00  0.00     0.037 A 
BRANCH  53  67
ATOM     67  C   UNL A   1      48.976  26.436  27.223  1.00  0.00     0.057 A 
ATOM     68  C   UNL A   1      49.825  25.989  28.244  1.00  0.00     0.134 A 
ATOM     69  C   UNL A   1      49.484  26.436  25.917  1.00  0.00     0.134 A 
ATOM     70  F   UNL A   1      49.408  25.973  29.519  1.00  0.00    -0.206 F 
ATOM     71  C   UNL A   1      51.137  25.587  27.982  1.00  0.00     0.040 A 
ATOM     72  C   UNL A   1      50.783  26.007  25.639  1.00  0.00     0.040 A 
ATOM     73  F   UNL A   1      48.723  26.844  24.890  1.00  0.00    -0.206 F 
ATOM     74  C   UNL A   1      51.616  25.589  26.673  1.00  0.00     0.006 A 
ENDBRANCH  53  67
BRANCH  54  75
ATOM     75  C   UNL A   1      39.496  28.768  29.318  1.00  0.00     0.057 A 
ATOM     76  C   UNL A   1      38.617  29.283  28.359  1.00  0.00     0.134 A 
ATOM     77  C   UNL A   1      39.003  28.597  30.617  1.00  0.00     0.134 A 
ATOM     78  F   UNL A   1      39.033  29.487  27.100  1.00  0.00    -0.206 F 
ATOM     79  C   UNL A   1      37.305  29.637  28.683  1.00  0.00     0.040 A 
ATOM     80  C   UNL A   1      37.686  28.919  30.948  1.00  0.00     0.040 A 
ATOM     81  F   UNL A   1      39.792  28.100  31.581  1.00  0.00    -0.206 F 
ATOM     82  C   UNL A   1      36.835  29.450  29.981  1.00  0.00     0.006 A 
ENDBRANCH  54  75
BRANCH  66  83
ATOM     83  C   UNL A   1      45.432  32.410  29.187  1.00  0.00     0.057 A 
ATOM     84  C   UNL A   1      45.854  32.840  30.452  1.00  0.00     0.134 A 
ATOM     85  C   UNL A   1      45.335  33.375  28.176  1.00  0.00     0.134 A 
ATOM     86  F   UNL A   1      45.955  31.970  31.468  1.00  0.00    -0.206 F 
ATOM     87  C   UNL A   1      46.138  34.183  30.708  1.00  0.00     0.040 A 
ATOM     88  C   UNL A   1      45.648  34.714  28.412  1.00  0.00     0.040 A 
ATOM     89  F   UNL A   1      44.948  33.030  26.938  1.00  0.00    -0.206 F 
ATOM     90  C   UNL A   1      46.042  35.123  29.684  1.00  0.00     0.006 A 
ENDBRANCH  66  83
ENDBRANCH  40  41
ENDBRANCH  32  35
ENDBRANCH  30  31
ENDBRANCH  29  30
ENDBRANCH  28  29
ENDBRANCH   1  28
TORSDOF 16
ENDMDL
MODEL 3
REMARK VINA RESULT:     -11.9      1.830      6.459
REMARK SMILES C[C@@H]1C[N@@H+](Cc2cccc(C(=O)NCCCCNC(=O)c3ccc(-c4c5nc(c(-c6c(F)cccc6F)c6ccc([nH]6)c(-c6c(F)cccc6F)c6nc(c(-c7c(F)cccc7F)c7ccc4[nH]7)C=C6)C=C5)cc3)c2)CCN1C(=O)OC(C)(C)C
REMARK SMILES IDX 14 1 13 2 11 3 12 4 10 6 6 7 7 8 75 9 8 10 9 11 5 12 4 13
REMARK SMILES IDX 1 14 2 15 3 16 78 17 77 18 76 19 79 21 80 22 81 23 82 24
REMARK SMILES IDX 83 25 84 26 85 27 15 28 16 29 17 30 18 31 19 32 20 34 21 35
REMARK SMILES IDX 22 36 74 37 23 38 73 39 24 40 25 41 26 42 67 43 27 44 72 45
REMARK SMILES IDX 66 46 68 47 28 48 71 49 65 50 64 51 29 53 55 54 38 55 54 56
REMARK SMILES IDX 39 57 42 58 53 59 69 60 40 61 41 62 52 64 70 65 43 66 30 67
REMARK SMILES IDX 31 68 36 69 32 70 33 71 35 72 37 73 34 74 56 75 57 76 62 77
REMARK SMILES IDX 58 78 59 79 61 80 63 81 60 82 44 83 45 84 50 85 46 86 47 87
REMARK SMILES IDX 49 88 51 89 48 90
REMARK H PARENT 13 5 4 20 18 33 68 52 42 63
REMARK Flexibility Score: inf
ROOT
ATOM      1  C   UNL A   1      39.611  21.696  26.216  1.00  0.00     0.116 C 
ENDROOT
BRANCH   1   2
ATOM      2  N   UNL A   1      39.453  23.087  26.575  1.00  0.00    -0.352 N 
ATOM      3  C   UNL A   1      38.450  23.994  26.331  1.00  0.00     0.251 C 
ATOM      4  O   UNL A   1      38.559  25.101  26.861  1.00  0.00    -0.269 OA
ATOM      5  H   UNL A   1      40.206  23.453  27.093  1.00  0.00     0.163 HD
BRANCH   3   6
ATOM      6  C   UNL A   1      37.221  23.690  25.530  1.00  0.00     0.040 A 
ATOM      7  C   UNL A   1      34.847  23.935  24.971  1.00  0.00     0.007 A 
ATOM      8  C   UNL A   1      35.062  23.227  23.783  1.00  0.00     0.009 A 
ATOM      9  C   UNL A   1      35.919  24.061  25.880  1.00  0.00     0.023 A 
ATOM     10  C   UNL A   1      36.328  22.727  23.481  1.00  0.00     0.001 A 
ATOM     11  C   UNL A   1      37.405  22.987  24.331  1.00  0.00     0.014 A 
BRANCH   7  12
ATOM     12  C   UNL A   1      33.501  24.589  25.247  1.00  0.00     0.299 C 
BRANCH  12  13
ATOM     13  N   UNL A   1      33.080  25.683  24.337  1.00  0.00    -0.328 N 
ATOM     14  C   UNL A   1      33.245  28.697  23.360  1.00  0.00     0.037 C 
ATOM     15  C   UNL A   1      32.066  28.011  24.059  1.00  0.00     0.140 C 
ATOM     16  C   UNL A   1      32.550  26.882  25.036  1.00  0.00     0.287 C 
ATOM     17  N   UNL A   1      31.143  27.438  23.060  1.00  0.00    -0.294 N 
ATOM     18  C   UNL A   1      31.686  26.305  22.322  1.00  0.00     0.185 C 
ATOM     19  C   UNL A   1      32.117  25.227  23.321  1.00  0.00     0.284 C 
ATOM     20  H   UNL A   1      33.942  25.966  23.872  1.00  0.00     0.348 HD
BRANCH  17  21
ATOM     21  C   UNL A   1      29.795  27.736  22.948  1.00  0.00     0.410 C 
ATOM     22  O   UNL A   1      28.931  27.167  23.603  1.00  0.00    -0.224 OA
BRANCH  21  23
ATOM     23  O   UNL A   1      29.539  28.717  22.041  1.00  0.00    -0.444 OA
BRANCH  23  24
ATOM     24  C   UNL A   1      28.679  29.838  22.391  1.00  0.00     0.106 C 
ATOM     25  C   UNL A   1      28.585  30.848  21.240  1.00  0.00     0.056 C 
ATOM     26  C   UNL A   1      27.291  29.374  22.853  1.00  0.00     0.056 C 
ATOM     27  C   UNL A   1      29.374  30.525  23.578  1.00  0.00     0.056 C 
ENDBRANCH  23  24
ENDBRANCH  21  23
ENDBRANCH  17  21
ENDBRANCH  12  13
ENDBRANCH   7  12
ENDBRANCH   3   6
ENDBRANCH   1   2
BRANCH   1  28
ATOM     28  C   UNL A   1      40.908  21.116  26.780  1.00  0.00     0.023 C 
BRANCH  28  29
ATOM     29  C   UNL A   1      41.311  19.794  26.126  1.00  0.00     0.023 C 
BRANCH  29  30
ATOM     30  C   UNL A   1      42.759  19.384  26.375  1.00  0.00     0.116 C 
BRANCH  30  31
ATOM     31  N   UNL A   1      43.429  18.870  25.189  1.00  0.00    -0.352 N 
ATOM     32  C   UNL A   1      44.307  19.523  24.356  1.00  0.00     0.251 C 
ATOM     33  H   UNL A   1      43.227  17.936  24.953  1.00  0.00     0.163 HD
ATOM     34  O   UNL A   1      44.705  18.990  23.327  1.00  0.00    -0.269 OA
BRANCH  32  35
ATOM     35  C   UNL A   1      44.721  20.900  24.693  1.00  0.00     0.039 A 
ATOM     36  C   UNL A   1      44.310  21.946  23.866  1.00  0.00     0.014 A 
ATOM     37  C   UNL A   1      45.448  21.161  25.859  1.00  0.00     0.014 A 
ATOM     38  C   UNL A   1      44.561  23.264  24.252  1.00  0.00     0.010 A 
ATOM     39  C   UNL A   1      45.618  22.474  26.283  1.00  0.00     0.010 A 
ATOM     40  C   UNL A   1      45.174  23.540  25.487  1.00  0.00    -0.014 A 
BRANCH  40  41
ATOM     41  C   UNL A   1      45.330  24.938  25.962  1.00  0.00     0.031 A 
ATOM     42  C   UNL A   1      46.676  25.607  25.938  1.00  0.00     0.074 A 
ATOM     43  C   UNL A   1      44.263  25.589  26.467  1.00  0.00     0.049 A 
ATOM     44  N   UNL A   1      47.005  26.815  26.320  1.00  0.00    -0.248 NA
ATOM     45  C   UNL A   1      47.808  24.806  25.444  1.00  0.00     0.031 C 
ATOM     46  C   UNL A   1      42.917  25.026  26.606  1.00  0.00     0.029 A 
ATOM     47  N   UNL A   1      44.141  26.865  26.958  1.00  0.00    -0.354 N 
ATOM     48  C   UNL A   1      48.375  26.915  26.121  1.00  0.00     0.074 A 
ATOM     49  C   UNL A   1      48.827  25.627  25.643  1.00  0.00     0.031 C 
ATOM     50  C   UNL A   1      42.100  25.962  27.113  1.00  0.00     0.029 A 
ATOM     51  C   UNL A   1      42.868  27.175  27.374  1.00  0.00     0.049 A 
ATOM     52  H   UNL A   1      44.893  27.497  27.007  1.00  0.00     0.167 HD
ATOM     53  C   UNL A   1      49.180  27.990  26.295  1.00  0.00     0.037 A 
ATOM     54  C   UNL A   1      42.376  28.309  27.909  1.00  0.00     0.037 A 
ATOM     55  C   UNL A   1      48.722  29.274  26.760  1.00  0.00     0.049 A 
ATOM     56  C   UNL A   1      43.291  29.486  28.099  1.00  0.00     0.074 A 
ATOM     57  C   UNL A   1      49.446  30.445  26.905  1.00  0.00     0.029 A 
ATOM     58  N   UNL A   1      47.425  29.553  27.164  1.00  0.00    -0.354 N 
ATOM     59  N   UNL A   1      44.567  29.595  27.819  1.00  0.00    -0.248 NA
ATOM     60  C   UNL A   1      42.695  30.701  28.671  1.00  0.00     0.031 C 
ATOM     61  C   UNL A   1      48.602  31.414  27.455  1.00  0.00     0.029 A 
ATOM     62  C   UNL A   1      47.336  30.868  27.593  1.00  0.00     0.049 A 
ATOM     63  H   UNL A   1      46.678  28.912  27.150  1.00  0.00     0.167 HD
ATOM     64  C   UNL A   1      44.922  30.896  28.158  1.00  0.00     0.074 A 
ATOM     65  C   UNL A   1      43.720  31.541  28.644  1.00  0.00     0.031 C 
ATOM     66  C   UNL A   1      46.133  31.498  28.077  1.00  0.00     0.037 A 
BRANCH  53  67
ATOM     67  C   UNL A   1      50.640  27.821  25.984  1.00  0.00     0.057 A 
ATOM     68  C   UNL A   1      51.580  27.519  26.978  1.00  0.00     0.134 A 
ATOM     69  C   UNL A   1      51.107  27.928  24.668  1.00  0.00     0.134 A 
ATOM     70  F   UNL A   1      51.204  27.413  28.262  1.00  0.00    -0.206 F 
ATOM     71  C   UNL A   1      52.935  27.359  26.680  1.00  0.00     0.040 A 
ATOM     72  C   UNL A   1      52.454  27.740  24.353  1.00  0.00     0.040 A 
ATOM     73  F   UNL A   1      50.261  28.209  23.665  1.00  0.00    -0.206 F 
ATOM     74  C   UNL A   1      53.373  27.462  25.361  1.00  0.00     0.006 A 
ENDBRANCH  53  67
BRANCH  54  75
ATOM     75  C   UNL A   1      40.942  28.390  28.288  1.00  0.00     0.057 A 
ATOM     76  C   UNL A   1      40.497  27.962  29.544  1.00  0.00     0.134 A 
ATOM     77  C   UNL A   1      39.980  28.892  27.402  1.00  0.00     0.134 A 
ATOM     78  F   UNL A   1      41.366  27.454  30.431  1.00  0.00    -0.206 F 
ATOM     79  C   UNL A   1      39.147  28.009  29.898  1.00  0.00     0.040 A 
ATOM     80  C   UNL A   1      38.632  28.973  27.754  1.00  0.00     0.040 A 
ATOM     81  F   UNL A   1      40.342  29.328  26.186  1.00  0.00    -0.206 F 
ATOM     82  C   UNL A   1      38.211  28.521  29.003  1.00  0.00     0.006 A 
ENDBRANCH  54  75
BRANCH  66  83
ATOM     83  C   UNL A   1      46.213  32.938  28.499  1.00  0.00     0.057 A 
ATOM     84  C   UNL A   1      46.535  33.311  29.810  1.00  0.00     0.134 A 
ATOM     85  C   UNL A   1      45.992  33.965  27.572  1.00  0.00     0.134 A 
ATOM     86  F   UNL A   1      46.745  32.378  30.751  1.00  0.00    -0.206 F 
ATOM     87  C   UNL A   1      46.603  34.652  30.192  1.00  0.00     0.040 A 
ATOM     88  C   UNL A   1      46.091  35.309  27.933  1.00  0.00     0.040 A 
ATOM     89  F   UNL A   1      45.692  33.679  26.296  1.00  0.00    -0.206 F 
ATOM     90  C   UNL A   1      46.388  35.657  29.249  1.00  0.00     0.006 A 
ENDBRANCH  66  83
ENDBRANCH  40  41
ENDBRANCH  32  35
ENDBRANCH  30  31
ENDBRANCH  29  30
ENDBRANCH  28  29
ENDBRANCH   1  28
TORSDOF 16
ENDMDL
