MODEL 1
REMARK VINA RESULT:     -11.7      0.000      0.000
REMARK SMILES C[C@@H](Oc1ccccc1Cl)C(=O)Nc1ccc(C(=O)NCCCCNC(=O)c2ccc(-c3c4nc(c(-c5c(F)cccc5F)c5ccc([nH]5)c(-c5c(F)cccc5F)c5nc(c(-c6c(F)cccc6F)c6ccc3[nH]6)C=C5)C=C4)cc2)cc1
REMARK SMILES IDX 21 1 20 2 18 3 19 4 17 6 14 7 15 8 83 9 16 10 82 11 13 12
REMARK SMILES IDX 11 13 12 14 2 16 1 17 3 18 4 19 5 20 9 21 6 22 8 23 10 24
REMARK SMILES IDX 7 25 22 26 23 27 24 28 25 29 26 30 27 32 28 33 29 34 81 35
REMARK SMILES IDX 30 36 80 37 31 38 32 39 33 40 74 41 34 42 79 43 73 44 75 45
REMARK SMILES IDX 35 46 78 47 72 48 71 49 36 51 62 52 45 53 61 54 46 55 49 56
REMARK SMILES IDX 60 57 76 58 47 59 48 60 59 62 77 63 50 64 37 65 38 66 43 67
REMARK SMILES IDX 39 68 40 69 42 70 44 71 41 72 63 73 64 74 69 75 65 76 66 77
REMARK SMILES IDX 68 78 70 79 67 80 51 81 52 82 57 83 53 84 54 85 56 86 58 87
REMARK SMILES IDX 55 88
REMARK H PARENT 20 5 13 15 25 31 75 50 49 61
REMARK Flexibility Score: inf
ROOT
ATOM      1  C   UNL A   1      37.822  23.474  25.839  1.00  0.00     0.116 C 
ENDROOT
BRANCH   1   2
ATOM      2  N   UNL A   1      37.500  23.343  24.430  1.00  0.00    -0.352 N 
ATOM      3  C   UNL A   1      36.324  22.995  23.808  1.00  0.00     0.251 C 
ATOM      4  O   UNL A   1      36.270  23.046  22.580  1.00  0.00    -0.269 OA
ATOM      5  H   UNL A   1      38.247  23.535  23.817  1.00  0.00     0.163 HD
BRANCH   3   6
ATOM      6  C   UNL A   1      35.103  22.635  24.576  1.00  0.00     0.039 A 
ATOM      7  C   UNL A   1      32.674  22.253  25.905  1.00  0.00     0.041 A 
ATOM      8  C   UNL A   1      32.725  22.144  24.518  1.00  0.00     0.027 A 
ATOM      9  C   UNL A   1      33.854  22.384  26.633  1.00  0.00     0.027 A 
ATOM     10  C   UNL A   1      33.934  22.366  23.852  1.00  0.00     0.016 A 
ATOM     11  C   UNL A   1      35.071  22.545  25.968  1.00  0.00     0.016 A 
BRANCH   7  12
ATOM     12  N   UNL A   1      31.430  22.204  26.535  1.00  0.00    -0.323 N 
ATOM     13  C   UNL A   1      30.567  23.231  26.815  1.00  0.00     0.265 C 
ATOM     14  O   UNL A   1      29.576  22.972  27.509  1.00  0.00    -0.270 OA
ATOM     15  H   UNL A   1      31.130  21.309  26.816  1.00  0.00     0.170 HD
BRANCH  13  16
ATOM     16  C   UNL A   1      30.745  24.660  26.232  1.00  0.00     0.259 C 
ATOM     17  C   UNL A   1      29.402  25.380  26.173  1.00  0.00     0.064 C 
BRANCH  16  18
ATOM     18  O   UNL A   1      31.716  25.462  26.906  1.00  0.00    -0.479 OA
BRANCH  18  19
ATOM     19  C   UNL A   1      32.358  26.367  26.103  1.00  0.00     0.139 A 
ATOM     20  C   UNL A   1      33.143  25.908  25.041  1.00  0.00     0.048 A 
ATOM     21  C   UNL A   1      32.345  27.731  26.418  1.00  0.00     0.083 A 
ATOM     22  C   UNL A   1      33.877  26.816  24.272  1.00  0.00     0.004 A 
ATOM     23  C   UNL A   1      33.080  28.635  25.646  1.00  0.00     0.024 A 
ATOM     24  Cl  UNL A   1      31.434  28.352  27.745  1.00  0.00    -0.080 Cl
ATOM     25  C   UNL A   1      33.844  28.177  24.573  1.00  0.00     0.002 A 
ENDBRANCH  18  19
ENDBRANCH  16  18
ENDBRANCH  13  16
ENDBRANCH   7  12
ENDBRANCH   3   6
ENDBRANCH   1   2
BRANCH   1  26
ATOM     26  C   UNL A   1      38.991  22.566  26.223  1.00  0.00     0.023 C 
BRANCH  26  27
ATOM     27  C   UNL A   1      38.984  21.208  25.517  1.00  0.00     0.023 C 
BRANCH  27  28
ATOM     28  C   UNL A   1      39.397  20.030  26.391  1.00  0.00     0.116 C 
BRANCH  28  29
ATOM     29  N   UNL A   1      40.553  19.311  25.879  1.00  0.00    -0.352 N 
ATOM     30  C   UNL A   1      41.861  19.723  25.817  1.00  0.00     0.251 C 
ATOM     31  H   UNL A   1      40.374  18.407  25.531  1.00  0.00     0.163 HD
ATOM     32  O   UNL A   1      42.706  19.035  25.250  1.00  0.00    -0.269 OA
BRANCH  30  33
ATOM     33  C   UNL A   1      42.245  21.024  26.406  1.00  0.00     0.039 A 
ATOM     34  C   UNL A   1      42.629  22.062  25.555  1.00  0.00     0.014 A 
ATOM     35  C   UNL A   1      42.205  21.224  27.789  1.00  0.00     0.014 A 
ATOM     36  C   UNL A   1      42.908  23.323  26.087  1.00  0.00     0.010 A 
ATOM     37  C   UNL A   1      42.412  22.498  28.309  1.00  0.00     0.010 A 
ATOM     38  C   UNL A   1      42.766  23.560  27.463  1.00  0.00    -0.014 A 
BRANCH  38  39
ATOM     39  C   UNL A   1      42.987  24.911  28.037  1.00  0.00     0.031 A 
ATOM     40  C   UNL A   1      44.359  25.324  28.491  1.00  0.00     0.074 A 
ATOM     41  C   UNL A   1      41.941  25.744  28.204  1.00  0.00     0.049 A 
ATOM     42  N   UNL A   1      44.741  26.435  29.070  1.00  0.00    -0.248 NA
ATOM     43  C   UNL A   1      45.443  24.348  28.295  1.00  0.00     0.031 C 
ATOM     44  C   UNL A   1      40.553  25.443  27.849  1.00  0.00     0.029 A 
ATOM     45  N   UNL A   1      41.883  27.013  28.724  1.00  0.00    -0.354 N 
ATOM     46  C   UNL A   1      46.099  26.287  29.314  1.00  0.00     0.074 A 
ATOM     47  C   UNL A   1      46.465  24.958  28.875  1.00  0.00     0.031 C 
ATOM     48  C   UNL A   1      39.786  26.507  28.137  1.00  0.00     0.029 A 
ATOM     49  C   UNL A   1      40.619  27.549  28.728  1.00  0.00     0.049 A 
ATOM     50  H   UNL A   1      42.674  27.493  29.062  1.00  0.00     0.167 HD
ATOM     51  C   UNL A   1      46.970  27.187  29.832  1.00  0.00     0.037 A 
ATOM     52  C   UNL A   1      40.181  28.746  29.161  1.00  0.00     0.037 A 
ATOM     53  C   UNL A   1      46.608  28.516  30.248  1.00  0.00     0.049 A 
ATOM     54  C   UNL A   1      41.166  29.723  29.739  1.00  0.00     0.074 A 
ATOM     55  C   UNL A   1      47.425  29.519  30.740  1.00  0.00     0.029 A 
ATOM     56  N   UNL A   1      45.320  29.028  30.219  1.00  0.00    -0.354 N 
ATOM     57  N   UNL A   1      42.461  29.595  29.905  1.00  0.00    -0.248 NA
ATOM     58  C   UNL A   1      40.630  31.019  30.182  1.00  0.00     0.031 C 
ATOM     59  C   UNL A   1      46.626  30.625  31.046  1.00  0.00     0.029 A 
ATOM     60  C   UNL A   1      45.317  30.328  30.700  1.00  0.00     0.049 A 
ATOM     61  H   UNL A   1      44.524  28.541  29.904  1.00  0.00     0.167 HD
ATOM     62  C   UNL A   1      42.898  30.799  30.441  1.00  0.00     0.074 A 
ATOM     63  C   UNL A   1      41.733  31.651  30.560  1.00  0.00     0.031 C 
ATOM     64  C   UNL A   1      44.151  31.167  30.801  1.00  0.00     0.037 A 
BRANCH  51  65
ATOM     65  C   UNL A   1      48.403  26.760  29.967  1.00  0.00     0.057 A 
ATOM     66  C   UNL A   1      49.357  27.062  28.988  1.00  0.00     0.134 A 
ATOM     67  C   UNL A   1      48.840  26.065  31.102  1.00  0.00     0.134 A 
ATOM     68  F   UNL A   1      49.002  27.715  27.871  1.00  0.00    -0.206 F 
ATOM     69  C   UNL A   1      50.689  26.665  29.118  1.00  0.00     0.040 A 
ATOM     70  C   UNL A   1      50.175  25.686  31.256  1.00  0.00     0.040 A 
ATOM     71  F   UNL A   1      47.979  25.747  32.081  1.00  0.00    -0.206 F 
ATOM     72  C   UNL A   1      51.102  25.980  30.259  1.00  0.00     0.006 A 
ENDBRANCH  51  65
BRANCH  52  73
ATOM     73  C   UNL A   1      38.744  29.104  29.040  1.00  0.00     0.057 A 
ATOM     74  C   UNL A   1      38.215  29.552  27.825  1.00  0.00     0.134 A 
ATOM     75  C   UNL A   1      37.874  29.024  30.133  1.00  0.00     0.134 A 
ATOM     76  F   UNL A   1      39.004  29.667  26.746  1.00  0.00    -0.206 F 
ATOM     77  C   UNL A   1      36.876  29.929  27.704  1.00  0.00     0.040 A 
ATOM     78  C   UNL A   1      36.527  29.375  30.021  1.00  0.00     0.040 A 
ATOM     79  F   UNL A   1      38.319  28.596  31.323  1.00  0.00    -0.206 F 
ATOM     80  C   UNL A   1      36.027  29.836  28.805  1.00  0.00     0.006 A 
ENDBRANCH  52  73
BRANCH  64  81
ATOM     81  C   UNL A   1      44.334  32.564  31.317  1.00  0.00     0.057 A 
ATOM     82  C   UNL A   1      44.274  32.863  32.684  1.00  0.00     0.134 A 
ATOM     83  C   UNL A   1      44.605  33.618  30.435  1.00  0.00     0.134 A 
ATOM     84  F   UNL A   1      44.005  31.901  33.579  1.00  0.00    -0.206 F 
ATOM     85  C   UNL A   1      44.452  34.166  33.153  1.00  0.00     0.040 A 
ATOM     86  C   UNL A   1      44.812  34.919  30.894  1.00  0.00     0.040 A 
ATOM     87  F   UNL A   1      44.685  33.397  29.114  1.00  0.00    -0.206 F 
ATOM     88  C   UNL A   1      44.728  35.197  32.256  1.00  0.00     0.006 A 
ENDBRANCH  64  81
ENDBRANCH  38  39
ENDBRANCH  30  33
ENDBRANCH  28  29
ENDBRANCH  27  28
ENDBRANCH  26  27
ENDBRANCH   1  26
TORSDOF 15
ENDMDL
MODEL 2
REMARK VINA RESULT:     -11.7      1.606      2.452
REMARK SMILES C[C@@H](Oc1ccccc1Cl)C(=O)Nc1ccc(C(=O)NCCCCNC(=O)c2ccc(-c3c4nc(c(-c5c(F)cccc5F)c5ccc([nH]5)c(-c5c(F)cccc5F)c5nc(c(-c6c(F)cccc6F)c6ccc3[nH]6)C=C5)C=C4)cc2)cc1
REMARK SMILES IDX 21 1 20 2 18 3 19 4 17 6 14 7 15 8 83 9 16 10 82 11 13 12
REMARK SMILES IDX 11 13 12 14 2 16 1 17 3 18 4 19 5 20 9 21 6 22 8 23 10 24
REMARK SMILES IDX 7 25 22 26 23 27 24 28 25 29 26 30 27 32 28 33 29 34 81 35
REMARK SMILES IDX 30 36 80 37 31 38 32 39 33 40 74 41 34 42 79 43 73 44 75 45
REMARK SMILES IDX 35 46 78 47 72 48 71 49 36 51 62 52 45 53 61 54 46 55 49 56
REMARK SMILES IDX 60 57 76 58 47 59 48 60 59 62 77 63 50 64 37 65 38 66 43 67
REMARK SMILES IDX 39 68 40 69 42 70 44 71 41 72 63 73 64 74 69 75 65 76 66 77
REMARK SMILES IDX 68 78 70 79 67 80 51 81 52 82 57 83 53 84 54 85 56 86 58 87
REMARK SMILES IDX 55 88
REMARK H PARENT 20 5 13 15 25 31 75 50 49 61
REMARK Flexibility Score: inf
ROOT
ATOM      1  C   UNL A   1      35.417  19.903  25.021  1.00  0.00     0.116 C 
ENDROOT
BRANCH   1   2
ATOM      2  N   UNL A   1      34.295  18.987  24.930  1.00  0.00    -0.352 N 
ATOM      3  C   UNL A   1      32.971  19.218  24.640  1.00  0.00     0.251 C 
ATOM      4  O   UNL A   1      32.217  18.253  24.526  1.00  0.00    -0.269 OA
ATOM      5  H   UNL A   1      34.520  18.044  25.104  1.00  0.00     0.163 HD
BRANCH   3   6
ATOM      6  C   UNL A   1      32.447  20.586  24.388  1.00  0.00     0.039 A 
ATOM      7  C   UNL A   1      31.169  23.050  24.058  1.00  0.00     0.041 A 
ATOM      8  C   UNL A   1      31.546  22.633  25.333  1.00  0.00     0.027 A 
ATOM      9  C   UNL A   1      31.577  22.321  22.944  1.00  0.00     0.027 A 
ATOM     10  C   UNL A   1      32.156  21.387  25.500  1.00  0.00     0.016 A 
ATOM     11  C   UNL A   1      32.241  21.105  23.109  1.00  0.00     0.016 A 
BRANCH   7  12
ATOM     12  N   UNL A   1      30.405  24.211  23.932  1.00  0.00    -0.323 N 
ATOM     13  C   UNL A   1      30.748  25.408  23.361  1.00  0.00     0.265 C 
ATOM     14  O   UNL A   1      29.955  26.350  23.488  1.00  0.00    -0.270 OA
ATOM     15  H   UNL A   1      29.495  24.163  24.305  1.00  0.00     0.170 HD
BRANCH  13  16
ATOM     16  C   UNL A   1      32.032  25.592  22.506  1.00  0.00     0.259 C 
ATOM     17  C   UNL A   1      31.708  26.343  21.219  1.00  0.00     0.064 C 
BRANCH  16  18
ATOM     18  O   UNL A   1      33.119  26.217  23.191  1.00  0.00    -0.479 OA
BRANCH  18  19
ATOM     19  C   UNL A   1      33.942  25.347  23.857  1.00  0.00     0.139 A 
ATOM     20  C   UNL A   1      34.560  24.309  23.153  1.00  0.00     0.048 A 
ATOM     21  C   UNL A   1      34.061  25.407  25.251  1.00  0.00     0.083 A 
ATOM     22  C   UNL A   1      35.327  23.362  23.837  1.00  0.00     0.004 A 
ATOM     23  C   UNL A   1      34.829  24.458  25.930  1.00  0.00     0.024 A 
ATOM     24  Cl  UNL A   1      33.283  26.636  26.179  1.00  0.00    -0.080 Cl
ATOM     25  C   UNL A   1      35.463  23.437  25.222  1.00  0.00     0.002 A 
ENDBRANCH  18  19
ENDBRANCH  16  18
ENDBRANCH  13  16
ENDBRANCH   7  12
ENDBRANCH   3   6
ENDBRANCH   1   2
BRANCH   1  26
ATOM     26  C   UNL A   1      36.748  19.157  24.907  1.00  0.00     0.023 C 
BRANCH  26  27
ATOM     27  C   UNL A   1      37.943  20.058  24.592  1.00  0.00     0.023 C 
BRANCH  27  28
ATOM     28  C   UNL A   1      38.928  20.241  25.740  1.00  0.00     0.116 C 
BRANCH  28  29
ATOM     29  N   UNL A   1      40.008  19.267  25.733  1.00  0.00    -0.352 N 
ATOM     30  C   UNL A   1      41.329  19.448  26.061  1.00  0.00     0.251 C 
ATOM     31  H   UNL A   1      39.759  18.355  25.457  1.00  0.00     0.163 HD
ATOM     32  O   UNL A   1      42.143  18.544  25.894  1.00  0.00    -0.269 OA
BRANCH  30  33
ATOM     33  C   UNL A   1      41.778  20.757  26.582  1.00  0.00     0.039 A 
ATOM     34  C   UNL A   1      42.210  21.730  25.678  1.00  0.00     0.014 A 
ATOM     35  C   UNL A   1      41.753  21.029  27.952  1.00  0.00     0.014 A 
ATOM     36  C   UNL A   1      42.553  23.002  26.143  1.00  0.00     0.010 A 
ATOM     37  C   UNL A   1      42.025  22.317  28.406  1.00  0.00     0.010 A 
ATOM     38  C   UNL A   1      42.428  23.315  27.506  1.00  0.00    -0.014 A 
BRANCH  38  39
ATOM     39  C   UNL A   1      42.717  24.681  28.009  1.00  0.00     0.031 A 
ATOM     40  C   UNL A   1      44.122  25.070  28.377  1.00  0.00     0.074 A 
ATOM     41  C   UNL A   1      41.706  25.554  28.192  1.00  0.00     0.049 A 
ATOM     42  N   UNL A   1      44.565  26.192  28.887  1.00  0.00    -0.248 NA
ATOM     43  C   UNL A   1      45.165  24.053  28.170  1.00  0.00     0.031 C 
ATOM     44  C   UNL A   1      40.293  25.282  27.920  1.00  0.00     0.029 A 
ATOM     45  N   UNL A   1      41.712  26.844  28.659  1.00  0.00    -0.354 N 
ATOM     46  C   UNL A   1      45.929  26.011  29.070  1.00  0.00     0.074 A 
ATOM     47  C   UNL A   1      46.234  24.654  28.671  1.00  0.00     0.031 C 
ATOM     48  C   UNL A   1      39.574  26.380  28.199  1.00  0.00     0.029 A 
ATOM     49  C   UNL A   1      40.465  27.419  28.702  1.00  0.00     0.049 A 
ATOM     50  H   UNL A   1      42.532  27.312  28.936  1.00  0.00     0.167 HD
ATOM     51  C   UNL A   1      46.851  26.904  29.505  1.00  0.00     0.037 A 
ATOM     52  C   UNL A   1      40.086  28.646  29.105  1.00  0.00     0.037 A 
ATOM     53  C   UNL A   1      46.550  28.260  29.881  1.00  0.00     0.049 A 
ATOM     54  C   UNL A   1      41.127  29.616  29.590  1.00  0.00     0.074 A 
ATOM     55  C   UNL A   1      47.420  29.256  30.288  1.00  0.00     0.029 A 
ATOM     56  N   UNL A   1      45.278  28.811  29.893  1.00  0.00    -0.354 N 
ATOM     57  N   UNL A   1      42.424  29.453  29.697  1.00  0.00    -0.248 NA
ATOM     58  C   UNL A   1      40.652  30.945  30.003  1.00  0.00     0.031 C 
ATOM     59  C   UNL A   1      46.670  30.398  30.585  1.00  0.00     0.029 A 
ATOM     60  C   UNL A   1      45.338  30.128  30.317  1.00  0.00     0.049 A 
ATOM     61  H   UNL A   1      44.453  28.336  29.640  1.00  0.00     0.167 HD
ATOM     62  C   UNL A   1      42.923  30.664  30.159  1.00  0.00     0.074 A 
ATOM     63  C   UNL A   1      41.791  31.557  30.298  1.00  0.00     0.031 C 
ATOM     64  C   UNL A   1      44.203  31.008  30.440  1.00  0.00     0.037 A 
BRANCH  51  65
ATOM     65  C   UNL A   1      48.276  26.438  29.588  1.00  0.00     0.057 A 
ATOM     66  C   UNL A   1      49.159  26.572  28.508  1.00  0.00     0.134 A 
ATOM     67  C   UNL A   1      48.779  25.875  30.768  1.00  0.00     0.134 A 
ATOM     68  F   UNL A   1      48.737  27.092  27.346  1.00  0.00    -0.206 F 
ATOM     69  C   UNL A   1      50.484  26.140  28.590  1.00  0.00     0.040 A 
ATOM     70  C   UNL A   1      50.110  25.464  30.870  1.00  0.00     0.040 A 
ATOM     71  F   UNL A   1      47.989  25.722  31.841  1.00  0.00    -0.206 F 
ATOM     72  C   UNL A   1      50.964  25.589  29.777  1.00  0.00     0.006 A 
ENDBRANCH  51  65
BRANCH  52  73
ATOM     73  C   UNL A   1      38.656  29.044  29.040  1.00  0.00     0.057 A 
ATOM     74  C   UNL A   1      38.107  29.563  27.861  1.00  0.00     0.134 A 
ATOM     75  C   UNL A   1      37.812  28.932  30.150  1.00  0.00     0.134 A 
ATOM     76  F   UNL A   1      38.871  29.712  26.769  1.00  0.00    -0.206 F 
ATOM     77  C   UNL A   1      36.775  29.977  27.795  1.00  0.00     0.040 A 
ATOM     78  C   UNL A   1      36.472  29.319  30.091  1.00  0.00     0.040 A 
ATOM     79  F   UNL A   1      38.276  28.435  31.306  1.00  0.00    -0.206 F 
ATOM     80  C   UNL A   1      35.952  29.852  28.913  1.00  0.00     0.006 A 
ENDBRANCH  52  73
BRANCH  64  81
ATOM     81  C   UNL A   1      44.453  32.418  30.885  1.00  0.00     0.057 A 
ATOM     82  C   UNL A   1      44.688  33.454  29.972  1.00  0.00     0.134 A 
ATOM     83  C   UNL A   1      44.428  32.748  32.247  1.00  0.00     0.134 A 
ATOM     84  F   UNL A   1      44.737  33.201  28.655  1.00  0.00    -0.206 F 
ATOM     85  C   UNL A   1      44.913  34.764  30.398  1.00  0.00     0.040 A 
ATOM     86  C   UNL A   1      44.626  34.059  32.683  1.00  0.00     0.040 A 
ATOM     87  F   UNL A   1      44.200  31.805  33.172  1.00  0.00    -0.206 F 
ATOM     88  C   UNL A   1      44.877  35.070  31.758  1.00  0.00     0.006 A 
ENDBRANCH  64  81
ENDBRANCH  38  39
ENDBRANCH  30  33
ENDBRANCH  28  29
ENDBRANCH  27  28
ENDBRANCH  26  27
ENDBRANCH   1  26
TORSDOF 15
ENDMDL
MODEL 3
REMARK VINA RESULT:     -11.6      4.187      9.089
REMARK SMILES C[C@@H](Oc1ccccc1Cl)C(=O)Nc1ccc(C(=O)NCCCCNC(=O)c2ccc(-c3c4nc(c(-c5c(F)cccc5F)c5ccc([nH]5)c(-c5c(F)cccc5F)c5nc(c(-c6c(F)cccc6F)c6ccc3[nH]6)C=C5)C=C4)cc2)cc1
REMARK SMILES IDX 21 1 20 2 18 3 19 4 17 6 14 7 15 8 83 9 16 10 82 11 13 12
REMARK SMILES IDX 11 13 12 14 2 16 1 17 3 18 4 19 5 20 9 21 6 22 8 23 10 24
REMARK SMILES IDX 7 25 22 26 23 27 24 28 25 29 26 30 27 32 28 33 29 34 81 35
REMARK SMILES IDX 30 36 80 37 31 38 32 39 33 40 74 41 34 42 79 43 73 44 75 45
REMARK SMILES IDX 35 46 78 47 72 48 71 49 36 51 62 52 45 53 61 54 46 55 49 56
REMARK SMILES IDX 60 57 76 58 47 59 48 60 59 62 77 63 50 64 37 65 38 66 43 67
REMARK SMILES IDX 39 68 40 69 42 70 44 71 41 72 63 73 64 74 69 75 65 76 66 77
REMARK SMILES IDX 68 78 70 79 67 80 51 81 52 82 57 83 53 84 54 85 56 86 58 87
REMARK SMILES IDX 55 88
REMARK H PARENT 20 5 13 15 25 31 75 50 49 61
REMARK Flexibility Score: inf
ROOT
ATOM      1  C   UNL A   1      32.842  30.287  26.869  1.00  0.00     0.116 C 
ENDROOT
BRANCH   1   2
ATOM      2  N   UNL A   1      33.573  29.783  25.721  1.00  0.00    -0.352 N 
ATOM      3  C   UNL A   1      33.575  28.539  25.136  1.00  0.00     0.251 C 
ATOM      4  O   UNL A   1      34.215  28.377  24.098  1.00  0.00    -0.269 OA
ATOM      5  H   UNL A   1      34.166  30.440  25.290  1.00  0.00     0.163 HD
BRANCH   3   6
ATOM      6  C   UNL A   1      32.769  27.413  25.676  1.00  0.00     0.039 A 
ATOM      7  C   UNL A   1      31.343  25.123  26.409  1.00  0.00     0.041 A 
ATOM      8  C   UNL A   1      32.736  25.106  26.435  1.00  0.00     0.027 A 
ATOM      9  C   UNL A   1      30.670  26.321  26.183  1.00  0.00     0.027 A 
ATOM     10  C   UNL A   1      33.447  26.241  26.038  1.00  0.00     0.016 A 
ATOM     11  C   UNL A   1      31.385  27.471  25.845  1.00  0.00     0.016 A 
BRANCH   7  12
ATOM     12  N   UNL A   1      30.655  23.930  26.636  1.00  0.00    -0.323 N 
ATOM     13  C   UNL A   1      30.763  22.736  25.974  1.00  0.00     0.265 C 
ATOM     14  O   UNL A   1      29.948  21.849  26.259  1.00  0.00    -0.270 OA
ATOM     15  H   UNL A   1      30.002  23.950  27.373  1.00  0.00     0.170 HD
BRANCH  13  16
ATOM     16  C   UNL A   1      31.903  22.438  24.963  1.00  0.00     0.259 C 
ATOM     17  C   UNL A   1      32.423  21.016  25.154  1.00  0.00     0.064 C 
BRANCH  16  18
ATOM     18  O   UNL A   1      31.562  22.667  23.595  1.00  0.00    -0.479 OA
BRANCH  18  19
ATOM     19  C   UNL A   1      31.844  23.930  23.146  1.00  0.00     0.139 A 
ATOM     20  C   UNL A   1      30.800  24.840  22.951  1.00  0.00     0.048 A 
ATOM     21  C   UNL A   1      33.144  24.271  22.754  1.00  0.00     0.083 A 
ATOM     22  C   UNL A   1      31.065  26.099  22.406  1.00  0.00     0.004 A 
ATOM     23  C   UNL A   1      33.404  25.531  22.210  1.00  0.00     0.024 A 
ATOM     24  Cl  UNL A   1      34.464  23.174  22.925  1.00  0.00    -0.080 Cl
ATOM     25  C   UNL A   1      32.365  26.446  22.038  1.00  0.00     0.002 A 
ENDBRANCH  18  19
ENDBRANCH  16  18
ENDBRANCH  13  16
ENDBRANCH   7  12
ENDBRANCH   3   6
ENDBRANCH   1   2
BRANCH   1  26
ATOM     26  C   UNL A   1      31.500  30.886  26.447  1.00  0.00     0.023 C 
BRANCH  26  27
ATOM     27  C   UNL A   1      31.422  32.407  26.593  1.00  0.00     0.023 C 
BRANCH  27  28
ATOM     28  C   UNL A   1      32.615  33.045  27.296  1.00  0.00     0.116 C 
BRANCH  28  29
ATOM     29  N   UNL A   1      32.357  34.402  27.750  1.00  0.00    -0.352 N 
ATOM     30  C   UNL A   1      33.025  35.130  28.704  1.00  0.00     0.251 C 
ATOM     31  H   UNL A   1      31.603  34.862  27.314  1.00  0.00     0.163 HD
ATOM     32  O   UNL A   1      32.610  36.232  29.052  1.00  0.00    -0.269 OA
BRANCH  30  33
ATOM     33  C   UNL A   1      34.232  34.562  29.341  1.00  0.00     0.039 A 
ATOM     34  C   UNL A   1      34.096  33.879  30.553  1.00  0.00     0.014 A 
ATOM     35  C   UNL A   1      35.486  34.682  28.737  1.00  0.00     0.014 A 
ATOM     36  C   UNL A   1      35.209  33.259  31.125  1.00  0.00     0.010 A 
ATOM     37  C   UNL A   1      36.578  34.003  29.270  1.00  0.00     0.010 A 
ATOM     38  C   UNL A   1      36.450  33.286  30.469  1.00  0.00    -0.014 A 
BRANCH  38  39
ATOM     39  C   UNL A   1      37.627  32.571  31.024  1.00  0.00     0.031 A 
ATOM     40  C   UNL A   1      38.286  33.063  32.282  1.00  0.00     0.074 A 
ATOM     41  C   UNL A   1      38.140  31.515  30.362  1.00  0.00     0.049 A 
ATOM     42  N   UNL A   1      39.355  32.611  32.889  1.00  0.00    -0.248 NA
ATOM     43  C   UNL A   1      37.679  34.236  32.931  1.00  0.00     0.031 C 
ATOM     44  C   UNL A   1      37.622  30.970  29.105  1.00  0.00     0.029 A 
ATOM     45  N   UNL A   1      39.217  30.716  30.652  1.00  0.00    -0.354 N 
ATOM     46  C   UNL A   1      39.553  33.448  33.979  1.00  0.00     0.074 A 
ATOM     47  C   UNL A   1      38.529  34.469  33.920  1.00  0.00     0.031 C 
ATOM     48  C   UNL A   1      38.365  29.911  28.747  1.00  0.00     0.029 A 
ATOM     49  C   UNL A   1      39.431  29.723  29.726  1.00  0.00     0.049 A 
ATOM     50  H   UNL A   1      39.782  30.842  31.447  1.00  0.00     0.167 HD
ATOM     51  C   UNL A   1      40.486  33.358  34.957  1.00  0.00     0.037 A 
ATOM     52  C   UNL A   1      40.381  28.772  29.673  1.00  0.00     0.037 A 
ATOM     53  C   UNL A   1      41.490  32.329  35.026  1.00  0.00     0.049 A 
ATOM     54  C   UNL A   1      41.409  28.698  30.767  1.00  0.00     0.074 A 
ATOM     55  C   UNL A   1      42.449  32.124  36.002  1.00  0.00     0.029 A 
ATOM     56  N   UNL A   1      41.662  31.331  34.079  1.00  0.00    -0.354 N 
ATOM     57  N   UNL A   1      41.546  29.457  31.828  1.00  0.00    -0.248 NA
ATOM     58  C   UNL A   1      42.413  27.628  30.661  1.00  0.00     0.031 C 
ATOM     59  C   UNL A   1      43.228  31.025  35.626  1.00  0.00     0.029 A 
ATOM     60  C   UNL A   1      42.723  30.516  34.440  1.00  0.00     0.049 A 
ATOM     61  H   UNL A   1      41.113  31.218  33.270  1.00  0.00     0.167 HD
ATOM     62  C   UNL A   1      42.627  28.940  32.530  1.00  0.00     0.074 A 
ATOM     63  C   UNL A   1      43.102  27.794  31.782  1.00  0.00     0.031 C 
ATOM     64  C   UNL A   1      43.176  29.372  33.690  1.00  0.00     0.037 A 
BRANCH  51  65
ATOM     65  C   UNL A   1      40.454  34.400  36.037  1.00  0.00     0.057 A 
ATOM     66  C   UNL A   1      39.714  34.221  37.213  1.00  0.00     0.134 A 
ATOM     67  C   UNL A   1      41.194  35.583  35.914  1.00  0.00     0.134 A 
ATOM     68  F   UNL A   1      38.973  33.116  37.388  1.00  0.00    -0.206 F 
ATOM     69  C   UNL A   1      39.688  35.191  38.216  1.00  0.00     0.040 A 
ATOM     70  C   UNL A   1      41.198  36.549  36.923  1.00  0.00     0.040 A 
ATOM     71  F   UNL A   1      41.930  35.817  34.817  1.00  0.00    -0.206 F 
ATOM     72  C   UNL A   1      40.438  36.358  38.075  1.00  0.00     0.006 A 
ENDBRANCH  51  65
BRANCH  52  73
ATOM     73  C   UNL A   1      40.391  27.788  28.560  1.00  0.00     0.057 A 
ATOM     74  C   UNL A   1      41.084  28.052  27.373  1.00  0.00     0.134 A 
ATOM     75  C   UNL A   1      39.698  26.575  28.646  1.00  0.00     0.134 A 
ATOM     76  F   UNL A   1      41.751  29.206  27.224  1.00  0.00    -0.206 F 
ATOM     77  C   UNL A   1      41.071  27.156  26.303  1.00  0.00     0.040 A 
ATOM     78  C   UNL A   1      39.697  25.658  27.594  1.00  0.00     0.040 A 
ATOM     79  F   UNL A   1      39.021  26.260  29.760  1.00  0.00    -0.206 F 
ATOM     80  C   UNL A   1      40.379  25.952  26.414  1.00  0.00     0.006 A 
ENDBRANCH  52  73
BRANCH  64  81
ATOM     81  C   UNL A   1      44.324  28.581  34.244  1.00  0.00     0.057 A 
ATOM     82  C   UNL A   1      45.656  28.903  33.952  1.00  0.00     0.134 A 
ATOM     83  C   UNL A   1      44.093  27.500  35.105  1.00  0.00     0.134 A 
ATOM     84  F   UNL A   1      45.944  29.917  33.124  1.00  0.00    -0.206 F 
ATOM     85  C   UNL A   1      46.716  28.162  34.478  1.00  0.00     0.040 A 
ATOM     86  C   UNL A   1      45.145  26.769  35.658  1.00  0.00     0.040 A 
ATOM     87  F   UNL A   1      42.841  27.145  35.431  1.00  0.00    -0.206 F 
ATOM     88  C   UNL A   1      46.461  27.095  35.338  1.00  0.00     0.006 A 
ENDBRANCH  64  81
ENDBRANCH  38  39
ENDBRANCH  30  33
ENDBRANCH  28  29
ENDBRANCH  27  28
ENDBRANCH  26  27
ENDBRANCH   1  26
TORSDOF 15
ENDMDL
