MODEL 1
REMARK VINA RESULT:     -10.8      0.000      0.000
REMARK SMILES C#CCN(CC(=O)NCCCCNC(=O)c1ccc(-c2c3nc(c(-c4c(F)cccc4F)c4ccc([nH]4)c(-c4c(F)cccc4F)c4nc(c(-c5c(F)cccc5F)c5ccc2[nH]5)C=C4)C=C3)cc1)C(=O)N1CC[C@H](C)C[C@H]1C
REMARK SMILES IDX 10 1 9 2 8 3 6 4 7 5 5 7 4 8 3 9 2 10 1 11 70 12 71 13 72 14
REMARK SMILES IDX 73 15 78 16 74 17 77 18 79 19 75 20 76 21 11 22 12 23 13 24
REMARK SMILES IDX 14 25 15 27 16 28 17 29 69 30 18 31 68 32 19 33 20 34 21 35
REMARK SMILES IDX 62 36 22 37 67 38 61 39 63 40 23 41 66 42 60 43 59 44 24 46
REMARK SMILES IDX 50 47 33 48 49 49 34 50 37 51 48 52 64 53 35 54 36 55 47 57
REMARK SMILES IDX 65 58 38 59 25 60 26 61 31 62 27 63 28 64 30 65 32 66 29 67
REMARK SMILES IDX 51 68 52 69 57 70 53 71 54 72 56 73 58 74 55 75 39 76 40 77
REMARK SMILES IDX 45 78 41 79 42 80 44 81 46 82 43 83
REMARK H PARENT 8 6 13 26 63 45 37 56
REMARK Flexibility Score: inf
ROOT
ATOM      1  C   UNL A   1      37.276  20.892  24.595  1.00  0.00     0.023 C 
ENDROOT
BRANCH   1   2
ATOM      2  C   UNL A   1      36.406  21.517  25.690  1.00  0.00     0.116 C 
BRANCH   2   3
ATOM      3  N   UNL A   1      35.080  20.953  25.825  1.00  0.00    -0.355 N 
ATOM      4  C   UNL A   1      33.923  21.437  26.363  1.00  0.00     0.239 C 
ATOM      5  O   UNL A   1      32.896  20.810  26.071  1.00  0.00    -0.273 OA
ATOM      6  H   UNL A   1      34.996  20.043  25.459  1.00  0.00     0.163 HD
BRANCH   4   7
ATOM      7  C   UNL A   1      33.810  22.758  27.150  1.00  0.00     0.222 C 
BRANCH   7   8
ATOM      8  N   UNL A   1      33.244  23.924  26.473  1.00  0.00    -0.304 N 
BRANCH   8   9
ATOM      9  C   UNL A   1      34.173  24.749  25.703  1.00  0.00     0.211 C 
BRANCH   9  10
ATOM     10  C   UNL A   1      34.454  24.193  24.317  1.00  0.00    -0.085 C 
ATOM     11  C   UNL A   1      34.695  23.716  23.128  1.00  0.00     0.006 C 
ENDBRANCH   9  10
ENDBRANCH   8   9
BRANCH   8  12
ATOM     12  C   UNL A   1      31.883  24.243  26.456  1.00  0.00     0.321 C 
ATOM     13  O   UNL A   1      31.080  23.756  27.250  1.00  0.00    -0.248 OA
BRANCH  12  14
ATOM     14  N   UNL A   1      31.501  25.249  25.581  1.00  0.00    -0.322 N 
ATOM     15  C   UNL A   1      31.006  26.485  26.182  1.00  0.00     0.122 C 
ATOM     16  C   UNL A   1      30.878  25.020  24.269  1.00  0.00     0.084 C 
ATOM     17  C   UNL A   1      31.328  27.695  25.296  1.00  0.00     0.025 C 
ATOM     18  C   UNL A   1      31.451  26.076  23.315  1.00  0.00     0.028 C 
ATOM     19  C   UNL A   1      30.891  23.613  23.701  1.00  0.00     0.031 C 
ATOM     20  C   UNL A   1      31.072  27.495  23.784  1.00  0.00    -0.011 C 
ATOM     21  C   UNL A   1      29.628  27.822  23.386  1.00  0.00     0.008 C 
ENDBRANCH  12  14
ENDBRANCH   8  12
ENDBRANCH   7   8
ENDBRANCH   4   7
ENDBRANCH   2   3
ENDBRANCH   1   2
BRANCH   1  22
ATOM     22  C   UNL A   1      38.118  19.685  24.999  1.00  0.00     0.023 C 
BRANCH  22  23
ATOM     23  C   UNL A   1      39.262  19.977  25.951  1.00  0.00     0.116 C 
BRANCH  23  24
ATOM     24  N   UNL A   1      40.323  18.987  25.898  1.00  0.00    -0.352 N 
ATOM     25  C   UNL A   1      41.676  19.158  26.073  1.00  0.00     0.251 C 
ATOM     26  H   UNL A   1      40.034  18.065  25.711  1.00  0.00     0.163 HD
ATOM     27  O   UNL A   1      42.439  18.218  25.909  1.00  0.00    -0.269 OA
BRANCH  25  28
ATOM     28  C   UNL A   1      42.204  20.496  26.416  1.00  0.00     0.039 A 
ATOM     29  C   UNL A   1      42.595  21.342  25.375  1.00  0.00     0.014 A 
ATOM     30  C   UNL A   1      42.293  20.925  27.743  1.00  0.00     0.014 A 
ATOM     31  C   UNL A   1      43.013  22.643  25.662  1.00  0.00     0.010 A 
ATOM     32  C   UNL A   1      42.632  22.244  28.021  1.00  0.00     0.010 A 
ATOM     33  C   UNL A   1      42.997  23.115  26.984  1.00  0.00    -0.014 A 
BRANCH  33  34
ATOM     34  C   UNL A   1      43.363  24.517  27.303  1.00  0.00     0.031 A 
ATOM     35  C   UNL A   1      44.798  24.955  27.235  1.00  0.00     0.074 A 
ATOM     36  C   UNL A   1      42.411  25.374  27.719  1.00  0.00     0.049 A 
ATOM     37  N   UNL A   1      45.325  26.113  27.543  1.00  0.00    -0.248 NA
ATOM     38  C   UNL A   1      45.777  23.950  26.787  1.00  0.00     0.031 C 
ATOM     39  C   UNL A   1      40.991  25.054  27.875  1.00  0.00     0.029 A 
ATOM     40  N   UNL A   1      42.498  26.690  28.096  1.00  0.00    -0.354 N 
ATOM     41  C   UNL A   1      46.692  25.971  27.341  1.00  0.00     0.074 A 
ATOM     42  C   UNL A   1      46.920  24.601  26.937  1.00  0.00     0.031 C 
ATOM     43  C   UNL A   1      40.337  26.149  28.293  1.00  0.00     0.029 A 
ATOM     44  C   UNL A   1      41.295  27.236  28.471  1.00  0.00     0.049 A 
ATOM     45  H   UNL A   1      43.343  27.196  28.100  1.00  0.00     0.167 HD
ATOM     46  C   UNL A   1      47.665  26.904  27.460  1.00  0.00     0.037 A 
ATOM     47  C   UNL A   1      40.998  28.472  28.914  1.00  0.00     0.037 A 
ATOM     48  C   UNL A   1      47.430  28.274  27.836  1.00  0.00     0.049 A 
ATOM     49  C   UNL A   1      42.097  29.490  29.038  1.00  0.00     0.074 A 
ATOM     50  C   UNL A   1      48.340  29.312  27.925  1.00  0.00     0.029 A 
ATOM     51  N   UNL A   1      46.194  28.794  28.189  1.00  0.00    -0.354 N 
ATOM     52  N   UNL A   1      43.376  29.362  28.779  1.00  0.00    -0.248 NA
ATOM     53  C   UNL A   1      41.711  30.827  29.510  1.00  0.00     0.031 C 
ATOM     54  C   UNL A   1      47.662  30.451  28.371  1.00  0.00     0.029 A 
ATOM     55  C   UNL A   1      46.321  30.134  28.515  1.00  0.00     0.049 A 
ATOM     56  H   UNL A   1      45.350  28.286  28.204  1.00  0.00     0.167 HD
ATOM     57  C   UNL A   1      43.941  30.606  29.029  1.00  0.00     0.074 A 
ATOM     58  C   UNL A   1      42.864  31.478  29.446  1.00  0.00     0.031 C 
ATOM     59  C   UNL A   1      45.237  30.990  28.922  1.00  0.00     0.037 A 
BRANCH  46  60
ATOM     60  C   UNL A   1      49.074  26.475  27.173  1.00  0.00     0.057 A 
ATOM     61  C   UNL A   1      49.915  25.984  28.180  1.00  0.00     0.134 A 
ATOM     62  C   UNL A   1      49.586  26.523  25.870  1.00  0.00     0.134 A 
ATOM     63  F   UNL A   1      49.491  25.923  29.451  1.00  0.00    -0.206 F 
ATOM     64  C   UNL A   1      51.224  25.582  27.907  1.00  0.00     0.040 A 
ATOM     65  C   UNL A   1      50.884  26.098  25.580  1.00  0.00     0.040 A 
ATOM     66  F   UNL A   1      48.833  26.978  24.858  1.00  0.00    -0.206 F 
ATOM     67  C   UNL A   1      51.709  25.632  26.602  1.00  0.00     0.006 A 
ENDBRANCH  46  60
BRANCH  47  68
ATOM     68  C   UNL A   1      39.596  28.825  29.251  1.00  0.00     0.057 A 
ATOM     69  C   UNL A   1      39.096  28.634  30.545  1.00  0.00     0.134 A 
ATOM     70  C   UNL A   1      38.722  29.352  28.293  1.00  0.00     0.134 A 
ATOM     71  F   UNL A   1      39.882  28.115  31.501  1.00  0.00    -0.206 F 
ATOM     72  C   UNL A   1      37.773  28.934  30.870  1.00  0.00     0.040 A 
ATOM     73  C   UNL A   1      37.403  29.681  28.611  1.00  0.00     0.040 A 
ATOM     74  F   UNL A   1      39.143  29.566  27.038  1.00  0.00    -0.206 F 
ATOM     75  C   UNL A   1      36.924  29.464  29.900  1.00  0.00     0.006 A 
ENDBRANCH  47  68
BRANCH  59  76
ATOM     76  C   UNL A   1      45.553  32.424  29.226  1.00  0.00     0.057 A 
ATOM     77  C   UNL A   1      45.471  33.424  28.249  1.00  0.00     0.134 A 
ATOM     78  C   UNL A   1      45.906  32.815  30.524  1.00  0.00     0.134 A 
ATOM     79  F   UNL A   1      45.152  33.114  26.984  1.00  0.00    -0.206 F 
ATOM     80  C   UNL A   1      45.751  34.759  28.547  1.00  0.00     0.040 A 
ATOM     81  C   UNL A   1      46.162  34.149  30.840  1.00  0.00     0.040 A 
ATOM     82  F   UNL A   1      45.994  31.908  31.509  1.00  0.00    -0.206 F 
ATOM     83  C   UNL A   1      46.091  35.124  29.849  1.00  0.00     0.006 A 
ENDBRANCH  59  76
ENDBRANCH  33  34
ENDBRANCH  25  28
ENDBRANCH  23  24
ENDBRANCH  22  23
ENDBRANCH   1  22
TORSDOF 16
ENDMDL
MODEL 2
REMARK VINA RESULT:     -10.7      1.734      2.183
REMARK SMILES C#CCN(CC(=O)NCCCCNC(=O)c1ccc(-c2c3nc(c(-c4c(F)cccc4F)c4ccc([nH]4)c(-c4c(F)cccc4F)c4nc(c(-c5c(F)cccc5F)c5ccc2[nH]5)C=C4)C=C3)cc1)C(=O)N1CC[C@H](C)C[C@H]1C
REMARK SMILES IDX 10 1 9 2 8 3 6 4 7 5 5 7 4 8 3 9 2 10 1 11 70 12 71 13 72 14
REMARK SMILES IDX 73 15 78 16 74 17 77 18 79 19 75 20 76 21 11 22 12 23 13 24
REMARK SMILES IDX 14 25 15 27 16 28 17 29 69 30 18 31 68 32 19 33 20 34 21 35
REMARK SMILES IDX 62 36 22 37 67 38 61 39 63 40 23 41 66 42 60 43 59 44 24 46
REMARK SMILES IDX 50 47 33 48 49 49 34 50 37 51 48 52 64 53 35 54 36 55 47 57
REMARK SMILES IDX 65 58 38 59 25 60 26 61 31 62 27 63 28 64 30 65 32 66 29 67
REMARK SMILES IDX 51 68 52 69 57 70 53 71 54 72 56 73 58 74 55 75 39 76 40 77
REMARK SMILES IDX 45 78 41 79 42 80 44 81 46 82 43 83
REMARK H PARENT 8 6 13 26 63 45 37 56
REMARK Flexibility Score: inf
ROOT
ATOM      1  C   UNL A   1      36.501  20.915  24.854  1.00  0.00     0.023 C 
ENDROOT
BRANCH   1   2
ATOM      2  C   UNL A   1      36.585  22.106  25.812  1.00  0.00     0.116 C 
BRANCH   2   3
ATOM      3  N   UNL A   1      35.429  22.304  26.661  1.00  0.00    -0.355 N 
ATOM      4  C   UNL A   1      34.447  23.250  26.674  1.00  0.00     0.239 C 
ATOM      5  O   UNL A   1      33.451  22.975  27.358  1.00  0.00    -0.273 OA
ATOM      6  H   UNL A   1      35.334  21.624  27.366  1.00  0.00     0.163 HD
BRANCH   4   7
ATOM      7  C   UNL A   1      34.441  24.518  25.795  1.00  0.00     0.222 C 
BRANCH   7   8
ATOM      8  N   UNL A   1      33.450  24.616  24.725  1.00  0.00    -0.304 N 
BRANCH   8   9
ATOM      9  C   UNL A   1      33.691  23.805  23.533  1.00  0.00     0.211 C 
BRANCH   9  10
ATOM     10  C   UNL A   1      33.219  22.368  23.686  1.00  0.00    -0.085 C 
ATOM     11  C   UNL A   1      32.814  21.136  23.817  1.00  0.00     0.006 C 
ENDBRANCH   9  10
ENDBRANCH   8   9
BRANCH   8  12
ATOM     12  C   UNL A   1      32.271  25.364  24.807  1.00  0.00     0.321 C 
ATOM     13  O   UNL A   1      31.178  24.913  24.466  1.00  0.00    -0.248 OA
BRANCH  12  14
ATOM     14  N   UNL A   1      32.372  26.601  25.426  1.00  0.00    -0.322 N 
ATOM     15  C   UNL A   1      31.306  26.952  26.362  1.00  0.00     0.122 C 
ATOM     16  C   UNL A   1      32.931  27.805  24.794  1.00  0.00     0.084 C 
ATOM     17  C   UNL A   1      31.834  27.861  27.478  1.00  0.00     0.025 C 
ATOM     18  C   UNL A   1      33.713  28.554  25.882  1.00  0.00     0.028 C 
ATOM     19  C   UNL A   1      33.695  27.647  23.492  1.00  0.00     0.031 C 
ATOM     20  C   UNL A   1      32.771  29.001  27.017  1.00  0.00    -0.011 C 
ATOM     21  C   UNL A   1      32.001  30.262  26.607  1.00  0.00     0.008 C 
ENDBRANCH  12  14
ENDBRANCH   8  12
ENDBRANCH   7   8
ENDBRANCH   4   7
ENDBRANCH   2   3
ENDBRANCH   1   2
BRANCH   1  22
ATOM     22  C   UNL A   1      37.740  20.029  24.756  1.00  0.00     0.023 C 
BRANCH  22  23
ATOM     23  C   UNL A   1      38.842  20.337  25.751  1.00  0.00     0.116 C 
BRANCH  23  24
ATOM     24  N   UNL A   1      39.922  19.367  25.735  1.00  0.00    -0.352 N 
ATOM     25  C   UNL A   1      41.238  19.530  26.096  1.00  0.00     0.251 C 
ATOM     26  H   UNL A   1      39.678  18.466  25.421  1.00  0.00     0.163 HD
ATOM     27  O   UNL A   1      42.036  18.618  25.938  1.00  0.00    -0.269 OA
BRANCH  25  28
ATOM     28  C   UNL A   1      41.691  20.831  26.636  1.00  0.00     0.039 A 
ATOM     29  C   UNL A   1      42.185  21.785  25.743  1.00  0.00     0.014 A 
ATOM     30  C   UNL A   1      41.609  21.120  28.000  1.00  0.00     0.014 A 
ATOM     31  C   UNL A   1      42.535  23.052  26.210  1.00  0.00     0.010 A 
ATOM     32  C   UNL A   1      41.882  22.407  28.451  1.00  0.00     0.010 A 
ATOM     33  C   UNL A   1      42.350  23.385  27.561  1.00  0.00    -0.014 A 
BRANCH  33  34
ATOM     34  C   UNL A   1      42.643  24.749  28.064  1.00  0.00     0.031 A 
ATOM     35  C   UNL A   1      44.040  25.115  28.479  1.00  0.00     0.074 A 
ATOM     36  C   UNL A   1      41.638  25.634  28.208  1.00  0.00     0.049 A 
ATOM     37  N   UNL A   1      44.480  26.229  29.006  1.00  0.00    -0.248 NA
ATOM     38  C   UNL A   1      45.075  24.083  28.303  1.00  0.00     0.031 C 
ATOM     39  C   UNL A   1      40.233  25.380  27.888  1.00  0.00     0.029 A 
ATOM     40  N   UNL A   1      41.645  26.924  28.673  1.00  0.00    -0.354 N 
ATOM     41  C   UNL A   1      45.834  26.026  29.239  1.00  0.00     0.074 A 
ATOM     42  C   UNL A   1      46.133  24.666  28.845  1.00  0.00     0.031 C 
ATOM     43  C   UNL A   1      39.517  26.488  28.143  1.00  0.00     0.029 A 
ATOM     44  C   UNL A   1      40.405  27.514  28.681  1.00  0.00     0.049 A 
ATOM     45  H   UNL A   1      42.462  27.385  28.973  1.00  0.00     0.167 HD
ATOM     46  C   UNL A   1      46.750  26.901  29.715  1.00  0.00     0.037 A 
ATOM     47  C   UNL A   1      40.025  28.742  29.081  1.00  0.00     0.037 A 
ATOM     48  C   UNL A   1      46.455  28.262  30.081  1.00  0.00     0.049 A 
ATOM     49  C   UNL A   1      41.062  29.695  29.607  1.00  0.00     0.074 A 
ATOM     50  C   UNL A   1      47.324  29.247  30.515  1.00  0.00     0.029 A 
ATOM     51  N   UNL A   1      45.190  28.828  30.055  1.00  0.00    -0.354 N 
ATOM     52  N   UNL A   1      42.351  29.513  29.758  1.00  0.00    -0.248 NA
ATOM     53  C   UNL A   1      40.592  31.026  30.014  1.00  0.00     0.031 C 
ATOM     54  C   UNL A   1      46.579  30.397  30.792  1.00  0.00     0.029 A 
ATOM     55  C   UNL A   1      45.252  30.143  30.485  1.00  0.00     0.049 A 
ATOM     56  H   UNL A   1      44.368  28.365  29.773  1.00  0.00     0.167 HD
ATOM     57  C   UNL A   1      42.850  30.713  30.249  1.00  0.00     0.074 A 
ATOM     58  C   UNL A   1      41.726  31.619  30.357  1.00  0.00     0.031 C 
ATOM     59  C   UNL A   1      44.124  31.034  30.580  1.00  0.00     0.037 A 
BRANCH  46  60
ATOM     60  C   UNL A   1      48.162  26.414  29.862  1.00  0.00     0.057 A 
ATOM     61  C   UNL A   1      48.611  25.799  31.039  1.00  0.00     0.134 A 
ATOM     62  C   UNL A   1      49.074  26.531  28.807  1.00  0.00     0.134 A 
ATOM     63  F   UNL A   1      47.792  25.666  32.093  1.00  0.00    -0.206 F 
ATOM     64  C   UNL A   1      49.924  25.343  31.169  1.00  0.00     0.040 A 
ATOM     65  C   UNL A   1      50.382  26.055  28.915  1.00  0.00     0.040 A 
ATOM     66  F   UNL A   1      48.709  27.105  27.650  1.00  0.00    -0.206 F 
ATOM     67  C   UNL A   1      50.812  25.464  30.102  1.00  0.00     0.006 A 
ENDBRANCH  46  60
BRANCH  47  68
ATOM     68  C   UNL A   1      38.601  29.150  28.979  1.00  0.00     0.057 A 
ATOM     69  C   UNL A   1      37.754  29.094  30.092  1.00  0.00     0.134 A 
ATOM     70  C   UNL A   1      38.052  29.599  27.772  1.00  0.00     0.134 A 
ATOM     71  F   UNL A   1      38.219  28.655  31.272  1.00  0.00    -0.206 F 
ATOM     72  C   UNL A   1      36.407  29.447  30.005  1.00  0.00     0.040 A 
ATOM     73  C   UNL A   1      36.713  29.980  27.676  1.00  0.00     0.040 A 
ATOM     74  F   UNL A   1      38.815  29.683  26.672  1.00  0.00    -0.206 F 
ATOM     75  C   UNL A   1      35.885  29.897  28.793  1.00  0.00     0.006 A 
ENDBRANCH  47  68
BRANCH  59  76
ATOM     76  C   UNL A   1      44.376  32.434  31.055  1.00  0.00     0.057 A 
ATOM     77  C   UNL A   1      44.663  33.477  30.166  1.00  0.00     0.134 A 
ATOM     78  C   UNL A   1      44.291  32.750  32.417  1.00  0.00     0.134 A 
ATOM     79  F   UNL A   1      44.772  33.239  28.850  1.00  0.00    -0.206 F 
ATOM     80  C   UNL A   1      44.879  34.781  30.618  1.00  0.00     0.040 A 
ATOM     81  C   UNL A   1      44.479  34.053  32.878  1.00  0.00     0.040 A 
ATOM     82  F   UNL A   1      44.011  31.798  33.321  1.00  0.00    -0.206 F 
ATOM     83  C   UNL A   1      44.780  35.072  31.977  1.00  0.00     0.006 A 
ENDBRANCH  59  76
ENDBRANCH  33  34
ENDBRANCH  25  28
ENDBRANCH  23  24
ENDBRANCH  22  23
ENDBRANCH   1  22
TORSDOF 16
ENDMDL
MODEL 3
REMARK VINA RESULT:     -10.7      1.738      2.704
REMARK SMILES C#CCN(CC(=O)NCCCCNC(=O)c1ccc(-c2c3nc(c(-c4c(F)cccc4F)c4ccc([nH]4)c(-c4c(F)cccc4F)c4nc(c(-c5c(F)cccc5F)c5ccc2[nH]5)C=C4)C=C3)cc1)C(=O)N1CC[C@H](C)C[C@H]1C
REMARK SMILES IDX 10 1 9 2 8 3 6 4 7 5 5 7 4 8 3 9 2 10 1 11 70 12 71 13 72 14
REMARK SMILES IDX 73 15 78 16 74 17 77 18 79 19 75 20 76 21 11 22 12 23 13 24
REMARK SMILES IDX 14 25 15 27 16 28 17 29 69 30 18 31 68 32 19 33 20 34 21 35
REMARK SMILES IDX 62 36 22 37 67 38 61 39 63 40 23 41 66 42 60 43 59 44 24 46
REMARK SMILES IDX 50 47 33 48 49 49 34 50 37 51 48 52 64 53 35 54 36 55 47 57
REMARK SMILES IDX 65 58 38 59 25 60 26 61 31 62 27 63 28 64 30 65 32 66 29 67
REMARK SMILES IDX 51 68 52 69 57 70 53 71 54 72 56 73 58 74 55 75 39 76 40 77
REMARK SMILES IDX 45 78 41 79 42 80 44 81 46 82 43 83
REMARK H PARENT 8 6 13 26 63 45 37 56
REMARK Flexibility Score: inf
ROOT
ATOM      1  C   UNL A   1      36.654  19.640  25.004  1.00  0.00     0.023 C 
ENDROOT
BRANCH   1   2
ATOM      2  C   UNL A   1      35.566  20.712  24.897  1.00  0.00     0.116 C 
BRANCH   2   3
ATOM      3  N   UNL A   1      34.245  20.300  25.325  1.00  0.00    -0.355 N 
ATOM      4  C   UNL A   1      33.013  20.417  24.752  1.00  0.00     0.239 C 
ATOM      5  O   UNL A   1      32.124  19.714  25.251  1.00  0.00    -0.273 OA
ATOM      6  H   UNL A   1      34.234  19.849  26.200  1.00  0.00     0.163 HD
BRANCH   4   7
ATOM      7  C   UNL A   1      32.717  21.223  23.471  1.00  0.00     0.222 C 
BRANCH   7   8
ATOM      8  N   UNL A   1      32.583  22.675  23.579  1.00  0.00    -0.304 N 
BRANCH   8   9
ATOM      9  C   UNL A   1      31.249  23.189  23.882  1.00  0.00     0.211 C 
BRANCH   9  10
ATOM     10  C   UNL A   1      30.876  23.047  25.349  1.00  0.00    -0.085 C 
ATOM     11  C   UNL A   1      30.556  22.925  26.607  1.00  0.00     0.006 C 
ENDBRANCH   9  10
ENDBRANCH   8   9
BRANCH   8  12
ATOM     12  C   UNL A   1      33.650  23.574  23.490  1.00  0.00     0.321 C 
ATOM     13  O   UNL A   1      34.621  23.378  22.760  1.00  0.00    -0.248 OA
BRANCH  12  14
ATOM     14  N   UNL A   1      33.496  24.776  24.166  1.00  0.00    -0.322 N 
ATOM     15  C   UNL A   1      33.517  25.990  23.353  1.00  0.00     0.122 C 
ATOM     16  C   UNL A   1      34.008  25.043  25.518  1.00  0.00     0.084 C 
ATOM     17  C   UNL A   1      32.640  27.083  23.976  1.00  0.00     0.025 C 
ATOM     18  C   UNL A   1      32.958  25.906  26.228  1.00  0.00     0.028 C 
ATOM     19  C   UNL A   1      34.499  23.871  26.347  1.00  0.00     0.031 C 
ATOM     20  C   UNL A   1      32.784  27.256  25.506  1.00  0.00    -0.011 C 
ATOM     21  C   UNL A   1      33.921  28.213  25.881  1.00  0.00     0.008 C 
ENDBRANCH  12  14
ENDBRANCH   8  12
ENDBRANCH   7   8
ENDBRANCH   4   7
ENDBRANCH   2   3
ENDBRANCH   1   2
BRANCH   1  22
ATOM     22  C   UNL A   1      38.075  20.073  24.648  1.00  0.00     0.023 C 
BRANCH  22  23
ATOM     23  C   UNL A   1      39.023  20.226  25.821  1.00  0.00     0.116 C 
BRANCH  23  24
ATOM     24  N   UNL A   1      40.120  19.275  25.804  1.00  0.00    -0.352 N 
ATOM     25  C   UNL A   1      41.436  19.465  26.151  1.00  0.00     0.251 C 
ATOM     26  H   UNL A   1      39.890  18.367  25.500  1.00  0.00     0.163 HD
ATOM     27  O   UNL A   1      42.249  18.566  25.993  1.00  0.00    -0.269 OA
BRANCH  25  28
ATOM     28  C   UNL A   1      41.870  20.778  26.676  1.00  0.00     0.039 A 
ATOM     29  C   UNL A   1      42.322  21.739  25.768  1.00  0.00     0.014 A 
ATOM     30  C   UNL A   1      41.812  21.072  28.040  1.00  0.00     0.014 A 
ATOM     31  C   UNL A   1      42.652  23.017  26.222  1.00  0.00     0.010 A 
ATOM     32  C   UNL A   1      42.064  22.367  28.480  1.00  0.00     0.010 A 
ATOM     33  C   UNL A   1      42.489  23.351  27.576  1.00  0.00    -0.014 A 
BRANCH  33  34
ATOM     34  C   UNL A   1      42.761  24.724  28.066  1.00  0.00     0.031 A 
ATOM     35  C   UNL A   1      44.153  25.118  28.470  1.00  0.00     0.074 A 
ATOM     36  C   UNL A   1      41.742  25.593  28.210  1.00  0.00     0.049 A 
ATOM     37  N   UNL A   1      44.577  26.243  28.987  1.00  0.00    -0.248 NA
ATOM     38  C   UNL A   1      45.206  24.103  28.297  1.00  0.00     0.031 C 
ATOM     39  C   UNL A   1      40.339  25.312  27.899  1.00  0.00     0.029 A 
ATOM     40  N   UNL A   1      41.729  26.887  28.664  1.00  0.00    -0.354 N 
ATOM     41  C   UNL A   1      45.936  26.066  29.214  1.00  0.00     0.074 A 
ATOM     42  C   UNL A   1      46.256  24.709  28.829  1.00  0.00     0.031 C 
ATOM     43  C   UNL A   1      39.605  26.409  28.150  1.00  0.00     0.029 A 
ATOM     44  C   UNL A   1      40.478  27.455  28.674  1.00  0.00     0.049 A 
ATOM     45  H   UNL A   1      42.539  27.364  28.956  1.00  0.00     0.167 HD
ATOM     46  C   UNL A   1      46.839  26.961  29.678  1.00  0.00     0.037 A 
ATOM     47  C   UNL A   1      40.079  28.679  29.067  1.00  0.00     0.037 A 
ATOM     48  C   UNL A   1      46.522  28.319  30.035  1.00  0.00     0.049 A 
ATOM     49  C   UNL A   1      41.102  29.654  29.580  1.00  0.00     0.074 A 
ATOM     50  C   UNL A   1      47.376  29.322  30.457  1.00  0.00     0.029 A 
ATOM     51  N   UNL A   1      45.247  28.863  30.012  1.00  0.00    -0.354 N 
ATOM     52  N   UNL A   1      42.396  29.495  29.725  1.00  0.00    -0.248 NA
ATOM     53  C   UNL A   1      40.611  30.980  29.979  1.00  0.00     0.031 C 
ATOM     54  C   UNL A   1      46.613  30.462  30.728  1.00  0.00     0.029 A 
ATOM     55  C   UNL A   1      45.288  30.182  30.431  1.00  0.00     0.049 A 
ATOM     56  H   UNL A   1      44.432  28.383  29.738  1.00  0.00     0.167 HD
ATOM     57  C   UNL A   1      42.876  30.708  30.204  1.00  0.00     0.074 A 
ATOM     58  C   UNL A   1      41.737  31.595  30.311  1.00  0.00     0.031 C 
ATOM     59  C   UNL A   1      44.146  31.054  30.525  1.00  0.00     0.037 A 
BRANCH  46  60
ATOM     60  C   UNL A   1      48.260  26.499  29.821  1.00  0.00     0.057 A 
ATOM     61  C   UNL A   1      49.203  26.688  28.802  1.00  0.00     0.134 A 
ATOM     62  C   UNL A   1      48.699  25.887  31.001  1.00  0.00     0.134 A 
ATOM     63  F   UNL A   1      48.846  27.256  27.641  1.00  0.00    -0.206 F 
ATOM     64  C   UNL A   1      50.525  26.260  28.942  1.00  0.00     0.040 A 
ATOM     65  C   UNL A   1      50.024  25.479  31.163  1.00  0.00     0.040 A 
ATOM     66  F   UNL A   1      47.849  25.679  32.018  1.00  0.00    -0.206 F 
ATOM     67  C   UNL A   1      50.940  25.660  30.128  1.00  0.00     0.006 A 
ENDBRANCH  46  60
BRANCH  47  68
ATOM     68  C   UNL A   1      38.648  29.062  28.970  1.00  0.00     0.057 A 
ATOM     69  C   UNL A   1      38.114  29.554  27.773  1.00  0.00     0.134 A 
ATOM     70  C   UNL A   1      37.784  28.953  30.066  1.00  0.00     0.134 A 
ATOM     71  F   UNL A   1      38.898  29.697  26.694  1.00  0.00    -0.206 F 
ATOM     72  C   UNL A   1      36.778  29.944  27.674  1.00  0.00     0.040 A 
ATOM     73  C   UNL A   1      36.439  29.315  29.974  1.00  0.00     0.040 A 
ATOM     74  F   UNL A   1      38.234  28.481  31.238  1.00  0.00    -0.206 F 
ATOM     75  C   UNL A   1      35.936  29.820  28.778  1.00  0.00     0.006 A 
ENDBRANCH  47  68
BRANCH  59  76
ATOM     76  C   UNL A   1      44.376  32.462  30.989  1.00  0.00     0.057 A 
ATOM     77  C   UNL A   1      44.630  33.505  30.089  1.00  0.00     0.134 A 
ATOM     78  C   UNL A   1      44.303  32.784  32.350  1.00  0.00     0.134 A 
ATOM     79  F   UNL A   1      44.726  33.260  28.773  1.00  0.00    -0.206 F 
ATOM     80  C   UNL A   1      44.826  34.815  30.529  1.00  0.00     0.040 A 
ATOM     81  C   UNL A   1      44.471  34.094  32.799  1.00  0.00     0.040 A 
ATOM     82  F   UNL A   1      44.054  31.833  33.263  1.00  0.00    -0.206 F 
ATOM     83  C   UNL A   1      44.739  35.113  31.889  1.00  0.00     0.006 A 
ENDBRANCH  59  76
ENDBRANCH  33  34
ENDBRANCH  25  28
ENDBRANCH  23  24
ENDBRANCH  22  23
ENDBRANCH   1  22
TORSDOF 16
ENDMDL
