MODEL 1
REMARK VINA RESULT:     -11.4      0.000      0.000
REMARK SMILES C[C@]1(c2nnnn2CCC(=O)NCCCCNC(=O)c2ccc(-c3c4nc(c(-c5c(F)cccc5F)c5ccc([nH]5)c(-c5c(F)cccc5F)c5nc(c(-c6c(F)cccc6F)c6ccc3[nH]6)C=C5)C=C4)cc2)CCCO1
REMARK SMILES IDX 14 1 13 2 12 3 10 4 11 5 9 7 8 8 7 9 3 10 4 11 5 12 6 13
REMARK SMILES IDX 2 14 1 15 74 16 77 17 75 18 76 19 15 20 16 21 17 22 18 23
REMARK SMILES IDX 19 25 20 26 21 27 73 28 22 29 72 30 23 31 24 32 25 33 66 34
REMARK SMILES IDX 26 35 71 36 65 37 67 38 27 39 70 40 64 41 63 42 28 44 54 45
REMARK SMILES IDX 37 46 53 47 38 48 41 49 52 50 68 51 39 52 40 53 51 55 69 56
REMARK SMILES IDX 42 57 29 58 30 59 35 60 31 61 32 62 34 63 36 64 33 65 55 66
REMARK SMILES IDX 56 67 61 68 57 69 58 70 60 71 62 72 59 73 43 74 44 75 49 76
REMARK SMILES IDX 45 77 46 78 48 79 50 80 47 81
REMARK H PARENT 12 6 17 24 67 43 41 54
REMARK Flexibility Score: inf
ROOT
ATOM      1  C   UNL A   1      33.028  29.492  25.924  1.00  0.00     0.023 C 
ENDROOT
BRANCH   1   2
ATOM      2  C   UNL A   1      33.311  28.925  24.535  1.00  0.00     0.116 C 
BRANCH   2   3
ATOM      3  N   UNL A   1      32.274  29.317  23.594  1.00  0.00    -0.356 N 
ATOM      4  C   UNL A   1      31.146  28.655  23.214  1.00  0.00     0.221 C 
ATOM      5  O   UNL A   1      30.514  29.090  22.248  1.00  0.00    -0.275 OA
ATOM      6  H   UNL A   1      32.409  30.194  23.167  1.00  0.00     0.163 HD
BRANCH   4   7
ATOM      7  C   UNL A   1      30.641  27.443  23.979  1.00  0.00     0.124 C 
BRANCH   7   8
ATOM      8  C   UNL A   1      30.658  26.157  23.157  1.00  0.00     0.158 C 
BRANCH   8   9
ATOM      9  N   UNL A   1      31.917  25.871  22.508  1.00  0.00    -0.226 N 
ATOM     10  C   UNL A   1      33.140  25.459  22.982  1.00  0.00     0.183 A 
ATOM     11  N   UNL A   1      34.013  25.652  22.004  1.00  0.00    -0.111 NA
ATOM     12  N   UNL A   1      33.279  25.895  20.878  1.00  0.00    -0.024 NA
ATOM     13  N   UNL A   1      31.991  25.972  21.167  1.00  0.00    -0.045 NA
BRANCH  10  14
ATOM     14  C   UNL A   1      33.431  24.613  24.177  1.00  0.00     0.126 C 
ATOM     15  C   UNL A   1      34.790  23.925  23.927  1.00  0.00     0.051 C 
ATOM     16  C   UNL A   1      33.414  25.350  25.511  1.00  0.00     0.046 C 
ATOM     17  O   UNL A   1      32.428  23.590  24.316  1.00  0.00    -0.367 OA
ATOM     18  C   UNL A   1      33.204  24.208  26.483  1.00  0.00     0.032 C 
ATOM     19  C   UNL A   1      32.254  23.309  25.716  1.00  0.00     0.161 C 
ENDBRANCH  10  14
ENDBRANCH   8   9
ENDBRANCH   7   8
ENDBRANCH   4   7
ENDBRANCH   2   3
ENDBRANCH   1   2
BRANCH   1  20
ATOM     20  C   UNL A   1      33.769  28.917  27.127  1.00  0.00     0.023 C 
BRANCH  20  21
ATOM     21  C   UNL A   1      35.186  29.426  27.288  1.00  0.00     0.116 C 
BRANCH  21  22
ATOM     22  N   UNL A   1      35.448  30.072  28.581  1.00  0.00    -0.352 N 
ATOM     23  C   UNL A   1      36.485  29.789  29.454  1.00  0.00     0.251 C 
ATOM     24  H   UNL A   1      34.821  30.779  28.856  1.00  0.00     0.163 HD
ATOM     25  O   UNL A   1      36.460  30.100  30.639  1.00  0.00    -0.269 OA
BRANCH  23  26
ATOM     26  C   UNL A   1      37.658  29.114  28.884  1.00  0.00     0.039 A 
ATOM     27  C   UNL A   1      38.360  29.629  27.791  1.00  0.00     0.014 A 
ATOM     28  C   UNL A   1      38.150  28.054  29.636  1.00  0.00     0.014 A 
ATOM     29  C   UNL A   1      39.636  29.135  27.535  1.00  0.00     0.010 A 
ATOM     30  C   UNL A   1      39.472  27.732  29.509  1.00  0.00     0.010 A 
ATOM     31  C   UNL A   1      40.205  28.213  28.429  1.00  0.00    -0.014 A 
BRANCH  31  32
ATOM     32  C   UNL A   1      41.606  27.814  28.336  1.00  0.00     0.031 A 
ATOM     33  C   UNL A   1      41.866  26.565  27.566  1.00  0.00     0.074 A 
ATOM     34  C   UNL A   1      42.610  28.638  28.713  1.00  0.00     0.049 A 
ATOM     35  N   UNL A   1      42.286  25.432  28.025  1.00  0.00    -0.248 NA
ATOM     36  C   UNL A   1      41.497  26.520  26.141  1.00  0.00     0.031 C 
ATOM     37  C   UNL A   1      42.525  30.023  29.200  1.00  0.00     0.029 A 
ATOM     38  N   UNL A   1      43.953  28.440  28.637  1.00  0.00    -0.354 N 
ATOM     39  C   UNL A   1      42.447  24.597  26.920  1.00  0.00     0.074 A 
ATOM     40  C   UNL A   1      41.772  25.249  25.831  1.00  0.00     0.031 C 
ATOM     41  C   UNL A   1      43.739  30.608  29.133  1.00  0.00     0.029 A 
ATOM     42  C   UNL A   1      44.714  29.591  28.803  1.00  0.00     0.049 A 
ATOM     43  H   UNL A   1      44.353  27.555  28.477  1.00  0.00     0.167 HD
ATOM     44  C   UNL A   1      43.340  23.565  26.950  1.00  0.00     0.037 A 
ATOM     45  C   UNL A   1      46.058  29.706  28.687  1.00  0.00     0.037 A 
ATOM     46  C   UNL A   1      43.762  23.301  28.306  1.00  0.00     0.049 A 
ATOM     47  C   UNL A   1      46.627  28.345  28.828  1.00  0.00     0.074 A 
ATOM     48  C   UNL A   1      43.131  22.923  29.473  1.00  0.00     0.029 A 
ATOM     49  N   UNL A   1      44.985  23.798  28.686  1.00  0.00    -0.354 N 
ATOM     50  N   UNL A   1      46.589  27.660  29.938  1.00  0.00    -0.248 NA
ATOM     51  C   UNL A   1      46.807  27.561  27.617  1.00  0.00     0.031 C 
ATOM     52  C   UNL A   1      43.797  23.652  30.504  1.00  0.00     0.029 A 
ATOM     53  C   UNL A   1      44.841  24.372  29.920  1.00  0.00     0.049 A 
ATOM     54  H   UNL A   1      45.818  23.751  28.162  1.00  0.00     0.167 HD
ATOM     55  C   UNL A   1      46.291  26.365  29.542  1.00  0.00     0.074 A 
ATOM     56  C   UNL A   1      46.540  26.344  28.101  1.00  0.00     0.031 C 
ATOM     57  C   UNL A   1      45.594  25.523  30.363  1.00  0.00     0.037 A 
BRANCH  44  58
ATOM     58  C   UNL A   1      44.156  23.072  25.772  1.00  0.00     0.057 A 
ATOM     59  C   UNL A   1      44.208  21.685  25.521  1.00  0.00     0.134 A 
ATOM     60  C   UNL A   1      45.127  23.830  25.091  1.00  0.00     0.134 A 
ATOM     61  F   UNL A   1      43.327  20.847  26.089  1.00  0.00    -0.206 F 
ATOM     62  C   UNL A   1      45.223  21.091  24.761  1.00  0.00     0.040 A 
ATOM     63  C   UNL A   1      46.117  23.251  24.289  1.00  0.00     0.040 A 
ATOM     64  F   UNL A   1      45.241  25.154  25.233  1.00  0.00    -0.206 F 
ATOM     65  C   UNL A   1      46.195  21.875  24.156  1.00  0.00     0.006 A 
ENDBRANCH  44  58
BRANCH  45  66
ATOM     66  C   UNL A   1      46.839  30.861  28.201  1.00  0.00     0.057 A 
ATOM     67  C   UNL A   1      46.699  31.344  26.895  1.00  0.00     0.134 A 
ATOM     68  C   UNL A   1      47.547  31.687  29.094  1.00  0.00     0.134 A 
ATOM     69  F   UNL A   1      46.007  30.645  25.983  1.00  0.00    -0.206 F 
ATOM     70  C   UNL A   1      47.213  32.587  26.501  1.00  0.00     0.040 A 
ATOM     71  C   UNL A   1      48.067  32.928  28.715  1.00  0.00     0.040 A 
ATOM     72  F   UNL A   1      47.678  31.353  30.387  1.00  0.00    -0.206 F 
ATOM     73  C   UNL A   1      47.889  33.389  27.417  1.00  0.00     0.006 A 
ENDBRANCH  45  66
BRANCH  57  74
ATOM     74  C   UNL A   1      45.400  25.940  31.796  1.00  0.00     0.057 A 
ATOM     75  C   UNL A   1      46.367  25.791  32.802  1.00  0.00     0.134 A 
ATOM     76  C   UNL A   1      44.250  26.663  32.129  1.00  0.00     0.134 A 
ATOM     77  F   UNL A   1      47.539  25.199  32.558  1.00  0.00    -0.206 F 
ATOM     78  C   UNL A   1      46.180  26.306  34.089  1.00  0.00     0.040 A 
ATOM     79  C   UNL A   1      44.066  27.210  33.400  1.00  0.00     0.040 A 
ATOM     80  F   UNL A   1      43.307  26.894  31.203  1.00  0.00    -0.206 F 
ATOM     81  C   UNL A   1      45.027  27.026  34.389  1.00  0.00     0.006 A 
ENDBRANCH  57  74
ENDBRANCH  31  32
ENDBRANCH  23  26
ENDBRANCH  21  22
ENDBRANCH  20  21
ENDBRANCH   1  20
TORSDOF 14
ENDMDL
MODEL 2
REMARK VINA RESULT:     -11.4      2.815      7.323
REMARK SMILES C[C@]1(c2nnnn2CCC(=O)NCCCCNC(=O)c2ccc(-c3c4nc(c(-c5c(F)cccc5F)c5ccc([nH]5)c(-c5c(F)cccc5F)c5nc(c(-c6c(F)cccc6F)c6ccc3[nH]6)C=C5)C=C4)cc2)CCCO1
REMARK SMILES IDX 14 1 13 2 12 3 10 4 11 5 9 7 8 8 7 9 3 10 4 11 5 12 6 13
REMARK SMILES IDX 2 14 1 15 74 16 77 17 75 18 76 19 15 20 16 21 17 22 18 23
REMARK SMILES IDX 19 25 20 26 21 27 73 28 22 29 72 30 23 31 24 32 25 33 66 34
REMARK SMILES IDX 26 35 71 36 65 37 67 38 27 39 70 40 64 41 63 42 28 44 54 45
REMARK SMILES IDX 37 46 53 47 38 48 41 49 52 50 68 51 39 52 40 53 51 55 69 56
REMARK SMILES IDX 42 57 29 58 30 59 35 60 31 61 32 62 34 63 36 64 33 65 55 66
REMARK SMILES IDX 56 67 61 68 57 69 58 70 60 71 62 72 59 73 43 74 44 75 49 76
REMARK SMILES IDX 45 77 46 78 48 79 50 80 47 81
REMARK H PARENT 12 6 17 24 67 43 41 54
REMARK Flexibility Score: inf
ROOT
ATOM      1  C   UNL A   1      40.347  20.915  26.374  1.00  0.00     0.023 C 
ENDROOT
BRANCH   1   2
ATOM      2  C   UNL A   1      39.001  21.032  25.664  1.00  0.00     0.116 C 
BRANCH   2   3
ATOM      3  N   UNL A   1      38.267  22.197  26.131  1.00  0.00    -0.356 N 
ATOM      4  C   UNL A   1      37.404  23.010  25.461  1.00  0.00     0.221 C 
ATOM      5  O   UNL A   1      37.053  24.060  26.005  1.00  0.00    -0.275 OA
ATOM      6  H   UNL A   1      38.417  22.432  27.075  1.00  0.00     0.163 HD
BRANCH   4   7
ATOM      7  C   UNL A   1      36.842  22.624  24.103  1.00  0.00     0.124 C 
BRANCH   7   8
ATOM      8  C   UNL A   1      35.460  21.979  24.181  1.00  0.00     0.158 C 
BRANCH   8   9
ATOM      9  N   UNL A   1      34.400  22.744  23.564  1.00  0.00    -0.226 N 
ATOM     10  C   UNL A   1      33.044  22.804  23.781  1.00  0.00     0.183 A 
ATOM     11  N   UNL A   1      32.518  23.429  22.738  1.00  0.00    -0.111 NA
ATOM     12  N   UNL A   1      33.564  23.989  22.060  1.00  0.00    -0.024 NA
ATOM     13  N   UNL A   1      34.717  23.623  22.594  1.00  0.00    -0.045 NA
BRANCH  10  14
ATOM     14  C   UNL A   1      32.302  22.584  25.057  1.00  0.00     0.126 C 
ATOM     15  C   UNL A   1      32.136  21.058  25.228  1.00  0.00     0.051 C 
ATOM     16  C   UNL A   1      32.931  23.219  26.291  1.00  0.00     0.046 C 
ATOM     17  O   UNL A   1      30.991  23.172  24.977  1.00  0.00    -0.367 OA
ATOM     18  C   UNL A   1      31.749  23.285  27.233  1.00  0.00     0.032 C 
ATOM     19  C   UNL A   1      30.609  23.618  26.290  1.00  0.00     0.161 C 
ENDBRANCH  10  14
ENDBRANCH   8   9
ENDBRANCH   7   8
ENDBRANCH   4   7
ENDBRANCH   2   3
ENDBRANCH   1   2
BRANCH   1  20
ATOM     20  C   UNL A   1      41.155  19.629  26.228  1.00  0.00     0.023 C 
BRANCH  20  21
ATOM     21  C   UNL A   1      42.594  19.742  26.689  1.00  0.00     0.116 C 
BRANCH  21  22
ATOM     22  N   UNL A   1      43.575  19.239  25.718  1.00  0.00    -0.352 N 
ATOM     23  C   UNL A   1      44.257  19.982  24.768  1.00  0.00     0.251 C 
ATOM     24  H   UNL A   1      43.769  18.275  25.746  1.00  0.00     0.163 HD
ATOM     25  O   UNL A   1      44.784  19.477  23.783  1.00  0.00    -0.269 OA
BRANCH  23  26
ATOM     26  C   UNL A   1      44.352  21.428  25.008  1.00  0.00     0.039 A 
ATOM     27  C   UNL A   1      43.393  22.328  24.539  1.00  0.00     0.014 A 
ATOM     28  C   UNL A   1      45.336  21.810  25.912  1.00  0.00     0.014 A 
ATOM     29  C   UNL A   1      43.362  23.606  25.091  1.00  0.00     0.010 A 
ATOM     30  C   UNL A   1      45.163  22.982  26.594  1.00  0.00     0.010 A 
ATOM     31  C   UNL A   1      44.227  23.913  26.155  1.00  0.00    -0.014 A 
BRANCH  31  32
ATOM     32  C   UNL A   1      44.107  25.155  26.911  1.00  0.00     0.031 A 
ATOM     33  C   UNL A   1      45.150  26.181  26.627  1.00  0.00     0.074 A 
ATOM     34  C   UNL A   1      43.003  25.446  27.635  1.00  0.00     0.049 A 
ATOM     35  N   UNL A   1      46.084  26.591  27.420  1.00  0.00    -0.248 NA
ATOM     36  C   UNL A   1      45.255  26.727  25.264  1.00  0.00     0.031 C 
ATOM     37  C   UNL A   1      41.758  24.673  27.760  1.00  0.00     0.029 A 
ATOM     38  N   UNL A   1      42.715  26.572  28.341  1.00  0.00    -0.354 N 
ATOM     39  C   UNL A   1      46.759  27.604  26.739  1.00  0.00     0.074 A 
ATOM     40  C   UNL A   1      46.335  27.508  25.368  1.00  0.00     0.031 C 
ATOM     41  C   UNL A   1      40.783  25.451  28.274  1.00  0.00     0.029 A 
ATOM     42  C   UNL A   1      41.380  26.698  28.705  1.00  0.00     0.049 A 
ATOM     43  H   UNL A   1      43.396  27.244  28.574  1.00  0.00     0.167 HD
ATOM     44  C   UNL A   1      47.414  28.587  27.423  1.00  0.00     0.037 A 
ATOM     45  C   UNL A   1      40.798  27.750  29.327  1.00  0.00     0.037 A 
ATOM     46  C   UNL A   1      47.576  28.217  28.809  1.00  0.00     0.049 A 
ATOM     47  C   UNL A   1      41.879  28.526  29.978  1.00  0.00     0.074 A 
ATOM     48  C   UNL A   1      48.204  27.189  29.483  1.00  0.00     0.029 A 
ATOM     49  N   UNL A   1      46.701  28.775  29.709  1.00  0.00    -0.354 N 
ATOM     50  N   UNL A   1      42.584  28.078  30.981  1.00  0.00    -0.248 NA
ATOM     51  C   UNL A   1      42.495  29.597  29.213  1.00  0.00     0.031 C 
ATOM     52  C   UNL A   1      47.336  26.881  30.573  1.00  0.00     0.029 A 
ATOM     53  C   UNL A   1      46.271  27.783  30.548  1.00  0.00     0.049 A 
ATOM     54  H   UNL A   1      46.430  29.721  29.743  1.00  0.00     0.167 HD
ATOM     55  C   UNL A   1      43.882  28.480  30.705  1.00  0.00     0.074 A 
ATOM     56  C   UNL A   1      43.749  29.497  29.663  1.00  0.00     0.031 C 
ATOM     57  C   UNL A   1      44.951  27.745  31.135  1.00  0.00     0.037 A 
BRANCH  44  58
ATOM     58  C   UNL A   1      47.537  30.032  26.984  1.00  0.00     0.057 A 
ATOM     59  C   UNL A   1      48.785  30.676  27.123  1.00  0.00     0.134 A 
ATOM     60  C   UNL A   1      46.452  30.897  26.748  1.00  0.00     0.134 A 
ATOM     61  F   UNL A   1      49.906  29.969  27.331  1.00  0.00    -0.206 F 
ATOM     62  C   UNL A   1      48.918  32.069  27.157  1.00  0.00     0.040 A 
ATOM     63  C   UNL A   1      46.582  32.291  26.730  1.00  0.00     0.040 A 
ATOM     64  F   UNL A   1      45.194  30.462  26.619  1.00  0.00    -0.206 F 
ATOM     65  C   UNL A   1      47.809  32.883  26.977  1.00  0.00     0.006 A 
ENDBRANCH  44  58
BRANCH  45  66
ATOM     66  C   UNL A   1      39.421  28.261  29.167  1.00  0.00     0.057 A 
ATOM     67  C   UNL A   1      38.522  28.292  30.239  1.00  0.00     0.134 A 
ATOM     68  C   UNL A   1      39.042  28.980  28.018  1.00  0.00     0.134 A 
ATOM     69  F   UNL A   1      38.814  27.668  31.390  1.00  0.00    -0.206 F 
ATOM     70  C   UNL A   1      37.322  29.015  30.183  1.00  0.00     0.040 A 
ATOM     71  C   UNL A   1      37.848  29.704  27.948  1.00  0.00     0.040 A 
ATOM     72  F   UNL A   1      39.862  29.074  26.961  1.00  0.00    -0.206 F 
ATOM     73  C   UNL A   1      36.988  29.735  29.039  1.00  0.00     0.006 A 
ENDBRANCH  45  66
BRANCH  57  74
ATOM     74  C   UNL A   1      44.694  26.650  32.136  1.00  0.00     0.057 A 
ATOM     75  C   UNL A   1      44.501  25.301  31.803  1.00  0.00     0.134 A 
ATOM     76  C   UNL A   1      44.808  26.953  33.497  1.00  0.00     0.134 A 
ATOM     77  F   UNL A   1      44.473  24.896  30.530  1.00  0.00    -0.206 F 
ATOM     78  C   UNL A   1      44.387  24.307  32.780  1.00  0.00     0.040 A 
ATOM     79  C   UNL A   1      44.729  25.966  34.481  1.00  0.00     0.040 A 
ATOM     80  F   UNL A   1      45.050  28.213  33.890  1.00  0.00    -0.206 F 
ATOM     81  C   UNL A   1      44.508  24.638  34.126  1.00  0.00     0.006 A 
ENDBRANCH  57  74
ENDBRANCH  31  32
ENDBRANCH  23  26
ENDBRANCH  21  22
ENDBRANCH  20  21
ENDBRANCH   1  20
TORSDOF 14
ENDMDL
MODEL 3
REMARK VINA RESULT:     -11.3      1.576      2.200
REMARK SMILES C[C@]1(c2nnnn2CCC(=O)NCCCCNC(=O)c2ccc(-c3c4nc(c(-c5c(F)cccc5F)c5ccc([nH]5)c(-c5c(F)cccc5F)c5nc(c(-c6c(F)cccc6F)c6ccc3[nH]6)C=C5)C=C4)cc2)CCCO1
REMARK SMILES IDX 14 1 13 2 12 3 10 4 11 5 9 7 8 8 7 9 3 10 4 11 5 12 6 13
REMARK SMILES IDX 2 14 1 15 74 16 77 17 75 18 76 19 15 20 16 21 17 22 18 23
REMARK SMILES IDX 19 25 20 26 21 27 73 28 22 29 72 30 23 31 24 32 25 33 66 34
REMARK SMILES IDX 26 35 71 36 65 37 67 38 27 39 70 40 64 41 63 42 28 44 54 45
REMARK SMILES IDX 37 46 53 47 38 48 41 49 52 50 68 51 39 52 40 53 51 55 69 56
REMARK SMILES IDX 42 57 29 58 30 59 35 60 31 61 32 62 34 63 36 64 33 65 55 66
REMARK SMILES IDX 56 67 61 68 57 69 58 70 60 71 62 72 59 73 43 74 44 75 49 76
REMARK SMILES IDX 45 77 46 78 48 79 50 80 47 81
REMARK H PARENT 12 6 17 24 67 43 41 54
REMARK Flexibility Score: inf
ROOT
ATOM      1  C   UNL A   1      33.114  29.607  25.850  1.00  0.00     0.023 C 
ENDROOT
BRANCH   1   2
ATOM      2  C   UNL A   1      32.698  28.729  24.673  1.00  0.00     0.116 C 
BRANCH   2   3
ATOM      3  N   UNL A   1      31.445  28.046  24.952  1.00  0.00    -0.356 N 
ATOM      4  C   UNL A   1      31.102  26.742  24.761  1.00  0.00     0.221 C 
ATOM      5  O   UNL A   1      29.915  26.429  24.883  1.00  0.00    -0.275 OA
ATOM      6  H   UNL A   1      30.739  28.613  25.338  1.00  0.00     0.163 HD
BRANCH   4   7
ATOM      7  C   UNL A   1      32.147  25.682  24.456  1.00  0.00     0.124 C 
BRANCH   7   8
ATOM      8  C   UNL A   1      32.599  24.904  25.689  1.00  0.00     0.158 C 
BRANCH   8   9
ATOM      9  N   UNL A   1      31.686  23.870  26.121  1.00  0.00    -0.226 N 
ATOM     10  C   UNL A   1      31.389  22.621  25.629  1.00  0.00     0.183 A 
ATOM     11  N   UNL A   1      30.269  22.234  26.221  1.00  0.00    -0.111 NA
ATOM     12  N   UNL A   1      30.064  23.101  27.257  1.00  0.00    -0.024 NA
ATOM     13  N   UNL A   1      30.961  24.073  27.238  1.00  0.00    -0.045 NA
BRANCH  10  14
ATOM     14  C   UNL A   1      32.283  21.684  24.887  1.00  0.00     0.126 C 
ATOM     15  C   UNL A   1      32.235  22.093  23.399  1.00  0.00     0.051 C 
ATOM     16  C   UNL A   1      33.716  21.613  25.400  1.00  0.00     0.046 C 
ATOM     17  O   UNL A   1      31.792  20.336  24.998  1.00  0.00    -0.367 OA
ATOM     18  C   UNL A   1      34.170  20.280  24.846  1.00  0.00     0.032 C 
ATOM     19  C   UNL A   1      32.915  19.438  24.979  1.00  0.00     0.161 C 
ENDBRANCH  10  14
ENDBRANCH   8   9
ENDBRANCH   7   8
ENDBRANCH   4   7
ENDBRANCH   2   3
ENDBRANCH   1   2
BRANCH   1  20
ATOM     20  C   UNL A   1      33.666  28.949  27.111  1.00  0.00     0.023 C 
BRANCH  20  21
ATOM     21  C   UNL A   1      35.132  29.232  27.370  1.00  0.00     0.116 C 
BRANCH  21  22
ATOM     22  N   UNL A   1      35.391  29.944  28.629  1.00  0.00    -0.352 N 
ATOM     23  C   UNL A   1      36.442  29.723  29.504  1.00  0.00     0.251 C 
ATOM     24  H   UNL A   1      34.753  30.651  28.875  1.00  0.00     0.163 HD
ATOM     25  O   UNL A   1      36.420  30.089  30.673  1.00  0.00    -0.269 OA
BRANCH  23  26
ATOM     26  C   UNL A   1      37.623  29.044  28.956  1.00  0.00     0.039 A 
ATOM     27  C   UNL A   1      38.293  29.509  27.822  1.00  0.00     0.014 A 
ATOM     28  C   UNL A   1      38.155  28.045  29.762  1.00  0.00     0.014 A 
ATOM     29  C   UNL A   1      39.578  29.033  27.573  1.00  0.00     0.010 A 
ATOM     30  C   UNL A   1      39.482  27.750  29.632  1.00  0.00     0.010 A 
ATOM     31  C   UNL A   1      40.186  28.183  28.512  1.00  0.00    -0.014 A 
BRANCH  31  32
ATOM     32  C   UNL A   1      41.595  27.814  28.418  1.00  0.00     0.031 A 
ATOM     33  C   UNL A   1      41.883  26.575  27.643  1.00  0.00     0.074 A 
ATOM     34  C   UNL A   1      42.580  28.659  28.800  1.00  0.00     0.049 A 
ATOM     35  N   UNL A   1      42.327  25.450  28.098  1.00  0.00    -0.248 NA
ATOM     36  C   UNL A   1      41.517  26.528  26.218  1.00  0.00     0.031 C 
ATOM     37  C   UNL A   1      42.465  30.040  29.293  1.00  0.00     0.029 A 
ATOM     38  N   UNL A   1      43.927  28.491  28.724  1.00  0.00    -0.354 N 
ATOM     39  C   UNL A   1      42.508  24.623  26.990  1.00  0.00     0.074 A 
ATOM     40  C   UNL A   1      41.819  25.265  25.902  1.00  0.00     0.031 C 
ATOM     41  C   UNL A   1      43.666  30.652  29.230  1.00  0.00     0.029 A 
ATOM     42  C   UNL A   1      44.664  29.657  28.897  1.00  0.00     0.049 A 
ATOM     43  H   UNL A   1      44.347  27.615  28.561  1.00  0.00     0.167 HD
ATOM     44  C   UNL A   1      43.422  23.611  27.017  1.00  0.00     0.037 A 
ATOM     45  C   UNL A   1      46.004  29.801  28.782  1.00  0.00     0.037 A 
ATOM     46  C   UNL A   1      43.848  23.350  28.371  1.00  0.00     0.049 A 
ATOM     47  C   UNL A   1      46.603  28.453  28.918  1.00  0.00     0.074 A 
ATOM     48  C   UNL A   1      43.225  22.953  29.537  1.00  0.00     0.029 A 
ATOM     49  N   UNL A   1      45.060  23.872  28.755  1.00  0.00    -0.354 N 
ATOM     50  N   UNL A   1      46.579  27.763  30.025  1.00  0.00    -0.248 NA
ATOM     51  C   UNL A   1      46.801  27.678  27.705  1.00  0.00     0.031 C 
ATOM     52  C   UNL A   1      43.873  23.693  30.571  1.00  0.00     0.029 A 
ATOM     53  C   UNL A   1      44.903  24.438  29.991  1.00  0.00     0.049 A 
ATOM     54  H   UNL A   1      45.894  23.846  28.232  1.00  0.00     0.167 HD
ATOM     55  C   UNL A   1      46.309  26.463  29.623  1.00  0.00     0.074 A 
ATOM     56  C   UNL A   1      46.560  26.454  28.183  1.00  0.00     0.031 C 
ATOM     57  C   UNL A   1      45.630  25.602  30.440  1.00  0.00     0.037 A 
BRANCH  44  58
ATOM     58  C   UNL A   1      44.250  23.141  25.837  1.00  0.00     0.057 A 
ATOM     59  C   UNL A   1      44.356  21.754  25.597  1.00  0.00     0.134 A 
ATOM     60  C   UNL A   1      45.186  23.931  25.143  1.00  0.00     0.134 A 
ATOM     61  F   UNL A   1      43.513  20.887  26.178  1.00  0.00    -0.206 F 
ATOM     62  C   UNL A   1      45.390  21.195  24.836  1.00  0.00     0.040 A 
ATOM     63  C   UNL A   1      46.193  23.385  24.340  1.00  0.00     0.040 A 
ATOM     64  F   UNL A   1      45.248  25.260  25.274  1.00  0.00    -0.206 F 
ATOM     65  C   UNL A   1      46.325  22.012  24.218  1.00  0.00     0.006 A 
ENDBRANCH  44  58
BRANCH  45  66
ATOM     66  C   UNL A   1      46.761  30.976  28.302  1.00  0.00     0.057 A 
ATOM     67  C   UNL A   1      46.743  31.359  26.956  1.00  0.00     0.134 A 
ATOM     68  C   UNL A   1      47.305  31.908  29.205  1.00  0.00     0.134 A 
ATOM     69  F   UNL A   1      46.208  30.552  26.028  1.00  0.00    -0.206 F 
ATOM     70  C   UNL A   1      47.218  32.607  26.532  1.00  0.00     0.040 A 
ATOM     71  C   UNL A   1      47.784  33.156  28.796  1.00  0.00     0.040 A 
ATOM     72  F   UNL A   1      47.306  31.671  30.526  1.00  0.00    -0.206 F 
ATOM     73  C   UNL A   1      47.730  33.515  27.455  1.00  0.00     0.006 A 
ENDBRANCH  45  66
BRANCH  57  74
ATOM     74  C   UNL A   1      45.425  26.009  31.875  1.00  0.00     0.057 A 
ATOM     75  C   UNL A   1      44.274  26.646  32.362  1.00  0.00     0.134 A 
ATOM     76  C   UNL A   1      46.365  25.593  32.825  1.00  0.00     0.134 A 
ATOM     77  F   UNL A   1      43.276  26.997  31.546  1.00  0.00    -0.206 F 
ATOM     78  C   UNL A   1      44.086  26.892  33.726  1.00  0.00     0.040 A 
ATOM     79  C   UNL A   1      46.173  25.803  34.192  1.00  0.00     0.040 A 
ATOM     80  F   UNL A   1      47.464  24.927  32.439  1.00  0.00    -0.206 F 
ATOM     81  C   UNL A   1      45.035  26.462  34.648  1.00  0.00     0.006 A 
ENDBRANCH  57  74
ENDBRANCH  31  32
ENDBRANCH  23  26
ENDBRANCH  21  22
ENDBRANCH  20  21
ENDBRANCH   1  20
TORSDOF 14
ENDMDL
