MODEL 1
REMARK VINA RESULT:     -12.4      0.000      0.000
REMARK SMILES C/C(=N\Nc1ccccc1C(=O)NCCCCNC(=O)c1ccc(-c2c3nc(c(-c4c(F)cccc4F)c4ccc([nH]4)c(-c4c(F)cccc4F)c4nc(c(-c5c(F)cccc5F)c5ccc2[nH]5)C=C4)C=C3)cc1)c1ccc(S(C)(=O)=O)cc1
REMARK SMILES IDX 14 1 13 2 11 3 12 4 10 6 5 7 6 8 7 9 9 10 8 11 4 12 3 14
REMARK SMILES IDX 1 15 2 16 75 17 76 18 84 19 77 20 83 21 78 22 79 23 80 24
REMARK SMILES IDX 81 25 82 26 15 27 16 28 17 29 18 30 19 31 20 33 21 34 22 35
REMARK SMILES IDX 74 36 23 37 73 38 24 39 25 40 26 41 67 42 27 43 72 44 66 45
REMARK SMILES IDX 68 46 28 47 71 48 65 49 64 50 29 52 55 53 38 54 54 55 39 56
REMARK SMILES IDX 42 57 53 58 69 59 40 60 41 61 52 63 70 64 43 65 30 66 31 67
REMARK SMILES IDX 36 68 32 69 33 70 35 71 37 72 34 73 56 74 57 75 62 76 58 77
REMARK SMILES IDX 59 78 61 79 63 80 60 81 44 82 45 83 50 84 46 85 47 86 49 87
REMARK SMILES IDX 51 88 48 89
REMARK H PARENT 13 5 4 13 18 32 68 51 42 62
REMARK Flexibility Score: inf
ROOT
ATOM      1  C   UNL A   1      32.157  26.335  26.417  1.00  0.00     0.116 C 
ENDROOT
BRANCH   1   2
ATOM      2  N   UNL A   1      31.227  25.307  26.850  1.00  0.00    -0.352 N 
ATOM      3  C   UNL A   1      31.385  23.935  26.827  1.00  0.00     0.253 C 
ATOM      4  O   UNL A   1      30.504  23.237  27.330  1.00  0.00    -0.269 OA
ATOM      5  H   UNL A   1      30.370  25.631  27.209  1.00  0.00     0.163 HD
BRANCH   3   6
ATOM      6  C   UNL A   1      32.509  23.269  26.108  1.00  0.00     0.064 A 
ATOM      7  C   UNL A   1      32.479  22.795  24.787  1.00  0.00     0.069 A 
ATOM      8  C   UNL A   1      33.576  22.022  24.336  1.00  0.00     0.028 A 
ATOM      9  C   UNL A   1      34.719  21.837  25.112  1.00  0.00     0.002 A 
ATOM     10  C   UNL A   1      33.695  23.127  26.862  1.00  0.00     0.016 A 
ATOM     11  C   UNL A   1      34.798  22.434  26.361  1.00  0.00     0.001 A 
BRANCH   7  12
ATOM     12  N   UNL A   1      31.566  23.168  23.777  1.00  0.00    -0.277 N 
ATOM     13  H   UNL A   1      31.380  22.500  23.078  1.00  0.00     0.190 HD
BRANCH  12  14
ATOM     14  N   UNL A   1      30.923  24.348  23.672  1.00  0.00    -0.180 NA
ATOM     15  C   UNL A   1      32.883  25.457  22.542  1.00  0.00     0.069 C 
ATOM     16  C   UNL A   1      31.481  25.375  23.101  1.00  0.00     0.065 C 
BRANCH  16  17
ATOM     17  C   UNL A   1      30.643  26.594  22.970  1.00  0.00    -0.002 A 
ATOM     18  C   UNL A   1      31.181  27.744  22.382  1.00  0.00     0.011 A 
ATOM     19  C   UNL A   1      29.362  26.619  23.528  1.00  0.00     0.011 A 
ATOM     20  C   UNL A   1      30.452  28.934  22.376  1.00  0.00     0.021 A 
ATOM     21  C   UNL A   1      28.622  27.802  23.512  1.00  0.00     0.021 A 
ATOM     22  C   UNL A   1      29.183  28.958  22.960  1.00  0.00     0.067 A 
BRANCH  22  23
ATOM     23  S   UNL A   1      28.236  30.463  22.966  1.00  0.00     0.175 S 
ATOM     24  C   UNL A   1      28.096  30.875  21.247  1.00  0.00     0.163 C 
ATOM     25  O   UNL A   1      26.904  30.134  23.446  1.00  0.00    -0.224 OA
ATOM     26  O   UNL A   1      29.040  31.477  23.611  1.00  0.00    -0.224 OA
ENDBRANCH  22  23
ENDBRANCH  16  17
ENDBRANCH  12  14
ENDBRANCH   7  12
ENDBRANCH   3   6
ENDBRANCH   1   2
BRANCH   1  27
ATOM     27  C   UNL A   1      31.881  27.729  26.973  1.00  0.00     0.023 C 
BRANCH  27  28
ATOM     28  C   UNL A   1      31.447  28.794  25.959  1.00  0.00     0.023 C 
BRANCH  28  29
ATOM     29  C   UNL A   1      32.435  29.916  25.646  1.00  0.00     0.116 C 
BRANCH  29  30
ATOM     30  N   UNL A   1      32.144  31.195  26.270  1.00  0.00    -0.352 N 
ATOM     31  C   UNL A   1      32.872  31.945  27.166  1.00  0.00     0.251 C 
ATOM     32  H   UNL A   1      31.283  31.593  26.007  1.00  0.00     0.163 HD
ATOM     33  O   UNL A   1      32.436  33.034  27.537  1.00  0.00    -0.269 OA
BRANCH  31  34
ATOM     34  C   UNL A   1      34.150  31.453  27.741  1.00  0.00     0.039 A 
ATOM     35  C   UNL A   1      35.160  32.385  28.001  1.00  0.00     0.014 A 
ATOM     36  C   UNL A   1      34.382  30.103  28.015  1.00  0.00     0.014 A 
ATOM     37  C   UNL A   1      36.355  31.979  28.605  1.00  0.00     0.010 A 
ATOM     38  C   UNL A   1      35.537  29.711  28.697  1.00  0.00     0.010 A 
ATOM     39  C   UNL A   1      36.538  30.644  28.996  1.00  0.00    -0.014 A 
BRANCH  39  40
ATOM     40  C   UNL A   1      37.757  30.231  29.743  1.00  0.00     0.031 A 
ATOM     41  C   UNL A   1      38.000  30.703  31.151  1.00  0.00     0.074 A 
ATOM     42  C   UNL A   1      38.672  29.455  29.132  1.00  0.00     0.049 A 
ATOM     43  N   UNL A   1      38.991  30.420  31.959  1.00  0.00    -0.248 NA
ATOM     44  C   UNL A   1      37.012  31.631  31.720  1.00  0.00     0.031 C 
ATOM     45  C   UNL A   1      38.590  28.986  27.747  1.00  0.00     0.029 A 
ATOM     46  N   UNL A   1      39.849  28.922  29.594  1.00  0.00    -0.354 N 
ATOM     47  C   UNL A   1      38.752  31.139  33.123  1.00  0.00     0.074 A 
ATOM     48  C   UNL A   1      37.551  31.915  32.897  1.00  0.00     0.031 C 
ATOM     49  C   UNL A   1      39.653  28.211  27.482  1.00  0.00     0.029 A 
ATOM     50  C   UNL A   1      40.505  28.150  28.666  1.00  0.00     0.049 A 
ATOM     51  H   UNL A   1      40.193  29.080  30.503  1.00  0.00     0.167 HD
ATOM     52  C   UNL A   1      39.452  31.132  34.284  1.00  0.00     0.037 A 
ATOM     53  C   UNL A   1      41.658  27.461  28.760  1.00  0.00     0.037 A 
ATOM     54  C   UNL A   1      40.638  30.345  34.511  1.00  0.00     0.049 A 
ATOM     55  C   UNL A   1      42.408  27.454  30.064  1.00  0.00     0.074 A 
ATOM     56  C   UNL A   1      41.380  30.217  35.673  1.00  0.00     0.029 A 
ATOM     57  N   UNL A   1      41.260  29.558  33.553  1.00  0.00    -0.354 N 
ATOM     58  N   UNL A   1      42.118  28.063  31.188  1.00  0.00    -0.248 NA
ATOM     59  C   UNL A   1      43.633  26.645  30.117  1.00  0.00     0.031 C 
ATOM     60  C   UNL A   1      42.478  29.392  35.405  1.00  0.00     0.029 A 
ATOM     61  C   UNL A   1      42.385  28.954  34.094  1.00  0.00     0.049 A 
ATOM     62  H   UNL A   1      40.950  29.444  32.627  1.00  0.00     0.167 HD
ATOM     63  C   UNL A   1      43.103  27.684  32.091  1.00  0.00     0.074 A 
ATOM     64  C   UNL A   1      43.989  26.781  31.387  1.00  0.00     0.031 C 
ATOM     65  C   UNL A   1      43.258  28.050  33.388  1.00  0.00     0.037 A 
BRANCH  52  66
ATOM     66  C   UNL A   1      38.950  31.995  35.409  1.00  0.00     0.057 A 
ATOM     67  C   UNL A   1      38.165  31.476  36.448  1.00  0.00     0.134 A 
ATOM     68  C   UNL A   1      39.300  33.351  35.487  1.00  0.00     0.134 A 
ATOM     69  F   UNL A   1      37.787  30.188  36.436  1.00  0.00    -0.206 F 
ATOM     70  C   UNL A   1      37.724  32.275  37.505  1.00  0.00     0.040 A 
ATOM     71  C   UNL A   1      38.890  34.153  36.554  1.00  0.00     0.040 A 
ATOM     72  F   UNL A   1      40.059  33.915  34.535  1.00  0.00    -0.206 F 
ATOM     73  C   UNL A   1      38.094  33.617  37.564  1.00  0.00     0.006 A 
ENDBRANCH  52  66
BRANCH  53  74
ATOM     74  C   UNL A   1      42.150  26.679  27.596  1.00  0.00     0.057 A 
ATOM     75  C   UNL A   1      42.933  27.276  26.602  1.00  0.00     0.134 A 
ATOM     76  C   UNL A   1      41.849  25.319  27.450  1.00  0.00     0.134 A 
ATOM     77  F   UNL A   1      43.243  28.578  26.678  1.00  0.00    -0.206 F 
ATOM     78  C   UNL A   1      43.382  26.557  25.493  1.00  0.00     0.040 A 
ATOM     79  C   UNL A   1      42.314  24.581  26.360  1.00  0.00     0.040 A 
ATOM     80  F   UNL A   1      41.112  24.685  28.374  1.00  0.00    -0.206 F 
ATOM     81  C   UNL A   1      43.075  25.203  25.374  1.00  0.00     0.006 A 
ENDBRANCH  53  74
BRANCH  65  82
ATOM     82  C   UNL A   1      44.398  27.430  34.145  1.00  0.00     0.057 A 
ATOM     83  C   UNL A   1      45.647  28.052  34.255  1.00  0.00     0.134 A 
ATOM     84  C   UNL A   1      44.233  26.196  34.788  1.00  0.00     0.134 A 
ATOM     85  F   UNL A   1      45.877  29.229  33.654  1.00  0.00    -0.206 F 
ATOM     86  C   UNL A   1      46.703  27.453  34.948  1.00  0.00     0.040 A 
ATOM     87  C   UNL A   1      45.270  25.603  35.510  1.00  0.00     0.040 A 
ATOM     88  F   UNL A   1      43.059  25.548  34.733  1.00  0.00    -0.206 F 
ATOM     89  C   UNL A   1      46.513  26.228  35.583  1.00  0.00     0.006 A 
ENDBRANCH  65  82
ENDBRANCH  39  40
ENDBRANCH  31  34
ENDBRANCH  29  30
ENDBRANCH  28  29
ENDBRANCH  27  28
ENDBRANCH   1  27
TORSDOF 15
ENDMDL
MODEL 2
REMARK VINA RESULT:     -12.4      4.054      8.273
REMARK SMILES C/C(=N\Nc1ccccc1C(=O)NCCCCNC(=O)c1ccc(-c2c3nc(c(-c4c(F)cccc4F)c4ccc([nH]4)c(-c4c(F)cccc4F)c4nc(c(-c5c(F)cccc5F)c5ccc2[nH]5)C=C4)C=C3)cc1)c1ccc(S(C)(=O)=O)cc1
REMARK SMILES IDX 14 1 13 2 11 3 12 4 10 6 5 7 6 8 7 9 9 10 8 11 4 12 3 14
REMARK SMILES IDX 1 15 2 16 75 17 76 18 84 19 77 20 83 21 78 22 79 23 80 24
REMARK SMILES IDX 81 25 82 26 15 27 16 28 17 29 18 30 19 31 20 33 21 34 22 35
REMARK SMILES IDX 74 36 23 37 73 38 24 39 25 40 26 41 67 42 27 43 72 44 66 45
REMARK SMILES IDX 68 46 28 47 71 48 65 49 64 50 29 52 55 53 38 54 54 55 39 56
REMARK SMILES IDX 42 57 53 58 69 59 40 60 41 61 52 63 70 64 43 65 30 66 31 67
REMARK SMILES IDX 36 68 32 69 33 70 35 71 37 72 34 73 56 74 57 75 62 76 58 77
REMARK SMILES IDX 59 78 61 79 63 80 60 81 44 82 45 83 50 84 46 85 47 86 49 87
REMARK SMILES IDX 51 88 48 89
REMARK H PARENT 13 5 4 13 18 32 68 51 42 62
REMARK Flexibility Score: inf
ROOT
ATOM      1  C   UNL A   1      37.710  23.717  25.800  1.00  0.00     0.116 C 
ENDROOT
BRANCH   1   2
ATOM      2  N   UNL A   1      37.203  23.575  24.447  1.00  0.00    -0.352 N 
ATOM      3  C   UNL A   1      35.903  23.371  24.030  1.00  0.00     0.253 C 
ATOM      4  O   UNL A   1      35.672  23.369  22.819  1.00  0.00    -0.269 OA
ATOM      5  H   UNL A   1      37.877  23.632  23.732  1.00  0.00     0.163 HD
BRANCH   3   6
ATOM      6  C   UNL A   1      34.801  23.028  24.974  1.00  0.00     0.064 A 
ATOM      7  C   UNL A   1      34.063  23.939  25.747  1.00  0.00     0.069 A 
ATOM      8  C   UNL A   1      33.186  23.416  26.727  1.00  0.00     0.028 A 
ATOM      9  C   UNL A   1      32.942  22.050  26.848  1.00  0.00     0.002 A 
ATOM     10  C   UNL A   1      34.503  21.651  25.064  1.00  0.00     0.016 A 
ATOM     11  C   UNL A   1      33.566  21.167  25.980  1.00  0.00     0.001 A 
BRANCH   7  12
ATOM     12  N   UNL A   1      33.942  25.328  25.527  1.00  0.00    -0.277 N 
ATOM     13  H   UNL A   1      34.748  25.873  25.679  1.00  0.00     0.190 HD
BRANCH  12  14
ATOM     14  N   UNL A   1      32.834  25.985  25.131  1.00  0.00    -0.180 NA
ATOM     15  C   UNL A   1      33.767  28.224  25.810  1.00  0.00     0.069 C 
ATOM     16  C   UNL A   1      32.745  27.280  25.222  1.00  0.00     0.065 C 
BRANCH  16  17
ATOM     17  C   UNL A   1      31.509  27.896  24.676  1.00  0.00    -0.002 A 
ATOM     18  C   UNL A   1      30.517  27.081  24.120  1.00  0.00     0.011 A 
ATOM     19  C   UNL A   1      31.390  29.288  24.627  1.00  0.00     0.011 A 
ATOM     20  C   UNL A   1      29.416  27.655  23.483  1.00  0.00     0.021 A 
ATOM     21  C   UNL A   1      30.284  29.867  24.005  1.00  0.00     0.021 A 
ATOM     22  C   UNL A   1      29.317  29.046  23.413  1.00  0.00     0.067 A 
BRANCH  22  23
ATOM     23  S   UNL A   1      27.924  29.801  22.606  1.00  0.00     0.175 S 
ATOM     24  C   UNL A   1      27.884  31.438  23.286  1.00  0.00     0.163 C 
ATOM     25  O   UNL A   1      28.254  29.921  21.196  1.00  0.00    -0.224 OA
ATOM     26  O   UNL A   1      26.739  29.098  23.045  1.00  0.00    -0.224 OA
ENDBRANCH  22  23
ENDBRANCH  16  17
ENDBRANCH  12  14
ENDBRANCH   7  12
ENDBRANCH   3   6
ENDBRANCH   1   2
BRANCH   1  27
ATOM     27  C   UNL A   1      38.742  22.672  26.215  1.00  0.00     0.023 C 
BRANCH  27  28
ATOM     28  C   UNL A   1      38.779  21.384  25.385  1.00  0.00     0.023 C 
BRANCH  28  29
ATOM     29  C   UNL A   1      39.008  20.069  26.128  1.00  0.00     0.116 C 
BRANCH  29  30
ATOM     30  N   UNL A   1      40.206  19.339  25.751  1.00  0.00    -0.352 N 
ATOM     31  C   UNL A   1      41.537  19.637  25.939  1.00  0.00     0.251 C 
ATOM     32  H   UNL A   1      40.038  18.489  25.285  1.00  0.00     0.163 HD
ATOM     33  O   UNL A   1      42.393  18.839  25.561  1.00  0.00    -0.269 OA
BRANCH  31  34
ATOM     34  C   UNL A   1      41.973  20.924  26.540  1.00  0.00     0.039 A 
ATOM     35  C   UNL A   1      42.434  21.930  25.685  1.00  0.00     0.014 A 
ATOM     36  C   UNL A   1      41.952  21.156  27.917  1.00  0.00     0.014 A 
ATOM     37  C   UNL A   1      42.790  23.182  26.197  1.00  0.00     0.010 A 
ATOM     38  C   UNL A   1      42.224  22.431  28.420  1.00  0.00     0.010 A 
ATOM     39  C   UNL A   1      42.650  23.457  27.566  1.00  0.00    -0.014 A 
BRANCH  39  40
ATOM     40  C   UNL A   1      42.916  24.821  28.098  1.00  0.00     0.031 A 
ATOM     41  C   UNL A   1      44.309  25.249  28.472  1.00  0.00     0.074 A 
ATOM     42  C   UNL A   1      41.885  25.667  28.284  1.00  0.00     0.049 A 
ATOM     43  N   UNL A   1      44.727  26.406  28.924  1.00  0.00    -0.248 NA
ATOM     44  C   UNL A   1      45.371  24.241  28.342  1.00  0.00     0.031 C 
ATOM     45  C   UNL A   1      40.479  25.352  28.027  1.00  0.00     0.029 A 
ATOM     46  N   UNL A   1      41.859  26.965  28.730  1.00  0.00    -0.354 N 
ATOM     47  C   UNL A   1      46.092  26.262  29.139  1.00  0.00     0.074 A 
ATOM     48  C   UNL A   1      46.423  24.889  28.822  1.00  0.00     0.031 C 
ATOM     49  C   UNL A   1      39.731  26.435  28.289  1.00  0.00     0.029 A 
ATOM     50  C   UNL A   1      40.598  27.511  28.758  1.00  0.00     0.049 A 
ATOM     51  H   UNL A   1      42.666  27.457  29.006  1.00  0.00     0.167 HD
ATOM     52  C   UNL A   1      46.991  27.195  29.537  1.00  0.00     0.037 A 
ATOM     53  C   UNL A   1      40.188  28.744  29.113  1.00  0.00     0.037 A 
ATOM     54  C   UNL A   1      46.659  28.566  29.836  1.00  0.00     0.049 A 
ATOM     55  C   UNL A   1      41.206  29.767  29.534  1.00  0.00     0.074 A 
ATOM     56  C   UNL A   1      47.508  29.604  30.182  1.00  0.00     0.029 A 
ATOM     57  N   UNL A   1      45.374  29.087  29.833  1.00  0.00    -0.354 N 
ATOM     58  N   UNL A   1      42.507  29.644  29.641  1.00  0.00    -0.248 NA
ATOM     59  C   UNL A   1      40.700  31.107  29.862  1.00  0.00     0.031 C 
ATOM     60  C   UNL A   1      46.732  30.740  30.435  1.00  0.00     0.029 A 
ATOM     61  C   UNL A   1      45.405  30.427  30.185  1.00  0.00     0.049 A 
ATOM     62  H   UNL A   1      44.559  28.581  29.613  1.00  0.00     0.167 HD
ATOM     63  C   UNL A   1      42.978  30.896  30.014  1.00  0.00     0.074 A 
ATOM     64  C   UNL A   1      41.824  31.767  30.099  1.00  0.00     0.031 C 
ATOM     65  C   UNL A   1      44.252  31.289  30.260  1.00  0.00     0.037 A 
BRANCH  52  66
ATOM     66  C   UNL A   1      48.429  26.771  29.664  1.00  0.00     0.057 A 
ATOM     67  C   UNL A   1      48.930  26.199  30.841  1.00  0.00     0.134 A 
ATOM     68  C   UNL A   1      49.310  26.884  28.580  1.00  0.00     0.134 A 
ATOM     69  F   UNL A   1      48.145  26.065  31.921  1.00  0.00    -0.206 F 
ATOM     70  C   UNL A   1      50.259  25.781  30.945  1.00  0.00     0.040 A 
ATOM     71  C   UNL A   1      50.633  26.443  28.662  1.00  0.00     0.040 A 
ATOM     72  F   UNL A   1      48.897  27.411  27.417  1.00  0.00    -0.206 F 
ATOM     73  C   UNL A   1      51.113  25.896  29.850  1.00  0.00     0.006 A 
ENDBRANCH  52  66
BRANCH  53  74
ATOM     74  C   UNL A   1      38.745  29.094  29.037  1.00  0.00     0.057 A 
ATOM     75  C   UNL A   1      38.164  29.507  27.833  1.00  0.00     0.134 A 
ATOM     76  C   UNL A   1      37.917  29.025  30.163  1.00  0.00     0.134 A 
ATOM     77  F   UNL A   1      38.909  29.607  26.722  1.00  0.00    -0.206 F 
ATOM     78  C   UNL A   1      36.816  29.860  27.754  1.00  0.00     0.040 A 
ATOM     79  C   UNL A   1      36.561  29.349  30.093  1.00  0.00     0.040 A 
ATOM     80  F   UNL A   1      38.410  28.626  31.345  1.00  0.00    -0.206 F 
ATOM     81  C   UNL A   1      36.009  29.776  28.888  1.00  0.00     0.006 A 
ENDBRANCH  53  74
BRANCH  65  82
ATOM     82  C   UNL A   1      44.472  32.738  30.593  1.00  0.00     0.057 A 
ATOM     83  C   UNL A   1      44.477  33.209  31.912  1.00  0.00     0.134 A 
ATOM     84  C   UNL A   1      44.698  33.673  29.574  1.00  0.00     0.134 A 
ATOM     85  F   UNL A   1      44.255  32.370  32.935  1.00  0.00    -0.206 F 
ATOM     86  C   UNL A   1      44.665  34.562  32.203  1.00  0.00     0.040 A 
ATOM     87  C   UNL A   1      44.919  35.022  29.854  1.00  0.00     0.040 A 
ATOM     88  F   UNL A   1      44.718  33.290  28.288  1.00  0.00    -0.206 F 
ATOM     89  C   UNL A   1      44.892  35.472  31.173  1.00  0.00     0.006 A 
ENDBRANCH  65  82
ENDBRANCH  39  40
ENDBRANCH  31  34
ENDBRANCH  29  30
ENDBRANCH  28  29
ENDBRANCH  27  28
ENDBRANCH   1  27
TORSDOF 15
ENDMDL
MODEL 3
REMARK VINA RESULT:     -12.3      4.458      9.077
REMARK SMILES C/C(=N\Nc1ccccc1C(=O)NCCCCNC(=O)c1ccc(-c2c3nc(c(-c4c(F)cccc4F)c4ccc([nH]4)c(-c4c(F)cccc4F)c4nc(c(-c5c(F)cccc5F)c5ccc2[nH]5)C=C4)C=C3)cc1)c1ccc(S(C)(=O)=O)cc1
REMARK SMILES IDX 14 1 13 2 11 3 12 4 10 6 5 7 6 8 7 9 9 10 8 11 4 12 3 14
REMARK SMILES IDX 1 15 2 16 75 17 76 18 84 19 77 20 83 21 78 22 79 23 80 24
REMARK SMILES IDX 81 25 82 26 15 27 16 28 17 29 18 30 19 31 20 33 21 34 22 35
REMARK SMILES IDX 74 36 23 37 73 38 24 39 25 40 26 41 67 42 27 43 72 44 66 45
REMARK SMILES IDX 68 46 28 47 71 48 65 49 64 50 29 52 55 53 38 54 54 55 39 56
REMARK SMILES IDX 42 57 53 58 69 59 40 60 41 61 52 63 70 64 43 65 30 66 31 67
REMARK SMILES IDX 36 68 32 69 33 70 35 71 37 72 34 73 56 74 57 75 62 76 58 77
REMARK SMILES IDX 59 78 61 79 63 80 60 81 44 82 45 83 50 84 46 85 47 86 49 87
REMARK SMILES IDX 51 88 48 89
REMARK H PARENT 13 5 4 13 18 32 68 51 42 62
REMARK Flexibility Score: inf
ROOT
ATOM      1  C   UNL A   1      36.514  23.794  25.181  1.00  0.00     0.116 C 
ENDROOT
BRANCH   1   2
ATOM      2  N   UNL A   1      35.370  23.653  26.064  1.00  0.00    -0.352 N 
ATOM      3  C   UNL A   1      34.169  24.336  26.036  1.00  0.00     0.253 C 
ATOM      4  O   UNL A   1      33.287  23.998  26.827  1.00  0.00    -0.269 OA
ATOM      5  H   UNL A   1      35.462  22.983  26.778  1.00  0.00     0.163 HD
BRANCH   3   6
ATOM      6  C   UNL A   1      33.949  25.537  25.180  1.00  0.00     0.064 A 
ATOM      7  C   UNL A   1      33.821  25.541  23.781  1.00  0.00     0.069 A 
ATOM      8  C   UNL A   1      33.806  26.794  23.123  1.00  0.00     0.028 A 
ATOM      9  C   UNL A   1      33.779  27.998  23.824  1.00  0.00     0.002 A 
ATOM     10  C   UNL A   1      33.860  26.758  25.882  1.00  0.00     0.016 A 
ATOM     11  C   UNL A   1      33.756  27.978  25.210  1.00  0.00     0.001 A 
BRANCH   7  12
ATOM     12  N   UNL A   1      33.504  24.439  22.959  1.00  0.00    -0.277 N 
ATOM     13  H   UNL A   1      33.112  24.640  22.078  1.00  0.00     0.190 HD
BRANCH  12  14
ATOM     14  N   UNL A   1      33.682  23.137  23.258  1.00  0.00    -0.180 NA
ATOM     15  C   UNL A   1      31.305  22.864  24.047  1.00  0.00     0.069 C 
ATOM     16  C   UNL A   1      32.708  22.408  23.719  1.00  0.00     0.065 C 
BRANCH  16  17
ATOM     17  C   UNL A   1      33.003  20.968  23.931  1.00  0.00    -0.002 A 
ATOM     18  C   UNL A   1      34.114  20.596  24.696  1.00  0.00     0.011 A 
ATOM     19  C   UNL A   1      32.235  19.998  23.282  1.00  0.00     0.011 A 
ATOM     20  C   UNL A   1      34.481  19.253  24.791  1.00  0.00     0.021 A 
ATOM     21  C   UNL A   1      32.588  18.652  23.385  1.00  0.00     0.021 A 
ATOM     22  C   UNL A   1      33.724  18.291  24.117  1.00  0.00     0.067 A 
BRANCH  22  23
ATOM     23  S   UNL A   1      34.172  16.574  24.221  1.00  0.00     0.175 S 
ATOM     24  C   UNL A   1      32.812  15.840  25.091  1.00  0.00     0.163 C 
ATOM     25  O   UNL A   1      34.164  16.041  22.869  1.00  0.00    -0.224 OA
ATOM     26  O   UNL A   1      35.347  16.484  25.059  1.00  0.00    -0.224 OA
ENDBRANCH  22  23
ENDBRANCH  16  17
ENDBRANCH  12  14
ENDBRANCH   7  12
ENDBRANCH   3   6
ENDBRANCH   1   2
BRANCH   1  27
ATOM     27  C   UNL A   1      37.766  23.042  25.625  1.00  0.00     0.023 C 
BRANCH  27  28
ATOM     28  C   UNL A   1      38.032  21.697  24.940  1.00  0.00     0.023 C 
BRANCH  28  29
ATOM     29  C   UNL A   1      38.115  20.455  25.826  1.00  0.00     0.116 C 
BRANCH  29  30
ATOM     30  N   UNL A   1      39.252  19.586  25.577  1.00  0.00    -0.352 N 
ATOM     31  C   UNL A   1      40.583  19.732  25.898  1.00  0.00     0.251 C 
ATOM     32  H   UNL A   1      39.034  18.753  25.101  1.00  0.00     0.163 HD
ATOM     33  O   UNL A   1      41.374  18.834  25.614  1.00  0.00    -0.269 OA
BRANCH  31  34
ATOM     34  C   UNL A   1      41.103  20.970  26.534  1.00  0.00     0.039 A 
ATOM     35  C   UNL A   1      41.645  21.959  25.707  1.00  0.00     0.014 A 
ATOM     36  C   UNL A   1      41.083  21.172  27.916  1.00  0.00     0.014 A 
ATOM     37  C   UNL A   1      42.084  23.170  26.252  1.00  0.00     0.010 A 
ATOM     38  C   UNL A   1      41.440  22.412  28.451  1.00  0.00     0.010 A 
ATOM     39  C   UNL A   1      41.949  23.424  27.625  1.00  0.00    -0.014 A 
BRANCH  39  40
ATOM     40  C   UNL A   1      42.306  24.753  28.192  1.00  0.00     0.031 A 
ATOM     41  C   UNL A   1      43.717  25.063  28.611  1.00  0.00     0.074 A 
ATOM     42  C   UNL A   1      41.339  25.675  28.367  1.00  0.00     0.049 A 
ATOM     43  N   UNL A   1      44.211  26.175  29.096  1.00  0.00    -0.248 NA
ATOM     44  C   UNL A   1      44.699  23.977  28.488  1.00  0.00     0.031 C 
ATOM     45  C   UNL A   1      39.920  25.476  28.066  1.00  0.00     0.029 A 
ATOM     46  N   UNL A   1      41.402  26.962  28.838  1.00  0.00    -0.354 N 
ATOM     47  C   UNL A   1      45.553  25.920  29.345  1.00  0.00     0.074 A 
ATOM     48  C   UNL A   1      45.785  24.531  29.009  1.00  0.00     0.031 C 
ATOM     49  C   UNL A   1      39.252  26.610  28.329  1.00  0.00     0.029 A 
ATOM     50  C   UNL A   1      40.188  27.606  28.843  1.00  0.00     0.049 A 
ATOM     51  H   UNL A   1      42.237  27.384  29.145  1.00  0.00     0.167 HD
ATOM     52  C   UNL A   1      46.512  26.772  29.786  1.00  0.00     0.037 A 
ATOM     53  C   UNL A   1      39.865  28.860  29.211  1.00  0.00     0.037 A 
ATOM     54  C   UNL A   1      46.279  28.159  30.103  1.00  0.00     0.049 A 
ATOM     55  C   UNL A   1      40.948  29.792  29.680  1.00  0.00     0.074 A 
ATOM     56  C   UNL A   1      47.197  29.120  30.493  1.00  0.00     0.029 A 
ATOM     57  N   UNL A   1      45.040  28.780  30.077  1.00  0.00    -0.354 N 
ATOM     58  N   UNL A   1      42.232  29.564  29.819  1.00  0.00    -0.248 NA
ATOM     59  C   UNL A   1      40.540  31.161  30.022  1.00  0.00     0.031 C 
ATOM     60  C   UNL A   1      46.506  30.310  30.747  1.00  0.00     0.029 A 
ATOM     61  C   UNL A   1      45.166  30.107  30.456  1.00  0.00     0.049 A 
ATOM     62  H   UNL A   1      44.195  28.344  29.825  1.00  0.00     0.167 HD
ATOM     63  C   UNL A   1      42.789  30.769  30.230  1.00  0.00     0.074 A 
ATOM     64  C   UNL A   1      41.705  31.726  30.301  1.00  0.00     0.031 C 
ATOM     65  C   UNL A   1      44.083  31.056  30.518  1.00  0.00     0.037 A 
BRANCH  52  66
ATOM     66  C   UNL A   1      47.907  26.234  29.943  1.00  0.00     0.057 A 
ATOM     67  C   UNL A   1      48.827  26.240  28.886  1.00  0.00     0.134 A 
ATOM     68  C   UNL A   1      48.358  25.754  31.181  1.00  0.00     0.134 A 
ATOM     69  F   UNL A   1      48.463  26.680  27.671  1.00  0.00    -0.206 F 
ATOM     70  C   UNL A   1      50.131  25.766  29.043  1.00  0.00     0.040 A 
ATOM     71  C   UNL A   1      49.668  25.303  31.359  1.00  0.00     0.040 A 
ATOM     72  F   UNL A   1      47.537  25.728  32.242  1.00  0.00    -0.206 F 
ATOM     73  C   UNL A   1      50.557  25.302  30.286  1.00  0.00     0.006 A 
ENDBRANCH  52  66
BRANCH  53  74
ATOM     74  C   UNL A   1      38.457  29.324  29.104  1.00  0.00     0.057 A 
ATOM     75  C   UNL A   1      37.613  29.335  30.219  1.00  0.00     0.134 A 
ATOM     76  C   UNL A   1      37.924  29.764  27.887  1.00  0.00     0.134 A 
ATOM     77  F   UNL A   1      38.060  28.910  31.410  1.00  0.00    -0.206 F 
ATOM     78  C   UNL A   1      36.282  29.746  30.126  1.00  0.00     0.040 A 
ATOM     79  C   UNL A   1      36.604  30.205  27.785  1.00  0.00     0.040 A 
ATOM     80  F   UNL A   1      38.685  29.789  26.782  1.00  0.00    -0.206 F 
ATOM     81  C   UNL A   1      35.776  30.188  28.905  1.00  0.00     0.006 A 
ENDBRANCH  53  74
BRANCH  65  82
ATOM     82  C   UNL A   1      44.406  32.477  30.886  1.00  0.00     0.057 A 
ATOM     83  C   UNL A   1      44.705  33.448  29.923  1.00  0.00     0.134 A 
ATOM     84  C   UNL A   1      44.399  32.880  32.228  1.00  0.00     0.134 A 
ATOM     85  F   UNL A   1      44.741  33.127  28.621  1.00  0.00    -0.206 F 
ATOM     86  C   UNL A   1      45.021  34.760  30.283  1.00  0.00     0.040 A 
ATOM     87  C   UNL A   1      44.681  34.196  32.598  1.00  0.00     0.040 A 
ATOM     88  F   UNL A   1      44.110  32.004  33.203  1.00  0.00    -0.206 F 
ATOM     89  C   UNL A   1      45.003  35.139  31.624  1.00  0.00     0.006 A 
ENDBRANCH  65  82
ENDBRANCH  39  40
ENDBRANCH  31  34
ENDBRANCH  29  30
ENDBRANCH  28  29
ENDBRANCH  27  28
ENDBRANCH   1  27
TORSDOF 15
ENDMDL
