MODEL 1
REMARK VINA RESULT:     -11.1      0.000      0.000
REMARK SMILES Nc1c(CC(=O)NCCCCNC(=O)c2ccc(-c3c4nc(c(-c5c(F)cccc5F)c5ccc([nH]5)c(-c5c(F)cccc5F)c5nc(c(-c6c(F)cccc6F)c6ccc3[nH]6)C=C5)C=C4)cc2)cccc1C(=O)c1ccc(Br)cc1
REMARK SMILES IDX 9 1 8 2 7 3 5 4 6 5 4 7 3 8 2 9 72 10 69 11 71 12 70 13 1 14
REMARK SMILES IDX 73 17 74 18 75 19 76 20 81 21 77 22 80 23 78 24 79 25 10 26
REMARK SMILES IDX 11 27 12 28 13 29 14 31 15 32 16 33 68 34 17 35 67 36 18 37
REMARK SMILES IDX 19 38 20 39 61 40 21 41 66 42 60 43 62 44 22 45 65 46 59 47
REMARK SMILES IDX 58 48 23 50 49 51 32 52 48 53 33 54 36 55 47 56 63 57 34 58
REMARK SMILES IDX 35 59 46 61 64 62 37 63 24 64 25 65 30 66 26 67 27 68 29 69
REMARK SMILES IDX 31 70 28 71 50 72 51 73 56 74 52 75 53 76 55 77 57 78 54 79
REMARK SMILES IDX 38 80 39 81 44 82 40 83 41 84 43 85 45 86 42 87
REMARK H PARENT 7 6 1 15 1 16 12 30 62 49 36 60
REMARK Flexibility Score: inf
ROOT
ATOM      1  C   UNL A   1      32.847  29.303  24.853  1.00  0.00     0.023 C 
ENDROOT
BRANCH   1   2
ATOM      2  C   UNL A   1      31.337  29.492  24.997  1.00  0.00     0.116 C 
BRANCH   2   3
ATOM      3  N   UNL A   1      30.702  29.727  23.717  1.00  0.00    -0.356 N 
ATOM      4  C   UNL A   1      30.074  28.835  22.896  1.00  0.00     0.224 C 
ATOM      5  O   UNL A   1      29.671  29.240  21.804  1.00  0.00    -0.275 OA
ATOM      6  H   UNL A   1      30.726  30.657  23.396  1.00  0.00     0.163 HD
BRANCH   4   7
ATOM      7  C   UNL A   1      29.814  27.406  23.350  1.00  0.00     0.137 C 
BRANCH   7   8
ATOM      8  C   UNL A   1      30.960  26.438  23.100  1.00  0.00    -0.015 A 
ATOM      9  C   UNL A   1      31.241  25.339  23.959  1.00  0.00     0.046 A 
ATOM     10  C   UNL A   1      32.396  24.553  23.708  1.00  0.00     0.046 A 
ATOM     11  C   UNL A   1      31.795  26.704  21.999  1.00  0.00     0.006 A 
ATOM     12  C   UNL A   1      33.218  24.868  22.607  1.00  0.00     0.014 A 
ATOM     13  C   UNL A   1      32.918  25.927  21.756  1.00  0.00     0.001 A 
BRANCH   9  14
ATOM     14  N   UNL A   1      30.395  25.116  25.039  1.00  0.00    -0.398 N 
ATOM     15  H   UNL A   1      30.574  25.553  25.903  1.00  0.00     0.156 HD
ATOM     16  H   UNL A   1      29.617  24.522  24.941  1.00  0.00     0.156 HD
ENDBRANCH   9  14
BRANCH  10  17
ATOM     17  C   UNL A   1      32.892  23.407  24.547  1.00  0.00     0.195 C 
ATOM     18  O   UNL A   1      32.100  22.585  25.007  1.00  0.00    -0.289 OA
BRANCH  17  19
ATOM     19  C   UNL A   1      34.320  23.147  24.808  1.00  0.00     0.023 A 
ATOM     20  C   UNL A   1      35.014  24.059  25.614  1.00  0.00     0.013 A 
ATOM     21  C   UNL A   1      34.960  22.007  24.311  1.00  0.00     0.013 A 
ATOM     22  C   UNL A   1      36.331  23.787  25.990  1.00  0.00     0.016 A 
ATOM     23  C   UNL A   1      36.272  21.732  24.702  1.00  0.00     0.016 A 
ATOM     24  C   UNL A   1      36.946  22.616  25.549  1.00  0.00     0.018 A 
ATOM     25  Br  UNL A   1      38.700  22.208  26.124  1.00  0.00    -0.051 Br
ENDBRANCH  17  19
ENDBRANCH  10  17
ENDBRANCH   7   8
ENDBRANCH   4   7
ENDBRANCH   2   3
ENDBRANCH   1   2
BRANCH   1  26
ATOM     26  C   UNL A   1      33.381  28.030  25.514  1.00  0.00     0.023 C 
BRANCH  26  27
ATOM     27  C   UNL A   1      33.956  28.229  26.911  1.00  0.00     0.116 C 
BRANCH  27  28
ATOM     28  N   UNL A   1      33.766  29.578  27.418  1.00  0.00    -0.352 N 
ATOM     29  C   UNL A   1      34.655  30.371  28.099  1.00  0.00     0.251 C 
ATOM     30  H   UNL A   1      32.881  29.977  27.251  1.00  0.00     0.163 HD
ATOM     31  O   UNL A   1      34.288  31.446  28.568  1.00  0.00    -0.269 OA
BRANCH  29  32
ATOM     32  C   UNL A   1      36.047  29.916  28.295  1.00  0.00     0.039 A 
ATOM     33  C   UNL A   1      36.961  30.085  27.252  1.00  0.00     0.014 A 
ATOM     34  C   UNL A   1      36.456  29.328  29.496  1.00  0.00     0.014 A 
ATOM     35  C   UNL A   1      38.291  29.703  27.428  1.00  0.00     0.010 A 
ATOM     36  C   UNL A   1      37.800  29.026  29.700  1.00  0.00     0.010 A 
ATOM     37  C   UNL A   1      38.727  29.192  28.663  1.00  0.00    -0.014 A 
BRANCH  37  38
ATOM     38  C   UNL A   1      40.147  28.806  28.866  1.00  0.00     0.031 A 
ATOM     39  C   UNL A   1      41.110  29.768  29.507  1.00  0.00     0.074 A 
ATOM     40  C   UNL A   1      40.577  27.600  28.449  1.00  0.00     0.049 A 
ATOM     41  N   UNL A   1      42.383  29.611  29.774  1.00  0.00    -0.248 NA
ATOM     42  C   UNL A   1      40.582  31.093  29.874  1.00  0.00     0.031 C 
ATOM     43  C   UNL A   1      39.757  26.600  27.762  1.00  0.00     0.029 A 
ATOM     44  N   UNL A   1      41.812  27.009  28.542  1.00  0.00    -0.354 N 
ATOM     45  C   UNL A   1      42.804  30.813  30.329  1.00  0.00     0.074 A 
ATOM     46  C   UNL A   1      41.672  31.712  30.300  1.00  0.00     0.031 C 
ATOM     47  C   UNL A   1      40.501  25.506  27.529  1.00  0.00     0.029 A 
ATOM     48  C   UNL A   1      41.855  25.739  28.020  1.00  0.00     0.049 A 
ATOM     49  H   UNL A   1      42.592  27.452  28.947  1.00  0.00     0.167 HD
ATOM     50  C   UNL A   1      44.015  31.131  30.844  1.00  0.00     0.037 A 
ATOM     51  C   UNL A   1      42.874  24.861  27.948  1.00  0.00     0.037 A 
ATOM     52  C   UNL A   1      45.135  30.227  30.890  1.00  0.00     0.049 A 
ATOM     53  C   UNL A   1      44.209  25.237  28.527  1.00  0.00     0.074 A 
ATOM     54  C   UNL A   1      46.387  30.432  31.444  1.00  0.00     0.029 A 
ATOM     55  N   UNL A   1      45.139  28.947  30.357  1.00  0.00    -0.354 N 
ATOM     56  N   UNL A   1      44.571  26.349  29.122  1.00  0.00    -0.248 NA
ATOM     57  C   UNL A   1      45.275  24.230  28.436  1.00  0.00     0.031 C 
ATOM     58  C   UNL A   1      47.164  29.295  31.201  1.00  0.00     0.029 A 
ATOM     59  C   UNL A   1      46.380  28.359  30.548  1.00  0.00     0.049 A 
ATOM     60  H   UNL A   1      44.373  28.519  29.910  1.00  0.00     0.167 HD
ATOM     61  C   UNL A   1      45.895  26.165  29.499  1.00  0.00     0.074 A 
ATOM     62  C   UNL A   1      46.264  24.827  29.086  1.00  0.00     0.031 C 
ATOM     63  C   UNL A   1      46.732  27.026  30.130  1.00  0.00     0.037 A 
BRANCH  50  64
ATOM     64  C   UNL A   1      44.189  32.514  31.404  1.00  0.00     0.057 A 
ATOM     65  C   UNL A   1      43.910  32.811  32.746  1.00  0.00     0.134 A 
ATOM     66  C   UNL A   1      44.665  33.558  30.601  1.00  0.00     0.134 A 
ATOM     67  F   UNL A   1      43.437  31.861  33.568  1.00  0.00    -0.206 F 
ATOM     68  C   UNL A   1      44.070  34.099  33.260  1.00  0.00     0.040 A 
ATOM     69  C   UNL A   1      44.859  34.844  31.111  1.00  0.00     0.040 A 
ATOM     70  F   UNL A   1      44.957  33.345  29.309  1.00  0.00    -0.206 F 
ATOM     71  C   UNL A   1      44.554  35.118  32.443  1.00  0.00     0.006 A 
ENDBRANCH  50  64
BRANCH  51  72
ATOM     72  C   UNL A   1      42.664  23.526  27.330  1.00  0.00     0.057 A 
ATOM     73  C   UNL A   1      42.295  22.420  28.103  1.00  0.00     0.134 A 
ATOM     74  C   UNL A   1      42.844  23.320  25.957  1.00  0.00     0.134 A 
ATOM     75  F   UNL A   1      42.125  22.549  29.428  1.00  0.00    -0.206 F 
ATOM     76  C   UNL A   1      42.135  21.153  27.541  1.00  0.00     0.040 A 
ATOM     77  C   UNL A   1      42.660  22.064  25.376  1.00  0.00     0.040 A 
ATOM     78  F   UNL A   1      43.190  24.340  25.158  1.00  0.00    -0.206 F 
ATOM     79  C   UNL A   1      42.314  20.974  26.171  1.00  0.00     0.006 A 
ENDBRANCH  51  72
BRANCH  63  80
ATOM     80  C   UNL A   1      48.117  26.532  30.436  1.00  0.00     0.057 A 
ATOM     81  C   UNL A   1      49.187  26.721  29.551  1.00  0.00     0.134 A 
ATOM     82  C   UNL A   1      48.388  25.872  31.642  1.00  0.00     0.134 A 
ATOM     83  F   UNL A   1      48.994  27.335  28.374  1.00  0.00    -0.206 F 
ATOM     84  C   UNL A   1      50.465  26.240  29.837  1.00  0.00     0.040 A 
ATOM     85  C   UNL A   1      49.669  25.415  31.954  1.00  0.00     0.040 A 
ATOM     86  F   UNL A   1      47.412  25.667  32.541  1.00  0.00    -0.206 F 
ATOM     87  C   UNL A   1      50.709  25.590  31.045  1.00  0.00     0.006 A 
ENDBRANCH  63  80
ENDBRANCH  37  38
ENDBRANCH  29  32
ENDBRANCH  27  28
ENDBRANCH  26  27
ENDBRANCH   1  26
TORSDOF 15
ENDMDL
MODEL 2
REMARK VINA RESULT:     -11.0      2.820      7.949
REMARK SMILES Nc1c(CC(=O)NCCCCNC(=O)c2ccc(-c3c4nc(c(-c5c(F)cccc5F)c5ccc([nH]5)c(-c5c(F)cccc5F)c5nc(c(-c6c(F)cccc6F)c6ccc3[nH]6)C=C5)C=C4)cc2)cccc1C(=O)c1ccc(Br)cc1
REMARK SMILES IDX 9 1 8 2 7 3 5 4 6 5 4 7 3 8 2 9 72 10 69 11 71 12 70 13 1 14
REMARK SMILES IDX 73 17 74 18 75 19 76 20 81 21 77 22 80 23 78 24 79 25 10 26
REMARK SMILES IDX 11 27 12 28 13 29 14 31 15 32 16 33 68 34 17 35 67 36 18 37
REMARK SMILES IDX 19 38 20 39 61 40 21 41 66 42 60 43 62 44 22 45 65 46 59 47
REMARK SMILES IDX 58 48 23 50 49 51 32 52 48 53 33 54 36 55 47 56 63 57 34 58
REMARK SMILES IDX 35 59 46 61 64 62 37 63 24 64 25 65 30 66 26 67 27 68 29 69
REMARK SMILES IDX 31 70 28 71 50 72 51 73 56 74 52 75 53 76 55 77 57 78 54 79
REMARK SMILES IDX 38 80 39 81 44 82 40 83 41 84 43 85 45 86 42 87
REMARK H PARENT 7 6 1 15 1 16 12 30 62 49 36 60
REMARK Flexibility Score: inf
ROOT
ATOM      1  C   UNL A   1      36.365  20.140  25.011  1.00  0.00     0.023 C 
ENDROOT
BRANCH   1   2
ATOM      2  C   UNL A   1      36.154  21.543  25.579  1.00  0.00     0.116 C 
BRANCH   2   3
ATOM      3  N   UNL A   1      35.308  21.524  26.754  1.00  0.00    -0.356 N 
ATOM      4  C   UNL A   1      33.987  21.847  26.866  1.00  0.00     0.224 C 
ATOM      5  O   UNL A   1      33.481  21.836  27.990  1.00  0.00    -0.275 OA
ATOM      6  H   UNL A   1      35.748  21.237  27.587  1.00  0.00     0.163 HD
BRANCH   4   7
ATOM      7  C   UNL A   1      33.148  22.137  25.630  1.00  0.00     0.137 C 
BRANCH   7   8
ATOM      8  C   UNL A   1      33.193  23.580  25.152  1.00  0.00    -0.015 A 
ATOM      9  C   UNL A   1      32.408  24.611  25.739  1.00  0.00     0.046 A 
ATOM     10  C   UNL A   1      32.432  25.906  25.157  1.00  0.00     0.046 A 
ATOM     11  C   UNL A   1      34.007  23.861  24.038  1.00  0.00     0.006 A 
ATOM     12  C   UNL A   1      33.246  26.138  24.029  1.00  0.00     0.014 A 
ATOM     13  C   UNL A   1      34.031  25.130  23.479  1.00  0.00     0.001 A 
BRANCH   9  14
ATOM     14  N   UNL A   1      31.612  24.289  26.833  1.00  0.00    -0.398 N 
ATOM     15  H   UNL A   1      31.907  24.523  27.743  1.00  0.00     0.156 HD
ATOM     16  H   UNL A   1      30.754  23.827  26.697  1.00  0.00     0.156 HD
ENDBRANCH   9  14
BRANCH  10  17
ATOM     17  C   UNL A   1      31.617  27.092  25.592  1.00  0.00     0.195 C 
ATOM     18  O   UNL A   1      31.620  27.451  26.770  1.00  0.00    -0.289 OA
BRANCH  17  19
ATOM     19  C   UNL A   1      30.842  27.933  24.661  1.00  0.00     0.023 A 
ATOM     20  C   UNL A   1      29.882  27.306  23.858  1.00  0.00     0.013 A 
ATOM     21  C   UNL A   1      31.018  29.320  24.606  1.00  0.00     0.013 A 
ATOM     22  C   UNL A   1      29.039  28.077  23.055  1.00  0.00     0.016 A 
ATOM     23  C   UNL A   1      30.164  30.089  23.813  1.00  0.00     0.016 A 
ATOM     24  C   UNL A   1      29.172  29.465  23.051  1.00  0.00     0.018 A 
ATOM     25  Br  UNL A   1      27.978  30.515  22.028  1.00  0.00    -0.051 Br
ENDBRANCH  17  19
ENDBRANCH  10  17
ENDBRANCH   7   8
ENDBRANCH   4   7
ENDBRANCH   2   3
ENDBRANCH   1   2
BRANCH   1  26
ATOM     26  C   UNL A   1      37.816  19.830  24.639  1.00  0.00     0.023 C 
BRANCH  26  27
ATOM     27  C   UNL A   1      38.833  20.126  25.736  1.00  0.00     0.116 C 
BRANCH  27  28
ATOM     28  N   UNL A   1      39.969  19.219  25.718  1.00  0.00    -0.352 N 
ATOM     29  C   UNL A   1      41.276  19.476  26.048  1.00  0.00     0.251 C 
ATOM     30  H   UNL A   1      39.776  18.297  25.431  1.00  0.00     0.163 HD
ATOM     31  O   UNL A   1      42.139  18.623  25.855  1.00  0.00    -0.269 OA
BRANCH  29  32
ATOM     32  C   UNL A   1      41.649  20.793  26.606  1.00  0.00     0.039 A 
ATOM     33  C   UNL A   1      42.003  21.818  25.726  1.00  0.00     0.014 A 
ATOM     34  C   UNL A   1      41.650  21.020  27.985  1.00  0.00     0.014 A 
ATOM     35  C   UNL A   1      42.317  23.081  26.227  1.00  0.00     0.010 A 
ATOM     36  C   UNL A   1      41.880  22.303  28.478  1.00  0.00     0.010 A 
ATOM     37  C   UNL A   1      42.235  23.341  27.606  1.00  0.00    -0.014 A 
BRANCH  37  38
ATOM     38  C   UNL A   1      42.543  24.690  28.145  1.00  0.00     0.031 A 
ATOM     39  C   UNL A   1      43.954  25.052  28.524  1.00  0.00     0.074 A 
ATOM     40  C   UNL A   1      41.549  25.582  28.320  1.00  0.00     0.049 A 
ATOM     41  N   UNL A   1      44.419  26.178  29.004  1.00  0.00    -0.248 NA
ATOM     42  C   UNL A   1      44.974  24.002  28.369  1.00  0.00     0.031 C 
ATOM     43  C   UNL A   1      40.132  25.335  28.046  1.00  0.00     0.029 A 
ATOM     44  N   UNL A   1      41.578  26.878  28.770  1.00  0.00    -0.354 N 
ATOM     45  C   UNL A   1      45.777  25.968  29.214  1.00  0.00     0.074 A 
ATOM     46  C   UNL A   1      46.048  24.589  28.873  1.00  0.00     0.031 C 
ATOM     47  C   UNL A   1      39.434  26.454  28.299  1.00  0.00     0.029 A 
ATOM     48  C   UNL A   1      40.346  27.485  28.782  1.00  0.00     0.049 A 
ATOM     49  H   UNL A   1      42.405  27.330  29.056  1.00  0.00     0.167 HD
ATOM     50  C   UNL A   1      46.718  26.850  29.624  1.00  0.00     0.037 A 
ATOM     51  C   UNL A   1      39.993  28.734  29.140  1.00  0.00     0.037 A 
ATOM     52  C   UNL A   1      46.448  28.229  29.943  1.00  0.00     0.049 A 
ATOM     53  C   UNL A   1      41.057  29.696  29.593  1.00  0.00     0.074 A 
ATOM     54  C   UNL A   1      47.342  29.219  30.312  1.00  0.00     0.029 A 
ATOM     55  N   UNL A   1      45.189  28.808  29.937  1.00  0.00    -0.354 N 
ATOM     56  N   UNL A   1      42.350  29.506  29.709  1.00  0.00    -0.248 NA
ATOM     57  C   UNL A   1      40.613  31.050  29.952  1.00  0.00     0.031 C 
ATOM     58  C   UNL A   1      46.616  30.385  30.577  1.00  0.00     0.029 A 
ATOM     59  C   UNL A   1      45.278  30.138  30.319  1.00  0.00     0.049 A 
ATOM     60  H   UNL A   1      44.354  28.344  29.696  1.00  0.00     0.167 HD
ATOM     61  C   UNL A   1      42.876  30.722  30.127  1.00  0.00     0.074 A 
ATOM     62  C   UNL A   1      41.765  31.646  30.221  1.00  0.00     0.031 C 
ATOM     63  C   UNL A   1      44.163  31.045  30.409  1.00  0.00     0.037 A 
BRANCH  50  64
ATOM     64  C   UNL A   1      48.130  26.351  29.745  1.00  0.00     0.057 A 
ATOM     65  C   UNL A   1      49.032  26.413  28.673  1.00  0.00     0.134 A 
ATOM     66  C   UNL A   1      48.604  25.826  30.954  1.00  0.00     0.134 A 
ATOM     67  F   UNL A   1      48.640  26.890  27.482  1.00  0.00    -0.206 F 
ATOM     68  C   UNL A   1      50.342  25.944  28.790  1.00  0.00     0.040 A 
ATOM     69  C   UNL A   1      49.921  25.383  31.093  1.00  0.00     0.040 A 
ATOM     70  F   UNL A   1      47.797  25.743  32.023  1.00  0.00    -0.206 F 
ATOM     71  C   UNL A   1      50.791  25.435  30.006  1.00  0.00     0.006 A 
ENDBRANCH  50  64
BRANCH  51  72
ATOM     72  C   UNL A   1      38.572  29.159  29.058  1.00  0.00     0.057 A 
ATOM     73  C   UNL A   1      38.029  29.644  27.862  1.00  0.00     0.134 A 
ATOM     74  C   UNL A   1      37.728  29.108  30.174  1.00  0.00     0.134 A 
ATOM     75  F   UNL A   1      38.793  29.734  26.763  1.00  0.00    -0.206 F 
ATOM     76  C   UNL A   1      36.708  30.085  27.783  1.00  0.00     0.040 A 
ATOM     77  C   UNL A   1      36.396  29.520  30.102  1.00  0.00     0.040 A 
ATOM     78  F   UNL A   1      38.183  28.647  31.348  1.00  0.00    -0.206 F 
ATOM     79  C   UNL A   1      35.885  30.019  28.906  1.00  0.00     0.006 A 
ENDBRANCH  51  72
BRANCH  63  80
ATOM     80  C   UNL A   1      44.437  32.465  30.816  1.00  0.00     0.057 A 
ATOM     81  C   UNL A   1      44.706  33.469  29.876  1.00  0.00     0.134 A 
ATOM     82  C   UNL A   1      44.416  32.836  32.167  1.00  0.00     0.134 A 
ATOM     83  F   UNL A   1      44.753  33.179  28.567  1.00  0.00    -0.206 F 
ATOM     84  C   UNL A   1      44.979  34.780  30.267  1.00  0.00     0.040 A 
ATOM     85  C   UNL A   1      44.655  34.151  32.568  1.00  0.00     0.040 A 
ATOM     86  F   UNL A   1      44.154  31.927  33.120  1.00  0.00    -0.206 F 
ATOM     87  C   UNL A   1      44.948  35.125  31.617  1.00  0.00     0.006 A 
ENDBRANCH  63  80
ENDBRANCH  37  38
ENDBRANCH  29  32
ENDBRANCH  27  28
ENDBRANCH  26  27
ENDBRANCH   1  26
TORSDOF 15
ENDMDL
MODEL 3
REMARK VINA RESULT:     -11.0      3.154      8.012
REMARK SMILES Nc1c(CC(=O)NCCCCNC(=O)c2ccc(-c3c4nc(c(-c5c(F)cccc5F)c5ccc([nH]5)c(-c5c(F)cccc5F)c5nc(c(-c6c(F)cccc6F)c6ccc3[nH]6)C=C5)C=C4)cc2)cccc1C(=O)c1ccc(Br)cc1
REMARK SMILES IDX 9 1 8 2 7 3 5 4 6 5 4 7 3 8 2 9 72 10 69 11 71 12 70 13 1 14
REMARK SMILES IDX 73 17 74 18 75 19 76 20 81 21 77 22 80 23 78 24 79 25 10 26
REMARK SMILES IDX 11 27 12 28 13 29 14 31 15 32 16 33 68 34 17 35 67 36 18 37
REMARK SMILES IDX 19 38 20 39 61 40 21 41 66 42 60 43 62 44 22 45 65 46 59 47
REMARK SMILES IDX 58 48 23 50 49 51 32 52 48 53 33 54 36 55 47 56 63 57 34 58
REMARK SMILES IDX 35 59 46 61 64 62 37 63 24 64 25 65 30 66 26 67 27 68 29 69
REMARK SMILES IDX 31 70 28 71 50 72 51 73 56 74 52 75 53 76 55 77 57 78 54 79
REMARK SMILES IDX 38 80 39 81 44 82 40 83 41 84 43 85 45 86 42 87
REMARK H PARENT 7 6 1 15 1 16 12 30 62 49 36 60
REMARK Flexibility Score: inf
ROOT
ATOM      1  C   UNL A   1      35.289  21.497  26.096  1.00  0.00     0.023 C 
ENDROOT
BRANCH   1   2
ATOM      2  C   UNL A   1      35.226  20.484  24.953  1.00  0.00     0.116 C 
BRANCH   2   3
ATOM      3  N   UNL A   1      34.146  19.537  25.136  1.00  0.00    -0.356 N 
ATOM      4  C   UNL A   1      32.854  19.614  24.701  1.00  0.00     0.224 C 
ATOM      5  O   UNL A   1      32.074  18.723  25.043  1.00  0.00    -0.275 OA
ATOM      6  H   UNL A   1      34.376  18.725  25.643  1.00  0.00     0.163 HD
BRANCH   4   7
ATOM      7  C   UNL A   1      32.413  20.727  23.762  1.00  0.00     0.137 C 
BRANCH   7   8
ATOM      8  C   UNL A   1      31.979  22.011  24.452  1.00  0.00    -0.015 A 
ATOM      9  C   UNL A   1      32.079  23.289  23.835  1.00  0.00     0.046 A 
ATOM     10  C   UNL A   1      31.752  24.443  24.595  1.00  0.00     0.046 A 
ATOM     11  C   UNL A   1      31.522  21.902  25.779  1.00  0.00     0.006 A 
ATOM     12  C   UNL A   1      31.319  24.290  25.928  1.00  0.00     0.014 A 
ATOM     13  C   UNL A   1      31.198  23.034  26.513  1.00  0.00     0.001 A 
BRANCH   9  14
ATOM     14  N   UNL A   1      32.543  23.352  22.526  1.00  0.00    -0.398 N 
ATOM     15  H   UNL A   1      32.127  22.796  21.829  1.00  0.00     0.156 HD
ATOM     16  H   UNL A   1      33.287  23.954  22.296  1.00  0.00     0.156 HD
ENDBRANCH   9  14
BRANCH  10  17
ATOM     17  C   UNL A   1      31.870  25.872  24.138  1.00  0.00     0.195 C 
ATOM     18  O   UNL A   1      31.536  26.189  22.996  1.00  0.00    -0.289 OA
BRANCH  17  19
ATOM     19  C   UNL A   1      32.303  26.974  25.016  1.00  0.00     0.023 A 
ATOM     20  C   UNL A   1      33.623  26.957  25.485  1.00  0.00     0.013 A 
ATOM     21  C   UNL A   1      31.448  28.032  25.340  1.00  0.00     0.013 A 
ATOM     22  C   UNL A   1      34.113  28.043  26.213  1.00  0.00     0.016 A 
ATOM     23  C   UNL A   1      31.946  29.123  26.057  1.00  0.00     0.016 A 
ATOM     24  C   UNL A   1      33.278  29.128  26.479  1.00  0.00     0.018 A 
ATOM     25  Br  UNL A   1      33.965  30.632  27.394  1.00  0.00    -0.051 Br
ENDBRANCH  17  19
ENDBRANCH  10  17
ENDBRANCH   7   8
ENDBRANCH   4   7
ENDBRANCH   2   3
ENDBRANCH   1   2
BRANCH   1  26
ATOM     26  C   UNL A   1      35.362  22.954  25.635  1.00  0.00     0.023 C 
BRANCH  26  27
ATOM     27  C   UNL A   1      36.745  23.586  25.731  1.00  0.00     0.116 C 
BRANCH  27  28
ATOM     28  N   UNL A   1      37.799  22.615  25.978  1.00  0.00    -0.352 N 
ATOM     29  C   UNL A   1      39.064  22.829  26.466  1.00  0.00     0.251 C 
ATOM     30  H   UNL A   1      37.577  21.680  25.766  1.00  0.00     0.163 HD
ATOM     31  O   UNL A   1      39.876  21.908  26.495  1.00  0.00    -0.269 OA
BRANCH  29  32
ATOM     32  C   UNL A   1      39.457  24.177  26.928  1.00  0.00     0.039 A 
ATOM     33  C   UNL A   1      39.257  24.510  28.270  1.00  0.00     0.014 A 
ATOM     34  C   UNL A   1      40.020  25.107  26.051  1.00  0.00     0.014 A 
ATOM     35  C   UNL A   1      39.660  25.761  28.739  1.00  0.00     0.010 A 
ATOM     36  C   UNL A   1      40.499  26.321  26.538  1.00  0.00     0.010 A 
ATOM     37  C   UNL A   1      40.306  26.668  27.882  1.00  0.00    -0.014 A 
BRANCH  37  38
ATOM     38  C   UNL A   1      40.761  27.991  28.380  1.00  0.00     0.031 A 
ATOM     39  C   UNL A   1      42.227  28.324  28.420  1.00  0.00     0.074 A 
ATOM     40  C   UNL A   1      39.854  28.884  28.824  1.00  0.00     0.049 A 
ATOM     41  N   UNL A   1      42.815  29.426  28.815  1.00  0.00    -0.248 NA
ATOM     42  C   UNL A   1      43.160  27.272  27.984  1.00  0.00     0.031 C 
ATOM     43  C   UNL A   1      38.409  28.661  28.892  1.00  0.00     0.029 A 
ATOM     44  N   UNL A   1      40.016  30.160  29.302  1.00  0.00    -0.354 N 
ATOM     45  C   UNL A   1      44.179  29.195  28.682  1.00  0.00     0.074 A 
ATOM     46  C   UNL A   1      44.335  27.829  28.235  1.00  0.00     0.031 C 
ATOM     47  C   UNL A   1      37.813  29.775  29.348  1.00  0.00     0.029 A 
ATOM     48  C   UNL A   1      38.835  30.777  29.634  1.00  0.00     0.049 A 
ATOM     49  H   UNL A   1      40.895  30.593  29.396  1.00  0.00     0.167 HD
ATOM     50  C   UNL A   1      45.208  30.052  28.885  1.00  0.00     0.037 A 
ATOM     51  C   UNL A   1      38.602  32.014  30.113  1.00  0.00     0.037 A 
ATOM     52  C   UNL A   1      45.050  31.418  29.311  1.00  0.00     0.049 A 
ATOM     53  C   UNL A   1      39.762  32.947  30.330  1.00  0.00     0.074 A 
ATOM     54  C   UNL A   1      46.024  32.385  29.488  1.00  0.00     0.029 A 
ATOM     55  N   UNL A   1      43.836  32.009  29.630  1.00  0.00    -0.354 N 
ATOM     56  N   UNL A   1      41.040  32.741  30.122  1.00  0.00    -0.248 NA
ATOM     57  C   UNL A   1      39.443  34.289  30.835  1.00  0.00     0.031 C 
ATOM     58  C   UNL A   1      45.406  33.545  29.965  1.00  0.00     0.029 A 
ATOM     59  C   UNL A   1      44.040  33.321  30.028  1.00  0.00     0.049 A 
ATOM     60  H   UNL A   1      42.960  31.563  29.582  1.00  0.00     0.167 HD
ATOM     61  C   UNL A   1      41.675  33.935  30.445  1.00  0.00     0.074 A 
ATOM     62  C   UNL A   1      40.636  34.864  30.840  1.00  0.00     0.031 C 
ATOM     63  C   UNL A   1      42.997  34.234  30.420  1.00  0.00     0.037 A 
BRANCH  50  64
ATOM     64  C   UNL A   1      46.598  29.535  28.642  1.00  0.00     0.057 A 
ATOM     65  C   UNL A   1      47.357  28.943  29.661  1.00  0.00     0.134 A 
ATOM     66  C   UNL A   1      47.177  29.604  27.368  1.00  0.00     0.134 A 
ATOM     67  F   UNL A   1      46.869  28.856  30.909  1.00  0.00    -0.206 F 
ATOM     68  C   UNL A   1      48.649  28.467  29.431  1.00  0.00     0.040 A 
ATOM     69  C   UNL A   1      48.456  29.104  27.118  1.00  0.00     0.040 A 
ATOM     70  F   UNL A   1      46.505  30.153  26.344  1.00  0.00    -0.206 F 
ATOM     71  C   UNL A   1      49.198  28.540  28.153  1.00  0.00     0.006 A 
ENDBRANCH  50  64
BRANCH  51  72
ATOM     72  C   UNL A   1      37.211  32.455  30.393  1.00  0.00     0.057 A 
ATOM     73  C   UNL A   1      36.618  32.232  31.641  1.00  0.00     0.134 A 
ATOM     74  C   UNL A   1      36.437  33.095  29.418  1.00  0.00     0.134 A 
ATOM     75  F   UNL A   1      37.303  31.607  32.611  1.00  0.00    -0.206 F 
ATOM     76  C   UNL A   1      35.299  32.605  31.903  1.00  0.00     0.040 A 
ATOM     77  C   UNL A   1      35.125  33.499  29.675  1.00  0.00     0.040 A 
ATOM     78  F   UNL A   1      36.948  33.347  28.204  1.00  0.00    -0.206 F 
ATOM     79  C   UNL A   1      34.550  33.244  30.918  1.00  0.00     0.006 A 
ENDBRANCH  51  72
BRANCH  63  80
ATOM     80  C   UNL A   1      43.388  35.633  30.801  1.00  0.00     0.057 A 
ATOM     81  C   UNL A   1      43.506  36.657  29.851  1.00  0.00     0.134 A 
ATOM     82  C   UNL A   1      43.633  35.965  32.140  1.00  0.00     0.134 A 
ATOM     83  F   UNL A   1      43.296  36.404  28.550  1.00  0.00    -0.206 F 
ATOM     84  C   UNL A   1      43.889  37.948  30.214  1.00  0.00     0.040 A 
ATOM     85  C   UNL A   1      43.985  37.261  32.519  1.00  0.00     0.040 A 
ATOM     86  F   UNL A   1      43.526  35.037  33.103  1.00  0.00    -0.206 F 
ATOM     87  C   UNL A   1      44.124  38.255  31.553  1.00  0.00     0.006 A 
ENDBRANCH  63  80
ENDBRANCH  37  38
ENDBRANCH  29  32
ENDBRANCH  27  28
ENDBRANCH  26  27
ENDBRANCH   1  26
TORSDOF 15
ENDMDL
