MODEL 1
REMARK VINA RESULT:     -11.7      0.000      0.000
REMARK SMILES O=C(NCCCCNC(=O)c1ccc(Br)c(NC(=S)NC(=O)c2cccs2)c1)c1ccc(-c2c3nc(c(-c4c(F)cccc4F)c4ccc([nH]4)c(-c4c(F)cccc4F)c4nc(c(-c5c(F)cccc5F)c5ccc2[nH]5)C=C4)C=C3)cc1
REMARK SMILES IDX 6 1 5 2 4 3 3 4 1 5 2 6 29 8 30 9 82 10 31 11 81 12 32 13
REMARK SMILES IDX 33 14 34 15 75 16 35 17 80 18 74 19 76 20 36 21 79 22 73 23
REMARK SMILES IDX 72 24 37 26 63 27 46 28 62 29 47 30 50 31 61 32 77 33 48 34
REMARK SMILES IDX 49 35 60 37 78 38 51 39 38 40 39 41 44 42 40 43 41 44 43 45
REMARK SMILES IDX 45 46 42 47 64 48 65 49 70 50 66 51 67 52 69 53 71 54 68 55
REMARK SMILES IDX 52 56 53 57 58 58 54 59 55 60 57 61 59 62 56 63 7 64 8 65
REMARK SMILES IDX 9 66 10 68 11 69 12 70 28 71 13 72 16 73 14 74 15 75 17 76
REMARK SMILES IDX 18 78 19 79 20 80 21 81 22 83 23 84 24 85 27 86 25 87 26 88
REMARK H PARENT 3 7 76 25 50 36 8 67 17 77 20 82
REMARK Flexibility Score: inf
ROOT
ATOM      1  C   UNL A   1      36.842  20.089  25.026  1.00  0.00     0.023 C 
ENDROOT
BRANCH   1   2
ATOM      2  C   UNL A   1      38.106  19.236  25.013  1.00  0.00     0.023 C 
BRANCH   2   3
ATOM      3  C   UNL A   1      39.268  19.807  25.807  1.00  0.00     0.116 C 
BRANCH   3   4
ATOM      4  N   UNL A   1      40.431  18.932  25.828  1.00  0.00    -0.352 N 
ATOM      5  O   UNL A   1      42.635  18.428  25.936  1.00  0.00    -0.269 OA
ATOM      6  C   UNL A   1      41.743  19.255  26.083  1.00  0.00     0.251 C 
ATOM      7  H   UNL A   1      40.256  17.983  25.633  1.00  0.00     0.163 HD
BRANCH   6   8
ATOM      8  C   UNL A   1      42.055  20.633  26.508  1.00  0.00     0.039 A 
ATOM      9  C   UNL A   1      42.401  21.585  25.549  1.00  0.00     0.014 A 
ATOM     10  C   UNL A   1      42.078  20.948  27.868  1.00  0.00     0.014 A 
ATOM     11  C   UNL A   1      42.956  22.786  25.956  1.00  0.00     0.010 A 
ATOM     12  C   UNL A   1      42.502  22.218  28.268  1.00  0.00     0.010 A 
ATOM     13  C   UNL A   1      42.967  23.138  27.315  1.00  0.00    -0.014 A 
BRANCH  13  14
ATOM     14  C   UNL A   1      43.359  24.521  27.682  1.00  0.00     0.031 A 
ATOM     15  C   UNL A   1      44.790  24.973  27.667  1.00  0.00     0.074 A 
ATOM     16  C   UNL A   1      42.374  25.382  28.002  1.00  0.00     0.049 A 
ATOM     17  N   UNL A   1      45.276  26.155  27.952  1.00  0.00    -0.248 NA
ATOM     18  C   UNL A   1      45.809  23.981  27.295  1.00  0.00     0.031 C 
ATOM     19  C   UNL A   1      40.946  25.047  28.059  1.00  0.00     0.029 A 
ATOM     20  N   UNL A   1      42.409  26.715  28.318  1.00  0.00    -0.354 N 
ATOM     21  C   UNL A   1      46.652  26.050  27.804  1.00  0.00     0.074 A 
ATOM     22  C   UNL A   1      46.930  24.677  27.438  1.00  0.00     0.031 C 
ATOM     23  C   UNL A   1      40.241  26.152  28.328  1.00  0.00     0.029 A 
ATOM     24  C   UNL A   1      41.166  27.250  28.562  1.00  0.00     0.049 A 
ATOM     25  H   UNL A   1      43.241  27.238  28.366  1.00  0.00     0.167 HD
ATOM     26  C   UNL A   1      47.591  27.016  27.952  1.00  0.00     0.037 A 
ATOM     27  C   UNL A   1      40.809  28.480  28.968  1.00  0.00     0.037 A 
ATOM     28  C   UNL A   1      47.300  28.380  28.324  1.00  0.00     0.049 A 
ATOM     29  C   UNL A   1      41.882  29.503  29.190  1.00  0.00     0.074 A 
ATOM     30  C   UNL A   1      48.181  29.437  28.477  1.00  0.00     0.029 A 
ATOM     31  N   UNL A   1      46.035  28.872  28.610  1.00  0.00    -0.354 N 
ATOM     32  N   UNL A   1      43.176  29.399  29.005  1.00  0.00    -0.248 NA
ATOM     33  C   UNL A   1      41.446  30.817  29.678  1.00  0.00     0.031 C 
ATOM     34  C   UNL A   1      47.461  30.546  28.929  1.00  0.00     0.029 A 
ATOM     35  C   UNL A   1      46.119  30.208  28.977  1.00  0.00     0.049 A 
ATOM     36  H   UNL A   1      45.201  28.352  28.563  1.00  0.00     0.167 HD
ATOM     37  C   UNL A   1      43.704  30.642  29.326  1.00  0.00     0.074 A 
ATOM     38  C   UNL A   1      42.586  31.489  29.685  1.00  0.00     0.031 C 
ATOM     39  C   UNL A   1      44.999  31.043  29.328  1.00  0.00     0.037 A 
BRANCH  26  40
ATOM     40  C   UNL A   1      49.031  26.640  27.734  1.00  0.00     0.057 A 
ATOM     41  C   UNL A   1      49.853  26.208  28.782  1.00  0.00     0.134 A 
ATOM     42  C   UNL A   1      49.579  26.638  26.444  1.00  0.00     0.134 A 
ATOM     43  F   UNL A   1      49.395  26.190  30.044  1.00  0.00    -0.206 F 
ATOM     44  C   UNL A   1      51.173  25.807  28.559  1.00  0.00     0.040 A 
ATOM     45  C   UNL A   1      50.886  26.208  26.204  1.00  0.00     0.040 A 
ATOM     46  F   UNL A   1      48.846  27.028  25.390  1.00  0.00    -0.206 F 
ATOM     47  C   UNL A   1      51.689  25.797  27.264  1.00  0.00     0.006 A 
ENDBRANCH  26  40
BRANCH  27  48
ATOM     48  C   UNL A   1      39.381  28.796  29.229  1.00  0.00     0.057 A 
ATOM     49  C   UNL A   1      38.555  29.312  28.224  1.00  0.00     0.134 A 
ATOM     50  C   UNL A   1      38.818  28.627  30.501  1.00  0.00     0.134 A 
ATOM     51  F   UNL A   1      39.037  29.506  26.987  1.00  0.00    -0.206 F 
ATOM     52  C   UNL A   1      37.237  29.689  28.484  1.00  0.00     0.040 A 
ATOM     53  C   UNL A   1      37.489  28.959  30.764  1.00  0.00     0.040 A 
ATOM     54  F   UNL A   1      39.549  28.123  31.506  1.00  0.00    -0.206 F 
ATOM     55  C   UNL A   1      36.700  29.509  29.757  1.00  0.00     0.006 A 
ENDBRANCH  27  48
BRANCH  39  56
ATOM     56  C   UNL A   1      45.265  32.479  29.688  1.00  0.00     0.057 A 
ATOM     57  C   UNL A   1      45.540  32.881  31.003  1.00  0.00     0.134 A 
ATOM     58  C   UNL A   1      45.248  33.472  28.701  1.00  0.00     0.134 A 
ATOM     59  F   UNL A   1      45.559  31.983  32.000  1.00  0.00    -0.206 F 
ATOM     60  C   UNL A   1      45.746  34.222  31.327  1.00  0.00     0.040 A 
ATOM     61  C   UNL A   1      45.494  34.811  29.007  1.00  0.00     0.040 A 
ATOM     62  F   UNL A   1      45.002  33.159  27.420  1.00  0.00    -0.206 F 
ATOM     63  C   UNL A   1      45.730  35.191  30.326  1.00  0.00     0.006 A 
ENDBRANCH  39  56
ENDBRANCH  13  14
ENDBRANCH   6   8
ENDBRANCH   3   4
ENDBRANCH   2   3
ENDBRANCH   1   2
BRANCH   1  64
ATOM     64  C   UNL A   1      37.079  21.591  25.149  1.00  0.00     0.116 C 
BRANCH  64  65
ATOM     65  N   UNL A   1      36.738  22.307  23.937  1.00  0.00    -0.352 N 
ATOM     66  C   UNL A   1      35.585  22.917  23.510  1.00  0.00     0.251 C 
ATOM     67  H   UNL A   1      37.478  22.368  23.292  1.00  0.00     0.163 HD
ATOM     68  O   UNL A   1      35.619  23.350  22.362  1.00  0.00    -0.269 OA
BRANCH  66  69
ATOM     69  C   UNL A   1      34.368  23.024  24.498  1.00  0.00     0.041 A 
ATOM     70  C   UNL A   1      33.349  21.526  24.348  1.00  0.00     0.015 A 
ATOM     71  C   UNL A   1      33.605  24.413  25.812  1.00  0.00     0.041 A 
ATOM     72  C   UNL A   1      31.840  21.478  25.295  1.00  0.00     0.018 A 
ATOM     73  C   UNL A   1      32.140  24.311  26.558  1.00  0.00     0.055 A 
ATOM     74  C   UNL A   1      31.277  22.827  26.332  1.00  0.00     0.041 A 
ATOM     75  Br  UNL A   1      29.541  22.676  27.078  1.00  0.00    -0.049 Br
BRANCH  73  76
ATOM     76  N   UNL A   1      31.777  25.611  26.968  1.00  0.00    -0.331 N 
ATOM     77  H   UNL A   1      31.963  25.820  27.912  1.00  0.00     0.169 HD
BRANCH  76  78
ATOM     78  C   UNL A   1      31.192  26.649  26.235  1.00  0.00     0.177 C 
ATOM     79  S   UNL A   1      31.809  28.190  26.511  1.00  0.00    -0.040 S 
BRANCH  78  80
ATOM     80  N   UNL A   1      30.128  26.578  25.242  1.00  0.00    -0.298 N 
ATOM     81  C   UNL A   1      29.542  26.758  23.831  1.00  0.00     0.267 C 
ATOM     82  H   UNL A   1      29.369  26.218  25.754  1.00  0.00     0.172 HD
ATOM     83  O   UNL A   1      28.321  26.672  23.709  1.00  0.00    -0.268 OA
BRANCH  81  84
ATOM     84  C   UNL A   1      30.491  26.990  22.647  1.00  0.00     0.092 A 
ATOM     85  C   UNL A   1      31.610  25.718  22.455  1.00  0.00     0.025 A 
ATOM     86  S   UNL A   1      31.430  29.101  22.776  1.00  0.00    -0.139 S 
ATOM     87  C   UNL A   1      33.415  26.229  22.820  1.00  0.00     0.012 A 
ATOM     88  C   UNL A   1      33.562  28.193  23.080  1.00  0.00     0.065 A 
ENDBRANCH  81  84
ENDBRANCH  78  80
ENDBRANCH  76  78
ENDBRANCH  73  76
ENDBRANCH  66  69
ENDBRANCH  64  65
ENDBRANCH   1  64
TORSDOF 15
ENDMDL
MODEL 2
REMARK VINA RESULT:     -11.7      0.382      6.233
REMARK SMILES O=C(NCCCCNC(=O)c1ccc(Br)c(NC(=S)NC(=O)c2cccs2)c1)c1ccc(-c2c3nc(c(-c4c(F)cccc4F)c4ccc([nH]4)c(-c4c(F)cccc4F)c4nc(c(-c5c(F)cccc5F)c5ccc2[nH]5)C=C4)C=C3)cc1
REMARK SMILES IDX 6 1 5 2 4 3 3 4 1 5 2 6 29 8 30 9 82 10 31 11 81 12 32 13
REMARK SMILES IDX 33 14 34 15 75 16 35 17 80 18 74 19 76 20 36 21 79 22 73 23
REMARK SMILES IDX 72 24 37 26 63 27 46 28 62 29 47 30 50 31 61 32 77 33 48 34
REMARK SMILES IDX 49 35 60 37 78 38 51 39 38 40 39 41 44 42 40 43 41 44 43 45
REMARK SMILES IDX 45 46 42 47 64 48 65 49 70 50 66 51 67 52 69 53 71 54 68 55
REMARK SMILES IDX 52 56 53 57 58 58 54 59 55 60 57 61 59 62 56 63 7 64 8 65
REMARK SMILES IDX 9 66 10 68 11 69 12 70 28 71 13 72 16 73 14 74 15 75 17 76
REMARK SMILES IDX 18 78 19 79 20 80 21 81 22 83 23 84 24 85 27 86 25 87 26 88
REMARK H PARENT 3 7 76 25 50 36 8 67 17 77 20 82
REMARK Flexibility Score: inf
ROOT
ATOM      1  C   UNL A   1      37.134  20.219  25.129  1.00  0.00     0.023 C 
ENDROOT
BRANCH   1   2
ATOM      2  C   UNL A   1      38.387  19.361  25.001  1.00  0.00     0.023 C 
BRANCH   2   3
ATOM      3  C   UNL A   1      39.540  19.780  25.896  1.00  0.00     0.116 C 
BRANCH   3   4
ATOM      4  N   UNL A   1      40.637  18.822  25.903  1.00  0.00    -0.352 N 
ATOM      5  O   UNL A   1      42.800  18.160  25.938  1.00  0.00    -0.269 OA
ATOM      6  C   UNL A   1      41.979  19.056  26.089  1.00  0.00     0.251 C 
ATOM      7  H   UNL A   1      40.384  17.882  25.755  1.00  0.00     0.163 HD
BRANCH   6   8
ATOM      8  C   UNL A   1      42.409  20.421  26.443  1.00  0.00     0.039 A 
ATOM      9  C   UNL A   1      42.376  20.827  27.777  1.00  0.00     0.014 A 
ATOM     10  C   UNL A   1      42.769  21.316  25.434  1.00  0.00     0.014 A 
ATOM     11  C   UNL A   1      42.511  22.170  28.081  1.00  0.00     0.010 A 
ATOM     12  C   UNL A   1      43.049  22.644  25.765  1.00  0.00     0.010 A 
ATOM     13  C   UNL A   1      42.899  23.087  27.089  1.00  0.00    -0.014 A 
BRANCH  13  14
ATOM     14  C   UNL A   1      43.252  24.466  27.503  1.00  0.00     0.031 A 
ATOM     15  C   UNL A   1      42.207  25.483  27.860  1.00  0.00     0.074 A 
ATOM     16  C   UNL A   1      44.561  24.776  27.583  1.00  0.00     0.049 A 
ATOM     17  N   UNL A   1      42.372  26.722  28.251  1.00  0.00    -0.248 NA
ATOM     18  C   UNL A   1      40.799  25.069  27.762  1.00  0.00     0.031 C 
ATOM     19  C   UNL A   1      45.664  23.867  27.250  1.00  0.00     0.029 A 
ATOM     20  N   UNL A   1      45.193  25.922  27.987  1.00  0.00    -0.354 N 
ATOM     21  C   UNL A   1      41.097  27.239  28.436  1.00  0.00     0.074 A 
ATOM     22  C   UNL A   1      40.164  26.190  28.080  1.00  0.00     0.031 C 
ATOM     23  C   UNL A   1      46.829  24.467  27.519  1.00  0.00     0.029 A 
ATOM     24  C   UNL A   1      46.564  25.832  27.947  1.00  0.00     0.049 A 
ATOM     25  H   UNL A   1      44.713  26.731  28.277  1.00  0.00     0.167 HD
ATOM     26  C   UNL A   1      40.744  28.472  28.872  1.00  0.00     0.037 A 
ATOM     27  C   UNL A   1      47.509  26.756  28.190  1.00  0.00     0.037 A 
ATOM     28  C   UNL A   1      41.685  29.510  29.217  1.00  0.00     0.049 A 
ATOM     29  C   UNL A   1      47.078  28.131  28.602  1.00  0.00     0.074 A 
ATOM     30  C   UNL A   1      41.425  30.785  29.690  1.00  0.00     0.029 A 
ATOM     31  N   UNL A   1      43.064  29.398  29.117  1.00  0.00    -0.354 N 
ATOM     32  N   UNL A   1      45.868  28.592  28.813  1.00  0.00    -0.248 NA
ATOM     33  C   UNL A   1      48.144  29.118  28.810  1.00  0.00     0.031 C 
ATOM     34  C   UNL A   1      42.639  31.468  29.803  1.00  0.00     0.029 A 
ATOM     35  C   UNL A   1      43.664  30.594  29.483  1.00  0.00     0.049 A 
ATOM     36  H   UNL A   1      43.546  28.590  28.828  1.00  0.00     0.167 HD
ATOM     37  C   UNL A   1      46.031  29.913  29.207  1.00  0.00     0.074 A 
ATOM     38  C   UNL A   1      47.457  30.167  29.235  1.00  0.00     0.031 C 
ATOM     39  C   UNL A   1      45.085  30.834  29.512  1.00  0.00     0.037 A 
BRANCH  26  40
ATOM     40  C   UNL A   1      39.278  28.787  28.986  1.00  0.00     0.057 A 
ATOM     41  C   UNL A   1      38.574  28.627  30.187  1.00  0.00     0.134 A 
ATOM     42  C   UNL A   1      38.578  29.329  27.899  1.00  0.00     0.134 A 
ATOM     43  F   UNL A   1      39.180  28.108  31.266  1.00  0.00    -0.206 F 
ATOM     44  C   UNL A   1      37.226  28.975  30.296  1.00  0.00     0.040 A 
ATOM     45  C   UNL A   1      37.240  29.712  28.006  1.00  0.00     0.040 A 
ATOM     46  F   UNL A   1      39.192  29.521  26.721  1.00  0.00    -0.206 F 
ATOM     47  C   UNL A   1      36.558  29.530  29.206  1.00  0.00     0.006 A 
ENDBRANCH  26  40
BRANCH  27  48
ATOM     48  C   UNL A   1      48.945  26.423  28.010  1.00  0.00     0.057 A 
ATOM     49  C   UNL A   1      49.737  26.012  29.087  1.00  0.00     0.134 A 
ATOM     50  C   UNL A   1      49.570  26.546  26.762  1.00  0.00     0.134 A 
ATOM     51  F   UNL A   1      49.200  25.884  30.311  1.00  0.00    -0.206 F 
ATOM     52  C   UNL A   1      51.104  25.778  28.942  1.00  0.00     0.040 A 
ATOM     53  C   UNL A   1      50.928  26.273  26.593  1.00  0.00     0.040 A 
ATOM     54  F   UNL A   1      48.867  26.919  25.683  1.00  0.00    -0.206 F 
ATOM     55  C   UNL A   1      51.703  25.905  27.690  1.00  0.00     0.006 A 
ENDBRANCH  27  48
BRANCH  39  56
ATOM     56  C   UNL A   1      45.570  32.189  29.948  1.00  0.00     0.057 A 
ATOM     57  C   UNL A   1      45.765  33.240  29.042  1.00  0.00     0.134 A 
ATOM     58  C   UNL A   1      45.844  32.443  31.298  1.00  0.00     0.134 A 
ATOM     59  F   UNL A   1      45.535  33.062  27.732  1.00  0.00    -0.206 F 
ATOM     60  C   UNL A   1      46.254  34.480  29.457  1.00  0.00     0.040 A 
ATOM     61  C   UNL A   1      46.293  33.691  31.731  1.00  0.00     0.040 A 
ATOM     62  F   UNL A   1      45.670  31.487  32.223  1.00  0.00    -0.206 F 
ATOM     63  C   UNL A   1      46.513  34.710  30.806  1.00  0.00     0.006 A 
ENDBRANCH  39  56
ENDBRANCH  13  14
ENDBRANCH   6   8
ENDBRANCH   3   4
ENDBRANCH   2   3
ENDBRANCH   1   2
BRANCH   1  64
ATOM     64  C   UNL A   1      37.383  21.723  25.180  1.00  0.00     0.116 C 
BRANCH  64  65
ATOM     65  N   UNL A   1      37.034  22.385  23.939  1.00  0.00    -0.352 N 
ATOM     66  C   UNL A   1      35.868  22.941  23.478  1.00  0.00     0.251 C 
ATOM     67  H   UNL A   1      37.781  22.448  23.301  1.00  0.00     0.163 HD
ATOM     68  O   UNL A   1      35.902  23.335  22.316  1.00  0.00    -0.269 OA
BRANCH  66  69
ATOM     69  C   UNL A   1      34.635  23.042  24.448  1.00  0.00     0.041 A 
ATOM     70  C   UNL A   1      33.576  21.584  24.215  1.00  0.00     0.015 A 
ATOM     71  C   UNL A   1      33.889  24.396  25.808  1.00  0.00     0.041 A 
ATOM     72  C   UNL A   1      32.049  21.541  25.131  1.00  0.00     0.018 A 
ATOM     73  C   UNL A   1      32.407  24.307  26.522  1.00  0.00     0.055 A 
ATOM     74  C   UNL A   1      31.506  22.861  26.217  1.00  0.00     0.041 A 
ATOM     75  Br  UNL A   1      29.752  22.730  26.924  1.00  0.00    -0.049 Br
BRANCH  73  76
ATOM     76  N   UNL A   1      32.075  25.599  26.982  1.00  0.00    -0.331 N 
ATOM     77  H   UNL A   1      32.454  25.841  27.857  1.00  0.00     0.169 HD
BRANCH  76  78
ATOM     78  C   UNL A   1      31.288  26.586  26.381  1.00  0.00     0.177 C 
ATOM     79  S   UNL A   1      31.625  28.174  26.825  1.00  0.00    -0.040 S 
BRANCH  78  80
ATOM     80  N   UNL A   1      30.223  26.432  25.399  1.00  0.00    -0.298 N 
ATOM     81  C   UNL A   1      29.614  26.553  23.991  1.00  0.00     0.267 C 
ATOM     82  H   UNL A   1      29.493  26.032  25.924  1.00  0.00     0.172 HD
ATOM     83  O   UNL A   1      28.400  26.386  23.882  1.00  0.00    -0.268 OA
BRANCH  81  84
ATOM     84  C   UNL A   1      30.536  26.828  22.795  1.00  0.00     0.092 A 
ATOM     85  C   UNL A   1      31.790  25.679  22.667  1.00  0.00     0.025 A 
ATOM     86  S   UNL A   1      31.234  29.034  22.813  1.00  0.00    -0.139 S 
ATOM     87  C   UNL A   1      33.526  26.406  23.002  1.00  0.00     0.012 A 
ATOM     88  C   UNL A   1      33.452  28.386  23.160  1.00  0.00     0.065 A 
ENDBRANCH  81  84
ENDBRANCH  78  80
ENDBRANCH  76  78
ENDBRANCH  73  76
ENDBRANCH  66  69
ENDBRANCH  64  65
ENDBRANCH   1  64
TORSDOF 15
ENDMDL
MODEL 3
REMARK VINA RESULT:     -11.6      1.628      6.565
REMARK SMILES O=C(NCCCCNC(=O)c1ccc(Br)c(NC(=S)NC(=O)c2cccs2)c1)c1ccc(-c2c3nc(c(-c4c(F)cccc4F)c4ccc([nH]4)c(-c4c(F)cccc4F)c4nc(c(-c5c(F)cccc5F)c5ccc2[nH]5)C=C4)C=C3)cc1
REMARK SMILES IDX 6 1 5 2 4 3 3 4 1 5 2 6 29 8 30 9 82 10 31 11 81 12 32 13
REMARK SMILES IDX 33 14 34 15 75 16 35 17 80 18 74 19 76 20 36 21 79 22 73 23
REMARK SMILES IDX 72 24 37 26 63 27 46 28 62 29 47 30 50 31 61 32 77 33 48 34
REMARK SMILES IDX 49 35 60 37 78 38 51 39 38 40 39 41 44 42 40 43 41 44 43 45
REMARK SMILES IDX 45 46 42 47 64 48 65 49 70 50 66 51 67 52 69 53 71 54 68 55
REMARK SMILES IDX 52 56 53 57 58 58 54 59 55 60 57 61 59 62 56 63 7 64 8 65
REMARK SMILES IDX 9 66 10 68 11 69 12 70 28 71 13 72 16 73 14 74 15 75 17 76
REMARK SMILES IDX 18 78 19 79 20 80 21 81 22 83 23 84 24 85 27 86 25 87 26 88
REMARK H PARENT 3 7 76 25 50 36 8 67 17 77 20 82
REMARK Flexibility Score: inf
ROOT
ATOM      1  C   UNL A   1      37.186  20.807  24.608  1.00  0.00     0.023 C 
ENDROOT
BRANCH   1   2
ATOM      2  C   UNL A   1      38.119  19.627  24.848  1.00  0.00     0.023 C 
BRANCH   2   3
ATOM      3  C   UNL A   1      39.077  19.799  26.015  1.00  0.00     0.116 C 
BRANCH   3   4
ATOM      4  N   UNL A   1      40.252  18.944  25.921  1.00  0.00    -0.352 N 
ATOM      5  O   UNL A   1      42.464  18.477  25.829  1.00  0.00    -0.269 OA
ATOM      6  C   UNL A   1      41.576  19.287  26.065  1.00  0.00     0.251 C 
ATOM      7  H   UNL A   1      40.076  17.995  25.729  1.00  0.00     0.163 HD
BRANCH   6   8
ATOM      8  C   UNL A   1      41.902  20.664  26.480  1.00  0.00     0.039 A 
ATOM      9  C   UNL A   1      42.075  21.650  25.509  1.00  0.00     0.014 A 
ATOM     10  C   UNL A   1      42.109  20.948  27.831  1.00  0.00     0.014 A 
ATOM     11  C   UNL A   1      42.644  22.860  25.866  1.00  0.00     0.010 A 
ATOM     12  C   UNL A   1      42.545  22.222  28.202  1.00  0.00     0.010 A 
ATOM     13  C   UNL A   1      42.839  23.181  27.220  1.00  0.00    -0.014 A 
BRANCH  13  14
ATOM     14  C   UNL A   1      43.235  24.567  27.566  1.00  0.00     0.031 A 
ATOM     15  C   UNL A   1      42.231  25.603  27.977  1.00  0.00     0.074 A 
ATOM     16  C   UNL A   1      44.549  24.866  27.532  1.00  0.00     0.049 A 
ATOM     17  N   UNL A   1      42.437  26.851  28.319  1.00  0.00    -0.248 NA
ATOM     18  C   UNL A   1      40.817  25.202  28.004  1.00  0.00     0.031 C 
ATOM     19  C   UNL A   1      45.614  23.937  27.136  1.00  0.00     0.029 A 
ATOM     20  N   UNL A   1      45.221  26.016  27.852  1.00  0.00    -0.354 N 
ATOM     21  C   UNL A   1      41.185  27.385  28.592  1.00  0.00     0.074 A 
ATOM     22  C   UNL A   1      40.218  26.337  28.341  1.00  0.00     0.031 C 
ATOM     23  C   UNL A   1      46.803  24.531  27.294  1.00  0.00     0.029 A 
ATOM     24  C   UNL A   1      46.583  25.910  27.704  1.00  0.00     0.049 A 
ATOM     25  H   UNL A   1      44.772  26.837  28.157  1.00  0.00     0.167 HD
ATOM     26  C   UNL A   1      40.878  28.634  29.020  1.00  0.00     0.037 A 
ATOM     27  C   UNL A   1      47.552  26.831  27.845  1.00  0.00     0.037 A 
ATOM     28  C   UNL A   1      41.852  29.671  29.260  1.00  0.00     0.049 A 
ATOM     29  C   UNL A   1      47.166  28.221  28.252  1.00  0.00     0.074 A 
ATOM     30  C   UNL A   1      41.641  30.961  29.716  1.00  0.00     0.029 A 
ATOM     31  N   UNL A   1      43.218  29.542  29.052  1.00  0.00    -0.354 N 
ATOM     32  N   UNL A   1      45.982  28.700  28.546  1.00  0.00    -0.248 NA
ATOM     33  C   UNL A   1      48.254  29.202  28.347  1.00  0.00     0.031 C 
ATOM     34  C   UNL A   1      42.866  31.634  29.712  1.00  0.00     0.029 A 
ATOM     35  C   UNL A   1      43.855  30.741  29.336  1.00  0.00     0.049 A 
ATOM     36  H   UNL A   1      43.669  28.722  28.748  1.00  0.00     0.167 HD
ATOM     37  C   UNL A   1      46.186  30.029  28.889  1.00  0.00     0.074 A 
ATOM     38  C   UNL A   1      47.612  30.269  28.796  1.00  0.00     0.031 C 
ATOM     39  C   UNL A   1      45.275  30.968  29.244  1.00  0.00     0.037 A 
BRANCH  26  40
ATOM     40  C   UNL A   1      39.428  28.967  29.243  1.00  0.00     0.057 A 
ATOM     41  C   UNL A   1      38.602  29.421  28.207  1.00  0.00     0.134 A 
ATOM     42  C   UNL A   1      38.833  28.758  30.495  1.00  0.00     0.134 A 
ATOM     43  F   UNL A   1      39.107  29.647  26.984  1.00  0.00    -0.206 F 
ATOM     44  C   UNL A   1      37.244  29.673  28.411  1.00  0.00     0.040 A 
ATOM     45  C   UNL A   1      37.470  28.975  30.703  1.00  0.00     0.040 A 
ATOM     46  F   UNL A   1      39.561  28.313  31.530  1.00  0.00    -0.206 F 
ATOM     47  C   UNL A   1      36.672  29.440  29.661  1.00  0.00     0.006 A 
ENDBRANCH  26  40
BRANCH  27  48
ATOM     48  C   UNL A   1      48.966  26.479  27.559  1.00  0.00     0.057 A 
ATOM     49  C   UNL A   1      49.484  26.543  26.261  1.00  0.00     0.134 A 
ATOM     50  C   UNL A   1      49.825  26.030  28.572  1.00  0.00     0.134 A 
ATOM     51  F   UNL A   1      48.710  26.956  25.245  1.00  0.00    -0.206 F 
ATOM     52  C   UNL A   1      50.786  26.135  25.972  1.00  0.00     0.040 A 
ATOM     53  C   UNL A   1      51.143  25.660  28.305  1.00  0.00     0.040 A 
ATOM     54  F   UNL A   1      49.398  25.960  29.842  1.00  0.00    -0.206 F 
ATOM     55  C   UNL A   1      51.621  25.694  26.998  1.00  0.00     0.006 A 
ENDBRANCH  27  48
BRANCH  39  56
ATOM     56  C   UNL A   1      45.805  32.328  29.602  1.00  0.00     0.057 A 
ATOM     57  C   UNL A   1      45.933  33.354  28.655  1.00  0.00     0.134 A 
ATOM     58  C   UNL A   1      46.190  32.616  30.918  1.00  0.00     0.134 A 
ATOM     59  F   UNL A   1      45.596  33.143  27.373  1.00  0.00    -0.206 F 
ATOM     60  C   UNL A   1      46.464  34.599  28.994  1.00  0.00     0.040 A 
ATOM     61  C   UNL A   1      46.683  33.870  31.279  1.00  0.00     0.040 A 
ATOM     62  F   UNL A   1      46.085  31.686  31.879  1.00  0.00    -0.206 F 
ATOM     63  C   UNL A   1      46.834  34.862  30.312  1.00  0.00     0.006 A 
ENDBRANCH  39  56
ENDBRANCH  13  14
ENDBRANCH   6   8
ENDBRANCH   3   4
ENDBRANCH   2   3
ENDBRANCH   1   2
BRANCH   1  64
ATOM     64  C   UNL A   1      35.886  20.775  25.408  1.00  0.00     0.116 C 
BRANCH  64  65
ATOM     65  N   UNL A   1      34.928  19.831  24.870  1.00  0.00    -0.352 N 
ATOM     66  C   UNL A   1      33.611  19.950  24.503  1.00  0.00     0.251 C 
ATOM     67  H   UNL A   1      35.293  18.926  24.741  1.00  0.00     0.163 HD
ATOM     68  O   UNL A   1      33.065  18.901  24.174  1.00  0.00    -0.269 OA
BRANCH  66  69
ATOM     69  C   UNL A   1      32.940  21.371  24.516  1.00  0.00     0.041 A 
ATOM     70  C   UNL A   1      32.034  21.585  26.077  1.00  0.00     0.015 A 
ATOM     71  C   UNL A   1      32.757  22.968  23.229  1.00  0.00     0.041 A 
ATOM     72  C   UNL A   1      31.091  23.085  26.264  1.00  0.00     0.018 A 
ATOM     73  C   UNL A   1      31.768  24.265  23.461  1.00  0.00     0.055 A 
ATOM     74  C   UNL A   1      30.969  24.344  24.994  1.00  0.00     0.041 A 
ATOM     75  Br  UNL A   1      29.739  25.755  25.293  1.00  0.00    -0.049 Br
BRANCH  73  76
ATOM     76  N   UNL A   1      31.555  24.870  22.204  1.00  0.00    -0.331 N 
ATOM     77  H   UNL A   1      30.728  24.601  21.744  1.00  0.00     0.169 HD
BRANCH  76  78
ATOM     78  C   UNL A   1      32.344  25.796  21.512  1.00  0.00     0.177 C 
ATOM     79  S   UNL A   1      32.452  25.579  19.847  1.00  0.00    -0.040 S 
BRANCH  78  80
ATOM     80  N   UNL A   1      33.074  26.943  22.035  1.00  0.00    -0.298 N 
ATOM     81  C   UNL A   1      33.338  28.065  23.055  1.00  0.00     0.267 C 
ATOM     82  H   UNL A   1      33.791  27.071  21.373  1.00  0.00     0.172 HD
ATOM     83  O   UNL A   1      34.135  28.945  22.735  1.00  0.00    -0.268 OA
BRANCH  81  84
ATOM     84  C   UNL A   1      32.640  28.017  24.421  1.00  0.00     0.092 A 
ATOM     85  C   UNL A   1      31.292  29.059  24.496  1.00  0.00     0.025 A 
ATOM     86  S   UNL A   1      34.186  28.300  26.120  1.00  0.00    -0.139 S 
ATOM     87  C   UNL A   1      31.531  30.528  25.695  1.00  0.00     0.012 A 
ATOM     88  C   UNL A   1      33.201  30.323  26.751  1.00  0.00     0.065 A 
ENDBRANCH  81  84
ENDBRANCH  78  80
ENDBRANCH  76  78
ENDBRANCH  73  76
ENDBRANCH  66  69
ENDBRANCH  64  65
ENDBRANCH   1  64
TORSDOF 15
ENDMDL
