MODEL 1
REMARK VINA RESULT:     -13.7      0.000      0.000
REMARK SMILES O=C(NCCCCNC(=O)c1ccn(-c2cc(-c3ccncc3)nc(-c3ccccc3F)n2)n1)c1ccc(-c2c3nc(c(-c4c(F)cccc4F)c4ccc([nH]4)c(-c4c(F)cccc4F)c4nc(c(-c5c(F)cccc5F)c5ccc2[nH]5)C=C4)C=C3)cc1
REMARK SMILES IDX 5 1 4 2 3 3 1 4 2 5 35 7 36 8 88 9 37 10 87 11 38 12 39 13
REMARK SMILES IDX 40 14 81 15 41 16 86 17 80 18 82 19 42 20 85 21 79 22 78 23
REMARK SMILES IDX 43 25 69 26 52 27 68 28 53 29 56 30 67 31 83 32 54 33 55 34
REMARK SMILES IDX 66 36 84 37 57 38 44 39 45 40 50 41 46 42 47 43 49 44 51 45
REMARK SMILES IDX 48 46 70 47 71 48 76 49 72 50 73 51 75 52 77 53 74 54 58 55
REMARK SMILES IDX 59 56 64 57 60 58 61 59 63 60 65 61 62 62 6 63 7 64 8 65
REMARK SMILES IDX 9 66 10 68 11 69 12 70 34 71 13 72 14 73 15 74 16 75 33 76
REMARK SMILES IDX 17 77 25 78 24 79 18 80 19 81 23 82 20 83 22 84 21 85 26 86
REMARK SMILES IDX 27 87 31 88 28 89 30 90 32 91 29 92
REMARK H PARENT 3 6 82 24 56 35 8 67
REMARK Flexibility Score: inf
ROOT
ATOM      1  C   UNL A   1      33.047  29.045  27.261  1.00  0.00     0.023 C 
ENDROOT
BRANCH   1   2
ATOM      2  C   UNL A   1      34.075  30.172  27.129  1.00  0.00     0.116 C 
BRANCH   2   3
ATOM      3  N   UNL A   1      34.104  31.079  28.258  1.00  0.00    -0.352 N 
ATOM      4  O   UNL A   1      34.740  32.358  29.937  1.00  0.00    -0.269 OA
ATOM      5  C   UNL A   1      35.052  31.442  29.173  1.00  0.00     0.251 C 
ATOM      6  H   UNL A   1      33.247  31.541  28.397  1.00  0.00     0.163 HD
BRANCH   5   7
ATOM      7  C   UNL A   1      36.385  30.796  29.338  1.00  0.00     0.039 A 
ATOM      8  C   UNL A   1      37.602  31.304  28.879  1.00  0.00     0.014 A 
ATOM      9  C   UNL A   1      36.389  29.548  29.989  1.00  0.00     0.014 A 
ATOM     10  C   UNL A   1      38.773  30.560  28.994  1.00  0.00     0.010 A 
ATOM     11  C   UNL A   1      37.561  28.810  30.130  1.00  0.00     0.010 A 
ATOM     12  C   UNL A   1      38.749  29.305  29.600  1.00  0.00    -0.014 A 
BRANCH  12  13
ATOM     13  C   UNL A   1      40.019  28.596  29.747  1.00  0.00     0.031 A 
ATOM     14  C   UNL A   1      40.612  28.577  31.119  1.00  0.00     0.074 A 
ATOM     15  C   UNL A   1      40.561  27.852  28.762  1.00  0.00     0.049 A 
ATOM     16  N   UNL A   1      41.814  28.888  31.496  1.00  0.00    -0.248 NA
ATOM     17  C   UNL A   1      39.724  28.187  32.228  1.00  0.00     0.031 C 
ATOM     18  C   UNL A   1      39.964  27.492  27.475  1.00  0.00     0.029 A 
ATOM     19  N   UNL A   1      41.736  27.159  28.767  1.00  0.00    -0.354 N 
ATOM     20  C   UNL A   1      41.885  28.580  32.856  1.00  0.00     0.074 A 
ATOM     21  C   UNL A   1      40.549  28.244  33.272  1.00  0.00     0.031 C 
ATOM     22  C   UNL A   1      40.675  26.483  26.925  1.00  0.00     0.029 A 
ATOM     23  C   UNL A   1      41.838  26.219  27.754  1.00  0.00     0.049 A 
ATOM     24  H   UNL A   1      42.447  27.313  29.430  1.00  0.00     0.167 HD
ATOM     25  C   UNL A   1      43.067  28.458  33.523  1.00  0.00     0.037 A 
ATOM     26  C   UNL A   1      42.769  25.241  27.650  1.00  0.00     0.037 A 
ATOM     27  C   UNL A   1      44.135  29.152  32.862  1.00  0.00     0.049 A 
ATOM     28  C   UNL A   1      43.917  25.602  28.514  1.00  0.00     0.074 A 
ATOM     29  C   UNL A   1      44.377  30.468  32.515  1.00  0.00     0.029 A 
ATOM     30  N   UNL A   1      45.084  28.423  32.194  1.00  0.00    -0.354 N 
ATOM     31  N   UNL A   1      44.743  26.582  28.284  1.00  0.00    -0.248 NA
ATOM     32  C   UNL A   1      43.944  25.065  29.866  1.00  0.00     0.031 C 
ATOM     33  C   UNL A   1      45.112  30.401  31.296  1.00  0.00     0.029 A 
ATOM     34  C   UNL A   1      45.281  29.050  30.993  1.00  0.00     0.049 A 
ATOM     35  H   UNL A   1      45.534  27.608  32.515  1.00  0.00     0.167 HD
ATOM     36  C   UNL A   1      45.094  27.051  29.541  1.00  0.00     0.074 A 
ATOM     37  C   UNL A   1      44.667  26.010  30.469  1.00  0.00     0.031 C 
ATOM     38  C   UNL A   1      45.446  28.355  29.738  1.00  0.00     0.037 A 
BRANCH  25  39
ATOM     39  C   UNL A   1      43.314  27.457  34.628  1.00  0.00     0.057 A 
ATOM     40  C   UNL A   1      43.154  27.748  35.998  1.00  0.00     0.134 A 
ATOM     41  C   UNL A   1      43.435  26.088  34.321  1.00  0.00     0.134 A 
ATOM     42  F   UNL A   1      42.933  28.993  36.442  1.00  0.00    -0.206 F 
ATOM     43  C   UNL A   1      43.113  26.759  36.985  1.00  0.00     0.040 A 
ATOM     44  C   UNL A   1      43.344  25.087  35.296  1.00  0.00     0.040 A 
ATOM     45  F   UNL A   1      43.566  25.675  33.052  1.00  0.00    -0.206 F 
ATOM     46  C   UNL A   1      43.179  25.420  36.634  1.00  0.00     0.006 A 
ENDBRANCH  25  39
BRANCH  26  47
ATOM     47  C   UNL A   1      42.606  23.879  27.097  1.00  0.00     0.057 A 
ATOM     48  C   UNL A   1      42.254  22.788  27.912  1.00  0.00     0.134 A 
ATOM     49  C   UNL A   1      43.059  23.563  25.808  1.00  0.00     0.134 A 
ATOM     50  F   UNL A   1      41.886  22.966  29.189  1.00  0.00    -0.206 F 
ATOM     51  C   UNL A   1      42.357  21.465  27.478  1.00  0.00     0.040 A 
ATOM     52  C   UNL A   1      43.177  22.240  25.365  1.00  0.00     0.040 A 
ATOM     53  F   UNL A   1      43.459  24.531  24.971  1.00  0.00    -0.206 F 
ATOM     54  C   UNL A   1      42.835  21.185  26.205  1.00  0.00     0.006 A 
ENDBRANCH  26  47
BRANCH  38  55
ATOM     55  C   UNL A   1      45.722  29.204  28.531  1.00  0.00     0.057 A 
ATOM     56  C   UNL A   1      47.050  29.440  28.157  1.00  0.00     0.134 A 
ATOM     57  C   UNL A   1      44.731  29.922  27.844  1.00  0.00     0.134 A 
ATOM     58  F   UNL A   1      48.055  28.836  28.812  1.00  0.00    -0.206 F 
ATOM     59  C   UNL A   1      47.381  30.342  27.143  1.00  0.00     0.040 A 
ATOM     60  C   UNL A   1      45.047  30.802  26.806  1.00  0.00     0.040 A 
ATOM     61  F   UNL A   1      43.444  29.842  28.203  1.00  0.00    -0.206 F 
ATOM     62  C   UNL A   1      46.376  31.021  26.457  1.00  0.00     0.006 A 
ENDBRANCH  38  55
ENDBRANCH  12  13
ENDBRANCH   5   7
ENDBRANCH   2   3
ENDBRANCH   1   2
BRANCH   1  63
ATOM     63  C   UNL A   1      32.414  28.581  25.944  1.00  0.00     0.023 C 
BRANCH  63  64
ATOM     64  C   UNL A   1      32.165  27.079  25.842  1.00  0.00     0.116 C 
BRANCH  64  65
ATOM     65  N   UNL A   1      30.861  26.726  26.364  1.00  0.00    -0.351 N 
ATOM     66  C   UNL A   1      30.083  25.637  26.045  1.00  0.00     0.271 C 
ATOM     67  H   UNL A   1      30.485  27.342  27.031  1.00  0.00     0.163 HD
ATOM     68  O   UNL A   1      28.947  25.567  26.489  1.00  0.00    -0.267 OA
BRANCH  66  69
ATOM     69  C   UNL A   1      30.686  24.575  25.238  1.00  0.00     0.150 A 
ATOM     70  C   UNL A   1      30.609  24.446  23.829  1.00  0.00     0.056 A 
ATOM     71  N   UNL A   1      31.423  23.588  25.780  1.00  0.00    -0.161 NA
ATOM     72  C   UNL A   1      31.469  23.422  23.522  1.00  0.00     0.118 A 
ATOM     73  N   UNL A   1      31.993  22.972  24.713  1.00  0.00    -0.222 N 
BRANCH  73  74
ATOM     74  C   UNL A   1      33.033  22.016  24.854  1.00  0.00     0.158 A 
ATOM     75  C   UNL A   1      32.719  20.673  24.862  1.00  0.00     0.078 A 
ATOM     76  N   UNL A   1      34.295  22.480  24.987  1.00  0.00    -0.209 NA
ATOM     77  C   UNL A   1      33.786  19.805  24.974  1.00  0.00     0.077 A 
ATOM     78  C   UNL A   1      35.252  21.559  25.177  1.00  0.00     0.165 A 
ATOM     79  N   UNL A   1      35.051  20.231  25.173  1.00  0.00    -0.228 NA
BRANCH  77  80
ATOM     80  C   UNL A   1      33.620  18.355  24.832  1.00  0.00     0.003 A 
ATOM     81  C   UNL A   1      32.701  17.658  25.628  1.00  0.00     0.030 A 
ATOM     82  C   UNL A   1      34.348  17.629  23.884  1.00  0.00     0.030 A 
ATOM     83  C   UNL A   1      32.561  16.291  25.453  1.00  0.00     0.111 A 
ATOM     84  C   UNL A   1      34.146  16.261  23.791  1.00  0.00     0.111 A 
ATOM     85  N   UNL A   1      33.272  15.575  24.559  1.00  0.00    -0.265 NA
ENDBRANCH  77  80
BRANCH  78  86
ATOM     86  C   UNL A   1      36.573  22.057  25.537  1.00  0.00     0.055 A 
ATOM     87  C   UNL A   1      36.739  23.382  25.984  1.00  0.00     0.015 A 
ATOM     88  C   UNL A   1      37.710  21.254  25.438  1.00  0.00     0.134 A 
ATOM     89  C   UNL A   1      38.002  23.876  26.324  1.00  0.00     0.001 A 
ATOM     90  C   UNL A   1      38.975  21.742  25.767  1.00  0.00     0.040 A 
ATOM     91  F   UNL A   1      37.615  19.994  24.986  1.00  0.00    -0.206 F 
ATOM     92  C   UNL A   1      39.122  23.054  26.214  1.00  0.00     0.003 A 
ENDBRANCH  78  86
ENDBRANCH  73  74
ENDBRANCH  66  69
ENDBRANCH  64  65
ENDBRANCH  63  64
ENDBRANCH   1  63
TORSDOF 14
ENDMDL
MODEL 2
REMARK VINA RESULT:     -13.6      1.562      2.045
REMARK SMILES O=C(NCCCCNC(=O)c1ccn(-c2cc(-c3ccncc3)nc(-c3ccccc3F)n2)n1)c1ccc(-c2c3nc(c(-c4c(F)cccc4F)c4ccc([nH]4)c(-c4c(F)cccc4F)c4nc(c(-c5c(F)cccc5F)c5ccc2[nH]5)C=C4)C=C3)cc1
REMARK SMILES IDX 5 1 4 2 3 3 1 4 2 5 35 7 36 8 88 9 37 10 87 11 38 12 39 13
REMARK SMILES IDX 40 14 81 15 41 16 86 17 80 18 82 19 42 20 85 21 79 22 78 23
REMARK SMILES IDX 43 25 69 26 52 27 68 28 53 29 56 30 67 31 83 32 54 33 55 34
REMARK SMILES IDX 66 36 84 37 57 38 44 39 45 40 50 41 46 42 47 43 49 44 51 45
REMARK SMILES IDX 48 46 70 47 71 48 76 49 72 50 73 51 75 52 77 53 74 54 58 55
REMARK SMILES IDX 59 56 64 57 60 58 61 59 63 60 65 61 62 62 6 63 7 64 8 65
REMARK SMILES IDX 9 66 10 68 11 69 12 70 34 71 13 72 14 73 15 74 16 75 33 76
REMARK SMILES IDX 17 77 25 78 24 79 18 80 19 81 23 82 20 83 22 84 21 85 26 86
REMARK SMILES IDX 27 87 31 88 28 89 30 90 32 91 29 92
REMARK H PARENT 3 6 82 24 56 35 8 67
REMARK Flexibility Score: inf
ROOT
ATOM      1  C   UNL A   1      32.353  29.612  25.230  1.00  0.00     0.023 C 
ENDROOT
BRANCH   1   2
ATOM      2  C   UNL A   1      33.496  29.570  26.249  1.00  0.00     0.116 C 
BRANCH   2   3
ATOM      3  N   UNL A   1      33.565  30.734  27.106  1.00  0.00    -0.352 N 
ATOM      4  O   UNL A   1      34.260  32.400  28.373  1.00  0.00    -0.269 OA
ATOM      5  C   UNL A   1      34.549  31.319  27.853  1.00  0.00     0.251 C 
ATOM      6  H   UNL A   1      32.709  31.215  27.164  1.00  0.00     0.163 HD
BRANCH   5   7
ATOM      7  C   UNL A   1      35.896  30.738  28.114  1.00  0.00     0.039 A 
ATOM      8  C   UNL A   1      36.250  29.396  27.958  1.00  0.00     0.014 A 
ATOM      9  C   UNL A   1      36.872  31.632  28.591  1.00  0.00     0.014 A 
ATOM     10  C   UNL A   1      37.512  28.944  28.337  1.00  0.00     0.010 A 
ATOM     11  C   UNL A   1      38.143  31.191  28.948  1.00  0.00     0.010 A 
ATOM     12  C   UNL A   1      38.450  29.837  28.851  1.00  0.00    -0.014 A 
BRANCH  12  13
ATOM     13  C   UNL A   1      39.777  29.316  29.175  1.00  0.00     0.031 A 
ATOM     14  C   UNL A   1      40.113  29.217  30.629  1.00  0.00     0.074 A 
ATOM     15  C   UNL A   1      40.605  28.793  28.249  1.00  0.00     0.049 A 
ATOM     16  N   UNL A   1      41.157  29.657  31.260  1.00  0.00    -0.248 NA
ATOM     17  C   UNL A   1      39.124  28.561  31.501  1.00  0.00     0.031 C 
ATOM     18  C   UNL A   1      40.316  28.510  26.842  1.00  0.00     0.029 A 
ATOM     19  N   UNL A   1      41.862  28.291  28.418  1.00  0.00    -0.354 N 
ATOM     20  C   UNL A   1      41.039  29.197  32.573  1.00  0.00     0.074 A 
ATOM     21  C   UNL A   1      39.729  28.611  32.687  1.00  0.00     0.031 C 
ATOM     22  C   UNL A   1      41.276  27.697  26.349  1.00  0.00     0.029 A 
ATOM     23  C   UNL A   1      42.303  27.512  27.360  1.00  0.00     0.049 A 
ATOM     24  H   UNL A   1      42.408  28.467  29.219  1.00  0.00     0.167 HD
ATOM     25  C   UNL A   1      42.087  29.173  33.443  1.00  0.00     0.037 A 
ATOM     26  C   UNL A   1      43.392  26.707  27.348  1.00  0.00     0.037 A 
ATOM     27  C   UNL A   1      43.119  30.099  33.071  1.00  0.00     0.049 A 
ATOM     28  C   UNL A   1      44.289  27.127  28.449  1.00  0.00     0.074 A 
ATOM     29  C   UNL A   1      43.187  31.469  32.903  1.00  0.00     0.029 A 
ATOM     30  N   UNL A   1      44.282  29.611  32.535  1.00  0.00    -0.354 N 
ATOM     31  N   UNL A   1      44.961  28.243  28.478  1.00  0.00    -0.248 NA
ATOM     32  C   UNL A   1      44.169  26.437  29.724  1.00  0.00     0.031 C 
ATOM     33  C   UNL A   1      44.127  31.667  31.850  1.00  0.00     0.029 A 
ATOM     34  C   UNL A   1      44.578  30.406  31.460  1.00  0.00     0.049 A 
ATOM     35  H   UNL A   1      44.803  28.840  32.859  1.00  0.00     0.167 HD
ATOM     36  C   UNL A   1      44.998  28.600  29.817  1.00  0.00     0.074 A 
ATOM     37  C   UNL A   1      44.600  27.398  30.543  1.00  0.00     0.031 C 
ATOM     38  C   UNL A   1      45.079  29.906  30.201  1.00  0.00     0.037 A 
BRANCH  25  39
ATOM     39  C   UNL A   1      42.304  28.091  34.475  1.00  0.00     0.057 A 
ATOM     40  C   UNL A   1      41.871  28.188  35.813  1.00  0.00     0.134 A 
ATOM     41  C   UNL A   1      42.697  26.802  34.069  1.00  0.00     0.134 A 
ATOM     42  F   UNL A   1      41.378  29.325  36.323  1.00  0.00    -0.206 F 
ATOM     43  C   UNL A   1      41.826  27.091  36.679  1.00  0.00     0.040 A 
ATOM     44  C   UNL A   1      42.607  25.686  34.912  1.00  0.00     0.040 A 
ATOM     45  F   UNL A   1      43.105  26.569  32.813  1.00  0.00    -0.206 F 
ATOM     46  C   UNL A   1      42.167  25.828  36.222  1.00  0.00     0.006 A 
ENDBRANCH  25  39
BRANCH  26  47
ATOM     47  C   UNL A   1      43.567  25.416  26.648  1.00  0.00     0.057 A 
ATOM     48  C   UNL A   1      44.314  25.316  25.461  1.00  0.00     0.134 A 
ATOM     49  C   UNL A   1      42.778  24.304  26.975  1.00  0.00     0.134 A 
ATOM     50  F   UNL A   1      45.039  26.348  25.007  1.00  0.00    -0.206 F 
ATOM     51  C   UNL A   1      44.272  24.184  24.642  1.00  0.00     0.040 A 
ATOM     52  C   UNL A   1      42.718  23.169  26.158  1.00  0.00     0.040 A 
ATOM     53  F   UNL A   1      41.997  24.320  28.064  1.00  0.00    -0.206 F 
ATOM     54  C   UNL A   1      43.459  23.110  24.981  1.00  0.00     0.006 A 
ENDBRANCH  26  47
BRANCH  38  55
ATOM     55  C   UNL A   1      45.413  30.932  29.157  1.00  0.00     0.057 A 
ATOM     56  C   UNL A   1      46.723  31.419  29.078  1.00  0.00     0.134 A 
ATOM     57  C   UNL A   1      44.451  31.565  28.354  1.00  0.00     0.134 A 
ATOM     58  F   UNL A   1      47.684  30.905  29.863  1.00  0.00    -0.206 F 
ATOM     59  C   UNL A   1      47.065  32.481  28.238  1.00  0.00     0.040 A 
ATOM     60  C   UNL A   1      44.787  32.604  27.485  1.00  0.00     0.040 A 
ATOM     61  F   UNL A   1      43.156  31.238  28.439  1.00  0.00    -0.206 F 
ATOM     62  C   UNL A   1      46.097  33.072  27.431  1.00  0.00     0.006 A 
ENDBRANCH  38  55
ENDBRANCH  12  13
ENDBRANCH   5   7
ENDBRANCH   2   3
ENDBRANCH   1   2
BRANCH   1  63
ATOM     63  C   UNL A   1      32.513  28.671  24.030  1.00  0.00     0.023 C 
BRANCH  63  64
ATOM     64  C   UNL A   1      31.243  27.940  23.609  1.00  0.00     0.116 C 
BRANCH  64  65
ATOM     65  N   UNL A   1      31.328  27.486  22.236  1.00  0.00    -0.351 N 
ATOM     66  C   UNL A   1      31.614  26.222  21.774  1.00  0.00     0.271 C 
ATOM     67  H   UNL A   1      31.159  28.167  21.547  1.00  0.00     0.163 HD
ATOM     68  O   UNL A   1      31.773  26.048  20.575  1.00  0.00    -0.267 OA
BRANCH  66  69
ATOM     69  C   UNL A   1      31.647  25.127  22.746  1.00  0.00     0.150 A 
ATOM     70  C   UNL A   1      30.525  24.506  23.349  1.00  0.00     0.056 A 
ATOM     71  N   UNL A   1      32.798  24.567  23.160  1.00  0.00    -0.161 NA
ATOM     72  C   UNL A   1      31.041  23.433  24.030  1.00  0.00     0.118 A 
ATOM     73  N   UNL A   1      32.404  23.460  23.841  1.00  0.00    -0.222 N 
BRANCH  73  74
ATOM     74  C   UNL A   1      33.320  22.454  24.251  1.00  0.00     0.158 A 
ATOM     75  C   UNL A   1      32.888  21.148  24.346  1.00  0.00     0.078 A 
ATOM     76  N   UNL A   1      34.581  22.839  24.543  1.00  0.00    -0.209 NA
ATOM     77  C   UNL A   1      33.843  20.224  24.722  1.00  0.00     0.077 A 
ATOM     78  C   UNL A   1      35.410  21.880  24.983  1.00  0.00     0.165 A 
ATOM     79  N   UNL A   1      35.094  20.579  25.083  1.00  0.00    -0.228 NA
BRANCH  77  80
ATOM     80  C   UNL A   1      33.571  18.783  24.705  1.00  0.00     0.003 A 
ATOM     81  C   UNL A   1      34.174  17.953  23.751  1.00  0.00     0.030 A 
ATOM     82  C   UNL A   1      32.730  18.191  25.652  1.00  0.00     0.030 A 
ATOM     83  C   UNL A   1      33.905  16.594  23.777  1.00  0.00     0.111 A 
ATOM     84  C   UNL A   1      32.515  16.823  25.591  1.00  0.00     0.111 A 
ATOM     85  N   UNL A   1      33.080  16.012  24.670  1.00  0.00    -0.265 NA
ENDBRANCH  77  80
BRANCH  78  86
ATOM     86  C   UNL A   1      36.697  22.320  25.503  1.00  0.00     0.055 A 
ATOM     87  C   UNL A   1      36.858  23.629  26.000  1.00  0.00     0.015 A 
ATOM     88  C   UNL A   1      37.810  21.478  25.514  1.00  0.00     0.134 A 
ATOM     89  C   UNL A   1      38.090  24.067  26.495  1.00  0.00     0.001 A 
ATOM     90  C   UNL A   1      39.045  21.911  25.998  1.00  0.00     0.040 A 
ATOM     91  F   UNL A   1      37.723  20.232  25.022  1.00  0.00    -0.206 F 
ATOM     92  C   UNL A   1      39.185  23.206  26.492  1.00  0.00     0.003 A 
ENDBRANCH  78  86
ENDBRANCH  73  74
ENDBRANCH  66  69
ENDBRANCH  64  65
ENDBRANCH  63  64
ENDBRANCH   1  63
TORSDOF 14
ENDMDL
MODEL 3
REMARK VINA RESULT:     -13.5      1.905      5.844
REMARK SMILES O=C(NCCCCNC(=O)c1ccn(-c2cc(-c3ccncc3)nc(-c3ccccc3F)n2)n1)c1ccc(-c2c3nc(c(-c4c(F)cccc4F)c4ccc([nH]4)c(-c4c(F)cccc4F)c4nc(c(-c5c(F)cccc5F)c5ccc2[nH]5)C=C4)C=C3)cc1
REMARK SMILES IDX 5 1 4 2 3 3 1 4 2 5 35 7 36 8 88 9 37 10 87 11 38 12 39 13
REMARK SMILES IDX 40 14 81 15 41 16 86 17 80 18 82 19 42 20 85 21 79 22 78 23
REMARK SMILES IDX 43 25 69 26 52 27 68 28 53 29 56 30 67 31 83 32 54 33 55 34
REMARK SMILES IDX 66 36 84 37 57 38 44 39 45 40 50 41 46 42 47 43 49 44 51 45
REMARK SMILES IDX 48 46 70 47 71 48 76 49 72 50 73 51 75 52 77 53 74 54 58 55
REMARK SMILES IDX 59 56 64 57 60 58 61 59 63 60 65 61 62 62 6 63 7 64 8 65
REMARK SMILES IDX 9 66 10 68 11 69 12 70 34 71 13 72 14 73 15 74 16 75 33 76
REMARK SMILES IDX 17 77 25 78 24 79 18 80 19 81 23 82 20 83 22 84 21 85 26 86
REMARK SMILES IDX 27 87 31 88 28 89 30 90 32 91 29 92
REMARK H PARENT 3 6 82 24 56 35 8 67
REMARK Flexibility Score: inf
ROOT
ATOM      1  C   UNL A   1      33.693  29.063  25.826  1.00  0.00     0.023 C 
ENDROOT
BRANCH   1   2
ATOM      2  C   UNL A   1      34.741  28.677  26.873  1.00  0.00     0.116 C 
BRANCH   2   3
ATOM      3  N   UNL A   1      34.838  29.605  27.981  1.00  0.00    -0.352 N 
ATOM      4  O   UNL A   1      35.573  30.961  29.557  1.00  0.00    -0.269 OA
ATOM      5  C   UNL A   1      35.860  30.057  28.768  1.00  0.00     0.251 C 
ATOM      6  H   UNL A   1      33.971  30.002  28.221  1.00  0.00     0.163 HD
BRANCH   5   7
ATOM      7  C   UNL A   1      37.249  29.518  28.773  1.00  0.00     0.039 A 
ATOM      8  C   UNL A   1      37.835  28.780  29.804  1.00  0.00     0.014 A 
ATOM      9  C   UNL A   1      38.032  29.818  27.643  1.00  0.00     0.014 A 
ATOM     10  C   UNL A   1      39.179  28.419  29.747  1.00  0.00     0.010 A 
ATOM     11  C   UNL A   1      39.369  29.439  27.569  1.00  0.00     0.010 A 
ATOM     12  C   UNL A   1      39.951  28.767  28.640  1.00  0.00    -0.014 A 
BRANCH  12  13
ATOM     13  C   UNL A   1      41.339  28.310  28.608  1.00  0.00     0.031 A 
ATOM     14  C   UNL A   1      41.590  27.000  27.932  1.00  0.00     0.074 A 
ATOM     15  C   UNL A   1      42.373  29.079  29.004  1.00  0.00     0.049 A 
ATOM     16  N   UNL A   1      42.239  25.966  28.367  1.00  0.00    -0.248 NA
ATOM     17  C   UNL A   1      41.001  26.812  26.595  1.00  0.00     0.031 C 
ATOM     18  C   UNL A   1      42.348  30.493  29.382  1.00  0.00     0.029 A 
ATOM     19  N   UNL A   1      43.701  28.769  29.037  1.00  0.00    -0.354 N 
ATOM     20  C   UNL A   1      42.283  25.060  27.306  1.00  0.00     0.074 A 
ATOM     21  C   UNL A   1      41.428  25.592  26.277  1.00  0.00     0.031 C 
ATOM     22  C   UNL A   1      43.613  30.970  29.392  1.00  0.00     0.029 A 
ATOM     23  C   UNL A   1      44.532  29.871  29.150  1.00  0.00     0.049 A 
ATOM     24  H   UNL A   1      44.037  27.845  28.986  1.00  0.00     0.167 HD
ATOM     25  C   UNL A   1      43.150  24.010  27.267  1.00  0.00     0.037 A 
ATOM     26  C   UNL A   1      45.875  29.891  28.975  1.00  0.00     0.037 A 
ATOM     27  C   UNL A   1      43.612  23.643  28.576  1.00  0.00     0.049 A 
ATOM     28  C   UNL A   1      46.378  28.504  29.099  1.00  0.00     0.074 A 
ATOM     29  C   UNL A   1      43.006  23.201  29.736  1.00  0.00     0.029 A 
ATOM     30  N   UNL A   1      44.895  23.961  28.937  1.00  0.00    -0.354 N 
ATOM     31  N   UNL A   1      46.409  27.819  30.207  1.00  0.00    -0.248 NA
ATOM     32  C   UNL A   1      46.536  27.727  27.879  1.00  0.00     0.031 C 
ATOM     33  C   UNL A   1      43.788  23.748  30.794  1.00  0.00     0.029 A 
ATOM     34  C   UNL A   1      44.826  24.471  30.206  1.00  0.00     0.049 A 
ATOM     35  H   UNL A   1      45.707  23.847  28.391  1.00  0.00     0.167 HD
ATOM     36  C   UNL A   1      46.183  26.508  29.819  1.00  0.00     0.074 A 
ATOM     37  C   UNL A   1      46.386  26.497  28.374  1.00  0.00     0.031 C 
ATOM     38  C   UNL A   1      45.585  25.613  30.658  1.00  0.00     0.037 A 
BRANCH  25  39
ATOM     39  C   UNL A   1      43.808  23.504  26.005  1.00  0.00     0.057 A 
ATOM     40  C   UNL A   1      44.781  24.227  25.285  1.00  0.00     0.134 A 
ATOM     41  C   UNL A   1      43.691  22.147  25.648  1.00  0.00     0.134 A 
ATOM     42  F   UNL A   1      45.078  25.502  25.569  1.00  0.00    -0.206 F 
ATOM     43  C   UNL A   1      45.577  23.648  24.292  1.00  0.00     0.040 A 
ATOM     44  C   UNL A   1      44.519  21.545  24.691  1.00  0.00     0.040 A 
ATOM     45  F   UNL A   1      42.821  21.341  26.276  1.00  0.00    -0.206 F 
ATOM     46  C   UNL A   1      45.469  22.295  24.011  1.00  0.00     0.006 A 
ENDBRANCH  25  39
BRANCH  26  47
ATOM     47  C   UNL A   1      46.707  30.976  28.409  1.00  0.00     0.057 A 
ATOM     48  C   UNL A   1      47.479  31.818  29.229  1.00  0.00     0.134 A 
ATOM     49  C   UNL A   1      46.550  31.388  27.079  1.00  0.00     0.134 A 
ATOM     50  F   UNL A   1      47.628  31.566  30.538  1.00  0.00    -0.206 F 
ATOM     51  C   UNL A   1      48.051  33.003  28.760  1.00  0.00     0.040 A 
ATOM     52  C   UNL A   1      47.108  32.579  26.598  1.00  0.00     0.040 A 
ATOM     53  F   UNL A   1      45.796  30.676  26.229  1.00  0.00    -0.206 F 
ATOM     54  C   UNL A   1      47.854  33.396  27.443  1.00  0.00     0.006 A 
ENDBRANCH  26  47
BRANCH  38  55
ATOM     55  C   UNL A   1      45.434  25.990  32.104  1.00  0.00     0.057 A 
ATOM     56  C   UNL A   1      46.402  25.565  33.021  1.00  0.00     0.134 A 
ATOM     57  C   UNL A   1      44.287  26.605  32.630  1.00  0.00     0.134 A 
ATOM     58  F   UNL A   1      47.496  24.913  32.596  1.00  0.00    -0.206 F 
ATOM     59  C   UNL A   1      46.243  25.746  34.397  1.00  0.00     0.040 A 
ATOM     60  C   UNL A   1      44.133  26.823  34.001  1.00  0.00     0.040 A 
ATOM     61  F   UNL A   1      43.263  26.950  31.840  1.00  0.00    -0.206 F 
ATOM     62  C   UNL A   1      45.109  26.386  34.891  1.00  0.00     0.006 A 
ENDBRANCH  38  55
ENDBRANCH  12  13
ENDBRANCH   5   7
ENDBRANCH   2   3
ENDBRANCH   1   2
BRANCH   1  63
ATOM     63  C   UNL A   1      33.548  28.084  24.655  1.00  0.00     0.023 C 
BRANCH  63  64
ATOM     64  C   UNL A   1      32.144  27.523  24.453  1.00  0.00     0.116 C 
BRANCH  64  65
ATOM     65  N   UNL A   1      31.833  27.380  23.046  1.00  0.00    -0.351 N 
ATOM     66  C   UNL A   1      31.720  26.221  22.312  1.00  0.00     0.271 C 
ATOM     67  H   UNL A   1      31.683  28.217  22.552  1.00  0.00     0.163 HD
ATOM     68  O   UNL A   1      31.580  26.295  21.101  1.00  0.00    -0.267 OA
BRANCH  66  69
ATOM     69  C   UNL A   1      31.706  24.949  23.037  1.00  0.00     0.150 A 
ATOM     70  C   UNL A   1      30.574  24.130  23.272  1.00  0.00     0.056 A 
ATOM     71  N   UNL A   1      32.822  24.402  23.552  1.00  0.00    -0.161 NA
ATOM     72  C   UNL A   1      31.081  22.978  23.818  1.00  0.00     0.118 A 
ATOM     73  N   UNL A   1      32.444  23.148  23.911  1.00  0.00    -0.222 N 
BRANCH  73  74
ATOM     74  C   UNL A   1      33.382  22.150  24.287  1.00  0.00     0.158 A 
ATOM     75  C   UNL A   1      32.970  20.837  24.377  1.00  0.00     0.078 A 
ATOM     76  N   UNL A   1      34.644  22.549  24.554  1.00  0.00    -0.209 NA
ATOM     77  C   UNL A   1      33.945  19.922  24.720  1.00  0.00     0.077 A 
ATOM     78  C   UNL A   1      35.496  21.595  24.964  1.00  0.00     0.165 A 
ATOM     79  N   UNL A   1      35.199  20.289  25.056  1.00  0.00    -0.228 NA
BRANCH  77  80
ATOM     80  C   UNL A   1      33.692  18.478  24.693  1.00  0.00     0.003 A 
ATOM     81  C   UNL A   1      32.725  17.904  25.528  1.00  0.00     0.030 A 
ATOM     82  C   UNL A   1      34.384  17.635  23.817  1.00  0.00     0.030 A 
ATOM     83  C   UNL A   1      32.504  16.538  25.462  1.00  0.00     0.111 A 
ATOM     84  C   UNL A   1      34.100  16.279  23.832  1.00  0.00     0.111 A 
ATOM     85  N   UNL A   1      33.178  15.711  24.639  1.00  0.00    -0.265 NA
ENDBRANCH  77  80
BRANCH  78  86
ATOM     86  C   UNL A   1      36.789  22.047  25.460  1.00  0.00     0.055 A 
ATOM     87  C   UNL A   1      36.940  23.347  25.982  1.00  0.00     0.015 A 
ATOM     88  C   UNL A   1      37.916  21.225  25.421  1.00  0.00     0.134 A 
ATOM     89  C   UNL A   1      38.177  23.796  26.453  1.00  0.00     0.001 A 
ATOM     90  C   UNL A   1      39.156  21.669  25.881  1.00  0.00     0.040 A 
ATOM     91  F   UNL A   1      37.838  19.989  24.903  1.00  0.00    -0.206 F 
ATOM     92  C   UNL A   1      39.287  22.955  26.401  1.00  0.00     0.003 A 
ENDBRANCH  78  86
ENDBRANCH  73  74
ENDBRANCH  66  69
ENDBRANCH  64  65
ENDBRANCH  63  64
ENDBRANCH   1  63
TORSDOF 14
ENDMDL
