MODEL 1
REMARK VINA RESULT:     -12.3      0.000      0.000
REMARK SMILES COc1cccc(NC(=O)[C@@H]2[C@@H](C(=O)NCCCCNC(=O)c3ccc(-c4c5nc(c(-c6c(F)cccc6F)c6ccc([nH]6)c(-c6c(F)cccc6F)c6nc(c(-c7c(F)cccc7F)c7ccc4[nH]7)C=C6)C=C5)cc3)[C@H]3C=C[C@@H]2C3)c1
REMARK SMILES IDX 17 1 16 2 15 3 13 4 14 5 12 7 11 8 80 9 77 10 79 11 81 12
REMARK SMILES IDX 78 13 9 14 8 15 10 17 7 18 3 19 4 20 82 21 5 22 6 23 2 24
REMARK SMILES IDX 1 25 18 26 19 27 20 28 21 29 22 31 23 32 24 33 76 34 25 35
REMARK SMILES IDX 75 36 26 37 27 38 28 39 69 40 29 41 74 42 68 43 70 44 30 45
REMARK SMILES IDX 73 46 67 47 66 48 31 50 57 51 40 52 56 53 41 54 44 55 55 56
REMARK SMILES IDX 71 57 42 58 43 59 54 61 72 62 45 63 32 64 33 65 38 66 34 67
REMARK SMILES IDX 35 68 37 69 39 70 36 71 58 72 59 73 64 74 60 75 61 76 63 77
REMARK SMILES IDX 65 78 62 79 46 80 47 81 52 82 48 83 49 84 51 85 53 86 50 87
REMARK H PARENT 15 6 8 16 20 30 70 49 44 60
REMARK Flexibility Score: inf
ROOT
ATOM      1  C   UNL A   1      37.262  21.023  24.643  1.00  0.00     0.023 C 
ENDROOT
BRANCH   1   2
ATOM      2  C   UNL A   1      36.187  21.265  25.697  1.00  0.00     0.116 C 
BRANCH   2   3
ATOM      3  N   UNL A   1      34.864  20.979  25.206  1.00  0.00    -0.356 N 
ATOM      4  C   UNL A   1      33.783  21.778  25.056  1.00  0.00     0.224 C 
ATOM      5  O   UNL A   1      32.881  21.307  24.352  1.00  0.00    -0.275 OA
ATOM      6  H   UNL A   1      34.722  20.044  24.934  1.00  0.00     0.163 HD
BRANCH   4   7
ATOM      7  C   UNL A   1      33.695  23.206  25.616  1.00  0.00     0.098 C 
ATOM      8  C   UNL A   1      32.473  24.137  25.218  1.00  0.00     0.099 C 
ATOM      9  C   UNL A   1      33.139  25.180  24.335  1.00  0.00     0.025 C 
ATOM     10  C   UNL A   1      34.908  24.024  25.044  1.00  0.00     0.025 C 
ATOM     11  C   UNL A   1      33.787  24.572  23.117  1.00  0.00    -0.027 C 
ATOM     12  C   UNL A   1      34.406  25.455  25.167  1.00  0.00     0.017 C 
ATOM     13  C   UNL A   1      34.893  23.945  23.532  1.00  0.00    -0.027 C 
BRANCH   8  14
ATOM     14  C   UNL A   1      31.751  24.650  26.491  1.00  0.00     0.228 C 
ATOM     15  N   UNL A   1      31.355  25.892  26.864  1.00  0.00    -0.326 N 
ATOM     16  H   UNL A   1      30.729  25.804  27.619  1.00  0.00     0.169 HD
ATOM     17  O   UNL A   1      31.373  23.788  27.308  1.00  0.00    -0.274 OA
BRANCH  15  18
ATOM     18  C   UNL A   1      31.508  27.264  26.569  1.00  0.00     0.044 A 
ATOM     19  C   UNL A   1      31.298  28.995  24.861  1.00  0.00     0.120 A 
ATOM     20  C   UNL A   1      31.742  29.978  25.733  1.00  0.00     0.046 A 
ATOM     21  C   UNL A   1      31.234  27.648  25.246  1.00  0.00     0.072 A 
ATOM     22  C   UNL A   1      31.976  29.625  27.045  1.00  0.00     0.006 A 
ATOM     23  C   UNL A   1      31.796  28.298  27.451  1.00  0.00     0.026 A 
BRANCH  19  24
ATOM     24  O   UNL A   1      30.861  29.379  23.624  1.00  0.00    -0.497 OA
ATOM     25  C   UNL A   1      29.640  28.685  23.332  1.00  0.00     0.278 C 
ENDBRANCH  19  24
ENDBRANCH  15  18
ENDBRANCH   8  14
ENDBRANCH   4   7
ENDBRANCH   2   3
ENDBRANCH   1   2
BRANCH   1  26
ATOM     26  C   UNL A   1      38.157  19.813  24.916  1.00  0.00     0.023 C 
BRANCH  26  27
ATOM     27  C   UNL A   1      39.201  20.027  26.000  1.00  0.00     0.116 C 
BRANCH  27  28
ATOM     28  N   UNL A   1      40.378  19.193  25.822  1.00  0.00    -0.352 N 
ATOM     29  C   UNL A   1      41.699  19.535  25.983  1.00  0.00     0.251 C 
ATOM     30  H   UNL A   1      40.207  18.263  25.549  1.00  0.00     0.163 HD
ATOM     31  O   UNL A   1      42.589  18.764  25.656  1.00  0.00    -0.269 OA
BRANCH  29  32
ATOM     32  C   UNL A   1      42.029  20.866  26.532  1.00  0.00     0.039 A 
ATOM     33  C   UNL A   1      42.351  21.898  25.650  1.00  0.00     0.014 A 
ATOM     34  C   UNL A   1      41.990  21.095  27.910  1.00  0.00     0.014 A 
ATOM     35  C   UNL A   1      42.596  23.176  26.152  1.00  0.00     0.010 A 
ATOM     36  C   UNL A   1      42.140  22.387  28.398  1.00  0.00     0.010 A 
ATOM     37  C   UNL A   1      42.469  23.435  27.528  1.00  0.00    -0.014 A 
BRANCH  37  38
ATOM     38  C   UNL A   1      42.727  24.789  28.078  1.00  0.00     0.031 A 
ATOM     39  C   UNL A   1      44.122  25.173  28.489  1.00  0.00     0.074 A 
ATOM     40  C   UNL A   1      41.707  25.651  28.245  1.00  0.00     0.049 A 
ATOM     41  N   UNL A   1      44.550  26.291  29.020  1.00  0.00    -0.248 NA
ATOM     42  C   UNL A   1      45.171  24.156  28.309  1.00  0.00     0.031 C 
ATOM     43  C   UNL A   1      40.303  25.377  27.932  1.00  0.00     0.029 A 
ATOM     44  N   UNL A   1      41.695  26.937  28.723  1.00  0.00    -0.354 N 
ATOM     45  C   UNL A   1      45.908  26.105  29.246  1.00  0.00     0.074 A 
ATOM     46  C   UNL A   1      46.219  24.746  28.863  1.00  0.00     0.031 C 
ATOM     47  C   UNL A   1      39.571  26.472  28.196  1.00  0.00     0.029 A 
ATOM     48  C   UNL A   1      40.448  27.511  28.728  1.00  0.00     0.049 A 
ATOM     49  H   UNL A   1      42.504  27.403  29.033  1.00  0.00     0.167 HD
ATOM     50  C   UNL A   1      46.821  26.993  29.702  1.00  0.00     0.037 A 
ATOM     51  C   UNL A   1      40.057  28.739  29.119  1.00  0.00     0.037 A 
ATOM     52  C   UNL A   1      46.511  28.351  30.061  1.00  0.00     0.049 A 
ATOM     53  C   UNL A   1      41.091  29.709  29.622  1.00  0.00     0.074 A 
ATOM     54  C   UNL A   1      47.369  29.348  30.490  1.00  0.00     0.029 A 
ATOM     55  N   UNL A   1      45.238  28.902  30.034  1.00  0.00    -0.354 N 
ATOM     56  N   UNL A   1      42.383  29.543  29.769  1.00  0.00    -0.248 NA
ATOM     57  C   UNL A   1      40.611  31.046  30.001  1.00  0.00     0.031 C 
ATOM     58  C   UNL A   1      46.609  30.488  30.769  1.00  0.00     0.029 A 
ATOM     59  C   UNL A   1      45.286  30.223  30.452  1.00  0.00     0.049 A 
ATOM     60  H   UNL A   1      44.423  28.427  29.757  1.00  0.00     0.167 HD
ATOM     61  C   UNL A   1      42.877  30.762  30.215  1.00  0.00     0.074 A 
ATOM     62  C   UNL A   1      41.745  31.661  30.305  1.00  0.00     0.031 C 
ATOM     63  C   UNL A   1      44.152  31.108  30.520  1.00  0.00     0.037 A 
BRANCH  50  64
ATOM     64  C   UNL A   1      48.241  26.520  29.833  1.00  0.00     0.057 A 
ATOM     65  C   UNL A   1      48.704  25.874  30.989  1.00  0.00     0.134 A 
ATOM     66  C   UNL A   1      49.153  26.694  28.785  1.00  0.00     0.134 A 
ATOM     67  F   UNL A   1      47.888  25.688  32.038  1.00  0.00    -0.206 F 
ATOM     68  C   UNL A   1      50.028  25.449  31.109  1.00  0.00     0.040 A 
ATOM     69  C   UNL A   1      50.471  26.242  28.880  1.00  0.00     0.040 A 
ATOM     70  F   UNL A   1      48.778  27.299  27.648  1.00  0.00    -0.206 F 
ATOM     71  C   UNL A   1      50.914  25.626  30.049  1.00  0.00     0.006 A 
ENDBRANCH  50  64
BRANCH  51  72
ATOM     72  C   UNL A   1      38.629  29.137  29.016  1.00  0.00     0.057 A 
ATOM     73  C   UNL A   1      37.774  29.055  30.122  1.00  0.00     0.134 A 
ATOM     74  C   UNL A   1      38.080  29.589  27.811  1.00  0.00     0.134 A 
ATOM     75  F   UNL A   1      38.236  28.614  31.302  1.00  0.00    -0.206 F 
ATOM     76  C   UNL A   1      36.420  29.381  30.027  1.00  0.00     0.040 A 
ATOM     77  C   UNL A   1      36.735  29.946  27.708  1.00  0.00     0.040 A 
ATOM     78  F   UNL A   1      38.848  29.699  26.716  1.00  0.00    -0.206 F 
ATOM     79  C   UNL A   1      35.898  29.832  28.816  1.00  0.00     0.006 A 
ENDBRANCH  51  72
BRANCH  63  80
ATOM     80  C   UNL A   1      44.399  32.536  30.917  1.00  0.00     0.057 A 
ATOM     81  C   UNL A   1      44.372  32.957  32.253  1.00  0.00     0.134 A 
ATOM     82  C   UNL A   1      44.693  33.498  29.942  1.00  0.00     0.134 A 
ATOM     83  F   UNL A   1      44.087  32.089  33.235  1.00  0.00    -0.206 F 
ATOM     84  C   UNL A   1      44.589  34.292  32.600  1.00  0.00     0.040 A 
ATOM     85  C   UNL A   1      44.945  34.829  30.280  1.00  0.00     0.040 A 
ATOM     86  F   UNL A   1      44.748  33.161  28.645  1.00  0.00    -0.206 F 
ATOM     87  C   UNL A   1      44.883  35.230  31.613  1.00  0.00     0.006 A 
ENDBRANCH  63  80
ENDBRANCH  37  38
ENDBRANCH  29  32
ENDBRANCH  27  28
ENDBRANCH  26  27
ENDBRANCH   1  26
TORSDOF 14
ENDMDL
MODEL 2
REMARK VINA RESULT:     -12.2      1.082      6.253
REMARK SMILES COc1cccc(NC(=O)[C@@H]2[C@@H](C(=O)NCCCCNC(=O)c3ccc(-c4c5nc(c(-c6c(F)cccc6F)c6ccc([nH]6)c(-c6c(F)cccc6F)c6nc(c(-c7c(F)cccc7F)c7ccc4[nH]7)C=C6)C=C5)cc3)[C@H]3C=C[C@@H]2C3)c1
REMARK SMILES IDX 17 1 16 2 15 3 13 4 14 5 12 7 11 8 80 9 77 10 79 11 81 12
REMARK SMILES IDX 78 13 9 14 8 15 10 17 7 18 3 19 4 20 82 21 5 22 6 23 2 24
REMARK SMILES IDX 1 25 18 26 19 27 20 28 21 29 22 31 23 32 24 33 76 34 25 35
REMARK SMILES IDX 75 36 26 37 27 38 28 39 69 40 29 41 74 42 68 43 70 44 30 45
REMARK SMILES IDX 73 46 67 47 66 48 31 50 57 51 40 52 56 53 41 54 44 55 55 56
REMARK SMILES IDX 71 57 42 58 43 59 54 61 72 62 45 63 32 64 33 65 38 66 34 67
REMARK SMILES IDX 35 68 37 69 39 70 36 71 58 72 59 73 64 74 60 75 61 76 63 77
REMARK SMILES IDX 65 78 62 79 46 80 47 81 52 82 48 83 49 84 51 85 53 86 50 87
REMARK H PARENT 15 6 8 16 20 30 70 49 44 60
REMARK Flexibility Score: inf
ROOT
ATOM      1  C   UNL A   1      37.082  20.937  24.659  1.00  0.00     0.023 C 
ENDROOT
BRANCH   1   2
ATOM      2  C   UNL A   1      35.981  21.162  25.691  1.00  0.00     0.116 C 
BRANCH   2   3
ATOM      3  N   UNL A   1      34.666  20.970  25.138  1.00  0.00    -0.356 N 
ATOM      4  C   UNL A   1      33.642  21.837  24.967  1.00  0.00     0.224 C 
ATOM      5  O   UNL A   1      32.744  21.441  24.214  1.00  0.00    -0.275 OA
ATOM      6  H   UNL A   1      34.479  20.052  24.834  1.00  0.00     0.163 HD
BRANCH   4   7
ATOM      7  C   UNL A   1      33.617  23.252  25.564  1.00  0.00     0.098 C 
ATOM      8  C   UNL A   1      32.430  24.242  25.200  1.00  0.00     0.099 C 
ATOM      9  C   UNL A   1      33.133  25.279  24.338  1.00  0.00     0.025 C 
ATOM     10  C   UNL A   1      34.858  24.035  25.004  1.00  0.00     0.025 C 
ATOM     11  C   UNL A   1      33.746  24.677  23.100  1.00  0.00    -0.027 C 
ATOM     12  C   UNL A   1      34.415  25.481  25.168  1.00  0.00     0.017 C 
ATOM     13  C   UNL A   1      34.829  23.996  23.490  1.00  0.00    -0.027 C 
BRANCH   8  14
ATOM     14  C   UNL A   1      31.739  24.751  26.491  1.00  0.00     0.228 C 
ATOM     15  N   UNL A   1      31.357  25.993  26.880  1.00  0.00    -0.326 N 
ATOM     16  H   UNL A   1      30.747  25.903  27.647  1.00  0.00     0.169 HD
ATOM     17  O   UNL A   1      31.374  23.886  27.310  1.00  0.00    -0.274 OA
BRANCH  15  18
ATOM     18  C   UNL A   1      31.511  27.366  26.590  1.00  0.00     0.044 A 
ATOM     19  C   UNL A   1      31.237  29.114  24.910  1.00  0.00     0.120 A 
ATOM     20  C   UNL A   1      31.734  30.084  25.768  1.00  0.00     0.046 A 
ATOM     21  C   UNL A   1      31.177  27.765  25.286  1.00  0.00     0.072 A 
ATOM     22  C   UNL A   1      32.029  29.716  27.063  1.00  0.00     0.006 A 
ATOM     23  C   UNL A   1      31.854  28.388  27.466  1.00  0.00     0.026 A 
BRANCH  19  24
ATOM     24  O   UNL A   1      30.743  29.515  23.699  1.00  0.00    -0.497 OA
ATOM     25  C   UNL A   1      30.106  28.395  23.070  1.00  0.00     0.278 C 
ENDBRANCH  19  24
ENDBRANCH  15  18
ENDBRANCH   8  14
ENDBRANCH   4   7
ENDBRANCH   2   3
ENDBRANCH   1   2
BRANCH   1  26
ATOM     26  C   UNL A   1      38.038  19.790  24.989  1.00  0.00     0.023 C 
BRANCH  26  27
ATOM     27  C   UNL A   1      39.204  20.173  25.886  1.00  0.00     0.116 C 
BRANCH  27  28
ATOM     28  N   UNL A   1      40.239  19.153  25.929  1.00  0.00    -0.352 N 
ATOM     29  C   UNL A   1      41.586  19.312  26.151  1.00  0.00     0.251 C 
ATOM     30  H   UNL A   1      39.937  18.228  25.780  1.00  0.00     0.163 HD
ATOM     31  O   UNL A   1      42.357  18.375  26.015  1.00  0.00    -0.269 OA
BRANCH  29  32
ATOM     32  C   UNL A   1      42.093  20.647  26.530  1.00  0.00     0.039 A 
ATOM     33  C   UNL A   1      42.521  21.515  25.525  1.00  0.00     0.014 A 
ATOM     34  C   UNL A   1      42.114  21.045  27.869  1.00  0.00     0.014 A 
ATOM     35  C   UNL A   1      42.936  22.803  25.865  1.00  0.00     0.010 A 
ATOM     36  C   UNL A   1      42.436  22.356  28.194  1.00  0.00     0.010 A 
ATOM     37  C   UNL A   1      42.874  23.241  27.198  1.00  0.00    -0.014 A 
BRANCH  37  38
ATOM     38  C   UNL A   1      43.312  24.607  27.576  1.00  0.00     0.031 A 
ATOM     39  C   UNL A   1      42.286  25.647  27.934  1.00  0.00     0.074 A 
ATOM     40  C   UNL A   1      44.621  24.921  27.559  1.00  0.00     0.049 A 
ATOM     41  N   UNL A   1      42.459  26.904  28.260  1.00  0.00    -0.248 NA
ATOM     42  C   UNL A   1      40.875  25.231  27.889  1.00  0.00     0.031 C 
ATOM     43  C   UNL A   1      45.707  24.015  27.181  1.00  0.00     0.029 A 
ATOM     44  N   UNL A   1      45.261  26.096  27.866  1.00  0.00    -0.354 N 
ATOM     45  C   UNL A   1      41.185  27.424  28.445  1.00  0.00     0.074 A 
ATOM     46  C   UNL A   1      40.246  26.371  28.126  1.00  0.00     0.031 C 
ATOM     47  C   UNL A   1      46.880  24.656  27.310  1.00  0.00     0.029 A 
ATOM     48  C   UNL A   1      46.627  26.026  27.745  1.00  0.00     0.049 A 
ATOM     49  H   UNL A   1      44.785  26.909  28.148  1.00  0.00     0.167 HD
ATOM     50  C   UNL A   1      40.827  28.658  28.872  1.00  0.00     0.037 A 
ATOM     51  C   UNL A   1      47.568  26.964  27.961  1.00  0.00     0.037 A 
ATOM     52  C   UNL A   1      41.765  29.695  29.209  1.00  0.00     0.049 A 
ATOM     53  C   UNL A   1      47.145  28.328  28.435  1.00  0.00     0.074 A 
ATOM     54  C   UNL A   1      41.509  30.964  29.695  1.00  0.00     0.029 A 
ATOM     55  N   UNL A   1      43.142  29.580  29.092  1.00  0.00    -0.354 N 
ATOM     56  N   UNL A   1      45.940  28.788  28.671  1.00  0.00    -0.248 NA
ATOM     57  C   UNL A   1      48.218  29.300  28.688  1.00  0.00     0.031 C 
ATOM     58  C   UNL A   1      42.729  31.635  29.826  1.00  0.00     0.029 A 
ATOM     59  C   UNL A   1      43.749  30.762  29.484  1.00  0.00     0.049 A 
ATOM     60  H   UNL A   1      43.617  28.777  28.778  1.00  0.00     0.167 HD
ATOM     61  C   UNL A   1      46.110  30.085  29.138  1.00  0.00     0.074 A 
ATOM     62  C   UNL A   1      47.537  30.333  29.162  1.00  0.00     0.031 C 
ATOM     63  C   UNL A   1      45.172  30.988  29.517  1.00  0.00     0.037 A 
BRANCH  50  64
ATOM     64  C   UNL A   1      39.358  28.945  28.999  1.00  0.00     0.057 A 
ATOM     65  C   UNL A   1      38.669  28.766  30.209  1.00  0.00     0.134 A 
ATOM     66  C   UNL A   1      38.624  29.424  27.908  1.00  0.00     0.134 A 
ATOM     67  F   UNL A   1      39.307  28.295  31.291  1.00  0.00    -0.206 F 
ATOM     68  C   UNL A   1      37.301  29.022  30.317  1.00  0.00     0.040 A 
ATOM     69  C   UNL A   1      37.262  29.716  28.012  1.00  0.00     0.040 A 
ATOM     70  F   UNL A   1      39.218  29.624  26.721  1.00  0.00    -0.206 F 
ATOM     71  C   UNL A   1      36.595  29.506  29.218  1.00  0.00     0.006 A 
ENDBRANCH  50  64
BRANCH  51  72
ATOM     72  C   UNL A   1      49.005  26.640  27.768  1.00  0.00     0.057 A 
ATOM     73  C   UNL A   1      49.637  26.859  26.538  1.00  0.00     0.134 A 
ATOM     74  C   UNL A   1      49.775  26.088  28.798  1.00  0.00     0.134 A 
ATOM     75  F   UNL A   1      48.950  27.370  25.506  1.00  0.00    -0.206 F 
ATOM     76  C   UNL A   1      50.974  26.515  26.331  1.00  0.00     0.040 A 
ATOM     77  C   UNL A   1      51.121  25.765  28.613  1.00  0.00     0.040 A 
ATOM     78  F   UNL A   1      49.232  25.862  30.004  1.00  0.00    -0.206 F 
ATOM     79  C   UNL A   1      51.721  25.969  27.373  1.00  0.00     0.006 A 
ENDBRANCH  51  72
BRANCH  63  80
ATOM     80  C   UNL A   1      45.662  32.304  30.050  1.00  0.00     0.057 A 
ATOM     81  C   UNL A   1      45.859  33.419  29.226  1.00  0.00     0.134 A 
ATOM     82  C   UNL A   1      45.917  32.459  31.419  1.00  0.00     0.134 A 
ATOM     83  F   UNL A   1      45.643  33.335  27.904  1.00  0.00    -0.206 F 
ATOM     84  C   UNL A   1      46.330  34.629  29.738  1.00  0.00     0.040 A 
ATOM     85  C   UNL A   1      46.355  33.674  31.948  1.00  0.00     0.040 A 
ATOM     86  F   UNL A   1      45.737  31.436  32.268  1.00  0.00    -0.206 F 
ATOM     87  C   UNL A   1      46.573  34.761  31.103  1.00  0.00     0.006 A 
ENDBRANCH  63  80
ENDBRANCH  37  38
ENDBRANCH  29  32
ENDBRANCH  27  28
ENDBRANCH  26  27
ENDBRANCH   1  26
TORSDOF 14
ENDMDL
MODEL 3
REMARK VINA RESULT:     -12.2      1.727      3.981
REMARK SMILES COc1cccc(NC(=O)[C@@H]2[C@@H](C(=O)NCCCCNC(=O)c3ccc(-c4c5nc(c(-c6c(F)cccc6F)c6ccc([nH]6)c(-c6c(F)cccc6F)c6nc(c(-c7c(F)cccc7F)c7ccc4[nH]7)C=C6)C=C5)cc3)[C@H]3C=C[C@@H]2C3)c1
REMARK SMILES IDX 17 1 16 2 15 3 13 4 14 5 12 7 11 8 80 9 77 10 79 11 81 12
REMARK SMILES IDX 78 13 9 14 8 15 10 17 7 18 3 19 4 20 82 21 5 22 6 23 2 24
REMARK SMILES IDX 1 25 18 26 19 27 20 28 21 29 22 31 23 32 24 33 76 34 25 35
REMARK SMILES IDX 75 36 26 37 27 38 28 39 69 40 29 41 74 42 68 43 70 44 30 45
REMARK SMILES IDX 73 46 67 47 66 48 31 50 57 51 40 52 56 53 41 54 44 55 55 56
REMARK SMILES IDX 71 57 42 58 43 59 54 61 72 62 45 63 32 64 33 65 38 66 34 67
REMARK SMILES IDX 35 68 37 69 39 70 36 71 58 72 59 73 64 74 60 75 61 76 63 77
REMARK SMILES IDX 65 78 62 79 46 80 47 81 52 82 48 83 49 84 51 85 53 86 50 87
REMARK H PARENT 15 6 8 16 20 30 70 49 44 60
REMARK Flexibility Score: inf
ROOT
ATOM      1  C   UNL A   1      36.749  20.400  25.010  1.00  0.00     0.023 C 
ENDROOT
BRANCH   1   2
ATOM      2  C   UNL A   1      37.007  21.841  24.584  1.00  0.00     0.116 C 
BRANCH   2   3
ATOM      3  N   UNL A   1      36.140  22.259  23.513  1.00  0.00    -0.356 N 
ATOM      4  C   UNL A   1      34.904  22.805  23.536  1.00  0.00     0.224 C 
ATOM      5  O   UNL A   1      34.536  23.309  22.468  1.00  0.00    -0.275 OA
ATOM      6  H   UNL A   1      36.511  22.124  22.611  1.00  0.00     0.163 HD
BRANCH   4   7
ATOM      7  C   UNL A   1      34.039  22.901  24.803  1.00  0.00     0.098 C 
ATOM      8  C   UNL A   1      32.481  23.179  24.678  1.00  0.00     0.099 C 
ATOM      9  C   UNL A   1      32.363  24.591  25.229  1.00  0.00     0.025 C 
ATOM     10  C   UNL A   1      34.515  24.157  25.618  1.00  0.00     0.025 C 
ATOM     11  C   UNL A   1      33.166  25.588  24.432  1.00  0.00    -0.027 C 
ATOM     12  C   UNL A   1      33.285  24.469  26.457  1.00  0.00     0.017 C 
ATOM     13  C   UNL A   1      34.454  25.380  24.727  1.00  0.00    -0.027 C 
BRANCH   8  14
ATOM     14  C   UNL A   1      31.677  22.071  25.403  1.00  0.00     0.228 C 
ATOM     15  N   UNL A   1      31.769  20.719  25.367  1.00  0.00    -0.326 N 
ATOM     16  H   UNL A   1      31.258  20.353  26.124  1.00  0.00     0.169 HD
ATOM     17  O   UNL A   1      30.838  22.447  26.245  1.00  0.00    -0.274 OA
BRANCH  15  18
ATOM     18  C   UNL A   1      32.328  19.643  24.645  1.00  0.00     0.044 A 
ATOM     19  C   UNL A   1      33.442  17.477  24.795  1.00  0.00     0.120 A 
ATOM     20  C   UNL A   1      33.519  17.365  23.414  1.00  0.00     0.046 A 
ATOM     21  C   UNL A   1      32.910  18.618  25.409  1.00  0.00     0.072 A 
ATOM     22  C   UNL A   1      32.917  18.342  22.650  1.00  0.00     0.006 A 
ATOM     23  C   UNL A   1      32.283  19.422  23.274  1.00  0.00     0.026 A 
BRANCH  19  24
ATOM     24  O   UNL A   1      33.845  16.411  25.552  1.00  0.00    -0.497 OA
ATOM     25  C   UNL A   1      32.909  15.340  25.370  1.00  0.00     0.278 C 
ENDBRANCH  19  24
ENDBRANCH  15  18
ENDBRANCH   8  14
ENDBRANCH   4   7
ENDBRANCH   2   3
ENDBRANCH   1   2
BRANCH   1  26
ATOM     26  C   UNL A   1      37.987  19.502  24.993  1.00  0.00     0.023 C 
BRANCH  26  27
ATOM     27  C   UNL A   1      39.208  20.091  25.680  1.00  0.00     0.116 C 
BRANCH  27  28
ATOM     28  N   UNL A   1      40.313  19.150  25.769  1.00  0.00    -0.352 N 
ATOM     29  C   UNL A   1      41.619  19.397  26.120  1.00  0.00     0.251 C 
ATOM     30  H   UNL A   1      40.099  18.215  25.549  1.00  0.00     0.163 HD
ATOM     31  O   UNL A   1      42.470  18.529  26.010  1.00  0.00    -0.269 OA
BRANCH  29  32
ATOM     32  C   UNL A   1      41.983  20.744  26.606  1.00  0.00     0.039 A 
ATOM     33  C   UNL A   1      42.414  21.699  25.684  1.00  0.00     0.014 A 
ATOM     34  C   UNL A   1      41.870  21.064  27.961  1.00  0.00     0.014 A 
ATOM     35  C   UNL A   1      42.695  22.994  26.121  1.00  0.00     0.010 A 
ATOM     36  C   UNL A   1      42.058  22.376  28.377  1.00  0.00     0.010 A 
ATOM     37  C   UNL A   1      42.495  23.348  27.467  1.00  0.00    -0.014 A 
BRANCH  37  38
ATOM     38  C   UNL A   1      42.790  24.720  27.948  1.00  0.00     0.031 A 
ATOM     39  C   UNL A   1      44.213  25.130  28.210  1.00  0.00     0.074 A 
ATOM     40  C   UNL A   1      41.780  25.579  28.187  1.00  0.00     0.049 A 
ATOM     41  N   UNL A   1      44.678  26.267  28.662  1.00  0.00    -0.248 NA
ATOM     42  C   UNL A   1      45.252  24.117  27.960  1.00  0.00     0.031 C 
ATOM     43  C   UNL A   1      40.356  25.283  28.019  1.00  0.00     0.029 A 
ATOM     44  N   UNL A   1      41.800  26.879  28.624  1.00  0.00    -0.354 N 
ATOM     45  C   UNL A   1      46.053  26.100  28.761  1.00  0.00     0.074 A 
ATOM     46  C   UNL A   1      46.342  24.732  28.392  1.00  0.00     0.031 C 
ATOM     47  C   UNL A   1      39.641  26.379  28.319  1.00  0.00     0.029 A 
ATOM     48  C   UNL A   1      40.553  27.442  28.732  1.00  0.00     0.049 A 
ATOM     49  H   UNL A   1      42.630  27.362  28.839  1.00  0.00     0.167 HD
ATOM     50  C   UNL A   1      46.995  27.010  29.099  1.00  0.00     0.037 A 
ATOM     51  C   UNL A   1      40.187  28.678  29.120  1.00  0.00     0.037 A 
ATOM     52  C   UNL A   1      46.706  28.376  29.445  1.00  0.00     0.049 A 
ATOM     53  C   UNL A   1      41.254  29.673  29.492  1.00  0.00     0.074 A 
ATOM     54  C   UNL A   1      47.590  29.393  29.758  1.00  0.00     0.029 A 
ATOM     55  N   UNL A   1      45.431  28.915  29.523  1.00  0.00    -0.354 N 
ATOM     56  N   UNL A   1      42.556  29.523  29.517  1.00  0.00    -0.248 NA
ATOM     57  C   UNL A   1      40.797  31.017  29.873  1.00  0.00     0.031 C 
ATOM     58  C   UNL A   1      46.847  30.535  30.074  1.00  0.00     0.029 A 
ATOM     59  C   UNL A   1      45.503  30.248  29.895  1.00  0.00     0.049 A 
ATOM     60  H   UNL A   1      44.597  28.424  29.342  1.00  0.00     0.167 HD
ATOM     61  C   UNL A   1      43.076  30.759  29.876  1.00  0.00     0.074 A 
ATOM     62  C   UNL A   1      41.948  31.651  30.047  1.00  0.00     0.031 C 
ATOM     63  C   UNL A   1      44.371  31.126  30.045  1.00  0.00     0.037 A 
BRANCH  50  64
ATOM     64  C   UNL A   1      48.427  26.553  29.106  1.00  0.00     0.057 A 
ATOM     65  C   UNL A   1      49.251  26.678  27.978  1.00  0.00     0.134 A 
ATOM     66  C   UNL A   1      48.996  25.999  30.259  1.00  0.00     0.134 A 
ATOM     67  F   UNL A   1      48.767  27.187  26.835  1.00  0.00    -0.206 F 
ATOM     68  C   UNL A   1      50.576  26.238  27.987  1.00  0.00     0.040 A 
ATOM     69  C   UNL A   1      50.330  25.587  30.291  1.00  0.00     0.040 A 
ATOM     70  F   UNL A   1      48.268  25.853  31.377  1.00  0.00    -0.206 F 
ATOM     71  C   UNL A   1      51.121  25.697  29.150  1.00  0.00     0.006 A 
ENDBRANCH  50  64
BRANCH  51  72
ATOM     72  C   UNL A   1      38.752  29.060  29.145  1.00  0.00     0.057 A 
ATOM     73  C   UNL A   1      38.116  29.560  28.002  1.00  0.00     0.134 A 
ATOM     74  C   UNL A   1      37.986  28.955  30.311  1.00  0.00     0.134 A 
ATOM     75  F   UNL A   1      38.800  29.701  26.856  1.00  0.00    -0.206 F 
ATOM     76  C   UNL A   1      36.781  29.967  28.024  1.00  0.00     0.040 A 
ATOM     77  C   UNL A   1      36.642  29.331  30.341  1.00  0.00     0.040 A 
ATOM     78  F   UNL A   1      38.532  28.474  31.439  1.00  0.00    -0.206 F 
ATOM     79  C   UNL A   1      36.039  29.849  29.197  1.00  0.00     0.006 A 
ENDBRANCH  51  72
BRANCH  63  80
ATOM     80  C   UNL A   1      44.639  32.568  30.373  1.00  0.00     0.057 A 
ATOM     81  C   UNL A   1      44.750  33.028  31.690  1.00  0.00     0.134 A 
ATOM     82  C   UNL A   1      44.810  33.504  29.345  1.00  0.00     0.134 A 
ATOM     83  F   UNL A   1      44.586  32.186  32.722  1.00  0.00    -0.206 F 
ATOM     84  C   UNL A   1      44.984  34.374  31.974  1.00  0.00     0.040 A 
ATOM     85  C   UNL A   1      45.078  34.846  29.615  1.00  0.00     0.040 A 
ATOM     86  F   UNL A   1      44.729  33.129  28.059  1.00  0.00    -0.206 F 
ATOM     87  C   UNL A   1      45.155  35.287  30.935  1.00  0.00     0.006 A 
ENDBRANCH  63  80
ENDBRANCH  37  38
ENDBRANCH  29  32
ENDBRANCH  27  28
ENDBRANCH  26  27
ENDBRANCH   1  26
TORSDOF 14
ENDMDL
