MODEL 1
REMARK VINA RESULT:      -9.1      0.000      0.000
REMARK SMILES C#CC[C@@H](C(=O)NCCCCNC(=O)c1ccc(-c2c3nc(c(-c4c(F)cccc4F)c4ccc([nH]4)c(-c4c(F)cccc4F)c4nc(c(-c5c(F)cccc5F)c5ccc2[nH]5)C=C4)C=C3)cc1)c1cccc(Br)c1
REMARK SMILES IDX 9 1 8 2 7 3 5 4 6 5 4 7 3 8 2 9 1 10 69 11 70 12 75 13 71 14
REMARK SMILES IDX 73 15 72 16 74 17 10 18 11 19 12 20 13 21 14 23 15 24 16 25
REMARK SMILES IDX 68 26 17 27 67 28 18 29 19 30 20 31 61 32 21 33 66 34 60 35
REMARK SMILES IDX 62 36 22 37 65 38 59 39 58 40 23 42 49 43 32 44 48 45 33 46
REMARK SMILES IDX 36 47 47 48 63 49 34 50 35 51 46 53 64 54 37 55 24 56 25 57
REMARK SMILES IDX 30 58 26 59 27 60 29 61 31 62 28 63 50 64 51 65 56 66 52 67
REMARK SMILES IDX 53 68 55 69 57 70 54 71 38 72 39 73 44 74 40 75 41 76 43 77
REMARK SMILES IDX 45 78 42 79
REMARK H PARENT 7 6 12 22 62 41 36 52
REMARK Flexibility Score: inf
ROOT
ATOM      1  C   UNL A   1      34.485  35.464  33.895  1.00  0.00     0.023 C 
ENDROOT
BRANCH   1   2
ATOM      2  C   UNL A   1      35.240  34.197  34.338  1.00  0.00     0.116 C 
BRANCH   2   3
ATOM      3  N   UNL A   1      36.662  34.440  34.240  1.00  0.00    -0.356 N 
ATOM      4  C   UNL A   1      37.678  34.191  35.113  1.00  0.00     0.228 C 
ATOM      5  O   UNL A   1      38.572  35.045  35.058  1.00  0.00    -0.274 OA
ATOM      6  H   UNL A   1      36.946  34.860  33.396  1.00  0.00     0.163 HD
BRANCH   4   7
ATOM      7  C   UNL A   1      37.787  32.894  35.996  1.00  0.00     0.120 C 
BRANCH   7   8
ATOM      8  C   UNL A   1      38.455  33.017  37.394  1.00  0.00     0.107 C 
BRANCH   8   9
ATOM      9  C   UNL A   1      37.639  32.275  38.441  1.00  0.00    -0.106 C 
ATOM     10  C   UNL A   1      36.940  31.639  39.338  1.00  0.00     0.004 C 
ENDBRANCH   8   9
ENDBRANCH   7   8
BRANCH   7  11
ATOM     11  C   UNL A   1      38.543  31.794  35.218  1.00  0.00    -0.034 A 
ATOM     12  C   UNL A   1      39.924  31.580  35.411  1.00  0.00     0.004 A 
ATOM     13  C   UNL A   1      37.875  30.975  34.297  1.00  0.00     0.020 A 
ATOM     14  C   UNL A   1      40.634  30.659  34.641  1.00  0.00     0.001 A 
ATOM     15  C   UNL A   1      38.586  30.023  33.557  1.00  0.00     0.018 A 
ATOM     16  C   UNL A   1      39.965  29.879  33.707  1.00  0.00     0.016 A 
ATOM     17  Br  UNL A   1      37.672  28.916  32.326  1.00  0.00    -0.051 Br
ENDBRANCH   7  11
ENDBRANCH   4   7
ENDBRANCH   2   3
ENDBRANCH   1   2
BRANCH   1  18
ATOM     18  C   UNL A   1      33.515  35.300  32.741  1.00  0.00     0.023 C 
BRANCH  18  19
ATOM     19  C   UNL A   1      34.025  35.821  31.406  1.00  0.00     0.116 C 
BRANCH  19  20
ATOM     20  N   UNL A   1      33.143  35.632  30.255  1.00  0.00    -0.352 N 
ATOM     21  C   UNL A   1      33.288  34.736  29.215  1.00  0.00     0.251 C 
ATOM     22  H   UNL A   1      32.349  36.213  30.218  1.00  0.00     0.163 HD
ATOM     23  O   UNL A   1      32.473  34.689  28.300  1.00  0.00    -0.269 OA
BRANCH  21  24
ATOM     24  C   UNL A   1      34.489  33.877  29.199  1.00  0.00     0.039 A 
ATOM     25  C   UNL A   1      35.614  34.278  28.476  1.00  0.00     0.014 A 
ATOM     26  C   UNL A   1      34.545  32.768  30.042  1.00  0.00     0.014 A 
ATOM     27  C   UNL A   1      36.831  33.629  28.696  1.00  0.00     0.010 A 
ATOM     28  C   UNL A   1      35.777  32.231  30.369  1.00  0.00     0.010 A 
ATOM     29  C   UNL A   1      36.935  32.644  29.692  1.00  0.00    -0.014 A 
BRANCH  29  30
ATOM     30  C   UNL A   1      38.226  31.995  30.035  1.00  0.00     0.031 A 
ATOM     31  C   UNL A   1      39.190  32.709  30.945  1.00  0.00     0.074 A 
ATOM     32  C   UNL A   1      38.580  30.832  29.452  1.00  0.00     0.049 A 
ATOM     33  N   UNL A   1      40.420  32.397  31.261  1.00  0.00    -0.248 NA
ATOM     34  C   UNL A   1      38.731  33.983  31.527  1.00  0.00     0.031 C 
ATOM     35  C   UNL A   1      37.780  30.084  28.478  1.00  0.00     0.029 A 
ATOM     36  N   UNL A   1      39.716  30.077  29.593  1.00  0.00    -0.354 N 
ATOM     37  C   UNL A   1      40.892  33.461  32.020  1.00  0.00     0.074 A 
ATOM     38  C   UNL A   1      39.847  34.457  32.056  1.00  0.00     0.031 C 
ATOM     39  C   UNL A   1      38.429  28.954  28.151  1.00  0.00     0.029 A 
ATOM     40  C   UNL A   1      39.699  28.912  28.865  1.00  0.00     0.049 A 
ATOM     41  H   UNL A   1      40.473  30.344  30.164  1.00  0.00     0.167 HD
ATOM     42  C   UNL A   1      42.073  33.582  32.669  1.00  0.00     0.037 A 
ATOM     43  C   UNL A   1      40.604  27.917  28.800  1.00  0.00     0.037 A 
ATOM     44  C   UNL A   1      43.066  32.546  32.716  1.00  0.00     0.049 A 
ATOM     45  C   UNL A   1      41.858  28.018  29.624  1.00  0.00     0.074 A 
ATOM     46  C   UNL A   1      44.255  32.517  33.422  1.00  0.00     0.029 A 
ATOM     47  N   UNL A   1      42.966  31.336  32.045  1.00  0.00    -0.354 N 
ATOM     48  N   UNL A   1      42.263  28.996  30.397  1.00  0.00    -0.248 NA
ATOM     49  C   UNL A   1      42.772  26.868  29.582  1.00  0.00     0.031 C 
ATOM     50  C   UNL A   1      44.879  31.291  33.170  1.00  0.00     0.029 A 
ATOM     51  C   UNL A   1      44.066  30.547  32.329  1.00  0.00     0.049 A 
ATOM     52  H   UNL A   1      42.222  31.077  31.454  1.00  0.00     0.167 HD
ATOM     53  C   UNL A   1      43.456  28.567  30.962  1.00  0.00     0.074 A 
ATOM     54  C   UNL A   1      43.706  27.236  30.448  1.00  0.00     0.031 C 
ATOM     55  C   UNL A   1      44.272  29.214  31.828  1.00  0.00     0.037 A 
BRANCH  42  56
ATOM     56  C   UNL A   1      42.325  34.866  33.404  1.00  0.00     0.057 A 
ATOM     57  C   UNL A   1      41.960  35.034  34.747  1.00  0.00     0.134 A 
ATOM     58  C   UNL A   1      42.924  35.954  32.757  1.00  0.00     0.134 A 
ATOM     59  F   UNL A   1      41.363  34.037  35.419  1.00  0.00    -0.206 F 
ATOM     60  C   UNL A   1      42.144  36.248  35.409  1.00  0.00     0.040 A 
ATOM     61  C   UNL A   1      43.142  37.164  33.418  1.00  0.00     0.040 A 
ATOM     62  F   UNL A   1      43.300  35.861  31.473  1.00  0.00    -0.206 F 
ATOM     63  C   UNL A   1      42.740  37.317  34.744  1.00  0.00     0.006 A 
ENDBRANCH  42  56
BRANCH  43  64
ATOM     64  C   UNL A   1      40.325  26.701  27.995  1.00  0.00     0.057 A 
ATOM     65  C   UNL A   1      39.488  25.694  28.492  1.00  0.00     0.134 A 
ATOM     66  C   UNL A   1      40.883  26.509  26.727  1.00  0.00     0.134 A 
ATOM     67  F   UNL A   1      38.936  25.817  29.708  1.00  0.00    -0.206 F 
ATOM     68  C   UNL A   1      39.238  24.526  27.771  1.00  0.00     0.040 A 
ATOM     69  C   UNL A   1      40.625  25.355  25.984  1.00  0.00     0.040 A 
ATOM     70  F   UNL A   1      41.683  27.441  26.191  1.00  0.00    -0.206 F 
ATOM     71  C   UNL A   1      39.805  24.356  26.510  1.00  0.00     0.006 A 
ENDBRANCH  43  64
BRANCH  55  72
ATOM     72  C   UNL A   1      45.476  28.469  32.318  1.00  0.00     0.057 A 
ATOM     73  C   UNL A   1      45.433  27.668  33.465  1.00  0.00     0.134 A 
ATOM     74  C   UNL A   1      46.680  28.525  31.606  1.00  0.00     0.134 A 
ATOM     75  F   UNL A   1      44.311  27.584  34.195  1.00  0.00    -0.206 F 
ATOM     76  C   UNL A   1      46.557  26.964  33.900  1.00  0.00     0.040 A 
ATOM     77  C   UNL A   1      47.802  27.807  32.017  1.00  0.00     0.040 A 
ATOM     78  F   UNL A   1      46.780  29.268  30.493  1.00  0.00    -0.206 F 
ATOM     79  C   UNL A   1      47.744  27.027  33.170  1.00  0.00     0.006 A 
ENDBRANCH  55  72
ENDBRANCH  29  30
ENDBRANCH  21  24
ENDBRANCH  19  20
ENDBRANCH  18  19
ENDBRANCH   1  18
TORSDOF 14
ENDMDL
MODEL 2
REMARK VINA RESULT:      -9.0      4.835     10.816
REMARK SMILES C#CC[C@@H](C(=O)NCCCCNC(=O)c1ccc(-c2c3nc(c(-c4c(F)cccc4F)c4ccc([nH]4)c(-c4c(F)cccc4F)c4nc(c(-c5c(F)cccc5F)c5ccc2[nH]5)C=C4)C=C3)cc1)c1cccc(Br)c1
REMARK SMILES IDX 9 1 8 2 7 3 5 4 6 5 4 7 3 8 2 9 1 10 69 11 70 12 75 13 71 14
REMARK SMILES IDX 73 15 72 16 74 17 10 18 11 19 12 20 13 21 14 23 15 24 16 25
REMARK SMILES IDX 68 26 17 27 67 28 18 29 19 30 20 31 61 32 21 33 66 34 60 35
REMARK SMILES IDX 62 36 22 37 65 38 59 39 58 40 23 42 49 43 32 44 48 45 33 46
REMARK SMILES IDX 36 47 47 48 63 49 34 50 35 51 46 53 64 54 37 55 24 56 25 57
REMARK SMILES IDX 30 58 26 59 27 60 29 61 31 62 28 63 50 64 51 65 56 66 52 67
REMARK SMILES IDX 53 68 55 69 57 70 54 71 38 72 39 73 44 74 40 75 41 76 43 77
REMARK SMILES IDX 45 78 42 79
REMARK H PARENT 7 6 12 22 62 41 36 52
REMARK Flexibility Score: inf
ROOT
ATOM      1  C   UNL A   1      37.251  22.196  24.520  1.00  0.00     0.023 C 
ENDROOT
BRANCH   1   2
ATOM      2  C   UNL A   1      36.809  23.204  25.598  1.00  0.00     0.116 C 
BRANCH   2   3
ATOM      3  N   UNL A   1      35.889  22.550  26.502  1.00  0.00    -0.356 N 
ATOM      4  C   UNL A   1      34.539  22.664  26.646  1.00  0.00     0.228 C 
ATOM      5  O   UNL A   1      34.174  22.532  27.821  1.00  0.00    -0.274 OA
ATOM      6  H   UNL A   1      36.311  21.913  27.123  1.00  0.00     0.163 HD
BRANCH   4   7
ATOM      7  C   UNL A   1      33.531  22.802  25.448  1.00  0.00     0.120 C 
BRANCH   7   8
ATOM      8  C   UNL A   1      33.726  21.870  24.219  1.00  0.00     0.107 C 
BRANCH   8   9
ATOM      9  C   UNL A   1      33.473  20.421  24.605  1.00  0.00    -0.106 C 
ATOM     10  C   UNL A   1      33.257  19.179  24.935  1.00  0.00     0.004 C 
ENDBRANCH   8   9
ENDBRANCH   7   8
BRANCH   7  11
ATOM     11  C   UNL A   1      33.533  24.258  24.928  1.00  0.00    -0.034 A 
ATOM     12  C   UNL A   1      33.540  24.540  23.546  1.00  0.00     0.004 A 
ATOM     13  C   UNL A   1      33.527  25.340  25.819  1.00  0.00     0.020 A 
ATOM     14  C   UNL A   1      33.644  25.847  23.070  1.00  0.00     0.001 A 
ATOM     15  C   UNL A   1      33.590  26.651  25.333  1.00  0.00     0.018 A 
ATOM     16  C   UNL A   1      33.673  26.908  23.966  1.00  0.00     0.016 A 
ATOM     17  Br  UNL A   1      33.568  28.104  26.544  1.00  0.00    -0.051 Br
ENDBRANCH   7  11
ENDBRANCH   4   7
ENDBRANCH   2   3
ENDBRANCH   1   2
BRANCH   1  18
ATOM     18  C   UNL A   1      37.738  20.849  25.018  1.00  0.00     0.023 C 
BRANCH  18  19
ATOM     19  C   UNL A   1      39.017  20.902  25.839  1.00  0.00     0.116 C 
BRANCH  19  20
ATOM     20  N   UNL A   1      39.922  19.762  25.708  1.00  0.00    -0.352 N 
ATOM     21  C   UNL A   1      41.260  19.698  26.044  1.00  0.00     0.251 C 
ATOM     22  H   UNL A   1      39.530  18.939  25.336  1.00  0.00     0.163 HD
ATOM     23  O   UNL A   1      41.909  18.672  25.872  1.00  0.00    -0.269 OA
BRANCH  21  24
ATOM     24  C   UNL A   1      41.906  20.921  26.560  1.00  0.00     0.039 A 
ATOM     25  C   UNL A   1      42.337  21.903  25.666  1.00  0.00     0.014 A 
ATOM     26  C   UNL A   1      41.921  21.156  27.934  1.00  0.00     0.014 A 
ATOM     27  C   UNL A   1      42.671  23.168  26.154  1.00  0.00     0.010 A 
ATOM     28  C   UNL A   1      42.105  22.448  28.395  1.00  0.00     0.010 A 
ATOM     29  C   UNL A   1      42.495  23.468  27.514  1.00  0.00    -0.014 A 
BRANCH  29  30
ATOM     30  C   UNL A   1      42.740  24.825  28.066  1.00  0.00     0.031 A 
ATOM     31  C   UNL A   1      44.135  25.207  28.487  1.00  0.00     0.074 A 
ATOM     32  C   UNL A   1      41.710  25.666  28.290  1.00  0.00     0.049 A 
ATOM     33  N   UNL A   1      44.549  26.275  29.118  1.00  0.00    -0.248 NA
ATOM     34  C   UNL A   1      45.199  24.223  28.221  1.00  0.00     0.031 C 
ATOM     35  C   UNL A   1      40.299  25.383  28.018  1.00  0.00     0.029 A 
ATOM     36  N   UNL A   1      41.697  26.935  28.809  1.00  0.00    -0.354 N 
ATOM     37  C   UNL A   1      45.897  26.058  29.374  1.00  0.00     0.074 A 
ATOM     38  C   UNL A   1      46.215  24.732  28.898  1.00  0.00     0.031 C 
ATOM     39  C   UNL A   1      39.565  26.467  28.324  1.00  0.00     0.029 A 
ATOM     40  C   UNL A   1      40.448  27.506  28.842  1.00  0.00     0.049 A 
ATOM     41  H   UNL A   1      42.507  27.395  29.129  1.00  0.00     0.167 HD
ATOM     42  C   UNL A   1      46.803  26.904  29.916  1.00  0.00     0.037 A 
ATOM     43  C   UNL A   1      40.067  28.738  29.230  1.00  0.00     0.037 A 
ATOM     44  C   UNL A   1      46.506  28.257  30.292  1.00  0.00     0.049 A 
ATOM     45  C   UNL A   1      41.111  29.703  29.718  1.00  0.00     0.074 A 
ATOM     46  C   UNL A   1      47.365  29.235  30.758  1.00  0.00     0.029 A 
ATOM     47  N   UNL A   1      45.245  28.831  30.215  1.00  0.00    -0.354 N 
ATOM     48  N   UNL A   1      42.397  29.513  29.888  1.00  0.00    -0.248 NA
ATOM     49  C   UNL A   1      40.655  31.060  30.050  1.00  0.00     0.031 C 
ATOM     50  C   UNL A   1      46.621  30.401  30.971  1.00  0.00     0.029 A 
ATOM     51  C   UNL A   1      45.305  30.154  30.613  1.00  0.00     0.049 A 
ATOM     52  H   UNL A   1      44.430  28.366  29.920  1.00  0.00     0.167 HD
ATOM     53  C   UNL A   1      42.909  30.733  30.309  1.00  0.00     0.074 A 
ATOM     54  C   UNL A   1      41.796  31.658  30.362  1.00  0.00     0.031 C 
ATOM     55  C   UNL A   1      44.186  31.060  30.624  1.00  0.00     0.037 A 
BRANCH  42  56
ATOM     56  C   UNL A   1      48.202  26.389  30.094  1.00  0.00     0.057 A 
ATOM     57  C   UNL A   1      49.167  26.507  29.085  1.00  0.00     0.134 A 
ATOM     58  C   UNL A   1      48.584  25.754  31.282  1.00  0.00     0.134 A 
ATOM     59  F   UNL A   1      48.860  27.087  27.914  1.00  0.00    -0.206 F 
ATOM     60  C   UNL A   1      50.449  25.975  29.233  1.00  0.00     0.040 A 
ATOM     61  C   UNL A   1      49.874  25.246  31.454  1.00  0.00     0.040 A 
ATOM     62  F   UNL A   1      47.711  25.610  32.290  1.00  0.00    -0.206 F 
ATOM     63  C   UNL A   1      50.806  25.345  30.423  1.00  0.00     0.006 A 
ENDBRANCH  42  56
BRANCH  43  64
ATOM     64  C   UNL A   1      38.650  29.161  29.095  1.00  0.00     0.057 A 
ATOM     65  C   UNL A   1      37.782  29.104  30.193  1.00  0.00     0.134 A 
ATOM     66  C   UNL A   1      38.127  29.618  27.881  1.00  0.00     0.134 A 
ATOM     67  F   UNL A   1      38.223  28.660  31.378  1.00  0.00    -0.206 F 
ATOM     68  C   UNL A   1      36.437  29.462  30.083  1.00  0.00     0.040 A 
ATOM     69  C   UNL A   1      36.789  30.000  27.762  1.00  0.00     0.040 A 
ATOM     70  F   UNL A   1      38.909  29.707  26.797  1.00  0.00    -0.206 F 
ATOM     71  C   UNL A   1      35.938  29.914  28.864  1.00  0.00     0.006 A 
ENDBRANCH  43  64
BRANCH  55  72
ATOM     72  C   UNL A   1      44.454  32.486  30.993  1.00  0.00     0.057 A 
ATOM     73  C   UNL A   1      44.425  32.924  32.322  1.00  0.00     0.134 A 
ATOM     74  C   UNL A   1      44.786  33.422  30.006  1.00  0.00     0.134 A 
ATOM     75  F   UNL A   1      44.103  32.076  33.311  1.00  0.00    -0.206 F 
ATOM     76  C   UNL A   1      44.695  34.252  32.654  1.00  0.00     0.040 A 
ATOM     77  C   UNL A   1      45.081  34.746  30.328  1.00  0.00     0.040 A 
ATOM     78  F   UNL A   1      44.840  33.060  28.715  1.00  0.00    -0.206 F 
ATOM     79  C   UNL A   1      45.031  35.165  31.656  1.00  0.00     0.006 A 
ENDBRANCH  55  72
ENDBRANCH  29  30
ENDBRANCH  21  24
ENDBRANCH  19  20
ENDBRANCH  18  19
ENDBRANCH   1  18
TORSDOF 14
ENDMDL
MODEL 3
REMARK VINA RESULT:      -9.0      4.857     10.920
REMARK SMILES C#CC[C@@H](C(=O)NCCCCNC(=O)c1ccc(-c2c3nc(c(-c4c(F)cccc4F)c4ccc([nH]4)c(-c4c(F)cccc4F)c4nc(c(-c5c(F)cccc5F)c5ccc2[nH]5)C=C4)C=C3)cc1)c1cccc(Br)c1
REMARK SMILES IDX 9 1 8 2 7 3 5 4 6 5 4 7 3 8 2 9 1 10 69 11 70 12 75 13 71 14
REMARK SMILES IDX 73 15 72 16 74 17 10 18 11 19 12 20 13 21 14 23 15 24 16 25
REMARK SMILES IDX 68 26 17 27 67 28 18 29 19 30 20 31 61 32 21 33 66 34 60 35
REMARK SMILES IDX 62 36 22 37 65 38 59 39 58 40 23 42 49 43 32 44 48 45 33 46
REMARK SMILES IDX 36 47 47 48 63 49 34 50 35 51 46 53 64 54 37 55 24 56 25 57
REMARK SMILES IDX 30 58 26 59 27 60 29 61 31 62 28 63 50 64 51 65 56 66 52 67
REMARK SMILES IDX 53 68 55 69 57 70 54 71 38 72 39 73 44 74 40 75 41 76 43 77
REMARK SMILES IDX 45 78 42 79
REMARK H PARENT 7 6 12 22 62 41 36 52
REMARK Flexibility Score: inf
ROOT
ATOM      1  C   UNL A   1      37.089  22.084  24.556  1.00  0.00     0.023 C 
ENDROOT
BRANCH   1   2
ATOM      2  C   UNL A   1      36.649  23.020  25.698  1.00  0.00     0.116 C 
BRANCH   2   3
ATOM      3  N   UNL A   1      35.697  22.324  26.534  1.00  0.00    -0.356 N 
ATOM      4  C   UNL A   1      34.343  22.436  26.638  1.00  0.00     0.228 C 
ATOM      5  O   UNL A   1      33.938  22.244  27.792  1.00  0.00    -0.274 OA
ATOM      6  H   UNL A   1      36.096  21.653  27.135  1.00  0.00     0.163 HD
BRANCH   4   7
ATOM      7  C   UNL A   1      33.377  22.643  25.415  1.00  0.00     0.120 C 
BRANCH   7   8
ATOM      8  C   UNL A   1      33.564  21.725  24.175  1.00  0.00     0.107 C 
BRANCH   8   9
ATOM      9  C   UNL A   1      33.514  20.261  24.583  1.00  0.00    -0.106 C 
ATOM     10  C   UNL A   1      33.472  19.006  24.933  1.00  0.00     0.004 C 
ENDBRANCH   8   9
ENDBRANCH   7   8
BRANCH   7  11
ATOM     11  C   UNL A   1      33.461  24.106  24.924  1.00  0.00    -0.034 A 
ATOM     12  C   UNL A   1      33.561  24.410  23.551  1.00  0.00     0.004 A 
ATOM     13  C   UNL A   1      33.437  25.172  25.834  1.00  0.00     0.020 A 
ATOM     14  C   UNL A   1      33.739  25.721  23.106  1.00  0.00     0.001 A 
ATOM     15  C   UNL A   1      33.574  26.489  25.377  1.00  0.00     0.018 A 
ATOM     16  C   UNL A   1      33.749  26.765  24.022  1.00  0.00     0.016 A 
ATOM     17  Br  UNL A   1      33.530  27.920  26.612  1.00  0.00    -0.051 Br
ENDBRANCH   7  11
ENDBRANCH   4   7
ENDBRANCH   2   3
ENDBRANCH   1   2
BRANCH   1  18
ATOM     18  C   UNL A   1      37.703  20.760  24.969  1.00  0.00     0.023 C 
BRANCH  18  19
ATOM     19  C   UNL A   1      39.009  20.881  25.738  1.00  0.00     0.116 C 
BRANCH  19  20
ATOM     20  N   UNL A   1      39.905  19.727  25.683  1.00  0.00    -0.352 N 
ATOM     21  C   UNL A   1      41.228  19.661  26.072  1.00  0.00     0.251 C 
ATOM     22  H   UNL A   1      39.517  18.895  25.327  1.00  0.00     0.163 HD
ATOM     23  O   UNL A   1      41.871  18.623  25.962  1.00  0.00    -0.269 OA
BRANCH  21  24
ATOM     24  C   UNL A   1      41.869  20.896  26.566  1.00  0.00     0.039 A 
ATOM     25  C   UNL A   1      42.243  21.890  25.660  1.00  0.00     0.014 A 
ATOM     26  C   UNL A   1      41.935  21.127  27.939  1.00  0.00     0.014 A 
ATOM     27  C   UNL A   1      42.571  23.160  26.138  1.00  0.00     0.010 A 
ATOM     28  C   UNL A   1      42.110  22.421  28.398  1.00  0.00     0.010 A 
ATOM     29  C   UNL A   1      42.443  23.452  27.506  1.00  0.00    -0.014 A 
BRANCH  29  30
ATOM     30  C   UNL A   1      42.682  24.811  28.053  1.00  0.00     0.031 A 
ATOM     31  C   UNL A   1      44.075  25.200  28.476  1.00  0.00     0.074 A 
ATOM     32  C   UNL A   1      41.650  25.650  28.272  1.00  0.00     0.049 A 
ATOM     33  N   UNL A   1      44.484  26.272  29.105  1.00  0.00    -0.248 NA
ATOM     34  C   UNL A   1      45.143  24.218  28.217  1.00  0.00     0.031 C 
ATOM     35  C   UNL A   1      40.240  25.361  27.997  1.00  0.00     0.029 A 
ATOM     36  N   UNL A   1      41.631  26.921  28.786  1.00  0.00    -0.354 N 
ATOM     37  C   UNL A   1      45.832  26.060  29.365  1.00  0.00     0.074 A 
ATOM     38  C   UNL A   1      46.155  24.734  28.895  1.00  0.00     0.031 C 
ATOM     39  C   UNL A   1      39.502  26.443  28.297  1.00  0.00     0.029 A 
ATOM     40  C   UNL A   1      40.379  27.488  28.813  1.00  0.00     0.049 A 
ATOM     41  H   UNL A   1      42.439  27.385  29.105  1.00  0.00     0.167 HD
ATOM     42  C   UNL A   1      46.734  26.911  29.906  1.00  0.00     0.037 A 
ATOM     43  C   UNL A   1      39.993  28.720  29.196  1.00  0.00     0.037 A 
ATOM     44  C   UNL A   1      46.431  28.265  30.276  1.00  0.00     0.049 A 
ATOM     45  C   UNL A   1      41.033  29.690  29.682  1.00  0.00     0.074 A 
ATOM     46  C   UNL A   1      47.286  29.248  30.741  1.00  0.00     0.029 A 
ATOM     47  N   UNL A   1      45.169  28.834  30.193  1.00  0.00    -0.354 N 
ATOM     48  N   UNL A   1      42.320  29.506  29.857  1.00  0.00    -0.248 NA
ATOM     49  C   UNL A   1      40.571  31.047  30.008  1.00  0.00     0.031 C 
ATOM     50  C   UNL A   1      46.537  30.412  30.947  1.00  0.00     0.029 A 
ATOM     51  C   UNL A   1      45.223  30.159  30.586  1.00  0.00     0.049 A 
ATOM     52  H   UNL A   1      44.356  28.365  29.898  1.00  0.00     0.167 HD
ATOM     53  C   UNL A   1      42.826  30.728  30.274  1.00  0.00     0.074 A 
ATOM     54  C   UNL A   1      41.710  31.650  30.321  1.00  0.00     0.031 C 
ATOM     55  C   UNL A   1      44.102  31.061  30.591  1.00  0.00     0.037 A 
BRANCH  42  56
ATOM     56  C   UNL A   1      48.134  26.402  30.090  1.00  0.00     0.057 A 
ATOM     57  C   UNL A   1      49.097  26.503  29.076  1.00  0.00     0.134 A 
ATOM     58  C   UNL A   1      48.520  25.788  31.287  1.00  0.00     0.134 A 
ATOM     59  F   UNL A   1      48.786  27.063  27.896  1.00  0.00    -0.206 F 
ATOM     60  C   UNL A   1      50.380  25.977  29.230  1.00  0.00     0.040 A 
ATOM     61  C   UNL A   1      49.810  25.285  31.465  1.00  0.00     0.040 A 
ATOM     62  F   UNL A   1      47.649  25.659  32.299  1.00  0.00    -0.206 F 
ATOM     63  C   UNL A   1      50.740  25.368  30.430  1.00  0.00     0.006 A 
ENDBRANCH  42  56
BRANCH  43  64
ATOM     64  C   UNL A   1      38.575  29.138  29.055  1.00  0.00     0.057 A 
ATOM     65  C   UNL A   1      38.089  29.606  27.828  1.00  0.00     0.134 A 
ATOM     66  C   UNL A   1      37.680  29.091  30.129  1.00  0.00     0.134 A 
ATOM     67  F   UNL A   1      38.905  29.687  26.767  1.00  0.00    -0.206 F 
ATOM     68  C   UNL A   1      36.771  30.038  27.679  1.00  0.00     0.040 A 
ATOM     69  C   UNL A   1      36.352  29.500  29.989  1.00  0.00     0.040 A 
ATOM     70  F   UNL A   1      38.081  28.642  31.326  1.00  0.00    -0.206 F 
ATOM     71  C   UNL A   1      35.897  29.983  28.762  1.00  0.00     0.006 A 
ENDBRANCH  43  64
BRANCH  55  72
ATOM     72  C   UNL A   1      44.364  32.490  30.956  1.00  0.00     0.057 A 
ATOM     73  C   UNL A   1      44.673  33.455  29.990  1.00  0.00     0.134 A 
ATOM     74  C   UNL A   1      44.264  32.909  32.288  1.00  0.00     0.134 A 
ATOM     75  F   UNL A   1      44.793  33.111  28.699  1.00  0.00    -0.206 F 
ATOM     76  C   UNL A   1      44.896  34.787  30.341  1.00  0.00     0.040 A 
ATOM     77  C   UNL A   1      44.461  34.242  32.648  1.00  0.00     0.040 A 
ATOM     78  F   UNL A   1      43.961  32.032  33.258  1.00  0.00    -0.206 F 
ATOM     79  C   UNL A   1      44.783  35.184  31.673  1.00  0.00     0.006 A 
ENDBRANCH  55  72
ENDBRANCH  29  30
ENDBRANCH  21  24
ENDBRANCH  19  20
ENDBRANCH  18  19
ENDBRANCH   1  18
TORSDOF 14
ENDMDL
