MODEL 1
REMARK VINA RESULT:     -10.9      0.000      0.000
REMARK SMILES C#CCN(CC(=O)NCCCCNC(=O)c1ccc(-c2c3nc(c(-c4c(F)cccc4F)c4ccc([nH]4)c(-c4c(F)cccc4F)c4nc(c(-c5c(F)cccc5F)c5ccc2[nH]5)C=C4)C=C3)cc1)C(=O)[C@H](c1ccc(Cl)cc1)C(C)C
REMARK SMILES IDX 9 1 8 2 6 3 7 4 5 6 4 7 3 8 2 9 1 10 70 11 71 12 72 13 80 14
REMARK SMILES IDX 81 15 82 16 73 17 74 18 79 19 75 20 78 21 76 22 77 23 10 24
REMARK SMILES IDX 11 25 12 26 13 27 14 28 15 30 16 31 17 32 69 33 18 34 68 35
REMARK SMILES IDX 19 36 20 37 21 38 62 39 22 40 67 41 61 42 63 43 23 44 66 45
REMARK SMILES IDX 60 46 59 47 24 49 50 50 33 51 49 52 34 53 37 54 48 55 64 56
REMARK SMILES IDX 35 57 36 58 47 60 65 61 38 62 25 63 26 64 31 65 27 66 28 67
REMARK SMILES IDX 30 68 32 69 29 70 51 71 52 72 57 73 53 74 54 75 56 76 58 77
REMARK SMILES IDX 55 78 39 79 40 80 45 81 41 82 42 83 44 84 46 85 43 86
REMARK H PARENT 8 5 13 29 63 48 37 59
REMARK Flexibility Score: inf
ROOT
ATOM      1  C   UNL A   1      36.599  22.192  25.816  1.00  0.00     0.116 C 
ENDROOT
BRANCH   1   2
ATOM      2  N   UNL A   1      35.606  21.482  26.589  1.00  0.00    -0.355 N 
ATOM      3  C   UNL A   1      34.387  21.917  27.017  1.00  0.00     0.239 C 
ATOM      4  O   UNL A   1      33.605  21.075  27.468  1.00  0.00    -0.273 OA
ATOM      5  H   UNL A   1      35.842  20.560  26.841  1.00  0.00     0.163 HD
BRANCH   3   6
ATOM      6  C   UNL A   1      33.972  23.392  26.883  1.00  0.00     0.220 C 
BRANCH   6   7
ATOM      7  N   UNL A   1      32.797  23.621  26.029  1.00  0.00    -0.322 N 
BRANCH   7   8
ATOM      8  C   UNL A   1      32.649  22.776  24.858  1.00  0.00     0.209 C 
BRANCH   8   9
ATOM      9  C   UNL A   1      33.614  23.072  23.720  1.00  0.00    -0.085 C 
ATOM     10  C   UNL A   1      34.441  23.327  22.745  1.00  0.00     0.006 C 
ENDBRANCH   8   9
ENDBRANCH   7   8
BRANCH   7  11
ATOM     11  C   UNL A   1      31.828  24.605  26.257  1.00  0.00     0.231 C 
ATOM     12  O   UNL A   1      31.026  24.492  27.187  1.00  0.00    -0.274 OA
BRANCH  11  13
ATOM     13  C   UNL A   1      31.819  25.863  25.343  1.00  0.00     0.111 C 
BRANCH  13  14
ATOM     14  C   UNL A   1      30.427  26.204  24.726  1.00  0.00    -0.000 C 
ATOM     15  C   UNL A   1      30.497  27.493  23.887  1.00  0.00     0.008 C 
ATOM     16  C   UNL A   1      29.901  25.090  23.805  1.00  0.00     0.008 C 
ENDBRANCH  13  14
BRANCH  13  17
ATOM     17  C   UNL A   1      32.418  27.045  26.109  1.00  0.00    -0.035 A 
ATOM     18  C   UNL A   1      33.764  27.411  25.942  1.00  0.00     0.006 A 
ATOM     19  C   UNL A   1      31.590  27.851  26.910  1.00  0.00     0.006 A 
ATOM     20  C   UNL A   1      34.250  28.595  26.500  1.00  0.00     0.021 A 
ATOM     21  C   UNL A   1      32.080  29.028  27.477  1.00  0.00     0.021 A 
ATOM     22  C   UNL A   1      33.403  29.405  27.254  1.00  0.00     0.041 A 
ATOM     23  Cl  UNL A   1      33.987  30.892  27.891  1.00  0.00    -0.084 Cl
ENDBRANCH  13  17
ENDBRANCH  11  13
ENDBRANCH   7  11
ENDBRANCH   6   7
ENDBRANCH   3   6
ENDBRANCH   1   2
BRANCH   1  24
ATOM     24  C   UNL A   1      37.106  21.386  24.622  1.00  0.00     0.023 C 
BRANCH  24  25
ATOM     25  C   UNL A   1      37.919  20.139  24.970  1.00  0.00     0.023 C 
BRANCH  25  26
ATOM     26  C   UNL A   1      39.200  20.389  25.754  1.00  0.00     0.116 C 
BRANCH  26  27
ATOM     27  N   UNL A   1      40.086  19.237  25.815  1.00  0.00    -0.352 N 
ATOM     28  C   UNL A   1      41.425  19.207  26.125  1.00  0.00     0.251 C 
ATOM     29  H   UNL A   1      39.675  18.367  25.607  1.00  0.00     0.163 HD
ATOM     30  O   UNL A   1      42.052  18.157  26.083  1.00  0.00    -0.269 OA
BRANCH  28  31
ATOM     31  C   UNL A   1      42.110  20.472  26.455  1.00  0.00     0.039 A 
ATOM     32  C   UNL A   1      42.596  21.260  25.410  1.00  0.00     0.014 A 
ATOM     33  C   UNL A   1      42.212  20.905  27.780  1.00  0.00     0.014 A 
ATOM     34  C   UNL A   1      43.119  22.522  25.688  1.00  0.00     0.010 A 
ATOM     35  C   UNL A   1      42.667  22.191  28.047  1.00  0.00     0.010 A 
ATOM     36  C   UNL A   1      43.120  23.011  27.004  1.00  0.00    -0.014 A 
BRANCH  36  37
ATOM     37  C   UNL A   1      43.580  24.387  27.309  1.00  0.00     0.031 A 
ATOM     38  C   UNL A   1      42.591  25.437  27.723  1.00  0.00     0.074 A 
ATOM     39  C   UNL A   1      44.875  24.709  27.127  1.00  0.00     0.049 A 
ATOM     40  N   UNL A   1      42.786  26.708  27.960  1.00  0.00    -0.248 NA
ATOM     41  C   UNL A   1      41.189  25.008  27.853  1.00  0.00     0.031 C 
ATOM     42  C   UNL A   1      45.918  23.794  26.662  1.00  0.00     0.029 A 
ATOM     43  N   UNL A   1      45.530  25.902  27.296  1.00  0.00    -0.354 N 
ATOM     44  C   UNL A   1      41.533  27.234  28.246  1.00  0.00     0.074 A 
ATOM     45  C   UNL A   1      40.579  26.156  28.104  1.00  0.00     0.031 C 
ATOM     46  C   UNL A   1      47.084  24.454  26.597  1.00  0.00     0.029 A 
ATOM     47  C   UNL A   1      46.866  25.845  26.986  1.00  0.00     0.049 A 
ATOM     48  H   UNL A   1      45.084  26.723  27.610  1.00  0.00     0.167 HD
ATOM     49  C   UNL A   1      41.210  28.497  28.614  1.00  0.00     0.037 A 
ATOM     50  C   UNL A   1      47.809  26.805  27.006  1.00  0.00     0.037 A 
ATOM     51  C   UNL A   1      42.168  29.557  28.786  1.00  0.00     0.049 A 
ATOM     52  C   UNL A   1      47.434  28.192  27.447  1.00  0.00     0.074 A 
ATOM     53  C   UNL A   1      41.957  30.845  29.245  1.00  0.00     0.029 A 
ATOM     54  N   UNL A   1      43.522  29.451  28.500  1.00  0.00    -0.354 N 
ATOM     55  N   UNL A   1      46.260  28.656  27.802  1.00  0.00    -0.248 NA
ATOM     56  C   UNL A   1      48.515  29.186  27.497  1.00  0.00     0.031 C 
ATOM     57  C   UNL A   1      43.175  31.531  29.195  1.00  0.00     0.029 A 
ATOM     58  C   UNL A   1      44.154  30.658  28.746  1.00  0.00     0.049 A 
ATOM     59  H   UNL A   1      43.967  28.637  28.169  1.00  0.00     0.167 HD
ATOM     60  C   UNL A   1      46.463  29.988  28.135  1.00  0.00     0.074 A 
ATOM     61  C   UNL A   1      47.876  30.254  27.954  1.00  0.00     0.031 C 
ATOM     62  C   UNL A   1      45.560  30.907  28.556  1.00  0.00     0.037 A 
BRANCH  49  63
ATOM     63  C   UNL A   1      39.759  28.792  28.852  1.00  0.00     0.057 A 
ATOM     64  C   UNL A   1      39.175  28.668  30.120  1.00  0.00     0.134 A 
ATOM     65  C   UNL A   1      38.935  29.211  27.800  1.00  0.00     0.134 A 
ATOM     66  F   UNL A   1      39.905  28.257  31.167  1.00  0.00    -0.206 F 
ATOM     67  C   UNL A   1      37.816  28.915  30.325  1.00  0.00     0.040 A 
ATOM     68  C   UNL A   1      37.581  29.489  28.000  1.00  0.00     0.040 A 
ATOM     69  F   UNL A   1      39.430  29.357  26.562  1.00  0.00    -0.206 F 
ATOM     70  C   UNL A   1      37.016  29.331  29.264  1.00  0.00     0.006 A 
ENDBRANCH  49  63
BRANCH  50  71
ATOM     71  C   UNL A   1      49.202  26.472  26.623  1.00  0.00     0.057 A 
ATOM     72  C   UNL A   1      50.089  25.910  27.548  1.00  0.00     0.134 A 
ATOM     73  C   UNL A   1      49.671  26.681  25.320  1.00  0.00     0.134 A 
ATOM     74  F   UNL A   1      49.701  25.701  28.814  1.00  0.00    -0.206 F 
ATOM     75  C   UNL A   1      51.397  25.573  27.193  1.00  0.00     0.040 A 
ATOM     76  C   UNL A   1      50.969  26.331  24.946  1.00  0.00     0.040 A 
ATOM     77  F   UNL A   1      48.865  27.208  24.387  1.00  0.00    -0.206 F 
ATOM     78  C   UNL A   1      51.838  25.777  25.887  1.00  0.00     0.006 A 
ENDBRANCH  50  71
BRANCH  62  79
ATOM     79  C   UNL A   1      46.075  32.282  28.862  1.00  0.00     0.057 A 
ATOM     80  C   UNL A   1      46.097  33.294  27.894  1.00  0.00     0.134 A 
ATOM     81  C   UNL A   1      46.513  32.609  30.152  1.00  0.00     0.134 A 
ATOM     82  F   UNL A   1      45.703  33.041  26.637  1.00  0.00    -0.206 F 
ATOM     83  C   UNL A   1      46.552  34.578  28.194  1.00  0.00     0.040 A 
ATOM     84  C   UNL A   1      46.947  33.896  30.469  1.00  0.00     0.040 A 
ATOM     85  F   UNL A   1      46.509  31.687  31.126  1.00  0.00    -0.206 F 
ATOM     86  C   UNL A   1      46.973  34.884  29.487  1.00  0.00     0.006 A 
ENDBRANCH  62  79
ENDBRANCH  36  37
ENDBRANCH  28  31
ENDBRANCH  26  27
ENDBRANCH  25  26
ENDBRANCH  24  25
ENDBRANCH   1  24
TORSDOF 18
ENDMDL
MODEL 2
REMARK VINA RESULT:     -10.9      0.766      6.300
REMARK SMILES C#CCN(CC(=O)NCCCCNC(=O)c1ccc(-c2c3nc(c(-c4c(F)cccc4F)c4ccc([nH]4)c(-c4c(F)cccc4F)c4nc(c(-c5c(F)cccc5F)c5ccc2[nH]5)C=C4)C=C3)cc1)C(=O)[C@H](c1ccc(Cl)cc1)C(C)C
REMARK SMILES IDX 9 1 8 2 6 3 7 4 5 6 4 7 3 8 2 9 1 10 70 11 71 12 72 13 80 14
REMARK SMILES IDX 81 15 82 16 73 17 74 18 79 19 75 20 78 21 76 22 77 23 10 24
REMARK SMILES IDX 11 25 12 26 13 27 14 28 15 30 16 31 17 32 69 33 18 34 68 35
REMARK SMILES IDX 19 36 20 37 21 38 62 39 22 40 67 41 61 42 63 43 23 44 66 45
REMARK SMILES IDX 60 46 59 47 24 49 50 50 33 51 49 52 34 53 37 54 48 55 64 56
REMARK SMILES IDX 35 57 36 58 47 60 65 61 38 62 25 63 26 64 31 65 27 66 28 67
REMARK SMILES IDX 30 68 32 69 29 70 51 71 52 72 57 73 53 74 54 75 56 76 58 77
REMARK SMILES IDX 55 78 39 79 40 80 45 81 41 82 42 83 44 84 46 85 43 86
REMARK H PARENT 8 5 13 29 63 48 37 59
REMARK Flexibility Score: inf
ROOT
ATOM      1  C   UNL A   1      36.589  22.158  25.624  1.00  0.00     0.116 C 
ENDROOT
BRANCH   1   2
ATOM      2  N   UNL A   1      35.681  21.560  26.575  1.00  0.00    -0.355 N 
ATOM      3  C   UNL A   1      34.498  22.046  27.047  1.00  0.00     0.239 C 
ATOM      4  O   UNL A   1      33.773  21.272  27.678  1.00  0.00    -0.273 OA
ATOM      5  H   UNL A   1      35.954  20.683  26.930  1.00  0.00     0.163 HD
BRANCH   3   6
ATOM      6  C   UNL A   1      34.048  23.485  26.747  1.00  0.00     0.220 C 
BRANCH   6   7
ATOM      7  N   UNL A   1      32.779  23.589  26.010  1.00  0.00    -0.322 N 
BRANCH   7   8
ATOM      8  C   UNL A   1      32.523  22.595  24.982  1.00  0.00     0.209 C 
BRANCH   8   9
ATOM      9  C   UNL A   1      33.093  22.920  23.611  1.00  0.00    -0.085 C 
ATOM     10  C   UNL A   1      33.582  23.199  22.435  1.00  0.00     0.006 C 
ENDBRANCH   8   9
ENDBRANCH   7   8
BRANCH   7  11
ATOM     11  C   UNL A   1      31.819  24.584  26.217  1.00  0.00     0.231 C 
ATOM     12  O   UNL A   1      31.018  24.499  27.151  1.00  0.00    -0.274 OA
BRANCH  11  13
ATOM     13  C   UNL A   1      31.816  25.822  25.275  1.00  0.00     0.111 C 
BRANCH  13  14
ATOM     14  C   UNL A   1      30.434  26.133  24.621  1.00  0.00    -0.000 C 
ATOM     15  C   UNL A   1      30.510  27.403  23.753  1.00  0.00     0.008 C 
ATOM     16  C   UNL A   1      29.941  24.993  23.714  1.00  0.00     0.008 C 
ENDBRANCH  13  14
BRANCH  13  17
ATOM     17  C   UNL A   1      32.386  27.027  26.026  1.00  0.00    -0.035 A 
ATOM     18  C   UNL A   1      33.697  27.475  25.792  1.00  0.00     0.006 A 
ATOM     19  C   UNL A   1      31.557  27.772  26.884  1.00  0.00     0.006 A 
ATOM     20  C   UNL A   1      34.142  28.679  26.342  1.00  0.00     0.021 A 
ATOM     21  C   UNL A   1      32.008  28.968  27.443  1.00  0.00     0.021 A 
ATOM     22  C   UNL A   1      33.292  29.426  27.155  1.00  0.00     0.041 A 
ATOM     23  Cl  UNL A   1      33.822  30.937  27.782  1.00  0.00    -0.084 Cl
ENDBRANCH  13  17
ENDBRANCH  11  13
ENDBRANCH   7  11
ENDBRANCH   6   7
ENDBRANCH   3   6
ENDBRANCH   1   2
BRANCH   1  24
ATOM     24  C   UNL A   1      37.026  21.186  24.530  1.00  0.00     0.023 C 
BRANCH  24  25
ATOM     25  C   UNL A   1      37.850  19.990  25.005  1.00  0.00     0.023 C 
BRANCH  25  26
ATOM     26  C   UNL A   1      39.108  20.332  25.792  1.00  0.00     0.116 C 
BRANCH  26  27
ATOM     27  N   UNL A   1      40.086  19.254  25.834  1.00  0.00    -0.352 N 
ATOM     28  C   UNL A   1      41.420  19.326  26.158  1.00  0.00     0.251 C 
ATOM     29  H   UNL A   1      39.749  18.360  25.600  1.00  0.00     0.163 HD
ATOM     30  O   UNL A   1      42.131  18.332  26.098  1.00  0.00    -0.269 OA
BRANCH  28  31
ATOM     31  C   UNL A   1      41.995  20.635  26.528  1.00  0.00     0.039 A 
ATOM     32  C   UNL A   1      42.408  21.493  25.508  1.00  0.00     0.014 A 
ATOM     33  C   UNL A   1      42.064  21.032  27.866  1.00  0.00     0.014 A 
ATOM     34  C   UNL A   1      42.823  22.786  25.825  1.00  0.00     0.010 A 
ATOM     35  C   UNL A   1      42.409  22.343  28.173  1.00  0.00     0.010 A 
ATOM     36  C   UNL A   1      42.787  23.232  27.156  1.00  0.00    -0.014 A 
BRANCH  36  37
ATOM     37  C   UNL A   1      43.128  24.632  27.504  1.00  0.00     0.031 A 
ATOM     38  C   UNL A   1      44.564  25.070  27.541  1.00  0.00     0.074 A 
ATOM     39  C   UNL A   1      42.150  25.482  27.870  1.00  0.00     0.049 A 
ATOM     40  N   UNL A   1      45.066  26.225  27.891  1.00  0.00    -0.248 NA
ATOM     41  C   UNL A   1      45.570  24.063  27.168  1.00  0.00     0.031 C 
ATOM     42  C   UNL A   1      40.726  25.154  27.940  1.00  0.00     0.029 A 
ATOM     43  N   UNL A   1      42.210  26.792  28.270  1.00  0.00    -0.354 N 
ATOM     44  C   UNL A   1      46.443  26.079  27.802  1.00  0.00     0.074 A 
ATOM     45  C   UNL A   1      46.699  24.709  27.414  1.00  0.00     0.031 C 
ATOM     46  C   UNL A   1      40.045  26.237  28.344  1.00  0.00     0.029 A 
ATOM     47  C   UNL A   1      40.986  27.326  28.589  1.00  0.00     0.049 A 
ATOM     48  H   UNL A   1      43.051  27.302  28.324  1.00  0.00     0.167 HD
ATOM     49  C   UNL A   1      47.407  27.008  28.006  1.00  0.00     0.037 A 
ATOM     50  C   UNL A   1      40.659  28.553  29.036  1.00  0.00     0.037 A 
ATOM     51  C   UNL A   1      47.145  28.378  28.360  1.00  0.00     0.049 A 
ATOM     52  C   UNL A   1      41.741  29.578  29.226  1.00  0.00     0.074 A 
ATOM     53  C   UNL A   1      48.044  29.421  28.499  1.00  0.00     0.029 A 
ATOM     54  N   UNL A   1      45.887  28.894  28.637  1.00  0.00    -0.354 N 
ATOM     55  N   UNL A   1      43.035  29.453  29.052  1.00  0.00    -0.248 NA
ATOM     56  C   UNL A   1      41.319  30.915  29.666  1.00  0.00     0.031 C 
ATOM     57  C   UNL A   1      47.335  30.557  28.902  1.00  0.00     0.029 A 
ATOM     58  C   UNL A   1      45.989  30.234  28.973  1.00  0.00     0.049 A 
ATOM     59  H   UNL A   1      45.046  28.383  28.601  1.00  0.00     0.167 HD
ATOM     60  C   UNL A   1      43.579  30.697  29.342  1.00  0.00     0.074 A 
ATOM     61  C   UNL A   1      42.473  31.566  29.690  1.00  0.00     0.031 C 
ATOM     62  C   UNL A   1      44.878  31.084  29.321  1.00  0.00     0.037 A 
BRANCH  49  63
ATOM     63  C   UNL A   1      48.832  26.565  27.850  1.00  0.00     0.057 A 
ATOM     64  C   UNL A   1      49.471  26.548  26.603  1.00  0.00     0.134 A 
ATOM     65  C   UNL A   1      49.576  26.153  28.962  1.00  0.00     0.134 A 
ATOM     66  F   UNL A   1      48.810  26.916  25.495  1.00  0.00    -0.206 F 
ATOM     67  C   UNL A   1      50.787  26.104  26.463  1.00  0.00     0.040 A 
ATOM     68  C   UNL A   1      50.903  25.734  28.839  1.00  0.00     0.040 A 
ATOM     69  F   UNL A   1      49.028  26.149  30.186  1.00  0.00    -0.206 F 
ATOM     70  C   UNL A   1      51.508  25.700  27.584  1.00  0.00     0.006 A 
ENDBRANCH  49  63
BRANCH  50  71
ATOM     71  C   UNL A   1      39.237  28.881  29.303  1.00  0.00     0.057 A 
ATOM     72  C   UNL A   1      38.414  29.391  28.294  1.00  0.00     0.134 A 
ATOM     73  C   UNL A   1      38.663  28.665  30.561  1.00  0.00     0.134 A 
ATOM     74  F   UNL A   1      38.912  29.632  27.073  1.00  0.00    -0.206 F 
ATOM     75  C   UNL A   1      37.068  29.683  28.528  1.00  0.00     0.040 A 
ATOM     76  C   UNL A   1      37.315  28.934  30.804  1.00  0.00     0.040 A 
ATOM     77  F   UNL A   1      39.399  28.169  31.566  1.00  0.00    -0.206 F 
ATOM     78  C   UNL A   1      36.514  29.448  29.785  1.00  0.00     0.006 A 
ENDBRANCH  50  71
BRANCH  62  79
ATOM     79  C   UNL A   1      45.173  32.512  29.670  1.00  0.00     0.057 A 
ATOM     80  C   UNL A   1      45.500  32.900  30.975  1.00  0.00     0.134 A 
ATOM     81  C   UNL A   1      45.171  33.503  28.680  1.00  0.00     0.134 A 
ATOM     82  F   UNL A   1      45.507  32.000  31.971  1.00  0.00    -0.206 F 
ATOM     83  C   UNL A   1      45.799  34.226  31.287  1.00  0.00     0.040 A 
ATOM     84  C   UNL A   1      45.492  34.828  28.975  1.00  0.00     0.040 A 
ATOM     85  F   UNL A   1      44.874  33.195  27.409  1.00  0.00    -0.206 F 
ATOM     86  C   UNL A   1      45.802  35.194  30.284  1.00  0.00     0.006 A 
ENDBRANCH  62  79
ENDBRANCH  36  37
ENDBRANCH  28  31
ENDBRANCH  26  27
ENDBRANCH  25  26
ENDBRANCH  24  25
ENDBRANCH   1  24
TORSDOF 18
ENDMDL
MODEL 3
REMARK VINA RESULT:     -10.9      2.180      7.062
REMARK SMILES C#CCN(CC(=O)NCCCCNC(=O)c1ccc(-c2c3nc(c(-c4c(F)cccc4F)c4ccc([nH]4)c(-c4c(F)cccc4F)c4nc(c(-c5c(F)cccc5F)c5ccc2[nH]5)C=C4)C=C3)cc1)C(=O)[C@H](c1ccc(Cl)cc1)C(C)C
REMARK SMILES IDX 9 1 8 2 6 3 7 4 5 6 4 7 3 8 2 9 1 10 70 11 71 12 72 13 80 14
REMARK SMILES IDX 81 15 82 16 73 17 74 18 79 19 75 20 78 21 76 22 77 23 10 24
REMARK SMILES IDX 11 25 12 26 13 27 14 28 15 30 16 31 17 32 69 33 18 34 68 35
REMARK SMILES IDX 19 36 20 37 21 38 62 39 22 40 67 41 61 42 63 43 23 44 66 45
REMARK SMILES IDX 60 46 59 47 24 49 50 50 33 51 49 52 34 53 37 54 48 55 64 56
REMARK SMILES IDX 35 57 36 58 47 60 65 61 38 62 25 63 26 64 31 65 27 66 28 67
REMARK SMILES IDX 30 68 32 69 29 70 51 71 52 72 57 73 53 74 54 75 56 76 58 77
REMARK SMILES IDX 55 78 39 79 40 80 45 81 41 82 42 83 44 84 46 85 43 86
REMARK H PARENT 8 5 13 29 63 48 37 59
REMARK Flexibility Score: inf
ROOT
ATOM      1  C   UNL A   1      37.705  22.150  25.433  1.00  0.00     0.116 C 
ENDROOT
BRANCH   1   2
ATOM      2  N   UNL A   1      36.615  22.512  26.310  1.00  0.00    -0.355 N 
ATOM      3  C   UNL A   1      35.582  23.370  26.077  1.00  0.00     0.239 C 
ATOM      4  O   UNL A   1      34.640  23.361  26.874  1.00  0.00    -0.273 OA
ATOM      5  H   UNL A   1      36.621  22.082  27.195  1.00  0.00     0.163 HD
BRANCH   3   6
ATOM      6  C   UNL A   1      35.555  24.269  24.830  1.00  0.00     0.220 C 
BRANCH   6   7
ATOM      7  N   UNL A   1      34.246  24.350  24.163  1.00  0.00    -0.322 N 
BRANCH   7   8
ATOM      8  C   UNL A   1      33.597  25.649  24.126  1.00  0.00     0.209 C 
BRANCH   8   9
ATOM      9  C   UNL A   1      32.879  26.051  25.404  1.00  0.00    -0.085 C 
ATOM     10  C   UNL A   1      32.263  26.395  26.500  1.00  0.00     0.006 C 
ENDBRANCH   8   9
ENDBRANCH   7   8
BRANCH   7  11
ATOM     11  C   UNL A   1      33.581  23.265  23.582  1.00  0.00     0.231 C 
ATOM     12  O   UNL A   1      33.692  23.033  22.376  1.00  0.00    -0.274 OA
BRANCH  11  13
ATOM     13  C   UNL A   1      32.741  22.332  24.500  1.00  0.00     0.111 C 
BRANCH  13  14
ATOM     14  C   UNL A   1      31.207  22.616  24.479  1.00  0.00    -0.000 C 
ATOM     15  C   UNL A   1      30.712  23.070  25.864  1.00  0.00     0.008 C 
ATOM     16  C   UNL A   1      30.825  23.718  23.477  1.00  0.00     0.008 C 
ENDBRANCH  13  14
BRANCH  13  17
ATOM     17  C   UNL A   1      33.065  20.874  24.166  1.00  0.00    -0.035 A 
ATOM     18  C   UNL A   1      34.106  20.193  24.820  1.00  0.00     0.006 A 
ATOM     19  C   UNL A   1      32.245  20.163  23.273  1.00  0.00     0.006 A 
ATOM     20  C   UNL A   1      34.273  18.819  24.644  1.00  0.00     0.021 A 
ATOM     21  C   UNL A   1      32.421  18.791  23.088  1.00  0.00     0.021 A 
ATOM     22  C   UNL A   1      33.423  18.121  23.788  1.00  0.00     0.041 A 
ATOM     23  Cl  UNL A   1      33.593  16.418  23.618  1.00  0.00    -0.084 Cl
ENDBRANCH  13  17
ENDBRANCH  11  13
ENDBRANCH   7  11
ENDBRANCH   6   7
ENDBRANCH   3   6
ENDBRANCH   1   2
BRANCH   1  24
ATOM     24  C   UNL A   1      37.436  20.863  24.656  1.00  0.00     0.023 C 
BRANCH  24  25
ATOM     25  C   UNL A   1      38.281  19.658  25.071  1.00  0.00     0.023 C 
BRANCH  25  26
ATOM     26  C   UNL A   1      39.529  19.979  25.881  1.00  0.00     0.116 C 
BRANCH  26  27
ATOM     27  N   UNL A   1      40.527  18.920  25.867  1.00  0.00    -0.352 N 
ATOM     28  C   UNL A   1      41.875  19.016  26.119  1.00  0.00     0.251 C 
ATOM     29  H   UNL A   1      40.195  18.020  25.650  1.00  0.00     0.163 HD
ATOM     30  O   UNL A   1      42.600  18.035  26.018  1.00  0.00    -0.269 OA
BRANCH  28  31
ATOM     31  C   UNL A   1      42.446  20.334  26.460  1.00  0.00     0.039 A 
ATOM     32  C   UNL A   1      43.047  21.083  25.446  1.00  0.00     0.014 A 
ATOM     33  C   UNL A   1      42.329  20.851  27.753  1.00  0.00     0.014 A 
ATOM     34  C   UNL A   1      43.466  22.386  25.711  1.00  0.00     0.010 A 
ATOM     35  C   UNL A   1      42.681  22.173  27.996  1.00  0.00     0.010 A 
ATOM     36  C   UNL A   1      43.248  22.952  26.977  1.00  0.00    -0.014 A 
BRANCH  36  37
ATOM     37  C   UNL A   1      43.596  24.367  27.253  1.00  0.00     0.031 A 
ATOM     38  C   UNL A   1      45.022  24.824  27.160  1.00  0.00     0.074 A 
ATOM     39  C   UNL A   1      42.638  25.216  27.670  1.00  0.00     0.049 A 
ATOM     40  N   UNL A   1      45.533  25.997  27.432  1.00  0.00    -0.248 NA
ATOM     41  C   UNL A   1      46.011  23.818  26.739  1.00  0.00     0.031 C 
ATOM     42  C   UNL A   1      41.228  24.872  27.865  1.00  0.00     0.029 A 
ATOM     43  N   UNL A   1      42.709  26.539  28.023  1.00  0.00    -0.354 N 
ATOM     44  C   UNL A   1      46.902  25.865  27.237  1.00  0.00     0.074 A 
ATOM     45  C   UNL A   1      47.146  24.486  26.872  1.00  0.00     0.031 C 
ATOM     46  C   UNL A   1      40.565  25.960  28.288  1.00  0.00     0.029 A 
ATOM     47  C   UNL A   1      41.507  27.068  28.423  1.00  0.00     0.049 A 
ATOM     48  H   UNL A   1      43.544  27.061  27.993  1.00  0.00     0.167 HD
ATOM     49  C   UNL A   1      47.864  26.812  27.333  1.00  0.00     0.037 A 
ATOM     50  C   UNL A   1      41.198  28.305  28.856  1.00  0.00     0.037 A 
ATOM     51  C   UNL A   1      47.611  28.190  27.664  1.00  0.00     0.049 A 
ATOM     52  C   UNL A   1      42.277  29.349  28.926  1.00  0.00     0.074 A 
ATOM     53  C   UNL A   1      48.502  29.247  27.698  1.00  0.00     0.029 A 
ATOM     54  N   UNL A   1      46.372  28.698  28.026  1.00  0.00    -0.354 N 
ATOM     55  N   UNL A   1      43.554  29.234  28.652  1.00  0.00    -0.248 NA
ATOM     56  C   UNL A   1      41.871  30.693  29.357  1.00  0.00     0.031 C 
ATOM     57  C   UNL A   1      47.811  30.387  28.121  1.00  0.00     0.029 A 
ATOM     58  C   UNL A   1      46.479  30.049  28.310  1.00  0.00     0.049 A 
ATOM     59  H   UNL A   1      45.538  28.176  28.074  1.00  0.00     0.167 HD
ATOM     60  C   UNL A   1      44.101  30.494  28.859  1.00  0.00     0.074 A 
ATOM     61  C   UNL A   1      43.013  31.360  29.267  1.00  0.00     0.031 C 
ATOM     62  C   UNL A   1      45.388  30.896  28.721  1.00  0.00     0.037 A 
BRANCH  49  63
ATOM     63  C   UNL A   1      49.278  26.382  27.077  1.00  0.00     0.057 A 
ATOM     64  C   UNL A   1      49.826  26.366  25.787  1.00  0.00     0.134 A 
ATOM     65  C   UNL A   1      50.105  25.982  28.134  1.00  0.00     0.134 A 
ATOM     66  F   UNL A   1      49.084  26.724  24.729  1.00  0.00    -0.206 F 
ATOM     67  C   UNL A   1      51.134  25.935  25.554  1.00  0.00     0.040 A 
ATOM     68  C   UNL A   1      51.424  25.576  27.917  1.00  0.00     0.040 A 
ATOM     69  F   UNL A   1      49.647  25.978  29.394  1.00  0.00    -0.206 F 
ATOM     70  C   UNL A   1      51.937  25.541  26.622  1.00  0.00     0.006 A 
ENDBRANCH  49  63
BRANCH  50  71
ATOM     71  C   UNL A   1      39.798  28.623  29.226  1.00  0.00     0.057 A 
ATOM     72  C   UNL A   1      38.897  29.120  28.279  1.00  0.00     0.134 A 
ATOM     73  C   UNL A   1      39.321  28.410  30.526  1.00  0.00     0.134 A 
ATOM     74  F   UNL A   1      39.301  29.358  27.023  1.00  0.00    -0.206 F 
ATOM     75  C   UNL A   1      37.571  29.404  28.611  1.00  0.00     0.040 A 
ATOM     76  C   UNL A   1      37.993  28.671  30.867  1.00  0.00     0.040 A 
ATOM     77  F   UNL A   1      40.134  27.927  31.475  1.00  0.00    -0.206 F 
ATOM     78  C   UNL A   1      37.114  29.172  29.908  1.00  0.00     0.006 A 
ENDBRANCH  50  71
BRANCH  62  79
ATOM     79  C   UNL A   1      45.688  32.339  29.000  1.00  0.00     0.057 A 
ATOM     80  C   UNL A   1      45.581  33.319  28.006  1.00  0.00     0.134 A 
ATOM     81  C   UNL A   1      46.045  32.757  30.287  1.00  0.00     0.134 A 
ATOM     82  F   UNL A   1      45.255  32.981  26.748  1.00  0.00    -0.206 F 
ATOM     83  C   UNL A   1      45.835  34.663  28.279  1.00  0.00     0.040 A 
ATOM     84  C   UNL A   1      46.278  34.101  30.578  1.00  0.00     0.040 A 
ATOM     85  F   UNL A   1      46.156  31.868  31.286  1.00  0.00    -0.206 F 
ATOM     86  C   UNL A   1      46.178  35.058  29.571  1.00  0.00     0.006 A 
ENDBRANCH  62  79
ENDBRANCH  36  37
ENDBRANCH  28  31
ENDBRANCH  26  27
ENDBRANCH  25  26
ENDBRANCH  24  25
ENDBRANCH   1  24
TORSDOF 18
ENDMDL
