MODEL 1
REMARK VINA RESULT:     -12.2      0.000      0.000
REMARK SMILES O=C(C[C@H](Cc1ccc(Cl)cc1)C(=O)Nc1cc(Cl)ccc1Cl)NCCCCNC(=O)c1ccc(-c2c3nc(c(-c4c(F)cccc4F)c4ccc([nH]4)c(-c4c(F)cccc4F)c4nc(c(-c5c(F)cccc5F)c5ccc2[nH]5)C=C4)C=C3)cc1
REMARK SMILES IDX 26 1 25 2 24 3 1 4 2 5 3 7 4 8 13 9 14 10 15 11 16 13 17 14
REMARK SMILES IDX 22 15 18 16 21 17 23 18 19 19 20 20 5 21 6 22 7 23 12 24
REMARK SMILES IDX 8 25 11 26 9 27 10 28 27 29 28 30 29 31 30 32 31 34 32 35
REMARK SMILES IDX 33 36 85 37 34 38 84 39 35 40 36 41 37 42 78 43 38 44 83 45
REMARK SMILES IDX 77 46 79 47 39 48 82 49 76 50 75 51 40 53 66 54 49 55 65 56
REMARK SMILES IDX 50 57 53 58 64 59 80 60 51 61 52 62 63 64 81 65 54 66 41 67
REMARK SMILES IDX 42 68 47 69 43 70 44 71 46 72 48 73 45 74 67 75 68 76 73 77
REMARK SMILES IDX 69 78 70 79 72 80 74 81 71 82 55 83 56 84 61 85 57 86 58 87
REMARK SMILES IDX 60 88 62 89 59 90
REMARK H PARENT 24 6 15 12 29 33 79 52 53 63
REMARK Flexibility Score: inf
ROOT
ATOM      1  C   UNL A   1      36.736  21.104  24.686  1.00  0.00     0.023 C 
ENDROOT
BRANCH   1   2
ATOM      2  C   UNL A   1      36.876  22.255  25.675  1.00  0.00     0.116 C 
BRANCH   2   3
ATOM      3  N   UNL A   1      35.713  22.438  26.522  1.00  0.00    -0.356 N 
ATOM      4  O   UNL A   1      34.904  24.253  25.394  1.00  0.00    -0.275 OA
ATOM      5  C   UNL A   1      34.751  23.376  26.238  1.00  0.00     0.220 C 
ATOM      6  H   UNL A   1      35.610  21.874  27.324  1.00  0.00     0.163 HD
BRANCH   5   7
ATOM      7  C   UNL A   1      33.486  23.298  27.071  1.00  0.00     0.113 C 
BRANCH   7   8
ATOM      8  C   UNL A   1      32.203  22.739  26.423  1.00  0.00     0.092 C 
BRANCH   8   9
ATOM      9  C   UNL A   1      30.943  23.544  26.781  1.00  0.00     0.228 C 
ATOM     10  O   UNL A   1      30.022  22.971  27.376  1.00  0.00    -0.274 OA
ATOM     11  N   UNL A   1      30.799  24.879  26.572  1.00  0.00    -0.324 N 
ATOM     12  H   UNL A   1      30.022  25.276  27.029  1.00  0.00     0.169 HD
BRANCH  11  13
ATOM     13  C   UNL A   1      31.553  25.797  25.829  1.00  0.00     0.061 A 
ATOM     14  C   UNL A   1      32.513  26.605  26.437  1.00  0.00     0.048 A 
ATOM     15  C   UNL A   1      31.406  25.842  24.433  1.00  0.00     0.064 A 
ATOM     16  C   UNL A   1      33.223  27.538  25.677  1.00  0.00     0.043 A 
ATOM     17  C   UNL A   1      32.099  26.794  23.680  1.00  0.00     0.024 A 
ATOM     18  Cl  UNL A   1      30.308  24.785  23.617  1.00  0.00    -0.082 Cl
ATOM     19  Cl  UNL A   1      34.392  28.543  26.442  1.00  0.00    -0.084 Cl
ATOM     20  C   UNL A   1      32.995  27.659  24.308  1.00  0.00     0.022 A 
ENDBRANCH  11  13
ENDBRANCH   8   9
BRANCH   8  21
ATOM     21  C   UNL A   1      32.230  22.287  24.959  1.00  0.00     0.049 C 
BRANCH  21  22
ATOM     22  C   UNL A   1      32.596  20.849  24.639  1.00  0.00    -0.047 A 
ATOM     23  C   UNL A   1      33.259  19.982  25.518  1.00  0.00     0.005 A 
ATOM     24  C   UNL A   1      32.227  20.357  23.374  1.00  0.00     0.005 A 
ATOM     25  C   UNL A   1      33.536  18.662  25.148  1.00  0.00     0.021 A 
ATOM     26  C   UNL A   1      32.498  19.037  23.005  1.00  0.00     0.021 A 
ATOM     27  C   UNL A   1      33.153  18.194  23.896  1.00  0.00     0.041 A 
ATOM     28  Cl  UNL A   1      33.483  16.568  23.447  1.00  0.00    -0.084 Cl
ENDBRANCH  21  22
ENDBRANCH   8  21
ENDBRANCH   7   8
ENDBRANCH   5   7
ENDBRANCH   2   3
ENDBRANCH   1   2
BRANCH   1  29
ATOM     29  C   UNL A   1      37.759  19.979  24.854  1.00  0.00     0.023 C 
BRANCH  29  30
ATOM     30  C   UNL A   1      38.933  20.287  25.778  1.00  0.00     0.116 C 
BRANCH  30  31
ATOM     31  N   UNL A   1      39.920  19.219  25.819  1.00  0.00    -0.352 N 
ATOM     32  C   UNL A   1      41.274  19.282  26.061  1.00  0.00     0.251 C 
ATOM     33  H   UNL A   1      39.566  18.316  25.648  1.00  0.00     0.163 HD
ATOM     34  O   UNL A   1      41.972  18.288  25.904  1.00  0.00    -0.269 OA
BRANCH  32  35
ATOM     35  C   UNL A   1      41.897  20.558  26.481  1.00  0.00     0.039 A 
ATOM     36  C   UNL A   1      42.394  21.420  25.500  1.00  0.00     0.014 A 
ATOM     37  C   UNL A   1      41.990  20.909  27.830  1.00  0.00     0.014 A 
ATOM     38  C   UNL A   1      42.909  22.666  25.866  1.00  0.00     0.010 A 
ATOM     39  C   UNL A   1      42.428  22.182  28.187  1.00  0.00     0.010 A 
ATOM     40  C   UNL A   1      42.889  23.077  27.209  1.00  0.00    -0.014 A 
BRANCH  40  41
ATOM     41  C   UNL A   1      43.330  24.441  27.605  1.00  0.00     0.031 A 
ATOM     42  C   UNL A   1      42.319  25.489  27.983  1.00  0.00     0.074 A 
ATOM     43  C   UNL A   1      44.639  24.758  27.562  1.00  0.00     0.049 A 
ATOM     44  N   UNL A   1      42.506  26.747  28.292  1.00  0.00    -0.248 NA
ATOM     45  C   UNL A   1      40.907  25.073  27.992  1.00  0.00     0.031 C 
ATOM     46  C   UNL A   1      45.718  23.849  27.171  1.00  0.00     0.029 A 
ATOM     47  N   UNL A   1      45.286  25.937  27.841  1.00  0.00    -0.354 N 
ATOM     48  C   UNL A   1      41.241  27.275  28.517  1.00  0.00     0.074 A 
ATOM     49  C   UNL A   1      40.291  26.216  28.259  1.00  0.00     0.031 C 
ATOM     50  C   UNL A   1      46.892  24.495  27.260  1.00  0.00     0.029 A 
ATOM     51  C   UNL A   1      46.648  25.875  27.668  1.00  0.00     0.049 A 
ATOM     52  H   UNL A   1      44.817  26.751  28.137  1.00  0.00     0.167 HD
ATOM     53  C   UNL A   1      40.903  28.523  28.922  1.00  0.00     0.037 A 
ATOM     54  C   UNL A   1      47.593  26.823  27.812  1.00  0.00     0.037 A 
ATOM     55  C   UNL A   1      41.852  29.571  29.196  1.00  0.00     0.049 A 
ATOM     56  C   UNL A   1      47.188  28.207  28.240  1.00  0.00     0.074 A 
ATOM     57  C   UNL A   1      41.609  30.848  29.671  1.00  0.00     0.029 A 
ATOM     58  N   UNL A   1      43.222  29.466  29.014  1.00  0.00    -0.354 N 
ATOM     59  N   UNL A   1      45.994  28.671  28.521  1.00  0.00    -0.248 NA
ATOM     60  C   UNL A   1      48.264  29.199  28.376  1.00  0.00     0.031 C 
ATOM     61  C   UNL A   1      42.827  31.535  29.722  1.00  0.00     0.029 A 
ATOM     62  C   UNL A   1      43.835  30.666  29.339  1.00  0.00     0.049 A 
ATOM     63  H   UNL A   1      43.691  28.659  28.700  1.00  0.00     0.167 HD
ATOM     64  C   UNL A   1      46.179  29.996  28.897  1.00  0.00     0.074 A 
ATOM     65  C   UNL A   1      47.602  30.256  28.823  1.00  0.00     0.031 C 
ATOM     66  C   UNL A   1      45.254  30.912  29.270  1.00  0.00     0.037 A 
BRANCH  53  67
ATOM     67  C   UNL A   1      39.442  28.826  29.092  1.00  0.00     0.057 A 
ATOM     68  C   UNL A   1      38.786  28.652  30.319  1.00  0.00     0.134 A 
ATOM     69  C   UNL A   1      38.689  29.339  28.027  1.00  0.00     0.134 A 
ATOM     70  F   UNL A   1      39.444  28.156  31.377  1.00  0.00    -0.206 F 
ATOM     71  C   UNL A   1      37.430  28.950  30.471  1.00  0.00     0.040 A 
ATOM     72  C   UNL A   1      37.341  29.668  28.176  1.00  0.00     0.040 A 
ATOM     73  F   UNL A   1      39.255  29.538  26.827  1.00  0.00    -0.206 F 
ATOM     74  C   UNL A   1      36.706  29.467  29.400  1.00  0.00     0.006 A 
ENDBRANCH  53  67
BRANCH  54  75
ATOM     75  C   UNL A   1      49.021  26.497  27.565  1.00  0.00     0.057 A 
ATOM     76  C   UNL A   1      49.567  26.578  26.278  1.00  0.00     0.134 A 
ATOM     77  C   UNL A   1      49.869  26.081  28.599  1.00  0.00     0.134 A 
ATOM     78  F   UNL A   1      48.802  26.950  25.243  1.00  0.00    -0.206 F 
ATOM     79  C   UNL A   1      50.896  26.233  26.023  1.00  0.00     0.040 A 
ATOM     80  C   UNL A   1      51.207  25.761  28.363  1.00  0.00     0.040 A 
ATOM     81  F   UNL A   1      49.411  25.990  29.856  1.00  0.00    -0.206 F 
ATOM     82  C   UNL A   1      51.721  25.828  27.070  1.00  0.00     0.006 A 
ENDBRANCH  54  75
BRANCH  66  83
ATOM     83  C   UNL A   1      45.752  32.271  29.672  1.00  0.00     0.057 A 
ATOM     84  C   UNL A   1      45.842  33.331  28.760  1.00  0.00     0.134 A 
ATOM     85  C   UNL A   1      46.110  32.533  31.002  1.00  0.00     0.134 A 
ATOM     86  F   UNL A   1      45.527  33.145  27.469  1.00  0.00    -0.206 F 
ATOM     87  C   UNL A   1      46.295  34.593  29.149  1.00  0.00     0.040 A 
ATOM     88  C   UNL A   1      46.535  33.798  31.409  1.00  0.00     0.040 A 
ATOM     89  F   UNL A   1      46.038  31.567  31.929  1.00  0.00    -0.206 F 
ATOM     90  C   UNL A   1      46.635  34.831  30.480  1.00  0.00     0.006 A 
ENDBRANCH  66  83
ENDBRANCH  40  41
ENDBRANCH  32  35
ENDBRANCH  30  31
ENDBRANCH  29  30
ENDBRANCH   1  29
TORSDOF 16
ENDMDL
MODEL 2
REMARK VINA RESULT:     -12.2      0.333      6.045
REMARK SMILES O=C(C[C@H](Cc1ccc(Cl)cc1)C(=O)Nc1cc(Cl)ccc1Cl)NCCCCNC(=O)c1ccc(-c2c3nc(c(-c4c(F)cccc4F)c4ccc([nH]4)c(-c4c(F)cccc4F)c4nc(c(-c5c(F)cccc5F)c5ccc2[nH]5)C=C4)C=C3)cc1
REMARK SMILES IDX 26 1 25 2 24 3 1 4 2 5 3 7 4 8 13 9 14 10 15 11 16 13 17 14
REMARK SMILES IDX 22 15 18 16 21 17 23 18 19 19 20 20 5 21 6 22 7 23 12 24
REMARK SMILES IDX 8 25 11 26 9 27 10 28 27 29 28 30 29 31 30 32 31 34 32 35
REMARK SMILES IDX 33 36 85 37 34 38 84 39 35 40 36 41 37 42 78 43 38 44 83 45
REMARK SMILES IDX 77 46 79 47 39 48 82 49 76 50 75 51 40 53 66 54 49 55 65 56
REMARK SMILES IDX 50 57 53 58 64 59 80 60 51 61 52 62 63 64 81 65 54 66 41 67
REMARK SMILES IDX 42 68 47 69 43 70 44 71 46 72 48 73 45 74 67 75 68 76 73 77
REMARK SMILES IDX 69 78 70 79 72 80 74 81 71 82 55 83 56 84 61 85 57 86 58 87
REMARK SMILES IDX 60 88 62 89 59 90
REMARK H PARENT 24 6 15 12 29 33 79 52 53 63
REMARK Flexibility Score: inf
ROOT
ATOM      1  C   UNL A   1      36.610  20.607  24.805  1.00  0.00     0.023 C 
ENDROOT
BRANCH   1   2
ATOM      2  C   UNL A   1      36.700  21.828  25.712  1.00  0.00     0.116 C 
BRANCH   2   3
ATOM      3  N   UNL A   1      35.520  22.031  26.531  1.00  0.00    -0.356 N 
ATOM      4  O   UNL A   1      35.030  24.103  25.699  1.00  0.00    -0.275 OA
ATOM      5  C   UNL A   1      34.710  23.129  26.373  1.00  0.00     0.220 C 
ATOM      6  H   UNL A   1      35.293  21.364  27.219  1.00  0.00     0.163 HD
BRANCH   5   7
ATOM      7  C   UNL A   1      33.395  23.094  27.129  1.00  0.00     0.113 C 
BRANCH   7   8
ATOM      8  C   UNL A   1      32.135  22.575  26.406  1.00  0.00     0.092 C 
BRANCH   8   9
ATOM      9  C   UNL A   1      30.875  23.398  26.718  1.00  0.00     0.228 C 
ATOM     10  O   UNL A   1      29.925  22.839  27.280  1.00  0.00    -0.274 OA
ATOM     11  N   UNL A   1      30.758  24.735  26.504  1.00  0.00    -0.324 N 
ATOM     12  H   UNL A   1      29.970  25.143  26.932  1.00  0.00     0.169 HD
BRANCH  11  13
ATOM     13  C   UNL A   1      31.551  25.641  25.787  1.00  0.00     0.061 A 
ATOM     14  C   UNL A   1      32.499  26.438  26.429  1.00  0.00     0.048 A 
ATOM     15  C   UNL A   1      31.455  25.686  24.387  1.00  0.00     0.064 A 
ATOM     16  C   UNL A   1      33.249  27.359  25.695  1.00  0.00     0.043 A 
ATOM     17  C   UNL A   1      32.188  26.628  23.659  1.00  0.00     0.024 A 
ATOM     18  Cl  UNL A   1      30.373  24.643  23.533  1.00  0.00    -0.082 Cl
ATOM     19  Cl  UNL A   1      34.403  28.349  26.501  1.00  0.00    -0.084 Cl
ATOM     20  C   UNL A   1      33.072  27.482  24.319  1.00  0.00     0.022 A 
ENDBRANCH  11  13
ENDBRANCH   8   9
BRANCH   8  21
ATOM     21  C   UNL A   1      32.228  22.153  24.936  1.00  0.00     0.049 C 
BRANCH  21  22
ATOM     22  C   UNL A   1      32.454  20.689  24.603  1.00  0.00    -0.047 A 
ATOM     23  C   UNL A   1      32.273  20.124  23.333  1.00  0.00     0.005 A 
ATOM     24  C   UNL A   1      32.887  19.851  25.647  1.00  0.00     0.005 A 
ATOM     25  C   UNL A   1      32.527  18.767  23.112  1.00  0.00     0.021 A 
ATOM     26  C   UNL A   1      33.147  18.497  25.425  1.00  0.00     0.021 A 
ATOM     27  C   UNL A   1      32.965  17.960  24.156  1.00  0.00     0.041 A 
ATOM     28  Cl  UNL A   1      33.289  16.294  23.879  1.00  0.00    -0.084 Cl
ENDBRANCH  21  22
ENDBRANCH   8  21
ENDBRANCH   7   8
ENDBRANCH   5   7
ENDBRANCH   2   3
ENDBRANCH   1   2
BRANCH   1  29
ATOM     29  C   UNL A   1      37.719  19.572  25.001  1.00  0.00     0.023 C 
BRANCH  29  30
ATOM     30  C   UNL A   1      38.988  20.086  25.675  1.00  0.00     0.116 C 
BRANCH  30  31
ATOM     31  N   UNL A   1      40.020  19.068  25.794  1.00  0.00    -0.352 N 
ATOM     32  C   UNL A   1      41.366  19.205  26.052  1.00  0.00     0.251 C 
ATOM     33  H   UNL A   1      39.710  18.141  25.674  1.00  0.00     0.163 HD
ATOM     34  O   UNL A   1      42.110  18.236  25.966  1.00  0.00    -0.269 OA
BRANCH  32  35
ATOM     35  C   UNL A   1      41.925  20.531  26.403  1.00  0.00     0.039 A 
ATOM     36  C   UNL A   1      42.346  21.378  25.375  1.00  0.00     0.014 A 
ATOM     37  C   UNL A   1      42.032  20.942  27.735  1.00  0.00     0.014 A 
ATOM     38  C   UNL A   1      42.798  22.665  25.677  1.00  0.00     0.010 A 
ATOM     39  C   UNL A   1      42.406  22.252  28.028  1.00  0.00     0.010 A 
ATOM     40  C   UNL A   1      42.789  23.129  27.003  1.00  0.00    -0.014 A 
BRANCH  40  41
ATOM     41  C   UNL A   1      43.160  24.532  27.332  1.00  0.00     0.031 A 
ATOM     42  C   UNL A   1      44.601  24.964  27.310  1.00  0.00     0.074 A 
ATOM     43  C   UNL A   1      42.205  25.402  27.714  1.00  0.00     0.049 A 
ATOM     44  N   UNL A   1      45.124  26.121  27.629  1.00  0.00    -0.248 NA
ATOM     45  C   UNL A   1      45.589  23.953  26.898  1.00  0.00     0.031 C 
ATOM     46  C   UNL A   1      40.777  25.100  27.819  1.00  0.00     0.029 A 
ATOM     47  N   UNL A   1      42.293  26.719  28.094  1.00  0.00    -0.354 N 
ATOM     48  C   UNL A   1      46.496  25.975  27.472  1.00  0.00     0.074 A 
ATOM     49  C   UNL A   1      46.730  24.602  27.078  1.00  0.00     0.031 C 
ATOM     50  C   UNL A   1      40.121  26.204  28.211  1.00  0.00     0.029 A 
ATOM     51  C   UNL A   1      41.084  27.279  28.430  1.00  0.00     0.049 A 
ATOM     52  H   UNL A   1      43.143  27.215  28.124  1.00  0.00     0.167 HD
ATOM     53  C   UNL A   1      47.470  26.905  27.619  1.00  0.00     0.037 A 
ATOM     54  C   UNL A   1      40.783  28.515  28.873  1.00  0.00     0.037 A 
ATOM     55  C   UNL A   1      47.233  28.275  27.993  1.00  0.00     0.049 A 
ATOM     56  C   UNL A   1      41.887  29.521  29.051  1.00  0.00     0.074 A 
ATOM     57  C   UNL A   1      48.149  29.306  28.107  1.00  0.00     0.029 A 
ATOM     58  N   UNL A   1      45.994  28.804  28.318  1.00  0.00    -0.354 N 
ATOM     59  N   UNL A   1      43.173  29.389  28.826  1.00  0.00    -0.248 NA
ATOM     60  C   UNL A   1      41.498  30.851  29.540  1.00  0.00     0.031 C 
ATOM     61  C   UNL A   1      47.473  30.444  28.557  1.00  0.00     0.029 A 
ATOM     62  C   UNL A   1      46.126  30.139  28.662  1.00  0.00     0.049 A 
ATOM     63  H   UNL A   1      45.145  28.304  28.306  1.00  0.00     0.167 HD
ATOM     64  C   UNL A   1      43.739  30.625  29.115  1.00  0.00     0.074 A 
ATOM     65  C   UNL A   1      42.654  31.497  29.517  1.00  0.00     0.031 C 
ATOM     66  C   UNL A   1      45.038  31.002  29.052  1.00  0.00     0.037 A 
BRANCH  53  67
ATOM     67  C   UNL A   1      48.888  26.469  27.379  1.00  0.00     0.057 A 
ATOM     68  C   UNL A   1      49.704  25.998  28.417  1.00  0.00     0.134 A 
ATOM     69  C   UNL A   1      49.431  26.481  26.088  1.00  0.00     0.134 A 
ATOM     70  F   UNL A   1      49.250  25.968  29.679  1.00  0.00    -0.206 F 
ATOM     71  C   UNL A   1      51.016  25.581  28.184  1.00  0.00     0.040 A 
ATOM     72  C   UNL A   1      50.731  26.039  25.838  1.00  0.00     0.040 A 
ATOM     73  F   UNL A   1      48.703  26.911  25.047  1.00  0.00    -0.206 F 
ATOM     74  C   UNL A   1      51.530  25.593  26.889  1.00  0.00     0.006 A 
ENDBRANCH  53  67
BRANCH  54  75
ATOM     75  C   UNL A   1      39.374  28.881  29.165  1.00  0.00     0.057 A 
ATOM     76  C   UNL A   1      38.818  28.656  30.431  1.00  0.00     0.134 A 
ATOM     77  C   UNL A   1      38.543  29.445  28.189  1.00  0.00     0.134 A 
ATOM     78  F   UNL A   1      39.556  28.100  31.402  1.00  0.00    -0.206 F 
ATOM     79  C   UNL A   1      37.483  28.955  30.708  1.00  0.00     0.040 A 
ATOM     80  C   UNL A   1      37.215  29.775  28.461  1.00  0.00     0.040 A 
ATOM     81  F   UNL A   1      39.016  29.694  26.959  1.00  0.00    -0.206 F 
ATOM     82  C   UNL A   1      36.679  29.522  29.722  1.00  0.00     0.006 A 
ENDBRANCH  54  75
BRANCH  66  83
ATOM     83  C   UNL A   1      45.359  32.432  29.382  1.00  0.00     0.057 A 
ATOM     84  C   UNL A   1      45.301  33.448  28.420  1.00  0.00     0.134 A 
ATOM     85  C   UNL A   1      45.694  32.802  30.692  1.00  0.00     0.134 A 
ATOM     86  F   UNL A   1      45.001  33.161  27.145  1.00  0.00    -0.206 F 
ATOM     87  C   UNL A   1      45.590  34.776  28.742  1.00  0.00     0.040 A 
ATOM     88  C   UNL A   1      45.954  34.129  31.033  1.00  0.00     0.040 A 
ATOM     89  F   UNL A   1      45.757  31.881  31.665  1.00  0.00    -0.206 F 
ATOM     90  C   UNL A   1      45.909  35.120  30.055  1.00  0.00     0.006 A 
ENDBRANCH  66  83
ENDBRANCH  40  41
ENDBRANCH  32  35
ENDBRANCH  30  31
ENDBRANCH  29  30
ENDBRANCH   1  29
TORSDOF 16
ENDMDL
MODEL 3
REMARK VINA RESULT:     -12.2      0.703      6.132
REMARK SMILES O=C(C[C@H](Cc1ccc(Cl)cc1)C(=O)Nc1cc(Cl)ccc1Cl)NCCCCNC(=O)c1ccc(-c2c3nc(c(-c4c(F)cccc4F)c4ccc([nH]4)c(-c4c(F)cccc4F)c4nc(c(-c5c(F)cccc5F)c5ccc2[nH]5)C=C4)C=C3)cc1
REMARK SMILES IDX 26 1 25 2 24 3 1 4 2 5 3 7 4 8 13 9 14 10 15 11 16 13 17 14
REMARK SMILES IDX 22 15 18 16 21 17 23 18 19 19 20 20 5 21 6 22 7 23 12 24
REMARK SMILES IDX 8 25 11 26 9 27 10 28 27 29 28 30 29 31 30 32 31 34 32 35
REMARK SMILES IDX 33 36 85 37 34 38 84 39 35 40 36 41 37 42 78 43 38 44 83 45
REMARK SMILES IDX 77 46 79 47 39 48 82 49 76 50 75 51 40 53 66 54 49 55 65 56
REMARK SMILES IDX 50 57 53 58 64 59 80 60 51 61 52 62 63 64 81 65 54 66 41 67
REMARK SMILES IDX 42 68 47 69 43 70 44 71 46 72 48 73 45 74 67 75 68 76 73 77
REMARK SMILES IDX 69 78 70 79 72 80 74 81 71 82 55 83 56 84 61 85 57 86 58 87
REMARK SMILES IDX 60 88 62 89 59 90
REMARK H PARENT 24 6 15 12 29 33 79 52 53 63
REMARK Flexibility Score: inf
ROOT
ATOM      1  C   UNL A   1      36.571  20.525  24.964  1.00  0.00     0.023 C 
ENDROOT
BRANCH   1   2
ATOM      2  C   UNL A   1      36.729  21.831  25.734  1.00  0.00     0.116 C 
BRANCH   2   3
ATOM      3  N   UNL A   1      35.566  22.182  26.527  1.00  0.00    -0.356 N 
ATOM      4  O   UNL A   1      35.159  24.159  25.456  1.00  0.00    -0.275 OA
ATOM      5  C   UNL A   1      34.802  23.288  26.242  1.00  0.00     0.220 C 
ATOM      6  H   UNL A   1      35.316  21.611  27.290  1.00  0.00     0.163 HD
BRANCH   5   7
ATOM      7  C   UNL A   1      33.494  23.400  27.001  1.00  0.00     0.113 C 
BRANCH   7   8
ATOM      8  C   UNL A   1      32.215  22.813  26.370  1.00  0.00     0.092 C 
BRANCH   8   9
ATOM      9  C   UNL A   1      30.943  23.589  26.746  1.00  0.00     0.228 C 
ATOM     10  O   UNL A   1      30.061  23.007  27.390  1.00  0.00    -0.274 OA
ATOM     11  N   UNL A   1      30.748  24.912  26.500  1.00  0.00    -0.324 N 
ATOM     12  H   UNL A   1      29.974  25.298  26.970  1.00  0.00     0.169 HD
BRANCH  11  13
ATOM     13  C   UNL A   1      31.446  25.828  25.702  1.00  0.00     0.061 A 
ATOM     14  C   UNL A   1      32.414  26.671  26.247  1.00  0.00     0.048 A 
ATOM     15  C   UNL A   1      31.234  25.836  24.314  1.00  0.00     0.064 A 
ATOM     16  C   UNL A   1      33.067  27.601  25.434  1.00  0.00     0.043 A 
ATOM     17  C   UNL A   1      31.870  26.785  23.509  1.00  0.00     0.024 A 
ATOM     18  Cl  UNL A   1      30.125  24.736  23.573  1.00  0.00    -0.082 Cl
ATOM     19  Cl  UNL A   1      34.246  28.649  26.121  1.00  0.00    -0.084 Cl
ATOM     20  C   UNL A   1      32.774  27.684  24.075  1.00  0.00     0.022 A 
ENDBRANCH  11  13
ENDBRANCH   8   9
BRANCH   8  21
ATOM     21  C   UNL A   1      32.234  22.363  24.905  1.00  0.00     0.049 C 
BRANCH  21  22
ATOM     22  C   UNL A   1      32.405  20.887  24.591  1.00  0.00    -0.047 A 
ATOM     23  C   UNL A   1      32.242  20.320  23.320  1.00  0.00     0.005 A 
ATOM     24  C   UNL A   1      32.766  20.040  25.655  1.00  0.00     0.005 A 
ATOM     25  C   UNL A   1      32.442  18.951  23.117  1.00  0.00     0.021 A 
ATOM     26  C   UNL A   1      32.972  18.674  25.451  1.00  0.00     0.021 A 
ATOM     27  C   UNL A   1      32.809  18.135  24.181  1.00  0.00     0.041 A 
ATOM     28  Cl  UNL A   1      33.067  16.454  23.926  1.00  0.00    -0.084 Cl
ENDBRANCH  21  22
ENDBRANCH   8  21
ENDBRANCH   7   8
ENDBRANCH   5   7
ENDBRANCH   2   3
ENDBRANCH   1   2
BRANCH   1  29
ATOM     29  C   UNL A   1      37.834  19.667  24.880  1.00  0.00     0.023 C 
BRANCH  29  30
ATOM     30  C   UNL A   1      39.016  20.149  25.718  1.00  0.00     0.116 C 
BRANCH  30  31
ATOM     31  N   UNL A   1      40.078  19.161  25.822  1.00  0.00    -0.352 N 
ATOM     32  C   UNL A   1      41.409  19.330  26.136  1.00  0.00     0.251 C 
ATOM     33  H   UNL A   1      39.806  18.232  25.642  1.00  0.00     0.163 HD
ATOM     34  O   UNL A   1      42.189  18.393  26.028  1.00  0.00    -0.269 OA
BRANCH  32  35
ATOM     35  C   UNL A   1      41.907  20.654  26.576  1.00  0.00     0.039 A 
ATOM     36  C   UNL A   1      42.351  21.561  25.611  1.00  0.00     0.014 A 
ATOM     37  C   UNL A   1      41.936  21.004  27.929  1.00  0.00     0.014 A 
ATOM     38  C   UNL A   1      42.746  22.846  25.995  1.00  0.00     0.010 A 
ATOM     39  C   UNL A   1      42.253  22.308  28.301  1.00  0.00     0.010 A 
ATOM     40  C   UNL A   1      42.658  23.245  27.338  1.00  0.00    -0.014 A 
BRANCH  40  41
ATOM     41  C   UNL A   1      42.968  24.640  27.750  1.00  0.00     0.031 A 
ATOM     42  C   UNL A   1      44.393  25.078  27.947  1.00  0.00     0.074 A 
ATOM     43  C   UNL A   1      41.961  25.498  28.011  1.00  0.00     0.049 A 
ATOM     44  N   UNL A   1      44.856  26.229  28.365  1.00  0.00    -0.248 NA
ATOM     45  C   UNL A   1      45.437  24.082  27.658  1.00  0.00     0.031 C 
ATOM     46  C   UNL A   1      40.535  25.187  27.901  1.00  0.00     0.029 A 
ATOM     47  N   UNL A   1      41.983  26.805  28.430  1.00  0.00    -0.354 N 
ATOM     48  C   UNL A   1      46.237  26.092  28.404  1.00  0.00     0.074 A 
ATOM     49  C   UNL A   1      46.536  24.731  28.016  1.00  0.00     0.031 C 
ATOM     50  C   UNL A   1      39.821  26.279  28.220  1.00  0.00     0.029 A 
ATOM     51  C   UNL A   1      40.734  27.352  28.601  1.00  0.00     0.049 A 
ATOM     52  H   UNL A   1      42.816  27.304  28.595  1.00  0.00     0.167 HD
ATOM     53  C   UNL A   1      47.173  27.022  28.712  1.00  0.00     0.037 A 
ATOM     54  C   UNL A   1      40.364  28.576  29.025  1.00  0.00     0.037 A 
ATOM     55  C   UNL A   1      46.875  28.382  29.079  1.00  0.00     0.049 A 
ATOM     56  C   UNL A   1      41.424  29.582  29.384  1.00  0.00     0.074 A 
ATOM     57  C   UNL A   1      47.757  29.413  29.349  1.00  0.00     0.029 A 
ATOM     58  N   UNL A   1      45.598  28.898  29.235  1.00  0.00    -0.354 N 
ATOM     59  N   UNL A   1      42.729  29.460  29.344  1.00  0.00    -0.248 NA
ATOM     60  C   UNL A   1      40.958  30.897  29.843  1.00  0.00     0.031 C 
ATOM     61  C   UNL A   1      47.015  30.538  29.723  1.00  0.00     0.029 A 
ATOM     62  C   UNL A   1      45.669  30.225  29.626  1.00  0.00     0.049 A 
ATOM     63  H   UNL A   1      44.763  28.395  29.089  1.00  0.00     0.167 HD
ATOM     64  C   UNL A   1      43.238  30.690  29.741  1.00  0.00     0.074 A 
ATOM     65  C   UNL A   1      42.101  31.548  30.002  1.00  0.00     0.031 C 
ATOM     66  C   UNL A   1      44.530  31.074  29.875  1.00  0.00     0.037 A 
BRANCH  53  67
ATOM     67  C   UNL A   1      48.614  26.598  28.669  1.00  0.00     0.057 A 
ATOM     68  C   UNL A   1      49.372  26.666  27.492  1.00  0.00     0.134 A 
ATOM     69  C   UNL A   1      49.264  26.155  29.829  1.00  0.00     0.134 A 
ATOM     70  F   UNL A   1      48.810  27.073  26.343  1.00  0.00    -0.206 F 
ATOM     71  C   UNL A   1      50.715  26.284  27.464  1.00  0.00     0.040 A 
ATOM     72  C   UNL A   1      50.613  25.798  29.819  1.00  0.00     0.040 A 
ATOM     73  F   UNL A   1      48.601  26.072  30.991  1.00  0.00    -0.206 F 
ATOM     74  C   UNL A   1      51.341  25.856  28.632  1.00  0.00     0.006 A 
ENDBRANCH  53  67
BRANCH  54  75
ATOM     75  C   UNL A   1      38.925  28.929  29.120  1.00  0.00     0.057 A 
ATOM     76  C   UNL A   1      38.244  29.482  28.028  1.00  0.00     0.134 A 
ATOM     77  C   UNL A   1      38.199  28.743  30.303  1.00  0.00     0.134 A 
ATOM     78  F   UNL A   1      38.888  29.703  26.873  1.00  0.00    -0.206 F 
ATOM     79  C   UNL A   1      36.903  29.859  28.116  1.00  0.00     0.040 A 
ATOM     80  C   UNL A   1      36.850  29.090  30.396  1.00  0.00     0.040 A 
ATOM     81  F   UNL A   1      38.789  28.212  31.383  1.00  0.00    -0.206 F 
ATOM     82  C   UNL A   1      36.201  29.658  29.302  1.00  0.00     0.006 A 
ENDBRANCH  54  75
BRANCH  66  83
ATOM     83  C   UNL A   1      44.790  32.497  30.281  1.00  0.00     0.057 A 
ATOM     84  C   UNL A   1      44.975  32.867  31.619  1.00  0.00     0.134 A 
ATOM     85  C   UNL A   1      44.893  33.505  29.313  1.00  0.00     0.134 A 
ATOM     86  F   UNL A   1      44.875  31.954  32.597  1.00  0.00    -0.206 F 
ATOM     87  C   UNL A   1      45.227  34.191  31.982  1.00  0.00     0.040 A 
ATOM     88  C   UNL A   1      45.176  34.826  29.661  1.00  0.00     0.040 A 
ATOM     89  F   UNL A   1      44.737  33.219  28.012  1.00  0.00    -0.206 F 
ATOM     90  C   UNL A   1      45.336  35.174  31.000  1.00  0.00     0.006 A 
ENDBRANCH  66  83
ENDBRANCH  40  41
ENDBRANCH  32  35
ENDBRANCH  30  31
ENDBRANCH  29  30
ENDBRANCH   1  29
TORSDOF 16
ENDMDL
