MODEL 1
REMARK VINA RESULT:     -12.1      0.000      0.000
REMARK SMILES O=C(NCCCCNC(=O)c1ccc(-c2c3nc(c(-c4c(F)cccc4F)c4ccc([nH]4)c(-c4c(F)cccc4F)c4nc(c(-c5c(F)cccc5F)c5ccc2[nH]5)C=C4)C=C3)cc1)C1=Cc2c(Cl)ccc(Cl)c2O[C@@H]1C(F)(F)F
REMARK SMILES IDX 6 1 5 2 4 3 3 4 1 5 2 6 65 8 66 9 76 10 67 11 75 12 68 13
REMARK SMILES IDX 74 14 69 15 70 16 72 17 71 18 73 19 77 20 78 21 79 22 80 23
REMARK SMILES IDX 7 24 8 25 9 26 10 28 11 29 12 30 64 31 13 32 63 33 14 34
REMARK SMILES IDX 15 35 16 36 57 37 17 38 62 39 56 40 58 41 18 42 61 43 55 44
REMARK SMILES IDX 54 45 19 47 45 48 28 49 44 50 29 51 32 52 43 53 59 54 30 55
REMARK SMILES IDX 31 56 42 58 60 59 33 60 20 61 21 62 26 63 22 64 23 65 25 66
REMARK SMILES IDX 27 67 24 68 46 69 47 70 52 71 48 72 49 73 51 74 53 75 50 76
REMARK SMILES IDX 34 77 35 78 40 79 36 80 37 81 39 82 41 83 38 84
REMARK H PARENT 3 7 8 27 58 46 32 57
REMARK Flexibility Score: inf
ROOT
ATOM      1  C   UNL A   1      32.890  28.581  27.291  1.00  0.00     0.023 C 
ENDROOT
BRANCH   1   2
ATOM      2  C   UNL A   1      33.072  27.275  26.509  1.00  0.00     0.023 C 
BRANCH   2   3
ATOM      3  C   UNL A   1      31.759  26.585  26.123  1.00  0.00     0.116 C 
BRANCH   3   4
ATOM      4  N   UNL A   1      31.457  25.412  26.950  1.00  0.00    -0.352 N 
ATOM      5  O   UNL A   1      31.730  23.314  27.760  1.00  0.00    -0.270 OA
ATOM      6  C   UNL A   1      31.848  24.100  26.828  1.00  0.00     0.251 C 
ATOM      7  H   UNL A   1      30.876  25.596  27.723  1.00  0.00     0.163 HD
BRANCH   6   8
ATOM      8  C   UNL A   1      32.515  23.695  25.580  1.00  0.00     0.067 C 
ATOM      9  C   UNL A   1      33.833  23.891  25.451  1.00  0.00     0.027 C 
ATOM     10  C   UNL A   1      31.758  22.809  24.648  1.00  0.00     0.314 C 
ATOM     11  C   UNL A   1      34.553  22.671  25.027  1.00  0.00     0.037 A 
ATOM     12  O   UNL A   1      32.438  21.551  24.454  1.00  0.00    -0.474 OA
ATOM     13  C   UNL A   1      35.916  22.507  25.349  1.00  0.00     0.052 A 
ATOM     14  C   UNL A   1      33.801  21.525  24.662  1.00  0.00     0.148 A 
ATOM     15  Cl  UNL A   1      36.908  23.817  25.897  1.00  0.00    -0.084 Cl
ATOM     16  C   UNL A   1      36.493  21.234  25.364  1.00  0.00     0.023 A 
ATOM     17  C   UNL A   1      34.400  20.256  24.669  1.00  0.00     0.083 A 
ATOM     18  C   UNL A   1      35.735  20.111  25.038  1.00  0.00     0.026 A 
ATOM     19  Cl  UNL A   1      33.480  18.826  24.360  1.00  0.00    -0.080 Cl
BRANCH  10  20
ATOM     20  C   UNL A   1      31.496  23.508  23.301  1.00  0.00     0.429 C 
ATOM     21  F   UNL A   1      31.787  24.830  23.371  1.00  0.00    -0.167 F 
ATOM     22  F   UNL A   1      32.256  22.991  22.307  1.00  0.00    -0.167 F 
ATOM     23  F   UNL A   1      30.203  23.404  22.913  1.00  0.00    -0.167 F 
ENDBRANCH  10  20
ENDBRANCH   6   8
ENDBRANCH   3   4
ENDBRANCH   2   3
ENDBRANCH   1   2
BRANCH   1  24
ATOM     24  C   UNL A   1      33.791  29.751  26.898  1.00  0.00     0.116 C 
BRANCH  24  25
ATOM     25  N   UNL A   1      33.859  30.824  27.879  1.00  0.00    -0.352 N 
ATOM     26  C   UNL A   1      34.897  31.132  28.735  1.00  0.00     0.251 C 
ATOM     27  H   UNL A   1      33.065  31.403  27.940  1.00  0.00     0.163 HD
ATOM     28  O   UNL A   1      34.802  32.070  29.521  1.00  0.00    -0.269 OA
BRANCH  26  29
ATOM     29  C   UNL A   1      36.102  30.272  28.744  1.00  0.00     0.039 A 
ATOM     30  C   UNL A   1      36.956  30.299  27.638  1.00  0.00     0.014 A 
ATOM     31  C   UNL A   1      36.449  29.545  29.888  1.00  0.00     0.014 A 
ATOM     32  C   UNL A   1      38.220  29.711  27.730  1.00  0.00     0.010 A 
ATOM     33  C   UNL A   1      37.734  29.019  30.000  1.00  0.00     0.010 A 
ATOM     34  C   UNL A   1      38.645  29.134  28.938  1.00  0.00    -0.014 A 
BRANCH  34  35
ATOM     35  C   UNL A   1      40.065  28.744  29.145  1.00  0.00     0.031 A 
ATOM     36  C   UNL A   1      41.060  29.718  29.705  1.00  0.00     0.074 A 
ATOM     37  C   UNL A   1      40.480  27.532  28.724  1.00  0.00     0.049 A 
ATOM     38  N   UNL A   1      42.348  29.570  29.882  1.00  0.00    -0.248 NA
ATOM     39  C   UNL A   1      40.544  31.040  30.089  1.00  0.00     0.031 C 
ATOM     40  C   UNL A   1      39.632  26.519  28.090  1.00  0.00     0.029 A 
ATOM     41  N   UNL A   1      41.726  26.953  28.745  1.00  0.00    -0.354 N 
ATOM     42  C   UNL A   1      42.800  30.781  30.389  1.00  0.00     0.074 A 
ATOM     43  C   UNL A   1      41.657  31.668  30.442  1.00  0.00     0.031 C 
ATOM     44  C   UNL A   1      40.376  25.442  27.798  1.00  0.00     0.029 A 
ATOM     45  C   UNL A   1      41.757  25.696  28.193  1.00  0.00     0.049 A 
ATOM     46  H   UNL A   1      42.519  27.398  29.121  1.00  0.00     0.167 HD
ATOM     47  C   UNL A   1      44.050  31.117  30.792  1.00  0.00     0.037 A 
ATOM     48  C   UNL A   1      42.784  24.844  28.013  1.00  0.00     0.037 A 
ATOM     49  C   UNL A   1      45.184  30.232  30.752  1.00  0.00     0.049 A 
ATOM     50  C   UNL A   1      44.160  25.235  28.471  1.00  0.00     0.074 A 
ATOM     51  C   UNL A   1      46.468  30.454  31.220  1.00  0.00     0.029 A 
ATOM     52  N   UNL A   1      45.174  28.958  30.204  1.00  0.00    -0.354 N 
ATOM     53  N   UNL A   1      44.554  26.351  29.033  1.00  0.00    -0.248 NA
ATOM     54  C   UNL A   1      45.231  24.249  28.270  1.00  0.00     0.031 C 
ATOM     55  C   UNL A   1      47.245  29.329  30.916  1.00  0.00     0.029 A 
ATOM     56  C   UNL A   1      46.436  28.393  30.293  1.00  0.00     0.049 A 
ATOM     57  H   UNL A   1      44.386  28.520  29.808  1.00  0.00     0.167 HD
ATOM     58  C   UNL A   1      45.915  26.201  29.262  1.00  0.00     0.074 A 
ATOM     59  C   UNL A   1      46.275  24.877  28.795  1.00  0.00     0.031 C 
ATOM     60  C   UNL A   1      46.787  27.083  29.807  1.00  0.00     0.037 A 
BRANCH  47  61
ATOM     61  C   UNL A   1      44.245  32.508  31.316  1.00  0.00     0.057 A 
ATOM     62  C   UNL A   1      44.054  32.817  32.669  1.00  0.00     0.134 A 
ATOM     63  C   UNL A   1      44.631  33.549  30.462  1.00  0.00     0.134 A 
ATOM     64  F   UNL A   1      43.670  31.867  33.536  1.00  0.00    -0.206 F 
ATOM     65  C   UNL A   1      44.208  34.118  33.149  1.00  0.00     0.040 A 
ATOM     66  C   UNL A   1      44.813  34.849  30.936  1.00  0.00     0.040 A 
ATOM     67  F   UNL A   1      44.836  33.319  29.158  1.00  0.00    -0.206 F 
ATOM     68  C   UNL A   1      44.592  35.139  32.282  1.00  0.00     0.006 A 
ENDBRANCH  47  61
BRANCH  48  69
ATOM     69  C   UNL A   1      42.539  23.525  27.380  1.00  0.00     0.057 A 
ATOM     70  C   UNL A   1      42.700  23.347  26.002  1.00  0.00     0.134 A 
ATOM     71  C   UNL A   1      42.164  22.410  28.138  1.00  0.00     0.134 A 
ATOM     72  F   UNL A   1      43.040  24.384  25.223  1.00  0.00    -0.206 F 
ATOM     73  C   UNL A   1      42.491  22.107  25.397  1.00  0.00     0.040 A 
ATOM     74  C   UNL A   1      41.971  21.159  27.550  1.00  0.00     0.040 A 
ATOM     75  F   UNL A   1      42.002  22.517  29.465  1.00  0.00    -0.206 F 
ATOM     76  C   UNL A   1      42.132  21.006  26.173  1.00  0.00     0.006 A 
ENDBRANCH  48  69
BRANCH  60  77
ATOM     77  C   UNL A   1      48.216  26.647  29.923  1.00  0.00     0.057 A 
ATOM     78  C   UNL A   1      49.159  26.961  28.936  1.00  0.00     0.134 A 
ATOM     79  C   UNL A   1      48.663  25.937  31.044  1.00  0.00     0.134 A 
ATOM     80  F   UNL A   1      48.790  27.626  27.830  1.00  0.00    -0.206 F 
ATOM     81  C   UNL A   1      50.494  26.572  29.054  1.00  0.00     0.040 A 
ATOM     82  C   UNL A   1      49.999  25.560  31.182  1.00  0.00     0.040 A 
ATOM     83  F   UNL A   1      47.810  25.607  32.026  1.00  0.00    -0.206 F 
ATOM     84  C   UNL A   1      50.919  25.876  30.184  1.00  0.00     0.006 A 
ENDBRANCH  60  77
ENDBRANCH  34  35
ENDBRANCH  26  29
ENDBRANCH  24  25
ENDBRANCH   1  24
TORSDOF 12
ENDMDL
MODEL 2
REMARK VINA RESULT:     -11.9      2.373      7.354
REMARK SMILES O=C(NCCCCNC(=O)c1ccc(-c2c3nc(c(-c4c(F)cccc4F)c4ccc([nH]4)c(-c4c(F)cccc4F)c4nc(c(-c5c(F)cccc5F)c5ccc2[nH]5)C=C4)C=C3)cc1)C1=Cc2c(Cl)ccc(Cl)c2O[C@@H]1C(F)(F)F
REMARK SMILES IDX 6 1 5 2 4 3 3 4 1 5 2 6 65 8 66 9 76 10 67 11 75 12 68 13
REMARK SMILES IDX 74 14 69 15 70 16 72 17 71 18 73 19 77 20 78 21 79 22 80 23
REMARK SMILES IDX 7 24 8 25 9 26 10 28 11 29 12 30 64 31 13 32 63 33 14 34
REMARK SMILES IDX 15 35 16 36 57 37 17 38 62 39 56 40 58 41 18 42 61 43 55 44
REMARK SMILES IDX 54 45 19 47 45 48 28 49 44 50 29 51 32 52 43 53 59 54 30 55
REMARK SMILES IDX 31 56 42 58 60 59 33 60 20 61 21 62 26 63 22 64 23 65 25 66
REMARK SMILES IDX 27 67 24 68 46 69 47 70 52 71 48 72 49 73 51 74 53 75 50 76
REMARK SMILES IDX 34 77 35 78 40 79 36 80 37 81 39 82 41 83 38 84
REMARK H PARENT 3 7 8 27 58 46 32 57
REMARK Flexibility Score: inf
ROOT
ATOM      1  C   UNL A   1      37.269  21.468  24.825  1.00  0.00     0.023 C 
ENDROOT
BRANCH   1   2
ATOM      2  C   UNL A   1      37.002  22.757  24.040  1.00  0.00     0.023 C 
BRANCH   2   3
ATOM      3  C   UNL A   1      35.985  23.695  24.699  1.00  0.00     0.116 C 
BRANCH   3   4
ATOM      4  N   UNL A   1      35.624  23.291  26.062  1.00  0.00    -0.352 N 
ATOM      5  O   UNL A   1      34.244  22.705  27.760  1.00  0.00    -0.270 OA
ATOM      6  C   UNL A   1      34.422  23.339  26.727  1.00  0.00     0.251 C 
ATOM      7  H   UNL A   1      36.370  22.922  26.589  1.00  0.00     0.163 HD
BRANCH   6   8
ATOM      8  C   UNL A   1      33.321  24.089  26.103  1.00  0.00     0.067 C 
ATOM      9  C   UNL A   1      33.296  25.422  26.210  1.00  0.00     0.027 C 
ATOM     10  C   UNL A   1      32.459  23.364  25.123  1.00  0.00     0.314 C 
ATOM     11  C   UNL A   1      33.131  26.098  24.906  1.00  0.00     0.037 A 
ATOM     12  O   UNL A   1      32.522  23.976  23.818  1.00  0.00    -0.474 OA
ATOM     13  C   UNL A   1      33.607  27.412  24.725  1.00  0.00     0.052 A 
ATOM     14  C   UNL A   1      32.866  25.310  23.756  1.00  0.00     0.148 A 
ATOM     15  Cl  UNL A   1      34.052  28.434  26.051  1.00  0.00    -0.084 Cl
ATOM     16  C   UNL A   1      33.868  27.903  23.442  1.00  0.00     0.023 A 
ATOM     17  C   UNL A   1      33.120  25.823  22.475  1.00  0.00     0.083 A 
ATOM     18  C   UNL A   1      33.637  27.106  22.322  1.00  0.00     0.026 A 
ATOM     19  Cl  UNL A   1      32.936  24.844  21.062  1.00  0.00    -0.080 Cl
BRANCH  10  20
ATOM     20  C   UNL A   1      31.004  23.271  25.620  1.00  0.00     0.429 C 
ATOM     21  F   UNL A   1      30.157  23.906  24.775  1.00  0.00    -0.167 F 
ATOM     22  F   UNL A   1      30.581  21.988  25.709  1.00  0.00    -0.167 F 
ATOM     23  F   UNL A   1      30.843  23.833  26.842  1.00  0.00    -0.167 F 
ENDBRANCH  10  20
ENDBRANCH   6   8
ENDBRANCH   3   4
ENDBRANCH   2   3
ENDBRANCH   1   2
BRANCH   1  24
ATOM     24  C   UNL A   1      38.550  21.422  25.658  1.00  0.00     0.116 C 
BRANCH  24  25
ATOM     25  N   UNL A   1      39.314  20.190  25.533  1.00  0.00    -0.352 N 
ATOM     26  C   UNL A   1      40.609  19.944  25.942  1.00  0.00     0.251 C 
ATOM     27  H   UNL A   1      38.849  19.436  25.102  1.00  0.00     0.163 HD
ATOM     28  O   UNL A   1      41.127  18.846  25.756  1.00  0.00    -0.269 OA
BRANCH  26  29
ATOM     29  C   UNL A   1      41.395  21.045  26.544  1.00  0.00     0.039 A 
ATOM     30  C   UNL A   1      42.086  21.918  25.700  1.00  0.00     0.014 A 
ATOM     31  C   UNL A   1      41.342  21.286  27.921  1.00  0.00     0.014 A 
ATOM     32  C   UNL A   1      42.608  23.106  26.217  1.00  0.00     0.010 A 
ATOM     33  C   UNL A   1      41.804  22.502  28.420  1.00  0.00     0.010 A 
ATOM     34  C   UNL A   1      42.403  23.440  27.566  1.00  0.00    -0.014 A 
BRANCH  34  35
ATOM     35  C   UNL A   1      42.710  24.803  28.074  1.00  0.00     0.031 A 
ATOM     36  C   UNL A   1      44.091  25.163  28.537  1.00  0.00     0.074 A 
ATOM     37  C   UNL A   1      41.705  25.691  28.218  1.00  0.00     0.049 A 
ATOM     38  N   UNL A   1      44.516  26.278  29.076  1.00  0.00    -0.248 NA
ATOM     39  C   UNL A   1      45.123  24.124  28.403  1.00  0.00     0.031 C 
ATOM     40  C   UNL A   1      40.301  25.443  27.881  1.00  0.00     0.029 A 
ATOM     41  N   UNL A   1      41.705  26.975  28.706  1.00  0.00    -0.354 N 
ATOM     42  C   UNL A   1      45.861  26.073  29.354  1.00  0.00     0.074 A 
ATOM     43  C   UNL A   1      46.167  24.711  28.971  1.00  0.00     0.031 C 
ATOM     44  C   UNL A   1      39.581  26.541  28.156  1.00  0.00     0.029 A 
ATOM     45  C   UNL A   1      40.462  27.559  28.718  1.00  0.00     0.049 A 
ATOM     46  H   UNL A   1      42.520  27.433  29.016  1.00  0.00     0.167 HD
ATOM     47  C   UNL A   1      46.763  26.947  29.863  1.00  0.00     0.037 A 
ATOM     48  C   UNL A   1      40.069  28.775  29.143  1.00  0.00     0.037 A 
ATOM     49  C   UNL A   1      46.464  28.306  30.231  1.00  0.00     0.049 A 
ATOM     50  C   UNL A   1      41.086  29.729  29.700  1.00  0.00     0.074 A 
ATOM     51  C   UNL A   1      47.330  29.291  30.672  1.00  0.00     0.029 A 
ATOM     52  N   UNL A   1      45.196  28.868  30.211  1.00  0.00    -0.354 N 
ATOM     53  N   UNL A   1      42.373  29.552  29.871  1.00  0.00    -0.248 NA
ATOM     54  C   UNL A   1      40.597  31.049  30.120  1.00  0.00     0.031 C 
ATOM     55  C   UNL A   1      46.580  30.438  30.959  1.00  0.00     0.029 A 
ATOM     56  C   UNL A   1      45.252  30.178  30.662  1.00  0.00     0.049 A 
ATOM     57  H   UNL A   1      44.377  28.405  29.921  1.00  0.00     0.167 HD
ATOM     58  C   UNL A   1      42.851  30.739  30.411  1.00  0.00     0.074 A 
ATOM     59  C   UNL A   1      41.718  31.636  30.520  1.00  0.00     0.031 C 
ATOM     60  C   UNL A   1      44.114  31.054  30.784  1.00  0.00     0.037 A 
BRANCH  47  61
ATOM     61  C   UNL A   1      48.166  26.448  30.044  1.00  0.00     0.057 A 
ATOM     62  C   UNL A   1      49.132  26.590  29.038  1.00  0.00     0.134 A 
ATOM     63  C   UNL A   1      48.558  25.826  31.236  1.00  0.00     0.134 A 
ATOM     64  F   UNL A   1      48.815  27.165  27.868  1.00  0.00    -0.206 F 
ATOM     65  C   UNL A   1      50.428  26.099  29.199  1.00  0.00     0.040 A 
ATOM     66  C   UNL A   1      49.859  25.355  31.417  1.00  0.00     0.040 A 
ATOM     67  F   UNL A   1      47.684  25.665  32.240  1.00  0.00    -0.206 F 
ATOM     68  C   UNL A   1      50.796  25.483  30.392  1.00  0.00     0.006 A 
ENDBRANCH  47  61
BRANCH  48  69
ATOM     69  C   UNL A   1      38.640  29.160  29.040  1.00  0.00     0.057 A 
ATOM     70  C   UNL A   1      37.792  29.080  30.150  1.00  0.00     0.134 A 
ATOM     71  C   UNL A   1      38.098  29.640  27.842  1.00  0.00     0.134 A 
ATOM     72  F   UNL A   1      38.252  28.611  31.318  1.00  0.00    -0.206 F 
ATOM     73  C   UNL A   1      36.451  29.458  30.071  1.00  0.00     0.040 A 
ATOM     74  C   UNL A   1      36.763  30.039  27.754  1.00  0.00     0.040 A 
ATOM     75  F   UNL A   1      38.865  29.746  26.748  1.00  0.00    -0.206 F 
ATOM     76  C   UNL A   1      35.935  29.946  28.871  1.00  0.00     0.006 A 
ENDBRANCH  48  69
BRANCH  60  77
ATOM     77  C   UNL A   1      44.337  32.423  31.352  1.00  0.00     0.057 A 
ATOM     78  C   UNL A   1      44.280  32.662  32.731  1.00  0.00     0.134 A 
ATOM     79  C   UNL A   1      44.644  33.506  30.519  1.00  0.00     0.134 A 
ATOM     80  F   UNL A   1      43.975  31.669  33.580  1.00  0.00    -0.206 F 
ATOM     81  C   UNL A   1      44.508  33.934  33.259  1.00  0.00     0.040 A 
ATOM     82  C   UNL A   1      44.893  34.777  31.037  1.00  0.00     0.040 A 
ATOM     83  F   UNL A   1      44.717  33.342  29.189  1.00  0.00    -0.206 F 
ATOM     84  C   UNL A   1      44.822  34.994  32.412  1.00  0.00     0.006 A 
ENDBRANCH  60  77
ENDBRANCH  34  35
ENDBRANCH  26  29
ENDBRANCH  24  25
ENDBRANCH   1  24
TORSDOF 12
ENDMDL
MODEL 3
REMARK VINA RESULT:     -11.9      1.878      3.044
REMARK SMILES O=C(NCCCCNC(=O)c1ccc(-c2c3nc(c(-c4c(F)cccc4F)c4ccc([nH]4)c(-c4c(F)cccc4F)c4nc(c(-c5c(F)cccc5F)c5ccc2[nH]5)C=C4)C=C3)cc1)C1=Cc2c(Cl)ccc(Cl)c2O[C@@H]1C(F)(F)F
REMARK SMILES IDX 6 1 5 2 4 3 3 4 1 5 2 6 65 8 66 9 76 10 67 11 75 12 68 13
REMARK SMILES IDX 74 14 69 15 70 16 72 17 71 18 73 19 77 20 78 21 79 22 80 23
REMARK SMILES IDX 7 24 8 25 9 26 10 28 11 29 12 30 64 31 13 32 63 33 14 34
REMARK SMILES IDX 15 35 16 36 57 37 17 38 62 39 56 40 58 41 18 42 61 43 55 44
REMARK SMILES IDX 54 45 19 47 45 48 28 49 44 50 29 51 32 52 43 53 59 54 30 55
REMARK SMILES IDX 31 56 42 58 60 59 33 60 20 61 21 62 26 63 22 64 23 65 25 66
REMARK SMILES IDX 27 67 24 68 46 69 47 70 52 71 48 72 49 73 51 74 53 75 50 76
REMARK SMILES IDX 34 77 35 78 40 79 36 80 37 81 39 82 41 83 38 84
REMARK H PARENT 3 7 8 27 58 46 32 57
REMARK Flexibility Score: inf
ROOT
ATOM      1  C   UNL A   1      32.018  28.945  26.650  1.00  0.00     0.023 C 
ENDROOT
BRANCH   1   2
ATOM      2  C   UNL A   1      31.406  27.560  26.887  1.00  0.00     0.023 C 
BRANCH   2   3
ATOM      3  C   UNL A   1      32.404  26.403  26.766  1.00  0.00     0.116 C 
BRANCH   3   4
ATOM      4  N   UNL A   1      31.774  25.083  26.875  1.00  0.00    -0.352 N 
ATOM      5  O   UNL A   1      31.155  23.013  26.196  1.00  0.00    -0.270 OA
ATOM      6  C   UNL A   1      31.412  24.175  25.909  1.00  0.00     0.251 C 
ATOM      7  H   UNL A   1      31.578  24.800  27.798  1.00  0.00     0.163 HD
BRANCH   6   8
ATOM      8  C   UNL A   1      31.450  24.614  24.505  1.00  0.00     0.067 C 
ATOM      9  C   UNL A   1      30.395  25.261  23.995  1.00  0.00     0.027 C 
ATOM     10  C   UNL A   1      32.770  24.595  23.810  1.00  0.00     0.314 C 
ATOM     11  C   UNL A   1      30.769  26.528  23.330  1.00  0.00     0.037 A 
ATOM     12  O   UNL A   1      33.152  25.917  23.375  1.00  0.00    -0.474 OA
ATOM     13  C   UNL A   1      29.829  27.573  23.223  1.00  0.00     0.052 A 
ATOM     14  C   UNL A   1      32.144  26.834  23.165  1.00  0.00     0.148 A 
ATOM     15  Cl  UNL A   1      28.135  27.337  23.498  1.00  0.00    -0.084 Cl
ATOM     16  C   UNL A   1      30.252  28.890  23.019  1.00  0.00     0.023 A 
ATOM     17  C   UNL A   1      32.551  28.159  22.946  1.00  0.00     0.083 A 
ATOM     18  C   UNL A   1      31.609  29.184  22.893  1.00  0.00     0.026 A 
ATOM     19  Cl  UNL A   1      34.225  28.585  22.874  1.00  0.00    -0.080 Cl
BRANCH  10  20
ATOM     20  C   UNL A   1      32.767  23.606  22.629  1.00  0.00     0.429 C 
ATOM     21  F   UNL A   1      32.546  24.245  21.455  1.00  0.00    -0.167 F 
ATOM     22  F   UNL A   1      33.950  22.959  22.507  1.00  0.00    -0.167 F 
ATOM     23  F   UNL A   1      31.804  22.661  22.755  1.00  0.00    -0.167 F 
ENDBRANCH  10  20
ENDBRANCH   6   8
ENDBRANCH   3   4
ENDBRANCH   2   3
ENDBRANCH   1   2
BRANCH   1  24
ATOM     24  C   UNL A   1      33.408  29.193  27.234  1.00  0.00     0.116 C 
BRANCH  24  25
ATOM     25  N   UNL A   1      33.571  30.478  27.897  1.00  0.00    -0.352 N 
ATOM     26  C   UNL A   1      34.704  30.992  28.495  1.00  0.00     0.251 C 
ATOM     27  H   UNL A   1      32.772  31.053  27.924  1.00  0.00     0.163 HD
ATOM     28  O   UNL A   1      34.682  32.098  29.029  1.00  0.00    -0.269 OA
BRANCH  26  29
ATOM     29  C   UNL A   1      35.929  30.163  28.549  1.00  0.00     0.039 A 
ATOM     30  C   UNL A   1      36.774  30.140  27.436  1.00  0.00     0.014 A 
ATOM     31  C   UNL A   1      36.301  29.520  29.733  1.00  0.00     0.014 A 
ATOM     32  C   UNL A   1      38.052  29.589  27.553  1.00  0.00     0.010 A 
ATOM     33  C   UNL A   1      37.599  29.032  29.867  1.00  0.00     0.010 A 
ATOM     34  C   UNL A   1      38.500  29.100  28.792  1.00  0.00    -0.014 A 
BRANCH  34  35
ATOM     35  C   UNL A   1      39.930  28.758  29.011  1.00  0.00     0.031 A 
ATOM     36  C   UNL A   1      40.893  29.774  29.551  1.00  0.00     0.074 A 
ATOM     37  C   UNL A   1      40.383  27.551  28.618  1.00  0.00     0.049 A 
ATOM     38  N   UNL A   1      42.185  29.669  29.735  1.00  0.00    -0.248 NA
ATOM     39  C   UNL A   1      40.337  31.088  29.905  1.00  0.00     0.031 C 
ATOM     40  C   UNL A   1      39.568  26.499  28.005  1.00  0.00     0.029 A 
ATOM     41  N   UNL A   1      41.645  27.010  28.655  1.00  0.00    -0.354 N 
ATOM     42  C   UNL A   1      42.599  30.904  30.216  1.00  0.00     0.074 A 
ATOM     43  C   UNL A   1      41.429  31.757  30.247  1.00  0.00     0.031 C 
ATOM     44  C   UNL A   1      40.345  25.439  27.738  1.00  0.00     0.029 A 
ATOM     45  C   UNL A   1      41.717  25.743  28.130  1.00  0.00     0.049 A 
ATOM     46  H   UNL A   1      42.424  27.487  29.023  1.00  0.00     0.167 HD
ATOM     47  C   UNL A   1      43.837  31.286  30.615  1.00  0.00     0.037 A 
ATOM     48  C   UNL A   1      42.769  24.918  27.972  1.00  0.00     0.037 A 
ATOM     49  C   UNL A   1      44.997  30.435  30.597  1.00  0.00     0.049 A 
ATOM     50  C   UNL A   1      44.131  25.360  28.424  1.00  0.00     0.074 A 
ATOM     51  C   UNL A   1      46.273  30.706  31.064  1.00  0.00     0.029 A 
ATOM     52  N   UNL A   1      45.027  29.150  30.077  1.00  0.00    -0.354 N 
ATOM     53  N   UNL A   1      44.490  26.500  28.963  1.00  0.00    -0.248 NA
ATOM     54  C   UNL A   1      45.232  24.403  28.248  1.00  0.00     0.031 C 
ATOM     55  C   UNL A   1      47.084  29.599  30.787  1.00  0.00     0.029 A 
ATOM     56  C   UNL A   1      46.305  28.625  30.182  1.00  0.00     0.049 A 
ATOM     57  H   UNL A   1      44.254  28.679  29.690  1.00  0.00     0.167 HD
ATOM     58  C   UNL A   1      45.854  26.396  29.198  1.00  0.00     0.074 A 
ATOM     59  C   UNL A   1      46.255  25.073  28.762  1.00  0.00     0.031 C 
ATOM     60  C   UNL A   1      46.697  27.316  29.726  1.00  0.00     0.037 A 
BRANCH  47  61
ATOM     61  C   UNL A   1      43.988  32.694  31.109  1.00  0.00     0.057 A 
ATOM     62  C   UNL A   1      43.826  33.019  32.462  1.00  0.00     0.134 A 
ATOM     63  C   UNL A   1      44.303  33.734  30.226  1.00  0.00     0.134 A 
ATOM     64  F   UNL A   1      43.510  32.070  33.356  1.00  0.00    -0.206 F 
ATOM     65  C   UNL A   1      43.939  34.335  32.914  1.00  0.00     0.040 A 
ATOM     66  C   UNL A   1      44.444  35.049  30.671  1.00  0.00     0.040 A 
ATOM     67  F   UNL A   1      44.477  33.489  28.919  1.00  0.00    -0.206 F 
ATOM     68  C   UNL A   1      44.252  35.354  32.018  1.00  0.00     0.006 A 
ENDBRANCH  47  61
BRANCH  48  69
ATOM     69  C   UNL A   1      42.566  23.579  27.368  1.00  0.00     0.057 A 
ATOM     70  C   UNL A   1      42.298  22.462  28.166  1.00  0.00     0.134 A 
ATOM     71  C   UNL A   1      42.610  23.390  25.981  1.00  0.00     0.134 A 
ATOM     72  F   UNL A   1      42.262  22.580  29.501  1.00  0.00    -0.206 F 
ATOM     73  C   UNL A   1      42.086  21.201  27.608  1.00  0.00     0.040 A 
ATOM     74  C   UNL A   1      42.382  22.137  25.408  1.00  0.00     0.040 A 
ATOM     75  F   UNL A   1      42.855  24.424  25.164  1.00  0.00    -0.206 F 
ATOM     76  C   UNL A   1      42.121  21.037  26.224  1.00  0.00     0.006 A 
ENDBRANCH  48  69
BRANCH  60  77
ATOM     77  C   UNL A   1      48.138  26.926  29.855  1.00  0.00     0.057 A 
ATOM     78  C   UNL A   1      49.073  27.239  28.860  1.00  0.00     0.134 A 
ATOM     79  C   UNL A   1      48.605  26.262  30.996  1.00  0.00     0.134 A 
ATOM     80  F   UNL A   1      48.686  27.860  27.735  1.00  0.00    -0.206 F 
ATOM     81  C   UNL A   1      50.419  26.893  28.990  1.00  0.00     0.040 A 
ATOM     82  C   UNL A   1      49.952  25.930  31.146  1.00  0.00     0.040 A 
ATOM     83  F   UNL A   1      47.761  25.937  31.987  1.00  0.00    -0.206 F 
ATOM     84  C   UNL A   1      50.862  26.243  30.139  1.00  0.00     0.006 A 
ENDBRANCH  60  77
ENDBRANCH  34  35
ENDBRANCH  26  29
ENDBRANCH  24  25
ENDBRANCH   1  24
TORSDOF 12
ENDMDL
