MODEL 1
REMARK VINA RESULT:     -11.6      0.000      0.000
REMARK SMILES CC(=O)N[C@@H](Cc1c(OCC(C)C)ccc2ccccc12)C(=O)NCCCCNC(=O)c1ccc(-c2c3nc(c(-c4c(F)cccc4F)c4ccc([nH]4)c(-c4c(F)cccc4F)c4nc(c(-c5c(F)cccc5F)c5ccc2[nH]5)C=C4)C=C3)cc1
REMARK SMILES IDX 25 1 24 2 22 3 23 4 5 6 4 7 1 8 2 9 3 10 6 12 7 13 8 14
REMARK SMILES IDX 21 15 14 16 16 17 20 18 15 19 17 20 19 21 18 22 9 23 10 24
REMARK SMILES IDX 11 25 12 26 13 27 26 28 27 29 28 30 29 31 30 32 31 34 32 35
REMARK SMILES IDX 33 36 85 37 34 38 84 39 35 40 36 41 37 42 78 43 38 44 83 45
REMARK SMILES IDX 77 46 79 47 39 48 82 49 76 50 75 51 40 53 66 54 49 55 65 56
REMARK SMILES IDX 50 57 53 58 64 59 80 60 51 61 52 62 63 64 81 65 54 66 41 67
REMARK SMILES IDX 42 68 47 69 43 70 44 71 46 72 48 73 45 74 67 75 68 76 73 77
REMARK SMILES IDX 69 78 70 79 72 80 74 81 71 82 55 83 56 84 61 85 57 86 58 87
REMARK SMILES IDX 60 88 62 89 59 90
REMARK H PARENT 24 5 4 11 29 33 79 52 53 63
REMARK Flexibility Score: inf
ROOT
ATOM      1  C   UNL A   1      31.821  27.283  26.464  1.00  0.00     0.116 C 
ENDROOT
BRANCH   1   2
ATOM      2  N   UNL A   1      30.574  26.584  26.700  1.00  0.00    -0.354 N 
ATOM      3  C   UNL A   1      30.105  25.417  26.164  1.00  0.00     0.242 C 
ATOM      4  O   UNL A   1      29.208  24.848  26.800  1.00  0.00    -0.273 OA
ATOM      5  H   UNL A   1      29.971  27.016  27.347  1.00  0.00     0.163 HD
BRANCH   3   6
ATOM      6  C   UNL A   1      30.681  24.749  24.886  1.00  0.00     0.175 C 
BRANCH   6   7
ATOM      7  N   UNL A   1      30.718  23.286  24.953  1.00  0.00    -0.344 N 
ATOM      8  C   UNL A   1      32.608  23.127  26.537  1.00  0.00     0.114 C 
ATOM      9  C   UNL A   1      31.491  22.496  25.749  1.00  0.00     0.217 C 
ATOM     10  O   UNL A   1      31.280  21.285  25.780  1.00  0.00    -0.275 OA
ATOM     11  H   UNL A   1      30.106  22.812  24.344  1.00  0.00     0.164 HD
ENDBRANCH   6   7
BRANCH   6  12
ATOM     12  C   UNL A   1      30.123  25.306  23.554  1.00  0.00     0.075 C 
BRANCH  12  13
ATOM     13  C   UNL A   1      30.558  26.713  23.162  1.00  0.00     0.005 A 
ATOM     14  C   UNL A   1      31.924  26.949  22.887  1.00  0.00     0.123 A 
ATOM     15  C   UNL A   1      29.630  27.804  23.120  1.00  0.00    -0.011 A 
ATOM     16  C   UNL A   1      32.379  28.254  22.712  1.00  0.00     0.047 A 
ATOM     17  C   UNL A   1      30.128  29.116  22.911  1.00  0.00    -0.018 A 
ATOM     18  C   UNL A   1      28.225  27.674  23.258  1.00  0.00     0.009 A 
ATOM     19  C   UNL A   1      31.496  29.327  22.747  1.00  0.00     0.012 A 
ATOM     20  C   UNL A   1      29.258  30.215  22.853  1.00  0.00     0.009 A 
ATOM     21  C   UNL A   1      27.367  28.775  23.184  1.00  0.00     0.001 A 
ATOM     22  C   UNL A   1      27.884  30.046  22.981  1.00  0.00     0.001 A 
BRANCH  14  23
ATOM     23  O   UNL A   1      32.734  25.854  22.741  1.00  0.00    -0.493 OA
BRANCH  23  24
ATOM     24  C   UNL A   1      33.825  25.688  23.648  1.00  0.00     0.232 C 
BRANCH  24  25
ATOM     25  C   UNL A   1      34.642  24.417  23.361  1.00  0.00     0.020 C 
ATOM     26  C   UNL A   1      35.446  23.924  24.564  1.00  0.00     0.011 C 
ATOM     27  C   UNL A   1      33.708  23.301  22.888  1.00  0.00     0.011 C 
ENDBRANCH  24  25
ENDBRANCH  23  24
ENDBRANCH  14  23
ENDBRANCH  12  13
ENDBRANCH   6  12
ENDBRANCH   3   6
ENDBRANCH   1   2
BRANCH   1  28
ATOM     28  C   UNL A   1      32.038  28.510  27.340  1.00  0.00     0.023 C 
BRANCH  28  29
ATOM     29  C   UNL A   1      31.908  29.867  26.642  1.00  0.00     0.023 C 
BRANCH  29  30
ATOM     30  C   UNL A   1      32.910  30.957  27.030  1.00  0.00     0.116 C 
BRANCH  30  31
ATOM     31  N   UNL A   1      32.336  32.277  27.234  1.00  0.00    -0.352 N 
ATOM     32  C   UNL A   1      32.889  33.370  27.873  1.00  0.00     0.251 C 
ATOM     33  H   UNL A   1      31.431  32.409  26.869  1.00  0.00     0.163 HD
ATOM     34  O   UNL A   1      32.282  34.420  27.956  1.00  0.00    -0.269 OA
BRANCH  32  35
ATOM     35  C   UNL A   1      34.223  33.228  28.500  1.00  0.00     0.039 A 
ATOM     36  C   UNL A   1      34.308  32.647  29.768  1.00  0.00     0.014 A 
ATOM     37  C   UNL A   1      35.378  33.594  27.806  1.00  0.00     0.014 A 
ATOM     38  C   UNL A   1      35.563  32.330  30.297  1.00  0.00     0.010 A 
ATOM     39  C   UNL A   1      36.627  33.237  28.316  1.00  0.00     0.010 A 
ATOM     40  C   UNL A   1      36.727  32.569  29.547  1.00  0.00    -0.014 A 
BRANCH  40  41
ATOM     41  C   UNL A   1      38.043  32.037  29.986  1.00  0.00     0.031 A 
ATOM     42  C   UNL A   1      38.557  30.725  29.471  1.00  0.00     0.074 A 
ATOM     43  C   UNL A   1      38.737  32.704  30.931  1.00  0.00     0.049 A 
ATOM     44  N   UNL A   1      39.636  30.069  29.816  1.00  0.00    -0.248 NA
ATOM     45  C   UNL A   1      37.743  30.054  28.447  1.00  0.00     0.031 C 
ATOM     46  C   UNL A   1      38.327  33.968  31.548  1.00  0.00     0.029 A 
ATOM     47  N   UNL A   1      39.923  32.402  31.552  1.00  0.00    -0.354 N 
ATOM     48  C   UNL A   1      39.629  28.904  29.061  1.00  0.00     0.074 A 
ATOM     49  C   UNL A   1      38.418  28.927  28.265  1.00  0.00     0.031 C 
ATOM     50  C   UNL A   1      39.251  34.337  32.449  1.00  0.00     0.029 A 
ATOM     51  C   UNL A   1      40.297  33.321  32.503  1.00  0.00     0.049 A 
ATOM     52  H   UNL A   1      40.457  31.603  31.336  1.00  0.00     0.167 HD
ATOM     53  C   UNL A   1      40.554  27.917  29.023  1.00  0.00     0.037 A 
ATOM     54  C   UNL A   1      41.354  33.339  33.337  1.00  0.00     0.037 A 
ATOM     55  C   UNL A   1      41.767  27.900  29.799  1.00  0.00     0.049 A 
ATOM     56  C   UNL A   1      42.352  32.216  33.293  1.00  0.00     0.074 A 
ATOM     57  C   UNL A   1      42.797  26.977  29.770  1.00  0.00     0.029 A 
ATOM     58  N   UNL A   1      42.109  28.850  30.751  1.00  0.00    -0.354 N 
ATOM     59  N   UNL A   1      42.367  31.157  32.523  1.00  0.00    -0.248 NA
ATOM     60  C   UNL A   1      43.477  32.291  34.236  1.00  0.00     0.031 C 
ATOM     61  C   UNL A   1      43.743  27.344  30.733  1.00  0.00     0.029 A 
ATOM     62  C   UNL A   1      43.320  28.517  31.336  1.00  0.00     0.049 A 
ATOM     63  H   UNL A   1      41.571  29.641  30.977  1.00  0.00     0.167 HD
ATOM     64  C   UNL A   1      43.507  30.448  32.875  1.00  0.00     0.074 A 
ATOM     65  C   UNL A   1      44.167  31.204  33.919  1.00  0.00     0.031 C 
ATOM     66  C   UNL A   1      43.965  29.274  32.377  1.00  0.00     0.037 A 
BRANCH  53  67
ATOM     67  C   UNL A   1      40.292  26.762  28.103  1.00  0.00     0.057 A 
ATOM     68  C   UNL A   1      40.848  26.705  26.819  1.00  0.00     0.134 A 
ATOM     69  C   UNL A   1      39.514  25.675  28.522  1.00  0.00     0.134 A 
ATOM     70  F   UNL A   1      41.595  27.719  26.356  1.00  0.00    -0.206 F 
ATOM     71  C   UNL A   1      40.623  25.617  25.974  1.00  0.00     0.040 A 
ATOM     72  C   UNL A   1      39.299  24.571  27.695  1.00  0.00     0.040 A 
ATOM     73  F   UNL A   1      38.959  25.664  29.743  1.00  0.00    -0.206 F 
ATOM     74  C   UNL A   1      39.850  24.543  26.415  1.00  0.00     0.006 A 
ENDBRANCH  53  67
BRANCH  54  75
ATOM     75  C   UNL A   1      41.529  34.465  34.286  1.00  0.00     0.057 A 
ATOM     76  C   UNL A   1      42.266  35.600  33.928  1.00  0.00     0.134 A 
ATOM     77  C   UNL A   1      40.974  34.432  35.571  1.00  0.00     0.134 A 
ATOM     78  F   UNL A   1      42.839  35.677  32.718  1.00  0.00    -0.206 F 
ATOM     79  C   UNL A   1      42.456  36.657  34.818  1.00  0.00     0.040 A 
ATOM     80  C   UNL A   1      41.139  35.492  36.463  1.00  0.00     0.040 A 
ATOM     81  F   UNL A   1      40.254  33.374  35.970  1.00  0.00    -0.206 F 
ATOM     82  C   UNL A   1      41.886  36.606  36.089  1.00  0.00     0.006 A 
ENDBRANCH  54  75
BRANCH  66  83
ATOM     83  C   UNL A   1      45.246  28.742  32.945  1.00  0.00     0.057 A 
ATOM     84  C   UNL A   1      45.255  27.847  34.022  1.00  0.00     0.134 A 
ATOM     85  C   UNL A   1      46.479  29.095  32.384  1.00  0.00     0.134 A 
ATOM     86  F   UNL A   1      44.106  27.482  34.613  1.00  0.00    -0.206 F 
ATOM     87  C   UNL A   1      46.448  27.331  34.530  1.00  0.00     0.040 A 
ATOM     88  C   UNL A   1      47.678  28.571  32.871  1.00  0.00     0.040 A 
ATOM     89  F   UNL A   1      46.538  29.945  31.347  1.00  0.00    -0.206 F 
ATOM     90  C   UNL A   1      47.664  27.689  33.950  1.00  0.00     0.006 A 
ENDBRANCH  66  83
ENDBRANCH  40  41
ENDBRANCH  32  35
ENDBRANCH  30  31
ENDBRANCH  29  30
ENDBRANCH  28  29
ENDBRANCH   1  28
TORSDOF 17
ENDMDL
MODEL 2
REMARK VINA RESULT:     -11.6      1.608      2.278
REMARK SMILES CC(=O)N[C@@H](Cc1c(OCC(C)C)ccc2ccccc12)C(=O)NCCCCNC(=O)c1ccc(-c2c3nc(c(-c4c(F)cccc4F)c4ccc([nH]4)c(-c4c(F)cccc4F)c4nc(c(-c5c(F)cccc5F)c5ccc2[nH]5)C=C4)C=C3)cc1
REMARK SMILES IDX 25 1 24 2 22 3 23 4 5 6 4 7 1 8 2 9 3 10 6 12 7 13 8 14
REMARK SMILES IDX 21 15 14 16 16 17 20 18 15 19 17 20 19 21 18 22 9 23 10 24
REMARK SMILES IDX 11 25 12 26 13 27 26 28 27 29 28 30 29 31 30 32 31 34 32 35
REMARK SMILES IDX 33 36 85 37 34 38 84 39 35 40 36 41 37 42 78 43 38 44 83 45
REMARK SMILES IDX 77 46 79 47 39 48 82 49 76 50 75 51 40 53 66 54 49 55 65 56
REMARK SMILES IDX 50 57 53 58 64 59 80 60 51 61 52 62 63 64 81 65 54 66 41 67
REMARK SMILES IDX 42 68 47 69 43 70 44 71 46 72 48 73 45 74 67 75 68 76 73 77
REMARK SMILES IDX 69 78 70 79 72 80 74 81 71 82 55 83 56 84 61 85 57 86 58 87
REMARK SMILES IDX 60 88 62 89 59 90
REMARK H PARENT 24 5 4 11 29 33 79 52 53 63
REMARK Flexibility Score: inf
ROOT
ATOM      1  C   UNL A   1      31.884  27.177  26.611  1.00  0.00     0.116 C 
ENDROOT
BRANCH   1   2
ATOM      2  N   UNL A   1      30.608  26.527  26.827  1.00  0.00    -0.354 N 
ATOM      3  C   UNL A   1      30.085  25.403  26.252  1.00  0.00     0.242 C 
ATOM      4  O   UNL A   1      29.164  24.854  26.871  1.00  0.00    -0.273 OA
ATOM      5  H   UNL A   1      30.026  26.964  27.491  1.00  0.00     0.163 HD
BRANCH   3   6
ATOM      6  C   UNL A   1      30.627  24.755  24.950  1.00  0.00     0.175 C 
BRANCH   6   7
ATOM      7  N   UNL A   1      30.662  23.291  24.992  1.00  0.00    -0.344 N 
ATOM      8  C   UNL A   1      32.585  23.101  26.530  1.00  0.00     0.114 C 
ATOM      9  C   UNL A   1      31.450  22.486  25.758  1.00  0.00     0.217 C 
ATOM     10  O   UNL A   1      31.237  21.275  25.773  1.00  0.00    -0.275 OA
ATOM     11  H   UNL A   1      30.035  22.829  24.389  1.00  0.00     0.164 HD
ENDBRANCH   6   7
BRANCH   6  12
ATOM     12  C   UNL A   1      30.037  25.335  23.641  1.00  0.00     0.075 C 
BRANCH  12  13
ATOM     13  C   UNL A   1      30.525  26.716  23.222  1.00  0.00     0.005 A 
ATOM     14  C   UNL A   1      31.900  26.897  22.948  1.00  0.00     0.123 A 
ATOM     15  C   UNL A   1      29.638  27.840  23.153  1.00  0.00    -0.011 A 
ATOM     16  C   UNL A   1      32.404  28.180  22.748  1.00  0.00     0.047 A 
ATOM     17  C   UNL A   1      30.185  29.128  22.918  1.00  0.00    -0.018 A 
ATOM     18  C   UNL A   1      28.229  27.764  23.287  1.00  0.00     0.009 A 
ATOM     19  C   UNL A   1      31.560  29.285  22.757  1.00  0.00     0.012 A 
ATOM     20  C   UNL A   1      29.356  30.256  22.833  1.00  0.00     0.009 A 
ATOM     21  C   UNL A   1      27.412  28.895  23.185  1.00  0.00     0.001 A 
ATOM     22  C   UNL A   1      27.976  30.141  22.958  1.00  0.00     0.001 A 
BRANCH  14  23
ATOM     23  O   UNL A   1      32.670  25.769  22.829  1.00  0.00    -0.493 OA
BRANCH  23  24
ATOM     24  C   UNL A   1      33.841  25.657  23.639  1.00  0.00     0.232 C 
BRANCH  24  25
ATOM     25  C   UNL A   1      34.649  24.384  23.333  1.00  0.00     0.020 C 
ATOM     26  C   UNL A   1      35.481  23.890  24.516  1.00  0.00     0.011 C 
ATOM     27  C   UNL A   1      33.702  23.269  22.883  1.00  0.00     0.011 C 
ENDBRANCH  24  25
ENDBRANCH  23  24
ENDBRANCH  14  23
ENDBRANCH  12  13
ENDBRANCH   6  12
ENDBRANCH   3   6
ENDBRANCH   1   2
BRANCH   1  28
ATOM     28  C   UNL A   1      32.030  28.533  27.289  1.00  0.00     0.023 C 
BRANCH  28  29
ATOM     29  C   UNL A   1      31.403  29.723  26.556  1.00  0.00     0.023 C 
BRANCH  29  30
ATOM     30  C   UNL A   1      32.335  30.859  26.129  1.00  0.00     0.116 C 
BRANCH  30  31
ATOM     31  N   UNL A   1      32.075  32.141  26.763  1.00  0.00    -0.352 N 
ATOM     32  C   UNL A   1      32.910  32.892  27.568  1.00  0.00     0.251 C 
ATOM     33  H   UNL A   1      31.184  32.526  26.597  1.00  0.00     0.163 HD
ATOM     34  O   UNL A   1      32.548  33.961  28.021  1.00  0.00    -0.269 OA
BRANCH  32  35
ATOM     35  C   UNL A   1      34.244  32.350  27.912  1.00  0.00     0.039 A 
ATOM     36  C   UNL A   1      35.321  33.234  28.010  1.00  0.00     0.014 A 
ATOM     37  C   UNL A   1      34.408  30.994  28.209  1.00  0.00     0.014 A 
ATOM     38  C   UNL A   1      36.542  32.779  28.515  1.00  0.00     0.010 A 
ATOM     39  C   UNL A   1      35.613  30.552  28.755  1.00  0.00     0.010 A 
ATOM     40  C   UNL A   1      36.678  31.448  28.947  1.00  0.00    -0.014 A 
BRANCH  40  41
ATOM     41  C   UNL A   1      37.883  31.004  29.692  1.00  0.00     0.031 A 
ATOM     42  C   UNL A   1      38.863  30.049  29.079  1.00  0.00     0.074 A 
ATOM     43  C   UNL A   1      38.043  31.399  30.972  1.00  0.00     0.049 A 
ATOM     44  N   UNL A   1      39.915  29.487  29.618  1.00  0.00    -0.248 NA
ATOM     45  C   UNL A   1      38.619  29.660  27.682  1.00  0.00     0.031 C 
ATOM     46  C   UNL A   1      37.139  32.290  31.703  1.00  0.00     0.029 A 
ATOM     47  N   UNL A   1      39.012  31.084  31.892  1.00  0.00    -0.354 N 
ATOM     48  C   UNL A   1      40.455  28.671  28.634  1.00  0.00     0.074 A 
ATOM     49  C   UNL A   1      39.593  28.784  27.474  1.00  0.00     0.031 C 
ATOM     50  C   UNL A   1      37.602  32.459  32.952  1.00  0.00     0.029 A 
ATOM     51  C   UNL A   1      38.811  31.661  33.124  1.00  0.00     0.049 A 
ATOM     52  H   UNL A   1      39.780  30.501  31.689  1.00  0.00     0.167 HD
ATOM     53  C   UNL A   1      41.575  27.912  28.687  1.00  0.00     0.037 A 
ATOM     54  C   UNL A   1      39.510  31.548  34.269  1.00  0.00     0.037 A 
ATOM     55  C   UNL A   1      42.443  27.812  29.831  1.00  0.00     0.049 A 
ATOM     56  C   UNL A   1      40.734  30.677  34.308  1.00  0.00     0.074 A 
ATOM     57  C   UNL A   1      43.640  27.125  29.949  1.00  0.00     0.029 A 
ATOM     58  N   UNL A   1      42.205  28.411  31.059  1.00  0.00    -0.354 N 
ATOM     59  N   UNL A   1      41.271  29.968  33.346  1.00  0.00    -0.248 NA
ATOM     60  C   UNL A   1      41.446  30.590  35.591  1.00  0.00     0.031 C 
ATOM     61  C   UNL A   1      44.104  27.274  31.259  1.00  0.00     0.029 A 
ATOM     62  C   UNL A   1      43.216  28.084  31.948  1.00  0.00     0.049 A 
ATOM     63  H   UNL A   1      41.432  28.982  31.267  1.00  0.00     0.167 HD
ATOM     64  C   UNL A   1      42.391  29.363  33.901  1.00  0.00     0.074 A 
ATOM     65  C   UNL A   1      42.465  29.801  35.279  1.00  0.00     0.031 C 
ATOM     66  C   UNL A   1      43.278  28.521  33.319  1.00  0.00     0.037 A 
BRANCH  53  67
ATOM     67  C   UNL A   1      41.932  27.124  27.462  1.00  0.00     0.057 A 
ATOM     68  C   UNL A   1      42.676  27.686  26.417  1.00  0.00     0.134 A 
ATOM     69  C   UNL A   1      41.566  25.777  27.345  1.00  0.00     0.134 A 
ATOM     70  F   UNL A   1      43.049  28.974  26.465  1.00  0.00    -0.206 F 
ATOM     71  C   UNL A   1      43.029  26.943  25.290  1.00  0.00     0.040 A 
ATOM     72  C   UNL A   1      41.931  25.016  26.232  1.00  0.00     0.040 A 
ATOM     73  F   UNL A   1      40.859  25.176  28.314  1.00  0.00    -0.206 F 
ATOM     74  C   UNL A   1      42.660  25.601  25.199  1.00  0.00     0.006 A 
ENDBRANCH  53  67
BRANCH  54  75
ATOM     75  C   UNL A   1      39.073  32.286  35.479  1.00  0.00     0.057 A 
ATOM     76  C   UNL A   1      38.282  31.665  36.452  1.00  0.00     0.134 A 
ATOM     77  C   UNL A   1      39.429  33.623  35.689  1.00  0.00     0.134 A 
ATOM     78  F   UNL A   1      37.894  30.391  36.294  1.00  0.00    -0.206 F 
ATOM     79  C   UNL A   1      37.847  32.352  37.586  1.00  0.00     0.040 A 
ATOM     80  C   UNL A   1      39.017  34.316  36.828  1.00  0.00     0.040 A 
ATOM     81  F   UNL A   1      40.189  34.271  34.794  1.00  0.00    -0.206 F 
ATOM     82  C   UNL A   1      38.219  33.682  37.778  1.00  0.00     0.006 A 
ENDBRANCH  54  75
BRANCH  66  83
ATOM     83  C   UNL A   1      44.411  28.027  34.165  1.00  0.00     0.057 A 
ATOM     84  C   UNL A   1      45.587  28.770  34.324  1.00  0.00     0.134 A 
ATOM     85  C   UNL A   1      44.311  26.816  34.861  1.00  0.00     0.134 A 
ATOM     86  F   UNL A   1      45.751  29.931  33.671  1.00  0.00    -0.206 F 
ATOM     87  C   UNL A   1      46.630  28.320  35.135  1.00  0.00     0.040 A 
ATOM     88  C   UNL A   1      45.338  26.364  35.690  1.00  0.00     0.040 A 
ATOM     89  F   UNL A   1      43.208  26.058  34.755  1.00  0.00    -0.206 F 
ATOM     90  C   UNL A   1      46.504  27.116  35.826  1.00  0.00     0.006 A 
ENDBRANCH  66  83
ENDBRANCH  40  41
ENDBRANCH  32  35
ENDBRANCH  30  31
ENDBRANCH  29  30
ENDBRANCH  28  29
ENDBRANCH   1  28
TORSDOF 17
ENDMDL
MODEL 3
REMARK VINA RESULT:     -11.6      2.893      7.105
REMARK SMILES CC(=O)N[C@@H](Cc1c(OCC(C)C)ccc2ccccc12)C(=O)NCCCCNC(=O)c1ccc(-c2c3nc(c(-c4c(F)cccc4F)c4ccc([nH]4)c(-c4c(F)cccc4F)c4nc(c(-c5c(F)cccc5F)c5ccc2[nH]5)C=C4)C=C3)cc1
REMARK SMILES IDX 25 1 24 2 22 3 23 4 5 6 4 7 1 8 2 9 3 10 6 12 7 13 8 14
REMARK SMILES IDX 21 15 14 16 16 17 20 18 15 19 17 20 19 21 18 22 9 23 10 24
REMARK SMILES IDX 11 25 12 26 13 27 26 28 27 29 28 30 29 31 30 32 31 34 32 35
REMARK SMILES IDX 33 36 85 37 34 38 84 39 35 40 36 41 37 42 78 43 38 44 83 45
REMARK SMILES IDX 77 46 79 47 39 48 82 49 76 50 75 51 40 53 66 54 49 55 65 56
REMARK SMILES IDX 50 57 53 58 64 59 80 60 51 61 52 62 63 64 81 65 54 66 41 67
REMARK SMILES IDX 42 68 47 69 43 70 44 71 46 72 48 73 45 74 67 75 68 76 73 77
REMARK SMILES IDX 69 78 70 79 72 80 74 81 71 82 55 83 56 84 61 85 57 86 58 87
REMARK SMILES IDX 60 88 62 89 59 90
REMARK H PARENT 24 5 4 11 29 33 79 52 53 63
REMARK Flexibility Score: inf
ROOT
ATOM      1  C   UNL A   1      32.494  25.929  26.499  1.00  0.00     0.116 C 
ENDROOT
BRANCH   1   2
ATOM      2  N   UNL A   1      31.317  25.157  26.842  1.00  0.00    -0.354 N 
ATOM      3  C   UNL A   1      30.993  23.865  26.534  1.00  0.00     0.242 C 
ATOM      4  O   UNL A   1      30.134  23.334  27.251  1.00  0.00    -0.273 OA
ATOM      5  H   UNL A   1      30.647  25.637  27.380  1.00  0.00     0.163 HD
BRANCH   3   6
ATOM      6  C   UNL A   1      31.685  23.031  25.423  1.00  0.00     0.175 C 
BRANCH   6   7
ATOM      7  N   UNL A   1      31.782  21.603  25.733  1.00  0.00    -0.344 N 
ATOM      8  C   UNL A   1      32.302  20.852  23.438  1.00  0.00     0.114 C 
ATOM      9  C   UNL A   1      32.153  20.582  24.911  1.00  0.00     0.217 C 
ATOM     10  O   UNL A   1      32.325  19.460  25.385  1.00  0.00    -0.275 OA
ATOM     11  H   UNL A   1      31.549  21.347  26.655  1.00  0.00     0.164 HD
ENDBRANCH   6   7
BRANCH   6  12
ATOM     12  C   UNL A   1      31.198  23.334  23.985  1.00  0.00     0.075 C 
BRANCH  12  13
ATOM     13  C   UNL A   1      31.728  24.605  23.334  1.00  0.00     0.005 A 
ATOM     14  C   UNL A   1      33.050  24.613  22.836  1.00  0.00     0.123 A 
ATOM     15  C   UNL A   1      30.941  25.801  23.266  1.00  0.00    -0.011 A 
ATOM     16  C   UNL A   1      33.623  25.810  22.409  1.00  0.00     0.047 A 
ATOM     17  C   UNL A   1      31.550  26.994  22.799  1.00  0.00    -0.018 A 
ATOM     18  C   UNL A   1      29.571  25.886  23.620  1.00  0.00     0.009 A 
ATOM     19  C   UNL A   1      32.889  26.990  22.413  1.00  0.00     0.012 A 
ATOM     20  C   UNL A   1      30.818  28.187  22.706  1.00  0.00     0.009 A 
ATOM     21  C   UNL A   1      28.848  27.077  23.509  1.00  0.00     0.001 A 
ATOM     22  C   UNL A   1      29.471  28.228  23.051  1.00  0.00     0.001 A 
BRANCH  14  23
ATOM     23  O   UNL A   1      33.692  23.406  22.737  1.00  0.00    -0.493 OA
BRANCH  23  24
ATOM     24  C   UNL A   1      35.064  23.332  23.126  1.00  0.00     0.232 C 
BRANCH  24  25
ATOM     25  C   UNL A   1      35.247  22.739  24.534  1.00  0.00     0.020 C 
ATOM     26  C   UNL A   1      36.396  21.735  24.629  1.00  0.00     0.011 C 
ATOM     27  C   UNL A   1      35.479  23.868  25.541  1.00  0.00     0.011 C 
ENDBRANCH  24  25
ENDBRANCH  23  24
ENDBRANCH  14  23
ENDBRANCH  12  13
ENDBRANCH   6  12
ENDBRANCH   3   6
ENDBRANCH   1   2
BRANCH   1  28
ATOM     28  C   UNL A   1      32.232  27.408  26.244  1.00  0.00     0.023 C 
BRANCH  28  29
ATOM     29  C   UNL A   1      32.614  28.364  27.378  1.00  0.00     0.023 C 
BRANCH  29  30
ATOM     30  C   UNL A   1      33.842  29.252  27.168  1.00  0.00     0.116 C 
BRANCH  30  31
ATOM     31  N   UNL A   1      33.892  30.443  28.001  1.00  0.00    -0.352 N 
ATOM     32  C   UNL A   1      34.956  30.945  28.725  1.00  0.00     0.251 C 
ATOM     33  H   UNL A   1      33.055  30.959  28.058  1.00  0.00     0.163 HD
ATOM     34  O   UNL A   1      34.844  31.969  29.373  1.00  0.00    -0.269 OA
BRANCH  32  35
ATOM     35  C   UNL A   1      36.230  30.191  28.736  1.00  0.00     0.039 A 
ATOM     36  C   UNL A   1      37.048  30.242  27.605  1.00  0.00     0.014 A 
ATOM     37  C   UNL A   1      36.643  29.508  29.882  1.00  0.00     0.014 A 
ATOM     38  C   UNL A   1      38.334  29.699  27.661  1.00  0.00     0.010 A 
ATOM     39  C   UNL A   1      37.943  29.006  29.951  1.00  0.00     0.010 A 
ATOM     40  C   UNL A   1      38.812  29.130  28.854  1.00  0.00    -0.014 A 
BRANCH  40  41
ATOM     41  C   UNL A   1      40.241  28.756  29.006  1.00  0.00     0.031 A 
ATOM     42  C   UNL A   1      41.254  29.753  29.484  1.00  0.00     0.074 A 
ATOM     43  C   UNL A   1      40.640  27.526  28.621  1.00  0.00     0.049 A 
ATOM     44  N   UNL A   1      42.553  29.624  29.587  1.00  0.00    -0.248 NA
ATOM     45  C   UNL A   1      40.744  31.074  29.881  1.00  0.00     0.031 C 
ATOM     46  C   UNL A   1      39.763  26.477  28.097  1.00  0.00     0.029 A 
ATOM     47  N   UNL A   1      41.889  26.958  28.591  1.00  0.00    -0.354 N 
ATOM     48  C   UNL A   1      43.019  30.847  30.051  1.00  0.00     0.074 A 
ATOM     49  C   UNL A   1      41.866  31.716  30.175  1.00  0.00     0.031 C 
ATOM     50  C   UNL A   1      40.499  25.392  27.808  1.00  0.00     0.029 A 
ATOM     51  C   UNL A   1      41.901  25.678  28.090  1.00  0.00     0.049 A 
ATOM     52  H   UNL A   1      42.701  27.423  28.901  1.00  0.00     0.167 HD
ATOM     53  C   UNL A   1      44.288  31.205  30.359  1.00  0.00     0.037 A 
ATOM     54  C   UNL A   1      42.926  24.834  27.867  1.00  0.00     0.037 A 
ATOM     55  C   UNL A   1      45.432  30.338  30.254  1.00  0.00     0.049 A 
ATOM     56  C   UNL A   1      44.328  25.267  28.193  1.00  0.00     0.074 A 
ATOM     57  C   UNL A   1      46.744  30.592  30.615  1.00  0.00     0.029 A 
ATOM     58  N   UNL A   1      45.403  29.049  29.742  1.00  0.00    -0.354 N 
ATOM     59  N   UNL A   1      44.743  26.402  28.698  1.00  0.00    -0.248 NA
ATOM     60  C   UNL A   1      45.402  24.302  27.917  1.00  0.00     0.031 C 
ATOM     61  C   UNL A   1      47.516  29.474  30.284  1.00  0.00     0.029 A 
ATOM     62  C   UNL A   1      46.678  28.508  29.751  1.00  0.00     0.049 A 
ATOM     63  H   UNL A   1      44.596  28.588  29.420  1.00  0.00     0.167 HD
ATOM     64  C   UNL A   1      46.121  26.284  28.815  1.00  0.00     0.074 A 
ATOM     65  C   UNL A   1      46.471  24.961  28.342  1.00  0.00     0.031 C 
ATOM     66  C   UNL A   1      47.016  27.192  29.273  1.00  0.00     0.037 A 
BRANCH  53  67
ATOM     67  C   UNL A   1      44.509  32.605  30.848  1.00  0.00     0.057 A 
ATOM     68  C   UNL A   1      44.476  32.921  32.213  1.00  0.00     0.134 A 
ATOM     69  C   UNL A   1      44.802  33.639  29.950  1.00  0.00     0.134 A 
ATOM     70  F   UNL A   1      44.192  31.976  33.122  1.00  0.00    -0.206 F 
ATOM     71  C   UNL A   1      44.708  34.220  32.666  1.00  0.00     0.040 A 
ATOM     72  C   UNL A   1      45.057  34.939  30.393  1.00  0.00     0.040 A 
ATOM     73  F   UNL A   1      44.855  33.401  28.631  1.00  0.00    -0.206 F 
ATOM     74  C   UNL A   1      45.005  35.232  31.754  1.00  0.00     0.006 A 
ENDBRANCH  53  67
BRANCH  54  75
ATOM     75  C   UNL A   1      42.666  23.486  27.307  1.00  0.00     0.057 A 
ATOM     76  C   UNL A   1      42.726  23.257  25.928  1.00  0.00     0.134 A 
ATOM     77  C   UNL A   1      42.347  22.400  28.132  1.00  0.00     0.134 A 
ATOM     78  F   UNL A   1      43.007  24.264  25.089  1.00  0.00    -0.206 F 
ATOM     79  C   UNL A   1      42.465  21.998  25.386  1.00  0.00     0.040 A 
ATOM     80  C   UNL A   1      42.104  21.132  27.603  1.00  0.00     0.040 A 
ATOM     81  F   UNL A   1      42.280  22.556  29.462  1.00  0.00    -0.206 F 
ATOM     82  C   UNL A   1      42.157  20.929  26.226  1.00  0.00     0.006 A 
ENDBRANCH  54  75
BRANCH  66  83
ATOM     83  C   UNL A   1      48.457  26.782  29.297  1.00  0.00     0.057 A 
ATOM     84  C   UNL A   1      48.989  26.032  30.354  1.00  0.00     0.134 A 
ATOM     85  C   UNL A   1      49.312  27.105  28.236  1.00  0.00     0.134 A 
ATOM     86  F   UNL A   1      48.225  25.705  31.407  1.00  0.00    -0.206 F 
ATOM     87  C   UNL A   1      50.325  25.629  30.360  1.00  0.00     0.040 A 
ATOM     88  C   UNL A   1      50.644  26.691  28.221  1.00  0.00     0.040 A 
ATOM     89  F   UNL A   1      48.862  27.818  27.192  1.00  0.00    -0.206 F 
ATOM     90  C   UNL A   1      51.155  25.953  29.288  1.00  0.00     0.006 A 
ENDBRANCH  66  83
ENDBRANCH  40  41
ENDBRANCH  32  35
ENDBRANCH  30  31
ENDBRANCH  29  30
ENDBRANCH  28  29
ENDBRANCH   1  28
TORSDOF 17
ENDMDL
