MODEL 1
REMARK VINA RESULT:     -11.0      0.000      0.000
REMARK SMILES Cc1nc(C)c(C(=O)N[C@@H](CCS(C)(=O)=O)C(=O)NCCCCNC(=O)c2ccc(-c3c4nc(c(-c5c(F)cccc5F)c5ccc([nH]5)c(-c5c(F)cccc5F)c5nc(c(-c6c(F)cccc6F)c6ccc3[nH]6)C=C5)C=C4)cc2)s1
REMARK SMILES IDX 21 1 20 2 19 3 17 4 18 5 10 7 9 8 7 9 8 10 6 12 1 13 2 14
REMARK SMILES IDX 3 15 81 16 4 17 5 18 11 19 12 20 13 21 14 22 15 23 16 24
REMARK SMILES IDX 22 25 23 26 24 27 25 28 26 30 27 31 28 32 80 33 29 34 79 35
REMARK SMILES IDX 30 36 31 37 32 38 73 39 33 40 78 41 72 42 74 43 34 44 77 45
REMARK SMILES IDX 71 46 70 47 35 49 61 50 44 51 60 52 45 53 48 54 59 55 75 56
REMARK SMILES IDX 46 57 47 58 58 60 76 61 49 62 36 63 37 64 42 65 38 66 39 67
REMARK SMILES IDX 41 68 43 69 40 70 62 71 63 72 68 73 64 74 65 75 67 76 69 77
REMARK SMILES IDX 66 78 50 79 51 80 56 81 52 82 53 83 55 84 57 85 54 86
REMARK H PARENT 19 6 9 11 24 29 74 48 48 59
REMARK Flexibility Score: inf
ROOT
ATOM      1  C   UNL A   1      31.754  28.790  27.047  1.00  0.00     0.023 C 
ENDROOT
BRANCH   1   2
ATOM      2  C   UNL A   1      31.863  27.607  26.084  1.00  0.00     0.116 C 
BRANCH   2   3
ATOM      3  N   UNL A   1      30.618  27.277  25.420  1.00  0.00    -0.354 N 
ATOM      4  C   UNL A   1      30.221  27.392  24.124  1.00  0.00     0.242 C 
ATOM      5  O   UNL A   1      29.228  26.739  23.781  1.00  0.00    -0.273 OA
ATOM      6  H   UNL A   1      29.933  26.899  26.017  1.00  0.00     0.163 HD
BRANCH   4   7
ATOM      7  C   UNL A   1      30.994  28.180  23.048  1.00  0.00     0.172 C 
BRANCH   7   8
ATOM      8  N   UNL A   1      31.511  27.390  21.931  1.00  0.00    -0.339 N 
ATOM      9  C   UNL A   1      32.052  26.120  21.864  1.00  0.00     0.263 C 
ATOM     10  O   UNL A   1      32.058  25.654  20.720  1.00  0.00    -0.268 OA
ATOM     11  H   UNL A   1      31.465  27.849  21.062  1.00  0.00     0.164 HD
BRANCH   9  12
ATOM     12  C   UNL A   1      32.600  25.377  22.996  1.00  0.00     0.115 A 
ATOM     13  C   UNL A   1      35.001  24.006  25.759  1.00  0.00     0.079 C 
ATOM     14  C   UNL A   1      33.947  24.353  24.767  1.00  0.00     0.091 A 
ATOM     15  N   UNL A   1      32.799  23.729  24.670  1.00  0.00    -0.246 NA
ATOM     16  S   UNL A   1      34.194  25.586  23.612  1.00  0.00    -0.113 S 
ATOM     17  C   UNL A   1      32.038  24.272  23.641  1.00  0.00     0.061 A 
ATOM     18  C   UNL A   1      30.754  23.575  23.347  1.00  0.00     0.068 C 
ENDBRANCH   9  12
ENDBRANCH   7   8
BRANCH   7  19
ATOM     19  C   UNL A   1      30.373  29.510  22.570  1.00  0.00     0.051 C 
BRANCH  19  20
ATOM     20  C   UNL A   1      29.445  30.295  23.489  1.00  0.00     0.139 C 
BRANCH  20  21
ATOM     21  S   UNL A   1      27.843  30.744  22.820  1.00  0.00     0.147 S 
ATOM     22  C   UNL A   1      28.026  30.709  21.053  1.00  0.00     0.158 C 
ATOM     23  O   UNL A   1      26.927  29.685  23.181  1.00  0.00    -0.229 OA
ATOM     24  O   UNL A   1      27.539  32.111  23.199  1.00  0.00    -0.229 OA
ENDBRANCH  20  21
ENDBRANCH  19  20
ENDBRANCH   7  19
ENDBRANCH   4   7
ENDBRANCH   2   3
ENDBRANCH   1   2
BRANCH   1  25
ATOM     25  C   UNL A   1      31.889  30.183  26.425  1.00  0.00     0.023 C 
BRANCH  25  26
ATOM     26  C   UNL A   1      32.927  31.107  27.057  1.00  0.00     0.116 C 
BRANCH  26  27
ATOM     27  N   UNL A   1      32.430  32.448  27.327  1.00  0.00    -0.352 N 
ATOM     28  C   UNL A   1      33.011  33.480  28.026  1.00  0.00     0.251 C 
ATOM     29  H   UNL A   1      31.541  32.647  26.953  1.00  0.00     0.163 HD
ATOM     30  O   UNL A   1      32.397  34.527  28.211  1.00  0.00    -0.269 OA
BRANCH  28  31
ATOM     31  C   UNL A   1      34.357  33.308  28.611  1.00  0.00     0.039 A 
ATOM     32  C   UNL A   1      34.467  32.678  29.853  1.00  0.00     0.014 A 
ATOM     33  C   UNL A   1      35.502  33.715  27.922  1.00  0.00     0.014 A 
ATOM     34  C   UNL A   1      35.730  32.347  30.350  1.00  0.00     0.010 A 
ATOM     35  C   UNL A   1      36.757  33.327  28.387  1.00  0.00     0.010 A 
ATOM     36  C   UNL A   1      36.879  32.613  29.589  1.00  0.00    -0.014 A 
BRANCH  36  37
ATOM     37  C   UNL A   1      38.208  32.085  29.997  1.00  0.00     0.031 A 
ATOM     38  C   UNL A   1      38.692  30.758  29.494  1.00  0.00     0.074 A 
ATOM     39  C   UNL A   1      38.943  32.775  30.892  1.00  0.00     0.049 A 
ATOM     40  N   UNL A   1      39.778  30.101  29.812  1.00  0.00    -0.248 NA
ATOM     41  C   UNL A   1      37.835  30.071  28.516  1.00  0.00     0.031 C 
ATOM     42  C   UNL A   1      38.570  34.062  31.483  1.00  0.00     0.029 A 
ATOM     43  N   UNL A   1      40.153  32.483  31.472  1.00  0.00    -0.354 N 
ATOM     44  C   UNL A   1      39.734  28.922  29.082  1.00  0.00     0.074 A 
ATOM     45  C   UNL A   1      38.490  28.933  28.338  1.00  0.00     0.031 C 
ATOM     46  C   UNL A   1      39.538  34.458  32.324  1.00  0.00     0.029 A 
ATOM     47  C   UNL A   1      40.577  33.434  32.368  1.00  0.00     0.049 A 
ATOM     48  H   UNL A   1      40.667  31.670  31.264  1.00  0.00     0.167 HD
ATOM     49  C   UNL A   1      40.652  27.928  29.022  1.00  0.00     0.037 A 
ATOM     50  C   UNL A   1      41.672  33.471  33.151  1.00  0.00     0.037 A 
ATOM     51  C   UNL A   1      41.890  27.919  29.757  1.00  0.00     0.049 A 
ATOM     52  C   UNL A   1      42.648  32.329  33.109  1.00  0.00     0.074 A 
ATOM     53  C   UNL A   1      42.908  26.983  29.720  1.00  0.00     0.029 A 
ATOM     54  N   UNL A   1      42.273  28.890  30.670  1.00  0.00    -0.354 N 
ATOM     55  N   UNL A   1      42.622  31.248  32.369  1.00  0.00    -0.248 NA
ATOM     56  C   UNL A   1      43.802  32.411  34.016  1.00  0.00     0.031 C 
ATOM     57  C   UNL A   1      43.888  27.363  30.644  1.00  0.00     0.029 A 
ATOM     58  C   UNL A   1      43.499  28.559  31.225  1.00  0.00     0.049 A 
ATOM     59  H   UNL A   1      41.752  29.696  30.891  1.00  0.00     0.167 HD
ATOM     60  C   UNL A   1      43.763  30.531  32.704  1.00  0.00     0.074 A 
ATOM     61  C   UNL A   1      44.466  31.306  33.706  1.00  0.00     0.031 C 
ATOM     62  C   UNL A   1      44.189  29.338  32.222  1.00  0.00     0.037 A 
BRANCH  49  63
ATOM     63  C   UNL A   1      40.347  26.764  28.128  1.00  0.00     0.057 A 
ATOM     64  C   UNL A   1      40.919  26.644  26.854  1.00  0.00     0.134 A 
ATOM     65  C   UNL A   1      39.491  25.739  28.550  1.00  0.00     0.134 A 
ATOM     66  F   UNL A   1      41.739  27.597  26.386  1.00  0.00    -0.206 F 
ATOM     67  C   UNL A   1      40.629  25.561  26.022  1.00  0.00     0.040 A 
ATOM     68  C   UNL A   1      39.213  24.639  27.737  1.00  0.00     0.040 A 
ATOM     69  F   UNL A   1      38.915  25.788  29.761  1.00  0.00    -0.206 F 
ATOM     70  C   UNL A   1      39.777  24.552  26.466  1.00  0.00     0.006 A 
ENDBRANCH  49  63
BRANCH  50  71
ATOM     71  C   UNL A   1      41.911  34.636  34.037  1.00  0.00     0.057 A 
ATOM     72  C   UNL A   1      41.500  34.617  35.375  1.00  0.00     0.134 A 
ATOM     73  C   UNL A   1      42.551  35.793  33.574  1.00  0.00     0.134 A 
ATOM     74  F   UNL A   1      40.863  33.545  35.870  1.00  0.00    -0.206 F 
ATOM     75  C   UNL A   1      41.706  35.709  36.218  1.00  0.00     0.040 A 
ATOM     76  C   UNL A   1      42.783  36.883  34.413  1.00  0.00     0.040 A 
ATOM     77  F   UNL A   1      42.972  35.871  32.304  1.00  0.00    -0.206 F 
ATOM     78  C   UNL A   1      42.355  36.845  35.739  1.00  0.00     0.006 A 
ENDBRANCH  50  71
BRANCH  62  79
ATOM     79  C   UNL A   1      45.486  28.807  32.755  1.00  0.00     0.057 A 
ATOM     80  C   UNL A   1      45.531  27.943  33.855  1.00  0.00     0.134 A 
ATOM     81  C   UNL A   1      46.698  29.125  32.130  1.00  0.00     0.134 A 
ATOM     82  F   UNL A   1      44.406  27.612  34.506  1.00  0.00    -0.206 F 
ATOM     83  C   UNL A   1      46.740  27.424  34.325  1.00  0.00     0.040 A 
ATOM     84  C   UNL A   1      47.911  28.595  32.576  1.00  0.00     0.040 A 
ATOM     85  F   UNL A   1      46.724  29.944  31.068  1.00  0.00    -0.206 F 
ATOM     86  C   UNL A   1      47.933  27.744  33.679  1.00  0.00     0.006 A 
ENDBRANCH  62  79
ENDBRANCH  36  37
ENDBRANCH  28  31
ENDBRANCH  26  27
ENDBRANCH  25  26
ENDBRANCH   1  25
TORSDOF 16
ENDMDL
MODEL 2
REMARK VINA RESULT:     -11.0      4.472      8.961
REMARK SMILES Cc1nc(C)c(C(=O)N[C@@H](CCS(C)(=O)=O)C(=O)NCCCCNC(=O)c2ccc(-c3c4nc(c(-c5c(F)cccc5F)c5ccc([nH]5)c(-c5c(F)cccc5F)c5nc(c(-c6c(F)cccc6F)c6ccc3[nH]6)C=C5)C=C4)cc2)s1
REMARK SMILES IDX 21 1 20 2 19 3 17 4 18 5 10 7 9 8 7 9 8 10 6 12 1 13 2 14
REMARK SMILES IDX 3 15 81 16 4 17 5 18 11 19 12 20 13 21 14 22 15 23 16 24
REMARK SMILES IDX 22 25 23 26 24 27 25 28 26 30 27 31 28 32 80 33 29 34 79 35
REMARK SMILES IDX 30 36 31 37 32 38 73 39 33 40 78 41 72 42 74 43 34 44 77 45
REMARK SMILES IDX 71 46 70 47 35 49 61 50 44 51 60 52 45 53 48 54 59 55 75 56
REMARK SMILES IDX 46 57 47 58 58 60 76 61 49 62 36 63 37 64 42 65 38 66 39 67
REMARK SMILES IDX 41 68 43 69 40 70 62 71 63 72 68 73 64 74 65 75 67 76 69 77
REMARK SMILES IDX 66 78 50 79 51 80 56 81 52 82 53 83 55 84 57 85 54 86
REMARK H PARENT 19 6 9 11 24 29 74 48 48 59
REMARK Flexibility Score: inf
ROOT
ATOM      1  C   UNL A   1      37.139  21.286  24.571  1.00  0.00     0.023 C 
ENDROOT
BRANCH   1   2
ATOM      2  C   UNL A   1      37.364  22.572  25.367  1.00  0.00     0.116 C 
BRANCH   2   3
ATOM      3  N   UNL A   1      36.405  22.773  26.435  1.00  0.00    -0.354 N 
ATOM      4  C   UNL A   1      35.047  22.847  26.435  1.00  0.00     0.242 C 
ATOM      5  O   UNL A   1      34.476  22.703  27.523  1.00  0.00    -0.273 OA
ATOM      6  H   UNL A   1      36.811  22.875  27.326  1.00  0.00     0.163 HD
BRANCH   4   7
ATOM      7  C   UNL A   1      34.186  22.976  25.162  1.00  0.00     0.172 C 
BRANCH   7   8
ATOM      8  N   UNL A   1      32.746  22.805  25.349  1.00  0.00    -0.339 N 
ATOM      9  C   UNL A   1      31.926  21.695  25.278  1.00  0.00     0.263 C 
ATOM     10  O   UNL A   1      30.833  21.861  25.829  1.00  0.00    -0.268 OA
ATOM     11  H   UNL A   1      32.269  23.638  25.568  1.00  0.00     0.164 HD
BRANCH   9  12
ATOM     12  C   UNL A   1      32.261  20.441  24.606  1.00  0.00     0.115 A 
ATOM     13  C   UNL A   1      33.537  16.822  23.864  1.00  0.00     0.079 C 
ATOM     14  C   UNL A   1      33.034  18.223  23.917  1.00  0.00     0.091 A 
ATOM     15  N   UNL A   1      32.668  18.909  22.862  1.00  0.00    -0.246 NA
ATOM     16  S   UNL A   1      32.957  19.078  25.392  1.00  0.00    -0.113 S 
ATOM     17  C   UNL A   1      32.264  20.186  23.233  1.00  0.00     0.061 A 
ATOM     18  C   UNL A   1      31.932  21.111  22.112  1.00  0.00     0.068 C 
ENDBRANCH   9  12
ENDBRANCH   7   8
BRANCH   7  19
ATOM     19  C   UNL A   1      34.505  24.152  24.215  1.00  0.00     0.051 C 
BRANCH  19  20
ATOM     20  C   UNL A   1      34.041  24.113  22.764  1.00  0.00     0.139 C 
BRANCH  20  21
ATOM     21  S   UNL A   1      33.118  25.535  22.177  1.00  0.00     0.147 S 
ATOM     22  C   UNL A   1      31.445  25.288  22.721  1.00  0.00     0.158 C 
ATOM     23  O   UNL A   1      33.636  26.689  22.880  1.00  0.00    -0.229 OA
ATOM     24  O   UNL A   1      33.110  25.528  20.727  1.00  0.00    -0.229 OA
ENDBRANCH  20  21
ENDBRANCH  19  20
ENDBRANCH   7  19
ENDBRANCH   4   7
ENDBRANCH   2   3
ENDBRANCH   1   2
BRANCH   1  25
ATOM     25  C   UNL A   1      37.951  20.065  25.014  1.00  0.00     0.023 C 
BRANCH  25  26
ATOM     26  C   UNL A   1      39.226  20.353  25.803  1.00  0.00     0.116 C 
BRANCH  26  27
ATOM     27  N   UNL A   1      40.167  19.242  25.820  1.00  0.00    -0.352 N 
ATOM     28  C   UNL A   1      41.512  19.230  26.101  1.00  0.00     0.251 C 
ATOM     29  H   UNL A   1      39.780  18.364  25.595  1.00  0.00     0.163 HD
ATOM     30  O   UNL A   1      42.160  18.193  25.990  1.00  0.00    -0.269 OA
BRANCH  28  31
ATOM     31  C   UNL A   1      42.197  20.484  26.478  1.00  0.00     0.039 A 
ATOM     32  C   UNL A   1      42.790  21.247  25.469  1.00  0.00     0.014 A 
ATOM     33  C   UNL A   1      42.211  20.930  27.802  1.00  0.00     0.014 A 
ATOM     34  C   UNL A   1      43.293  22.515  25.768  1.00  0.00     0.010 A 
ATOM     35  C   UNL A   1      42.653  22.221  28.086  1.00  0.00     0.010 A 
ATOM     36  C   UNL A   1      43.169  23.036  27.066  1.00  0.00    -0.014 A 
BRANCH  36  37
ATOM     37  C   UNL A   1      43.502  24.454  27.359  1.00  0.00     0.031 A 
ATOM     38  C   UNL A   1      44.927  24.921  27.362  1.00  0.00     0.074 A 
ATOM     39  C   UNL A   1      42.514  25.304  27.704  1.00  0.00     0.049 A 
ATOM     40  N   UNL A   1      45.411  26.095  27.682  1.00  0.00    -0.248 NA
ATOM     41  C   UNL A   1      45.945  23.935  26.968  1.00  0.00     0.031 C 
ATOM     42  C   UNL A   1      41.090  24.966  27.772  1.00  0.00     0.029 A 
ATOM     43  N   UNL A   1      42.559  26.625  28.077  1.00  0.00    -0.354 N 
ATOM     44  C   UNL A   1      46.786  25.989  27.536  1.00  0.00     0.074 A 
ATOM     45  C   UNL A   1      47.065  24.622  27.142  1.00  0.00     0.031 C 
ATOM     46  C   UNL A   1      40.397  26.054  28.141  1.00  0.00     0.029 A 
ATOM     47  C   UNL A   1      41.328  27.153  28.381  1.00  0.00     0.049 A 
ATOM     48  H   UNL A   1      43.393  27.144  28.120  1.00  0.00     0.167 HD
ATOM     49  C   UNL A   1      47.731  26.946  27.698  1.00  0.00     0.037 A 
ATOM     50  C   UNL A   1      40.986  28.378  28.822  1.00  0.00     0.037 A 
ATOM     51  C   UNL A   1      47.454  28.305  28.084  1.00  0.00     0.049 A 
ATOM     52  C   UNL A   1      42.058  29.406  29.048  1.00  0.00     0.074 A 
ATOM     53  C   UNL A   1      48.339  29.360  28.221  1.00  0.00     0.029 A 
ATOM     54  N   UNL A   1      46.196  28.794  28.404  1.00  0.00    -0.354 N 
ATOM     55  N   UNL A   1      43.350  29.309  28.850  1.00  0.00    -0.248 NA
ATOM     56  C   UNL A   1      41.625  30.712  29.567  1.00  0.00     0.031 C 
ATOM     57  C   UNL A   1      47.624  30.477  28.668  1.00  0.00     0.029 A 
ATOM     58  C   UNL A   1      46.287  30.129  28.768  1.00  0.00     0.049 A 
ATOM     59  H   UNL A   1      45.362  28.272  28.377  1.00  0.00     0.167 HD
ATOM     60  C   UNL A   1      43.881  30.544  29.197  1.00  0.00     0.074 A 
ATOM     61  C   UNL A   1      42.771  31.378  29.609  1.00  0.00     0.031 C 
ATOM     62  C   UNL A   1      45.174  30.949  29.176  1.00  0.00     0.037 A 
BRANCH  49  63
ATOM     63  C   UNL A   1      49.157  26.551  27.458  1.00  0.00     0.057 A 
ATOM     64  C   UNL A   1      49.738  26.630  26.186  1.00  0.00     0.134 A 
ATOM     65  C   UNL A   1      49.967  26.108  28.511  1.00  0.00     0.134 A 
ATOM     66  F   UNL A   1      49.014  27.036  25.132  1.00  0.00    -0.206 F 
ATOM     67  C   UNL A   1      51.066  26.257  25.964  1.00  0.00     0.040 A 
ATOM     68  C   UNL A   1      51.302  25.756  28.308  1.00  0.00     0.040 A 
ATOM     69  F   UNL A   1      49.475  26.015  29.756  1.00  0.00    -0.206 F 
ATOM     70  C   UNL A   1      51.852  25.823  27.029  1.00  0.00     0.006 A 
ENDBRANCH  49  63
BRANCH  50  71
ATOM     71  C   UNL A   1      39.560  28.707  29.069  1.00  0.00     0.057 A 
ATOM     72  C   UNL A   1      38.757  29.228  28.048  1.00  0.00     0.134 A 
ATOM     73  C   UNL A   1      38.967  28.513  30.322  1.00  0.00     0.134 A 
ATOM     74  F   UNL A   1      39.275  29.456  26.832  1.00  0.00    -0.206 F 
ATOM     75  C   UNL A   1      37.418  29.555  28.266  1.00  0.00     0.040 A 
ATOM     76  C   UNL A   1      37.624  28.814  30.548  1.00  0.00     0.040 A 
ATOM     77  F   UNL A   1      39.683  28.013  31.339  1.00  0.00    -0.206 F 
ATOM     78  C   UNL A   1      36.846  29.342  29.519  1.00  0.00     0.006 A 
ENDBRANCH  50  71
BRANCH  62  79
ATOM     79  C   UNL A   1      45.457  32.363  29.587  1.00  0.00     0.057 A 
ATOM     80  C   UNL A   1      45.394  33.421  28.673  1.00  0.00     0.134 A 
ATOM     81  C   UNL A   1      45.748  32.673  30.921  1.00  0.00     0.134 A 
ATOM     82  F   UNL A   1      45.134  33.187  27.378  1.00  0.00    -0.206 F 
ATOM     83  C   UNL A   1      45.624  34.740  29.070  1.00  0.00     0.040 A 
ATOM     84  C   UNL A   1      45.958  33.991  31.334  1.00  0.00     0.040 A 
ATOM     85  F   UNL A   1      45.819  31.706  31.847  1.00  0.00    -0.206 F 
ATOM     86  C   UNL A   1      45.899  35.028  30.406  1.00  0.00     0.006 A 
ENDBRANCH  62  79
ENDBRANCH  36  37
ENDBRANCH  28  31
ENDBRANCH  26  27
ENDBRANCH  25  26
ENDBRANCH   1  25
TORSDOF 16
ENDMDL
MODEL 3
REMARK VINA RESULT:     -11.0      2.235      6.969
REMARK SMILES Cc1nc(C)c(C(=O)N[C@@H](CCS(C)(=O)=O)C(=O)NCCCCNC(=O)c2ccc(-c3c4nc(c(-c5c(F)cccc5F)c5ccc([nH]5)c(-c5c(F)cccc5F)c5nc(c(-c6c(F)cccc6F)c6ccc3[nH]6)C=C5)C=C4)cc2)s1
REMARK SMILES IDX 21 1 20 2 19 3 17 4 18 5 10 7 9 8 7 9 8 10 6 12 1 13 2 14
REMARK SMILES IDX 3 15 81 16 4 17 5 18 11 19 12 20 13 21 14 22 15 23 16 24
REMARK SMILES IDX 22 25 23 26 24 27 25 28 26 30 27 31 28 32 80 33 29 34 79 35
REMARK SMILES IDX 30 36 31 37 32 38 73 39 33 40 78 41 72 42 74 43 34 44 77 45
REMARK SMILES IDX 71 46 70 47 35 49 61 50 44 51 60 52 45 53 48 54 59 55 75 56
REMARK SMILES IDX 46 57 47 58 58 60 76 61 49 62 36 63 37 64 42 65 38 66 39 67
REMARK SMILES IDX 41 68 43 69 40 70 62 71 63 72 68 73 64 74 65 75 67 76 69 77
REMARK SMILES IDX 66 78 50 79 51 80 56 81 52 82 53 83 55 84 57 85 54 86
REMARK H PARENT 19 6 9 11 24 29 74 48 48 59
REMARK Flexibility Score: inf
ROOT
ATOM      1  C   UNL A   1      31.776  30.211  26.711  1.00  0.00     0.023 C 
ENDROOT
BRANCH   1   2
ATOM      2  C   UNL A   1      33.156  29.555  26.778  1.00  0.00     0.116 C 
BRANCH   2   3
ATOM      3  N   UNL A   1      33.792  29.399  25.485  1.00  0.00    -0.354 N 
ATOM      4  C   UNL A   1      33.689  28.434  24.533  1.00  0.00     0.242 C 
ATOM      5  O   UNL A   1      34.097  28.716  23.399  1.00  0.00    -0.273 OA
ATOM      6  H   UNL A   1      34.414  30.126  25.253  1.00  0.00     0.163 HD
BRANCH   4   7
ATOM      7  C   UNL A   1      32.995  27.074  24.749  1.00  0.00     0.172 C 
BRANCH   7   8
ATOM      8  N   UNL A   1      32.578  26.374  23.534  1.00  0.00    -0.339 N 
ATOM      9  C   UNL A   1      31.659  26.687  22.550  1.00  0.00     0.263 C 
ATOM     10  O   UNL A   1      31.820  26.040  21.510  1.00  0.00    -0.268 OA
ATOM     11  H   UNL A   1      33.039  25.516  23.389  1.00  0.00     0.164 HD
BRANCH   9  12
ATOM     12  C   UNL A   1      30.574  27.656  22.688  1.00  0.00     0.115 A 
ATOM     13  C   UNL A   1      28.490  30.962  22.679  1.00  0.00     0.079 C 
ATOM     14  C   UNL A   1      29.106  29.613  22.802  1.00  0.00     0.091 A 
ATOM     15  N   UNL A   1      28.510  28.583  23.350  1.00  0.00    -0.246 NA
ATOM     16  S   UNL A   1      30.705  29.322  22.277  1.00  0.00    -0.113 S 
ATOM     17  C   UNL A   1      29.347  27.472  23.330  1.00  0.00     0.061 A 
ATOM     18  C   UNL A   1      28.833  26.262  24.031  1.00  0.00     0.068 C 
ENDBRANCH   9  12
ENDBRANCH   7   8
BRANCH   7  19
ATOM     19  C   UNL A   1      33.635  26.113  25.773  1.00  0.00     0.051 C 
BRANCH  19  20
ATOM     20  C   UNL A   1      33.276  24.632  25.760  1.00  0.00     0.139 C 
BRANCH  20  21
ATOM     21  S   UNL A   1      31.695  24.183  26.478  1.00  0.00     0.147 S 
ATOM     22  C   UNL A   1      30.806  23.324  25.202  1.00  0.00     0.158 C 
ATOM     23  O   UNL A   1      31.969  23.229  27.531  1.00  0.00    -0.229 OA
ATOM     24  O   UNL A   1      30.954  25.391  26.785  1.00  0.00    -0.229 OA
ENDBRANCH  20  21
ENDBRANCH  19  20
ENDBRANCH   7  19
ENDBRANCH   4   7
ENDBRANCH   2   3
ENDBRANCH   1   2
BRANCH   1  25
ATOM     25  C   UNL A   1      31.757  31.738  26.592  1.00  0.00     0.023 C 
BRANCH  25  26
ATOM     26  C   UNL A   1      32.885  32.484  27.299  1.00  0.00     0.116 C 
BRANCH  26  27
ATOM     27  N   UNL A   1      32.547  33.854  27.655  1.00  0.00    -0.352 N 
ATOM     28  C   UNL A   1      33.127  34.695  28.577  1.00  0.00     0.251 C 
ATOM     29  H   UNL A   1      31.787  34.238  27.161  1.00  0.00     0.163 HD
ATOM     30  O   UNL A   1      32.648  35.805  28.790  1.00  0.00    -0.269 OA
BRANCH  28  31
ATOM     31  C   UNL A   1      34.293  34.237  29.360  1.00  0.00     0.039 A 
ATOM     32  C   UNL A   1      34.065  33.567  30.564  1.00  0.00     0.014 A 
ATOM     33  C   UNL A   1      35.596  34.420  28.890  1.00  0.00     0.014 A 
ATOM     34  C   UNL A   1      35.135  32.974  31.238  1.00  0.00     0.010 A 
ATOM     35  C   UNL A   1      36.653  33.772  29.528  1.00  0.00     0.010 A 
ATOM     36  C   UNL A   1      36.426  33.018  30.690  1.00  0.00    -0.014 A 
BRANCH  36  37
ATOM     37  C   UNL A   1      37.536  32.221  31.274  1.00  0.00     0.031 A 
ATOM     38  C   UNL A   1      38.076  32.544  32.636  1.00  0.00     0.074 A 
ATOM     39  C   UNL A   1      38.110  31.252  30.534  1.00  0.00     0.049 A 
ATOM     40  N   UNL A   1      39.095  32.018  33.266  1.00  0.00    -0.248 NA
ATOM     41  C   UNL A   1      37.390  33.611  33.381  1.00  0.00     0.031 C 
ATOM     42  C   UNL A   1      37.700  30.862  29.184  1.00  0.00     0.029 A 
ATOM     43  N   UNL A   1      39.173  30.427  30.809  1.00  0.00    -0.354 N 
ATOM     44  C   UNL A   1      39.179  32.691  34.476  1.00  0.00     0.074 A 
ATOM     45  C   UNL A   1      38.136  33.695  34.474  1.00  0.00     0.031 C 
ATOM     46  C   UNL A   1      38.487  29.862  28.757  1.00  0.00     0.029 A 
ATOM     47  C   UNL A   1      39.485  29.571  29.782  1.00  0.00     0.049 A 
ATOM     48  H   UNL A   1      39.664  30.447  31.662  1.00  0.00     0.167 HD
ATOM     49  C   UNL A   1      40.037  32.480  35.504  1.00  0.00     0.037 A 
ATOM     50  C   UNL A   1      40.473  28.664  29.668  1.00  0.00     0.037 A 
ATOM     51  C   UNL A   1      41.071  31.478  35.508  1.00  0.00     0.049 A 
ATOM     52  C   UNL A   1      41.447  28.488  30.799  1.00  0.00     0.074 A 
ATOM     53  C   UNL A   1      41.953  31.154  36.524  1.00  0.00     0.029 A 
ATOM     54  N   UNL A   1      41.368  30.645  34.440  1.00  0.00    -0.354 N 
ATOM     55  N   UNL A   1      41.478  29.091  31.963  1.00  0.00    -0.248 NA
ATOM     56  C   UNL A   1      42.526  27.511  30.598  1.00  0.00     0.031 C 
ATOM     57  C   UNL A   1      42.814  30.155  36.056  1.00  0.00     0.029 A 
ATOM     58  C   UNL A   1      42.440  29.828  34.762  1.00  0.00     0.049 A 
ATOM     59  H   UNL A   1      40.888  30.635  33.580  1.00  0.00     0.167 HD
ATOM     60  C   UNL A   1      42.563  28.552  32.640  1.00  0.00     0.074 A 
ATOM     61  C   UNL A   1      43.159  27.566  31.762  1.00  0.00     0.031 C 
ATOM     62  C   UNL A   1      43.024  28.849  33.880  1.00  0.00     0.037 A 
BRANCH  49  63
ATOM     63  C   UNL A   1      39.889  33.357  36.711  1.00  0.00     0.057 A 
ATOM     64  C   UNL A   1      39.012  33.031  37.754  1.00  0.00     0.134 A 
ATOM     65  C   UNL A   1      40.647  34.526  36.846  1.00  0.00     0.134 A 
ATOM     66  F   UNL A   1      38.250  31.929  37.682  1.00  0.00    -0.206 F 
ATOM     67  C   UNL A   1      38.874  33.852  38.876  1.00  0.00     0.040 A 
ATOM     68  C   UNL A   1      40.536  35.342  37.973  1.00  0.00     0.040 A 
ATOM     69  F   UNL A   1      41.511  34.893  35.887  1.00  0.00    -0.206 F 
ATOM     70  C   UNL A   1      39.642  35.008  38.989  1.00  0.00     0.006 A 
ENDBRANCH  49  63
BRANCH  50  71
ATOM     71  C   UNL A   1      40.588  27.841  28.439  1.00  0.00     0.057 A 
ATOM     72  C   UNL A   1      41.335  28.288  27.343  1.00  0.00     0.134 A 
ATOM     73  C   UNL A   1      39.958  26.596  28.326  1.00  0.00     0.134 A 
ATOM     74  F   UNL A   1      41.944  29.483  27.384  1.00  0.00    -0.206 F 
ATOM     75  C   UNL A   1      41.444  27.533  26.175  1.00  0.00     0.040 A 
ATOM     76  C   UNL A   1      40.076  25.820  27.173  1.00  0.00     0.040 A 
ATOM     77  F   UNL A   1      39.231  26.111  29.343  1.00  0.00    -0.206 F 
ATOM     78  C   UNL A   1      40.817  26.291  26.090  1.00  0.00     0.006 A 
ENDBRANCH  50  71
BRANCH  62  79
ATOM     79  C   UNL A   1      44.216  28.084  34.371  1.00  0.00     0.057 A 
ATOM     80  C   UNL A   1      44.082  26.846  35.012  1.00  0.00     0.134 A 
ATOM     81  C   UNL A   1      45.512  28.566  34.156  1.00  0.00     0.134 A 
ATOM     82  F   UNL A   1      42.866  26.337  35.260  1.00  0.00    -0.206 F 
ATOM     83  C   UNL A   1      45.198  26.122  35.435  1.00  0.00     0.040 A 
ATOM     84  C   UNL A   1      46.637  27.840  34.555  1.00  0.00     0.040 A 
ATOM     85  F   UNL A   1      45.709  29.743  33.543  1.00  0.00    -0.206 F 
ATOM     86  C   UNL A   1      46.480  26.615  35.199  1.00  0.00     0.006 A 
ENDBRANCH  62  79
ENDBRANCH  36  37
ENDBRANCH  28  31
ENDBRANCH  26  27
ENDBRANCH  25  26
ENDBRANCH   1  25
TORSDOF 16
ENDMDL
