MODEL 1
REMARK VINA RESULT:     -11.5      0.000      0.000
REMARK SMILES C[C@H](C(=O)NCCCCNC(=O)c1ccc(-c2c3nc(c(-c4c(F)cccc4F)c4ccc([nH]4)c(-c4c(F)cccc4F)c4nc(c(-c5c(F)cccc5F)c5ccc2[nH]5)C=C4)C=C3)cc1)c1ccc(C[C@H]2CCC[C@@H]2O)cc1
REMARK SMILES IDX 6 1 5 2 3 3 4 4 2 6 1 7 67 8 68 9 79 10 69 11 78 12 70 13
REMARK SMILES IDX 71 14 72 15 73 16 76 17 74 18 75 19 77 20 7 22 8 23 9 24
REMARK SMILES IDX 10 25 11 26 12 28 13 29 14 30 66 31 15 32 65 33 16 34 17 35
REMARK SMILES IDX 18 36 59 37 19 38 64 39 58 40 60 41 20 42 63 43 57 44 56 45
REMARK SMILES IDX 21 47 47 48 30 49 46 50 31 51 34 52 45 53 61 54 32 55 33 56
REMARK SMILES IDX 44 58 62 59 35 60 22 61 23 62 28 63 24 64 25 65 27 66 29 67
REMARK SMILES IDX 26 68 48 69 49 70 54 71 50 72 51 73 53 74 55 75 52 76 36 77
REMARK SMILES IDX 37 78 42 79 38 80 39 81 41 82 43 83 40 84
REMARK H PARENT 5 5 77 21 10 27 60 46 34 57
REMARK Flexibility Score: inf
ROOT
ATOM      1  C   UNL A   1      31.253  27.179  25.042  1.00  0.00     0.116 C 
ENDROOT
BRANCH   1   2
ATOM      2  N   UNL A   1      31.051  26.115  26.006  1.00  0.00    -0.356 N 
ATOM      3  C   UNL A   1      31.746  24.960  26.204  1.00  0.00     0.227 C 
ATOM      4  O   UNL A   1      31.403  24.254  27.158  1.00  0.00    -0.274 OA
ATOM      5  H   UNL A   1      30.291  26.249  26.617  1.00  0.00     0.163 HD
BRANCH   3   6
ATOM      6  C   UNL A   1      32.892  24.534  25.285  1.00  0.00     0.105 C 
ATOM      7  C   UNL A   1      34.229  25.033  25.845  1.00  0.00     0.023 C 
BRANCH   6   8
ATOM      8  C   UNL A   1      32.893  23.068  24.861  1.00  0.00    -0.036 A 
ATOM      9  C   UNL A   1      32.206  22.667  23.703  1.00  0.00     0.005 A 
ATOM     10  C   UNL A   1      33.507  22.069  25.633  1.00  0.00     0.005 A 
ATOM     11  C   UNL A   1      32.152  21.324  23.322  1.00  0.00     0.004 A 
ATOM     12  C   UNL A   1      33.455  20.727  25.250  1.00  0.00     0.004 A 
ATOM     13  C   UNL A   1      32.752  20.336  24.105  1.00  0.00    -0.048 A 
BRANCH  13  14
ATOM     14  C   UNL A   1      32.605  18.875  23.760  1.00  0.00     0.041 C 
BRANCH  14  15
ATOM     15  C   UNL A   1      33.175  17.886  24.791  1.00  0.00     0.022 C 
ATOM     16  C   UNL A   1      32.263  16.703  25.166  1.00  0.00     0.007 C 
ATOM     17  C   UNL A   1      34.514  17.236  24.421  1.00  0.00     0.117 C 
ATOM     18  C   UNL A   1      33.183  15.491  25.334  1.00  0.00     0.003 C 
ATOM     19  C   UNL A   1      34.592  16.056  25.377  1.00  0.00     0.032 C 
BRANCH  17  20
ATOM     20  O   UNL A   1      35.605  18.115  24.625  1.00  0.00    -0.393 OA
ATOM     21  H   UNL A   1      35.502  18.565  25.478  1.00  0.00     0.210 HD
ENDBRANCH  17  20
ENDBRANCH  14  15
ENDBRANCH  13  14
ENDBRANCH   6   8
ENDBRANCH   3   6
ENDBRANCH   1   2
BRANCH   1  22
ATOM     22  C   UNL A   1      31.753  28.471  25.683  1.00  0.00     0.023 C 
BRANCH  22  23
ATOM     23  C   UNL A   1      33.270  28.578  25.832  1.00  0.00     0.023 C 
BRANCH  23  24
ATOM     24  C   UNL A   1      33.777  28.657  27.265  1.00  0.00     0.116 C 
BRANCH  24  25
ATOM     25  N   UNL A   1      33.803  30.017  27.782  1.00  0.00    -0.352 N 
ATOM     26  C   UNL A   1      34.827  30.684  28.412  1.00  0.00     0.251 C 
ATOM     27  H   UNL A   1      32.971  30.531  27.665  1.00  0.00     0.163 HD
ATOM     28  O   UNL A   1      34.637  31.790  28.910  1.00  0.00    -0.269 OA
BRANCH  26  29
ATOM     29  C   UNL A   1      36.154  30.045  28.517  1.00  0.00     0.039 A 
ATOM     30  C   UNL A   1      37.026  30.105  27.426  1.00  0.00     0.014 A 
ATOM     31  C   UNL A   1      36.550  29.425  29.705  1.00  0.00     0.014 A 
ATOM     32  C   UNL A   1      38.329  29.619  27.555  1.00  0.00     0.010 A 
ATOM     33  C   UNL A   1      37.867  29.008  29.854  1.00  0.00     0.010 A 
ATOM     34  C   UNL A   1      38.771  29.108  28.784  1.00  0.00    -0.014 A 
BRANCH  34  35
ATOM     35  C   UNL A   1      40.177  28.680  28.995  1.00  0.00     0.031 A 
ATOM     36  C   UNL A   1      41.195  29.672  29.481  1.00  0.00     0.074 A 
ATOM     37  C   UNL A   1      40.561  27.440  28.637  1.00  0.00     0.049 A 
ATOM     38  N   UNL A   1      42.494  29.549  29.570  1.00  0.00    -0.248 NA
ATOM     39  C   UNL A   1      40.685  30.992  29.885  1.00  0.00     0.031 C 
ATOM     40  C   UNL A   1      39.678  26.402  28.100  1.00  0.00     0.029 A 
ATOM     41  N   UNL A   1      41.802  26.855  28.637  1.00  0.00    -0.354 N 
ATOM     42  C   UNL A   1      42.958  30.783  30.005  1.00  0.00     0.074 A 
ATOM     43  C   UNL A   1      41.807  31.651  30.127  1.00  0.00     0.031 C 
ATOM     44  C   UNL A   1      40.406  25.309  27.821  1.00  0.00     0.029 A 
ATOM     45  C   UNL A   1      41.809  25.581  28.122  1.00  0.00     0.049 A 
ATOM     46  H   UNL A   1      42.611  27.304  28.975  1.00  0.00     0.167 HD
ATOM     47  C   UNL A   1      44.229  31.154  30.291  1.00  0.00     0.037 A 
ATOM     48  C   UNL A   1      42.832  24.736  27.894  1.00  0.00     0.037 A 
ATOM     49  C   UNL A   1      45.365  30.277  30.209  1.00  0.00     0.049 A 
ATOM     50  C   UNL A   1      44.231  25.159  28.242  1.00  0.00     0.074 A 
ATOM     51  C   UNL A   1      46.678  30.531  30.564  1.00  0.00     0.029 A 
ATOM     52  N   UNL A   1      45.323  28.974  29.735  1.00  0.00    -0.354 N 
ATOM     53  N   UNL A   1      44.649  26.305  28.723  1.00  0.00    -0.248 NA
ATOM     54  C   UNL A   1      45.299  24.175  28.020  1.00  0.00     0.031 C 
ATOM     55  C   UNL A   1      47.438  29.394  30.271  1.00  0.00     0.029 A 
ATOM     56  C   UNL A   1      46.591  28.418  29.768  1.00  0.00     0.049 A 
ATOM     57  H   UNL A   1      44.511  28.513  29.420  1.00  0.00     0.167 HD
ATOM     58  C   UNL A   1      46.022  26.172  28.883  1.00  0.00     0.074 A 
ATOM     59  C   UNL A   1      46.367  24.833  28.453  1.00  0.00     0.031 C 
ATOM     60  C   UNL A   1      46.915  27.080  29.345  1.00  0.00     0.037 A 
BRANCH  47  61
ATOM     61  C   UNL A   1      44.452  32.575  30.715  1.00  0.00     0.057 A 
ATOM     62  C   UNL A   1      44.465  32.953  32.064  1.00  0.00     0.134 A 
ATOM     63  C   UNL A   1      44.670  33.578  29.761  1.00  0.00     0.134 A 
ATOM     64  F   UNL A   1      44.249  32.043  33.026  1.00  0.00    -0.206 F 
ATOM     65  C   UNL A   1      44.654  34.281  32.448  1.00  0.00     0.040 A 
ATOM     66  C   UNL A   1      44.886  34.905  30.134  1.00  0.00     0.040 A 
ATOM     67  F   UNL A   1      44.676  33.284  28.452  1.00  0.00    -0.206 F 
ATOM     68  C   UNL A   1      44.871  35.261  31.482  1.00  0.00     0.006 A 
ENDBRANCH  47  61
BRANCH  48  69
ATOM     69  C   UNL A   1      42.563  23.398  27.311  1.00  0.00     0.057 A 
ATOM     70  C   UNL A   1      42.672  23.177  25.934  1.00  0.00     0.134 A 
ATOM     71  C   UNL A   1      42.216  22.308  28.117  1.00  0.00     0.134 A 
ATOM     72  F   UNL A   1      42.986  24.188  25.112  1.00  0.00    -0.206 F 
ATOM     73  C   UNL A   1      42.436  21.920  25.376  1.00  0.00     0.040 A 
ATOM     74  C   UNL A   1      41.996  21.040  27.576  1.00  0.00     0.040 A 
ATOM     75  F   UNL A   1      42.104  22.456  29.446  1.00  0.00    -0.206 F 
ATOM     76  C   UNL A   1      42.103  20.845  26.200  1.00  0.00     0.006 A 
ENDBRANCH  48  69
BRANCH  60  77
ATOM     77  C   UNL A   1      48.348  26.652  29.440  1.00  0.00     0.057 A 
ATOM     78  C   UNL A   1      49.273  26.945  28.431  1.00  0.00     0.134 A 
ATOM     79  C   UNL A   1      48.821  25.997  30.585  1.00  0.00     0.134 A 
ATOM     80  F   UNL A   1      48.879  27.559  27.305  1.00  0.00    -0.206 F 
ATOM     81  C   UNL A   1      50.619  26.594  28.555  1.00  0.00     0.040 A 
ATOM     82  C   UNL A   1      50.166  25.660  30.729  1.00  0.00     0.040 A 
ATOM     83  F   UNL A   1      47.984  25.694  31.589  1.00  0.00    -0.206 F 
ATOM     84  C   UNL A   1      51.070  25.958  29.710  1.00  0.00     0.006 A 
ENDBRANCH  60  77
ENDBRANCH  34  35
ENDBRANCH  26  29
ENDBRANCH  24  25
ENDBRANCH  23  24
ENDBRANCH  22  23
ENDBRANCH   1  22
TORSDOF 15
ENDMDL
MODEL 2
REMARK VINA RESULT:     -11.5      5.686     12.008
REMARK SMILES C[C@H](C(=O)NCCCCNC(=O)c1ccc(-c2c3nc(c(-c4c(F)cccc4F)c4ccc([nH]4)c(-c4c(F)cccc4F)c4nc(c(-c5c(F)cccc5F)c5ccc2[nH]5)C=C4)C=C3)cc1)c1ccc(C[C@H]2CCC[C@@H]2O)cc1
REMARK SMILES IDX 6 1 5 2 3 3 4 4 2 6 1 7 67 8 68 9 79 10 69 11 78 12 70 13
REMARK SMILES IDX 71 14 72 15 73 16 76 17 74 18 75 19 77 20 7 22 8 23 9 24
REMARK SMILES IDX 10 25 11 26 12 28 13 29 14 30 66 31 15 32 65 33 16 34 17 35
REMARK SMILES IDX 18 36 59 37 19 38 64 39 58 40 60 41 20 42 63 43 57 44 56 45
REMARK SMILES IDX 21 47 47 48 30 49 46 50 31 51 34 52 45 53 61 54 32 55 33 56
REMARK SMILES IDX 44 58 62 59 35 60 22 61 23 62 28 63 24 64 25 65 27 66 29 67
REMARK SMILES IDX 26 68 48 69 49 70 54 71 50 72 51 73 53 74 55 75 52 76 36 77
REMARK SMILES IDX 37 78 42 79 38 80 39 81 41 82 43 83 40 84
REMARK H PARENT 5 5 77 21 10 27 60 46 34 57
REMARK Flexibility Score: inf
ROOT
ATOM      1  C   UNL A   1      48.266  26.569  30.236  1.00  0.00     0.116 C 
ENDROOT
BRANCH   1   2
ATOM      2  N   UNL A   1      48.989  25.634  29.398  1.00  0.00    -0.356 N 
ATOM      3  C   UNL A   1      48.762  25.244  28.112  1.00  0.00     0.227 C 
ATOM      4  O   UNL A   1      49.587  24.479  27.602  1.00  0.00    -0.274 OA
ATOM      5  H   UNL A   1      49.770  25.214  29.824  1.00  0.00     0.163 HD
BRANCH   3   6
ATOM      6  C   UNL A   1      47.536  25.712  27.325  1.00  0.00     0.105 C 
ATOM      7  C   UNL A   1      47.904  26.908  26.440  1.00  0.00     0.023 C 
BRANCH   6   8
ATOM      8  C   UNL A   1      46.748  24.617  26.612  1.00  0.00    -0.036 A 
ATOM      9  C   UNL A   1      45.954  23.724  27.350  1.00  0.00     0.005 A 
ATOM     10  C   UNL A   1      46.837  24.417  25.226  1.00  0.00     0.005 A 
ATOM     11  C   UNL A   1      45.262  22.684  26.725  1.00  0.00     0.004 A 
ATOM     12  C   UNL A   1      46.142  23.380  24.600  1.00  0.00     0.004 A 
ATOM     13  C   UNL A   1      45.370  22.484  25.347  1.00  0.00    -0.048 A 
BRANCH  13  14
ATOM     14  C   UNL A   1      44.715  21.299  24.681  1.00  0.00     0.041 C 
BRANCH  14  15
ATOM     15  C   UNL A   1      43.963  20.338  25.618  1.00  0.00     0.022 C 
ATOM     16  C   UNL A   1      42.517  20.734  25.968  1.00  0.00     0.007 C 
ATOM     17  C   UNL A   1      43.858  18.886  25.138  1.00  0.00     0.117 C 
ATOM     18  C   UNL A   1      41.716  19.431  26.013  1.00  0.00     0.003 C 
ATOM     19  C   UNL A   1      42.752  18.320  26.015  1.00  0.00     0.032 C 
BRANCH  17  20
ATOM     20  O   UNL A   1      45.064  18.173  25.336  1.00  0.00    -0.393 OA
ATOM     21  H   UNL A   1      44.875  17.222  25.371  1.00  0.00     0.210 HD
ENDBRANCH  17  20
ENDBRANCH  14  15
ENDBRANCH  13  14
ENDBRANCH   6   8
ENDBRANCH   3   6
ENDBRANCH   1   2
BRANCH   1  22
ATOM     22  C   UNL A   1      47.740  25.929  31.519  1.00  0.00     0.023 C 
BRANCH  22  23
ATOM     23  C   UNL A   1      48.806  25.574  32.553  1.00  0.00     0.023 C 
BRANCH  23  24
ATOM     24  C   UNL A   1      48.368  24.583  33.623  1.00  0.00     0.116 C 
BRANCH  24  25
ATOM     25  N   UNL A   1      48.679  25.030  34.972  1.00  0.00    -0.352 N 
ATOM     26  C   UNL A   1      48.039  25.974  35.740  1.00  0.00     0.251 C 
ATOM     27  H   UNL A   1      49.457  24.597  35.394  1.00  0.00     0.163 HD
ATOM     28  O   UNL A   1      48.515  26.331  36.813  1.00  0.00    -0.269 OA
BRANCH  26  29
ATOM     29  C   UNL A   1      46.786  26.583  35.248  1.00  0.00     0.039 A 
ATOM     30  C   UNL A   1      46.835  27.840  34.640  1.00  0.00     0.014 A 
ATOM     31  C   UNL A   1      45.576  25.894  35.351  1.00  0.00     0.014 A 
ATOM     32  C   UNL A   1      45.683  28.370  34.056  1.00  0.00     0.010 A 
ATOM     33  C   UNL A   1      44.448  26.390  34.708  1.00  0.00     0.010 A 
ATOM     34  C   UNL A   1      44.492  27.628  34.047  1.00  0.00    -0.014 A 
BRANCH  34  35
ATOM     35  C   UNL A   1      43.275  28.107  33.346  1.00  0.00     0.031 A 
ATOM     36  C   UNL A   1      43.069  27.777  31.896  1.00  0.00     0.074 A 
ATOM     37  C   UNL A   1      42.420  28.935  33.977  1.00  0.00     0.049 A 
ATOM     38  N   UNL A   1      42.170  28.231  31.061  1.00  0.00    -0.248 NA
ATOM     39  C   UNL A   1      44.029  26.837  31.294  1.00  0.00     0.031 C 
ATOM     40  C   UNL A   1      42.539  29.376  35.368  1.00  0.00     0.029 A 
ATOM     41  N   UNL A   1      41.301  29.583  33.516  1.00  0.00    -0.354 N 
ATOM     42  C   UNL A   1      42.476  27.662  29.833  1.00  0.00     0.074 A 
ATOM     43  C   UNL A   1      43.665  26.858  30.022  1.00  0.00     0.031 C 
ATOM     44  C   UNL A   1      41.534  30.222  35.647  1.00  0.00     0.029 A 
ATOM     45  C   UNL A   1      40.725  30.414  34.447  1.00  0.00     0.049 A 
ATOM     46  H   UNL A   1      40.943  29.463  32.607  1.00  0.00     0.167 HD
ATOM     47  C   UNL A   1      41.817  27.787  28.657  1.00  0.00     0.037 A 
ATOM     48  C   UNL A   1      39.679  31.254  34.339  1.00  0.00     0.037 A 
ATOM     49  C   UNL A   1      40.612  28.553  28.482  1.00  0.00     0.049 A 
ATOM     50  C   UNL A   1      38.947  31.358  33.032  1.00  0.00     0.074 A 
ATOM     51  C   UNL A   1      39.819  28.668  27.354  1.00  0.00     0.029 A 
ATOM     52  N   UNL A   1      40.028  29.338  29.466  1.00  0.00    -0.354 N 
ATOM     53  N   UNL A   1      39.202  30.757  31.895  1.00  0.00    -0.248 NA
ATOM     54  C   UNL A   1      37.781  32.253  32.991  1.00  0.00     0.031 C 
ATOM     55  C   UNL A   1      38.775  29.552  27.643  1.00  0.00     0.029 A 
ATOM     56  C   UNL A   1      38.896  29.957  28.964  1.00  0.00     0.049 A 
ATOM     57  H   UNL A   1      40.369  29.440  30.384  1.00  0.00     0.167 HD
ATOM     58  C   UNL A   1      38.218  31.181  31.011  1.00  0.00     0.074 A 
ATOM     59  C   UNL A   1      37.357  32.086  31.745  1.00  0.00     0.031 C 
ATOM     60  C   UNL A   1      38.045  30.849  29.710  1.00  0.00     0.037 A 
BRANCH  47  61
ATOM     61  C   UNL A   1      42.393  27.079  27.466  1.00  0.00     0.057 A 
ATOM     62  C   UNL A   1      42.084  25.744  27.176  1.00  0.00     0.134 A 
ATOM     63  C   UNL A   1      43.259  27.747  26.590  1.00  0.00     0.134 A 
ATOM     64  F   UNL A   1      41.271  25.045  27.982  1.00  0.00    -0.206 F 
ATOM     65  C   UNL A   1      42.639  25.088  26.077  1.00  0.00     0.040 A 
ATOM     66  C   UNL A   1      43.800  27.110  25.474  1.00  0.00     0.040 A 
ATOM     67  F   UNL A   1      43.593  29.028  26.806  1.00  0.00    -0.206 F 
ATOM     68  C   UNL A   1      43.497  25.774  25.218  1.00  0.00     0.006 A 
ENDBRANCH  47  61
BRANCH  48  69
ATOM     69  C   UNL A   1      39.260  32.058  35.514  1.00  0.00     0.057 A 
ATOM     70  C   UNL A   1      39.716  33.369  35.690  1.00  0.00     0.134 A 
ATOM     71  C   UNL A   1      38.378  31.545  36.472  1.00  0.00     0.134 A 
ATOM     72  F   UNL A   1      40.576  33.907  34.813  1.00  0.00    -0.206 F 
ATOM     73  C   UNL A   1      39.318  34.140  36.783  1.00  0.00     0.040 A 
ATOM     74  C   UNL A   1      37.955  32.312  37.560  1.00  0.00     0.040 A 
ATOM     75  F   UNL A   1      37.899  30.298  36.353  1.00  0.00    -0.206 F 
ATOM     76  C   UNL A   1      38.428  33.612  37.718  1.00  0.00     0.006 A 
ENDBRANCH  48  69
BRANCH  60  77
ATOM     77  C   UNL A   1      36.866  31.439  28.997  1.00  0.00     0.057 A 
ATOM     78  C   UNL A   1      35.703  30.698  28.757  1.00  0.00     0.134 A 
ATOM     79  C   UNL A   1      36.872  32.785  28.607  1.00  0.00     0.134 A 
ATOM     80  F   UNL A   1      35.642  29.402  29.097  1.00  0.00    -0.206 F 
ATOM     81  C   UNL A   1      34.588  31.273  28.146  1.00  0.00     0.040 A 
ATOM     82  C   UNL A   1      35.756  33.376  28.014  1.00  0.00     0.040 A 
ATOM     83  F   UNL A   1      37.954  33.549  28.815  1.00  0.00    -0.206 F 
ATOM     84  C   UNL A   1      34.610  32.618  27.781  1.00  0.00     0.006 A 
ENDBRANCH  60  77
ENDBRANCH  34  35
ENDBRANCH  26  29
ENDBRANCH  24  25
ENDBRANCH  23  24
ENDBRANCH  22  23
ENDBRANCH   1  22
TORSDOF 15
ENDMDL
MODEL 3
REMARK VINA RESULT:     -11.4      4.413      8.516
REMARK SMILES C[C@H](C(=O)NCCCCNC(=O)c1ccc(-c2c3nc(c(-c4c(F)cccc4F)c4ccc([nH]4)c(-c4c(F)cccc4F)c4nc(c(-c5c(F)cccc5F)c5ccc2[nH]5)C=C4)C=C3)cc1)c1ccc(C[C@H]2CCC[C@@H]2O)cc1
REMARK SMILES IDX 6 1 5 2 3 3 4 4 2 6 1 7 67 8 68 9 79 10 69 11 78 12 70 13
REMARK SMILES IDX 71 14 72 15 73 16 76 17 74 18 75 19 77 20 7 22 8 23 9 24
REMARK SMILES IDX 10 25 11 26 12 28 13 29 14 30 66 31 15 32 65 33 16 34 17 35
REMARK SMILES IDX 18 36 59 37 19 38 64 39 58 40 60 41 20 42 63 43 57 44 56 45
REMARK SMILES IDX 21 47 47 48 30 49 46 50 31 51 34 52 45 53 61 54 32 55 33 56
REMARK SMILES IDX 44 58 62 59 35 60 22 61 23 62 28 63 24 64 25 65 27 66 29 67
REMARK SMILES IDX 26 68 48 69 49 70 54 71 50 72 51 73 53 74 55 75 52 76 36 77
REMARK SMILES IDX 37 78 42 79 38 80 39 81 41 82 43 83 40 84
REMARK H PARENT 5 5 77 21 10 27 60 46 34 57
REMARK Flexibility Score: inf
ROOT
ATOM      1  C   UNL A   1      33.061  29.720  26.037  1.00  0.00     0.116 C 
ENDROOT
BRANCH   1   2
ATOM      2  N   UNL A   1      32.789  29.634  24.616  1.00  0.00    -0.356 N 
ATOM      3  C   UNL A   1      31.960  28.802  23.925  1.00  0.00     0.227 C 
ATOM      4  O   UNL A   1      31.857  28.994  22.709  1.00  0.00    -0.274 OA
ATOM      5  H   UNL A   1      33.282  30.281  24.061  1.00  0.00     0.163 HD
BRANCH   3   6
ATOM      6  C   UNL A   1      31.194  27.667  24.608  1.00  0.00     0.105 C 
ATOM      7  C   UNL A   1      29.958  27.295  23.782  1.00  0.00     0.023 C 
BRANCH   6   8
ATOM      8  C   UNL A   1      32.036  26.476  25.057  1.00  0.00    -0.036 A 
ATOM      9  C   UNL A   1      31.593  25.654  26.106  1.00  0.00     0.005 A 
ATOM     10  C   UNL A   1      33.295  26.202  24.501  1.00  0.00     0.005 A 
ATOM     11  C   UNL A   1      32.368  24.588  26.567  1.00  0.00     0.004 A 
ATOM     12  C   UNL A   1      34.069  25.133  24.960  1.00  0.00     0.004 A 
ATOM     13  C   UNL A   1      33.627  24.332  26.018  1.00  0.00    -0.048 A 
BRANCH  13  14
ATOM     14  C   UNL A   1      34.517  23.252  26.583  1.00  0.00     0.041 C 
BRANCH  14  15
ATOM     15  C   UNL A   1      35.744  22.886  25.731  1.00  0.00     0.022 C 
ATOM     16  C   UNL A   1      36.999  23.750  25.952  1.00  0.00     0.007 C 
ATOM     17  C   UNL A   1      36.243  21.443  25.868  1.00  0.00     0.117 C 
ATOM     18  C   UNL A   1      38.194  22.800  25.857  1.00  0.00     0.003 C 
ATOM     19  C   UNL A   1      37.641  21.511  25.273  1.00  0.00     0.032 C 
BRANCH  17  20
ATOM     20  O   UNL A   1      35.438  20.532  25.142  1.00  0.00    -0.393 OA
ATOM     21  H   UNL A   1      35.756  20.478  24.227  1.00  0.00     0.210 HD
ENDBRANCH  17  20
ENDBRANCH  14  15
ENDBRANCH  13  14
ENDBRANCH   6   8
ENDBRANCH   3   6
ENDBRANCH   1   2
BRANCH   1  22
ATOM     22  C   UNL A   1      31.877  30.265  26.834  1.00  0.00     0.023 C 
BRANCH  22  23
ATOM     23  C   UNL A   1      31.683  31.778  26.757  1.00  0.00     0.023 C 
BRANCH  23  24
ATOM     24  C   UNL A   1      32.830  32.608  27.319  1.00  0.00     0.116 C 
BRANCH  24  25
ATOM     25  N   UNL A   1      32.452  33.986  27.590  1.00  0.00    -0.352 N 
ATOM     26  C   UNL A   1      32.988  34.868  28.499  1.00  0.00     0.251 C 
ATOM     27  H   UNL A   1      31.709  34.337  27.048  1.00  0.00     0.163 HD
ATOM     28  O   UNL A   1      32.460  35.958  28.696  1.00  0.00    -0.269 OA
BRANCH  26  29
ATOM     29  C   UNL A   1      34.190  34.480  29.266  1.00  0.00     0.039 A 
ATOM     30  C   UNL A   1      34.033  33.916  30.535  1.00  0.00     0.014 A 
ATOM     31  C   UNL A   1      35.463  34.635  28.713  1.00  0.00     0.014 A 
ATOM     32  C   UNL A   1      35.150  33.427  31.216  1.00  0.00     0.010 A 
ATOM     33  C   UNL A   1      36.563  34.083  29.360  1.00  0.00     0.010 A 
ATOM     34  C   UNL A   1      36.416  33.467  30.613  1.00  0.00    -0.014 A 
BRANCH  34  35
ATOM     35  C   UNL A   1      37.610  32.863  31.256  1.00  0.00     0.031 A 
ATOM     36  C   UNL A   1      38.273  31.670  30.630  1.00  0.00     0.074 A 
ATOM     37  C   UNL A   1      38.023  33.310  32.458  1.00  0.00     0.049 A 
ATOM     38  N   UNL A   1      39.213  30.897  31.109  1.00  0.00    -0.248 NA
ATOM     39  C   UNL A   1      37.784  31.270  29.300  1.00  0.00     0.031 C 
ATOM     40  C   UNL A   1      37.428  34.427  33.196  1.00  0.00     0.029 A 
ATOM     41  N   UNL A   1      39.018  32.856  33.286  1.00  0.00    -0.354 N 
ATOM     42  C   UNL A   1      39.402  29.903  30.160  1.00  0.00     0.074 A 
ATOM     43  C   UNL A   1      38.455  30.148  29.093  1.00  0.00     0.031 C 
ATOM     44  C   UNL A   1      38.069  34.568  34.367  1.00  0.00     0.029 A 
ATOM     45  C   UNL A   1      39.091  33.531  34.480  1.00  0.00     0.049 A 
ATOM     46  H   UNL A   1      39.623  32.116  33.047  1.00  0.00     0.167 HD
ATOM     47  C   UNL A   1      40.296  28.885  30.169  1.00  0.00     0.037 A 
ATOM     48  C   UNL A   1      39.875  33.324  35.555  1.00  0.00     0.037 A 
ATOM     49  C   UNL A   1      41.264  28.669  31.211  1.00  0.00     0.049 A 
ATOM     50  C   UNL A   1      40.876  32.205  35.534  1.00  0.00     0.074 A 
ATOM     51  C   UNL A   1      42.271  27.722  31.268  1.00  0.00     0.029 A 
ATOM     52  N   UNL A   1      41.342  29.411  32.380  1.00  0.00    -0.354 N 
ATOM     53  N   UNL A   1      41.097  31.315  34.597  1.00  0.00    -0.248 NA
ATOM     54  C   UNL A   1      41.740  32.061  36.715  1.00  0.00     0.031 C 
ATOM     55  C   UNL A   1      42.937  27.867  32.490  1.00  0.00     0.029 A 
ATOM     56  C   UNL A   1      42.368  28.929  33.176  1.00  0.00     0.049 A 
ATOM     57  H   UNL A   1      40.755  30.167  32.611  1.00  0.00     0.167 HD
ATOM     58  C   UNL A   1      42.137  30.521  35.063  1.00  0.00     0.074 A 
ATOM     59  C   UNL A   1      42.508  31.038  36.365  1.00  0.00     0.031 C 
ATOM     60  C   UNL A   1      42.730  29.461  34.465  1.00  0.00     0.037 A 
BRANCH  47  61
ATOM     61  C   UNL A   1      40.260  27.927  29.016  1.00  0.00     0.057 A 
ATOM     62  C   UNL A   1      40.988  28.154  27.841  1.00  0.00     0.134 A 
ATOM     63  C   UNL A   1      39.497  26.754  29.087  1.00  0.00     0.134 A 
ATOM     64  F   UNL A   1      41.728  29.265  27.704  1.00  0.00    -0.206 F 
ATOM     65  C   UNL A   1      40.933  27.267  26.765  1.00  0.00     0.040 A 
ATOM     66  C   UNL A   1      39.455  25.846  28.029  1.00  0.00     0.040 A 
ATOM     67  F   UNL A   1      38.781  26.472  30.186  1.00  0.00    -0.206 F 
ATOM     68  C   UNL A   1      40.169  26.105  26.860  1.00  0.00     0.006 A 
ENDBRANCH  47  61
BRANCH  48  69
ATOM     69  C   UNL A   1      39.744  34.208  36.739  1.00  0.00     0.057 A 
ATOM     70  C   UNL A   1      38.939  33.845  37.824  1.00  0.00     0.134 A 
ATOM     71  C   UNL A   1      40.437  35.421  36.825  1.00  0.00     0.134 A 
ATOM     72  F   UNL A   1      38.239  32.702  37.791  1.00  0.00    -0.206 F 
ATOM     73  C   UNL A   1      38.820  34.661  38.950  1.00  0.00     0.040 A 
ATOM     74  C   UNL A   1      40.343  36.238  37.953  1.00  0.00     0.040 A 
ATOM     75  F   UNL A   1      41.231  35.820  35.820  1.00  0.00    -0.206 F 
ATOM     76  C   UNL A   1      39.530  35.860  39.019  1.00  0.00     0.006 A 
ENDBRANCH  48  69
BRANCH  60  77
ATOM     77  C   UNL A   1      43.862  28.802  35.193  1.00  0.00     0.057 A 
ATOM     78  C   UNL A   1      43.643  27.790  36.136  1.00  0.00     0.134 A 
ATOM     79  C   UNL A   1      45.189  29.138  34.898  1.00  0.00     0.134 A 
ATOM     80  F   UNL A   1      42.394  27.433  36.470  1.00  0.00    -0.206 F 
ATOM     81  C   UNL A   1      44.706  27.141  36.766  1.00  0.00     0.040 A 
ATOM     82  C   UNL A   1      46.260  28.482  35.505  1.00  0.00     0.040 A 
ATOM     83  F   UNL A   1      45.465  30.095  33.998  1.00  0.00    -0.206 F 
ATOM     84  C   UNL A   1      46.018  27.481  36.444  1.00  0.00     0.006 A 
ENDBRANCH  60  77
ENDBRANCH  34  35
ENDBRANCH  26  29
ENDBRANCH  24  25
ENDBRANCH  23  24
ENDBRANCH  22  23
ENDBRANCH   1  22
TORSDOF 15
ENDMDL
