MODEL 1
REMARK VINA RESULT:     -11.3      0.000      0.000
REMARK SMILES O=C(C[N@@H+]1C[C@@]2([N+](=O)[O-])CC=C(Cl)[C@@]([N+](=O)[O-])(C1)C2)NCCCCNC(=O)c1ccc(-c2c3nc(c(-c4c(F)cccc4F)c4ccc([nH]4)c(-c4c(F)cccc4F)c4nc(c(-c5c(F)cccc5F)c5ccc2[nH]5)C=C4)C=C3)cc1
REMARK SMILES IDX 22 1 21 2 20 3 1 4 2 5 3 7 4 8 5 9 18 10 6 12 14 13 10 14
REMARK SMILES IDX 19 15 12 16 11 17 13 18 7 19 8 20 9 21 15 22 16 23 17 24
REMARK SMILES IDX 23 25 24 26 25 27 26 28 27 30 28 31 29 32 81 33 30 34 80 35
REMARK SMILES IDX 31 36 32 37 33 38 74 39 34 40 79 41 73 42 75 43 35 44 78 45
REMARK SMILES IDX 72 46 71 47 36 49 62 50 45 51 61 52 46 53 49 54 60 55 76 56
REMARK SMILES IDX 47 57 48 58 59 60 77 61 50 62 37 63 38 64 43 65 39 66 40 67
REMARK SMILES IDX 42 68 44 69 41 70 63 71 64 72 69 73 65 74 66 75 68 76 70 77
REMARK SMILES IDX 67 78 51 79 52 80 57 81 53 82 54 83 56 84 58 85 55 86
REMARK H PARENT 20 6 4 11 25 29 75 48 49 59
REMARK Flexibility Score: inf
ROOT
ATOM      1  C   UNL A   1      34.865  33.791  28.508  1.00  0.00     0.023 C 
ENDROOT
BRANCH   1   2
ATOM      2  C   UNL A   1      34.894  32.307  28.147  1.00  0.00     0.116 C 
BRANCH   2   3
ATOM      3  N   UNL A   1      33.595  31.829  27.725  1.00  0.00    -0.351 N 
ATOM      4  O   UNL A   1      34.345  29.808  26.945  1.00  0.00    -0.269 OA
ATOM      5  C   UNL A   1      33.419  30.583  27.168  1.00  0.00     0.275 C 
ATOM      6  H   UNL A   1      32.811  32.415  27.839  1.00  0.00     0.163 HD
BRANCH   5   7
ATOM      7  C   UNL A   1      31.967  30.224  26.850  1.00  0.00     0.363 C 
BRANCH   7   8
ATOM      8  N   UNL A   1      31.803  29.187  25.813  1.00  0.00    -0.315 N 
ATOM      9  C   UNL A   1      30.943  29.543  24.682  1.00  0.00     0.350 C 
ATOM     10  C   UNL A   1      31.545  27.823  26.341  1.00  0.00     0.356 C 
ATOM     11  H   UNL A   1      32.737  29.148  25.403  1.00  0.00     0.348 HD
ATOM     12  C   UNL A   1      31.037  28.500  23.543  1.00  0.00     0.280 C 
ATOM     13  C   UNL A   1      31.635  26.754  25.214  1.00  0.00     0.311 C 
ATOM     14  C   UNL A   1      32.448  28.406  22.898  1.00  0.00     0.121 C 
ATOM     15  C   UNL A   1      30.633  27.121  24.089  1.00  0.00     0.191 C 
ATOM     16  C   UNL A   1      33.046  26.709  24.652  1.00  0.00     0.097 C 
ATOM     17  C   UNL A   1      33.405  27.469  23.601  1.00  0.00     0.004 C 
ATOM     18  Cl  UNL A   1      34.244  25.750  25.448  1.00  0.00    -0.081 Cl
BRANCH  12  19
ATOM     19  N   UNL A   1      30.031  28.958  22.495  1.00  0.00     0.032 N 
ATOM     20  O   UNL A   1      30.429  29.722  21.608  1.00  0.00    -0.264 OA
ATOM     21  O   UNL A   1      28.854  28.603  22.651  1.00  0.00    -0.264 OA
ENDBRANCH  12  19
BRANCH  13  22
ATOM     22  N   UNL A   1      31.228  25.386  25.751  1.00  0.00     0.038 N 
ATOM     23  O   UNL A   1      31.000  24.482  24.935  1.00  0.00    -0.263 OA
ATOM     24  O   UNL A   1      31.195  25.248  26.983  1.00  0.00    -0.263 OA
ENDBRANCH  13  22
ENDBRANCH   7   8
ENDBRANCH   5   7
ENDBRANCH   2   3
ENDBRANCH   1   2
BRANCH   1  25
ATOM     25  C   UNL A   1      33.506  34.318  28.981  1.00  0.00     0.023 C 
BRANCH  25  26
ATOM     26  C   UNL A   1      33.456  35.810  29.290  1.00  0.00     0.116 C 
BRANCH  26  27
ATOM     27  N   UNL A   1      32.584  36.118  30.410  1.00  0.00    -0.352 N 
ATOM     28  C   UNL A   1      32.671  35.728  31.724  1.00  0.00     0.251 C 
ATOM     29  H   UNL A   1      31.815  36.693  30.196  1.00  0.00     0.163 HD
ATOM     30  O   UNL A   1      31.733  35.947  32.488  1.00  0.00    -0.269 OA
BRANCH  28  31
ATOM     31  C   UNL A   1      33.873  35.022  32.224  1.00  0.00     0.039 A 
ATOM     32  C   UNL A   1      33.731  33.727  32.725  1.00  0.00     0.014 A 
ATOM     33  C   UNL A   1      35.131  35.632  32.214  1.00  0.00     0.014 A 
ATOM     34  C   UNL A   1      34.857  33.019  33.154  1.00  0.00     0.010 A 
ATOM     35  C   UNL A   1      36.262  34.898  32.568  1.00  0.00     0.010 A 
ATOM     36  C   UNL A   1      36.138  33.584  33.041  1.00  0.00    -0.014 A 
BRANCH  36  37
ATOM     37  C   UNL A   1      37.355  32.810  33.402  1.00  0.00     0.031 A 
ATOM     38  C   UNL A   1      38.097  33.105  34.678  1.00  0.00     0.074 A 
ATOM     39  C   UNL A   1      37.829  31.877  32.551  1.00  0.00     0.049 A 
ATOM     40  N   UNL A   1      39.210  32.580  35.127  1.00  0.00    -0.248 NA
ATOM     41  C   UNL A   1      37.526  34.141  35.551  1.00  0.00     0.031 C 
ATOM     42  C   UNL A   1      37.229  31.525  31.263  1.00  0.00     0.029 A 
ATOM     43  N   UNL A   1      38.932  31.064  32.636  1.00  0.00    -0.354 N 
ATOM     44  C   UNL A   1      39.475  33.227  36.328  1.00  0.00     0.074 A 
ATOM     45  C   UNL A   1      38.439  34.221  36.508  1.00  0.00     0.031 C 
ATOM     46  C   UNL A   1      37.958  30.555  30.689  1.00  0.00     0.029 A 
ATOM     47  C   UNL A   1      39.100  30.247  31.544  1.00  0.00     0.049 A 
ATOM     48  H   UNL A   1      39.543  31.065  33.407  1.00  0.00     0.167 HD
ATOM     49  C   UNL A   1      40.475  32.998  37.212  1.00  0.00     0.037 A 
ATOM     50  C   UNL A   1      40.071  29.360  31.255  1.00  0.00     0.037 A 
ATOM     51  C   UNL A   1      41.501  32.003  37.035  1.00  0.00     0.049 A 
ATOM     52  C   UNL A   1      41.188  29.144  32.240  1.00  0.00     0.074 A 
ATOM     53  C   UNL A   1      42.532  31.665  37.897  1.00  0.00     0.029 A 
ATOM     54  N   UNL A   1      41.632  31.190  35.920  1.00  0.00    -0.354 N 
ATOM     55  N   UNL A   1      41.387  29.716  33.402  1.00  0.00    -0.248 NA
ATOM     56  C   UNL A   1      42.209  28.153  31.876  1.00  0.00     0.031 C 
ATOM     57  C   UNL A   1      43.316  30.686  37.279  1.00  0.00     0.029 A 
ATOM     58  C   UNL A   1      42.740  30.369  36.060  1.00  0.00     0.049 A 
ATOM     59  H   UNL A   1      41.027  31.195  35.143  1.00  0.00     0.167 HD
ATOM     60  C   UNL A   1      42.538  29.134  33.920  1.00  0.00     0.074 A 
ATOM     61  C   UNL A   1      42.981  28.153  32.952  1.00  0.00     0.031 C 
ATOM     62  C   UNL A   1      43.169  29.390  35.092  1.00  0.00     0.037 A 
BRANCH  49  63
ATOM     63  C   UNL A   1      40.509  33.842  38.455  1.00  0.00     0.057 A 
ATOM     64  C   UNL A   1      41.274  35.014  38.530  1.00  0.00     0.134 A 
ATOM     65  C   UNL A   1      39.739  33.504  39.574  1.00  0.00     0.134 A 
ATOM     66  F   UNL A   1      42.043  35.393  37.497  1.00  0.00    -0.206 F 
ATOM     67  C   UNL A   1      41.296  35.801  39.683  1.00  0.00     0.040 A 
ATOM     68  C   UNL A   1      39.728  34.299  40.722  1.00  0.00     0.040 A 
ATOM     69  F   UNL A   1      38.974  32.402  39.569  1.00  0.00    -0.206 F 
ATOM     70  C   UNL A   1      40.515  35.447  40.781  1.00  0.00     0.006 A 
ENDBRANCH  49  63
BRANCH  50  71
ATOM     71  C   UNL A   1      40.029  28.601  29.978  1.00  0.00     0.057 A 
ATOM     72  C   UNL A   1      40.699  29.062  28.839  1.00  0.00     0.134 A 
ATOM     73  C   UNL A   1      39.309  27.406  29.863  1.00  0.00     0.134 A 
ATOM     74  F   UNL A   1      41.389  30.211  28.881  1.00  0.00    -0.206 F 
ATOM     75  C   UNL A   1      40.636  28.376  27.625  1.00  0.00     0.040 A 
ATOM     76  C   UNL A   1      39.261  26.693  28.663  1.00  0.00     0.040 A 
ATOM     77  F   UNL A   1      38.653  26.904  30.919  1.00  0.00    -0.206 F 
ATOM     78  C   UNL A   1      39.918  27.184  27.537  1.00  0.00     0.006 A 
ENDBRANCH  50  71
BRANCH  62  79
ATOM     79  C   UNL A   1      44.385  28.569  35.415  1.00  0.00     0.057 A 
ATOM     80  C   UNL A   1      45.676  28.982  35.062  1.00  0.00     0.134 A 
ATOM     81  C   UNL A   1      44.263  27.366  36.122  1.00  0.00     0.134 A 
ATOM     82  F   UNL A   1      45.863  30.117  34.371  1.00  0.00    -0.206 F 
ATOM     83  C   UNL A   1      46.799  28.214  35.377  1.00  0.00     0.040 A 
ATOM     84  C   UNL A   1      45.380  26.606  36.471  1.00  0.00     0.040 A 
ATOM     85  F   UNL A   1      43.057  26.917  36.501  1.00  0.00    -0.206 F 
ATOM     86  C   UNL A   1      46.653  27.026  36.091  1.00  0.00     0.006 A 
ENDBRANCH  62  79
ENDBRANCH  36  37
ENDBRANCH  28  31
ENDBRANCH  26  27
ENDBRANCH  25  26
ENDBRANCH   1  25
TORSDOF 14
ENDMDL
MODEL 2
REMARK VINA RESULT:     -11.2      4.605      6.715
REMARK SMILES O=C(C[N@@H+]1C[C@@]2([N+](=O)[O-])CC=C(Cl)[C@@]([N+](=O)[O-])(C1)C2)NCCCCNC(=O)c1ccc(-c2c3nc(c(-c4c(F)cccc4F)c4ccc([nH]4)c(-c4c(F)cccc4F)c4nc(c(-c5c(F)cccc5F)c5ccc2[nH]5)C=C4)C=C3)cc1
REMARK SMILES IDX 22 1 21 2 20 3 1 4 2 5 3 7 4 8 5 9 18 10 6 12 14 13 10 14
REMARK SMILES IDX 19 15 12 16 11 17 13 18 7 19 8 20 9 21 15 22 16 23 17 24
REMARK SMILES IDX 23 25 24 26 25 27 26 28 27 30 28 31 29 32 81 33 30 34 80 35
REMARK SMILES IDX 31 36 32 37 33 38 74 39 34 40 79 41 73 42 75 43 35 44 78 45
REMARK SMILES IDX 72 46 71 47 36 49 62 50 45 51 61 52 46 53 49 54 60 55 76 56
REMARK SMILES IDX 47 57 48 58 59 60 77 61 50 62 37 63 38 64 43 65 39 66 40 67
REMARK SMILES IDX 42 68 44 69 41 70 63 71 64 72 69 73 65 74 66 75 68 76 70 77
REMARK SMILES IDX 67 78 51 79 52 80 57 81 53 82 54 83 56 84 58 85 55 86
REMARK H PARENT 20 6 4 11 25 29 75 48 49 59
REMARK Flexibility Score: inf
ROOT
ATOM      1  C   UNL A   1      32.996  29.026  24.759  1.00  0.00     0.023 C 
ENDROOT
BRANCH   1   2
ATOM      2  C   UNL A   1      33.090  28.448  23.348  1.00  0.00     0.116 C 
BRANCH   2   3
ATOM      3  N   UNL A   1      32.407  27.177  23.239  1.00  0.00    -0.351 N 
ATOM      4  O   UNL A   1      33.816  26.304  21.655  1.00  0.00    -0.269 OA
ATOM      5  C   UNL A   1      32.849  26.179  22.400  1.00  0.00     0.275 C 
ATOM      6  H   UNL A   1      31.600  27.021  23.781  1.00  0.00     0.163 HD
BRANCH   5   7
ATOM      7  C   UNL A   1      32.042  24.881  22.472  1.00  0.00     0.363 C 
BRANCH   7   8
ATOM      8  N   UNL A   1      32.129  24.175  23.764  1.00  0.00    -0.315 N 
ATOM      9  C   UNL A   1      31.030  24.416  24.702  1.00  0.00     0.350 C 
ATOM     10  C   UNL A   1      33.468  24.226  24.405  1.00  0.00     0.356 C 
ATOM     11  H   UNL A   1      31.998  23.203  23.484  1.00  0.00     0.348 HD
ATOM     12  C   UNL A   1      31.084  23.448  25.908  1.00  0.00     0.280 C 
ATOM     13  C   UNL A   1      33.550  23.259  25.621  1.00  0.00     0.311 C 
ATOM     14  C   UNL A   1      30.896  21.955  25.519  1.00  0.00     0.121 C 
ATOM     15  C   UNL A   1      32.430  23.621  26.630  1.00  0.00     0.191 C 
ATOM     16  C   UNL A   1      33.379  21.822  25.157  1.00  0.00     0.097 C 
ATOM     17  C   UNL A   1      32.167  21.242  25.109  1.00  0.00     0.004 C 
ATOM     18  Cl  UNL A   1      34.753  20.954  24.568  1.00  0.00    -0.081 Cl
BRANCH  12  19
ATOM     19  N   UNL A   1      29.945  23.880  26.821  1.00  0.00     0.032 N 
ATOM     20  O   UNL A   1      29.523  25.037  26.711  1.00  0.00    -0.264 OA
ATOM     21  O   UNL A   1      29.572  23.068  27.679  1.00  0.00    -0.264 OA
ENDBRANCH  12  19
BRANCH  13  22
ATOM     22  N   UNL A   1      34.881  23.433  26.345  1.00  0.00     0.038 N 
ATOM     23  O   UNL A   1      35.003  22.936  27.473  1.00  0.00    -0.263 OA
ATOM     24  O   UNL A   1      35.783  24.027  25.735  1.00  0.00    -0.263 OA
ENDBRANCH  13  22
ENDBRANCH   7   8
ENDBRANCH   5   7
ENDBRANCH   2   3
ENDBRANCH   1   2
BRANCH   1  25
ATOM     25  C   UNL A   1      34.050  28.509  25.745  1.00  0.00     0.023 C 
BRANCH  25  26
ATOM     26  C   UNL A   1      33.681  28.636  27.219  1.00  0.00     0.116 C 
BRANCH  26  27
ATOM     27  N   UNL A   1      33.666  30.016  27.673  1.00  0.00    -0.352 N 
ATOM     28  C   UNL A   1      34.633  30.734  28.332  1.00  0.00     0.251 C 
ATOM     29  H   UNL A   1      32.838  30.511  27.479  1.00  0.00     0.163 HD
ATOM     30  O   UNL A   1      34.362  31.842  28.793  1.00  0.00    -0.269 OA
BRANCH  28  31
ATOM     31  C   UNL A   1      35.992  30.176  28.520  1.00  0.00     0.039 A 
ATOM     32  C   UNL A   1      36.893  30.229  27.454  1.00  0.00     0.014 A 
ATOM     33  C   UNL A   1      36.376  29.590  29.730  1.00  0.00     0.014 A 
ATOM     34  C   UNL A   1      38.198  29.757  27.622  1.00  0.00     0.010 A 
ATOM     35  C   UNL A   1      37.698  29.192  29.920  1.00  0.00     0.010 A 
ATOM     36  C   UNL A   1      38.624  29.271  28.869  1.00  0.00    -0.014 A 
BRANCH  36  37
ATOM     37  C   UNL A   1      40.034  28.855  29.092  1.00  0.00     0.031 A 
ATOM     38  C   UNL A   1      41.026  29.812  29.697  1.00  0.00     0.074 A 
ATOM     39  C   UNL A   1      40.439  27.633  28.693  1.00  0.00     0.049 A 
ATOM     40  N   UNL A   1      42.308  29.650  29.906  1.00  0.00    -0.248 NA
ATOM     41  C   UNL A   1      40.513  31.130  30.099  1.00  0.00     0.031 C 
ATOM     42  C   UNL A   1      39.589  26.627  28.054  1.00  0.00     0.029 A 
ATOM     43  N   UNL A   1      41.672  27.032  28.755  1.00  0.00    -0.354 N 
ATOM     44  C   UNL A   1      42.756  30.845  30.455  1.00  0.00     0.074 A 
ATOM     45  C   UNL A   1      41.621  31.742  30.493  1.00  0.00     0.031 C 
ATOM     46  C   UNL A   1      40.319  25.530  27.802  1.00  0.00     0.029 A 
ATOM     47  C   UNL A   1      41.697  25.767  28.219  1.00  0.00     0.049 A 
ATOM     48  H   UNL A   1      42.463  27.467  29.148  1.00  0.00     0.167 HD
ATOM     49  C   UNL A   1      43.993  31.160  30.909  1.00  0.00     0.037 A 
ATOM     50  C   UNL A   1      42.716  24.901  28.066  1.00  0.00     0.037 A 
ATOM     51  C   UNL A   1      45.120  30.264  30.878  1.00  0.00     0.049 A 
ATOM     52  C   UNL A   1      44.088  25.284  28.552  1.00  0.00     0.074 A 
ATOM     53  C   UNL A   1      46.403  30.475  31.355  1.00  0.00     0.029 A 
ATOM     54  N   UNL A   1      45.103  28.988  30.335  1.00  0.00    -0.354 N 
ATOM     55  N   UNL A   1      44.480  26.394  29.129  1.00  0.00    -0.248 NA
ATOM     56  C   UNL A   1      45.156  24.292  28.372  1.00  0.00     0.031 C 
ATOM     57  C   UNL A   1      47.174  29.349  31.053  1.00  0.00     0.029 A 
ATOM     58  C   UNL A   1      46.358  28.410  30.443  1.00  0.00     0.049 A 
ATOM     59  H   UNL A   1      44.315  28.556  29.932  1.00  0.00     0.167 HD
ATOM     60  C   UNL A   1      45.831  26.221  29.408  1.00  0.00     0.074 A 
ATOM     61  C   UNL A   1      46.184  24.894  28.950  1.00  0.00     0.031 C 
ATOM     62  C   UNL A   1      46.698  27.085  29.990  1.00  0.00     0.037 A 
BRANCH  49  63
ATOM     63  C   UNL A   1      44.193  32.536  31.478  1.00  0.00     0.057 A 
ATOM     64  C   UNL A   1      44.577  33.619  30.675  1.00  0.00     0.134 A 
ATOM     65  C   UNL A   1      43.962  32.792  32.836  1.00  0.00     0.134 A 
ATOM     66  F   UNL A   1      44.823  33.443  29.368  1.00  0.00    -0.206 F 
ATOM     67  C   UNL A   1      44.753  34.898  31.206  1.00  0.00     0.040 A 
ATOM     68  C   UNL A   1      44.105  34.073  33.372  1.00  0.00     0.040 A 
ATOM     69  F   UNL A   1      43.583  31.805  33.661  1.00  0.00    -0.206 F 
ATOM     70  C   UNL A   1      44.510  35.128  32.559  1.00  0.00     0.006 A 
ENDBRANCH  49  63
BRANCH  50  71
ATOM     71  C   UNL A   1      42.480  23.578  27.431  1.00  0.00     0.057 A 
ATOM     72  C   UNL A   1      42.173  22.450  28.201  1.00  0.00     0.134 A 
ATOM     73  C   UNL A   1      42.570  23.407  26.045  1.00  0.00     0.134 A 
ATOM     74  F   UNL A   1      42.093  22.545  29.536  1.00  0.00    -0.206 F 
ATOM     75  C   UNL A   1      41.985  21.195  27.618  1.00  0.00     0.040 A 
ATOM     76  C   UNL A   1      42.356  22.164  25.445  1.00  0.00     0.040 A 
ATOM     77  F   UNL A   1      42.852  24.449  25.249  1.00  0.00    -0.206 F 
ATOM     78  C   UNL A   1      42.072  21.052  26.235  1.00  0.00     0.006 A 
ENDBRANCH  50  71
BRANCH  62  79
ATOM     79  C   UNL A   1      48.107  26.608  30.204  1.00  0.00     0.057 A 
ATOM     80  C   UNL A   1      49.128  26.869  29.283  1.00  0.00     0.134 A 
ATOM     81  C   UNL A   1      48.451  25.910  31.369  1.00  0.00     0.134 A 
ATOM     82  F   UNL A   1      48.864  27.520  28.140  1.00  0.00    -0.206 F 
ATOM     83  C   UNL A   1      50.436  26.430  29.499  1.00  0.00     0.040 A 
ATOM     84  C   UNL A   1      49.761  25.494  31.612  1.00  0.00     0.040 A 
ATOM     85  F   UNL A   1      47.524  25.636  32.299  1.00  0.00    -0.206 F 
ATOM     86  C   UNL A   1      50.756  25.747  30.671  1.00  0.00     0.006 A 
ENDBRANCH  62  79
ENDBRANCH  36  37
ENDBRANCH  28  31
ENDBRANCH  26  27
ENDBRANCH  25  26
ENDBRANCH   1  25
TORSDOF 14
ENDMDL
MODEL 3
REMARK VINA RESULT:     -11.2      3.996      8.971
REMARK SMILES O=C(C[N@@H+]1C[C@@]2([N+](=O)[O-])CC=C(Cl)[C@@]([N+](=O)[O-])(C1)C2)NCCCCNC(=O)c1ccc(-c2c3nc(c(-c4c(F)cccc4F)c4ccc([nH]4)c(-c4c(F)cccc4F)c4nc(c(-c5c(F)cccc5F)c5ccc2[nH]5)C=C4)C=C3)cc1
REMARK SMILES IDX 22 1 21 2 20 3 1 4 2 5 3 7 4 8 5 9 18 10 6 12 14 13 10 14
REMARK SMILES IDX 19 15 12 16 11 17 13 18 7 19 8 20 9 21 15 22 16 23 17 24
REMARK SMILES IDX 23 25 24 26 25 27 26 28 27 30 28 31 29 32 81 33 30 34 80 35
REMARK SMILES IDX 31 36 32 37 33 38 74 39 34 40 79 41 73 42 75 43 35 44 78 45
REMARK SMILES IDX 72 46 71 47 36 49 62 50 45 51 61 52 46 53 49 54 60 55 76 56
REMARK SMILES IDX 47 57 48 58 59 60 77 61 50 62 37 63 38 64 43 65 39 66 40 67
REMARK SMILES IDX 42 68 44 69 41 70 63 71 64 72 69 73 65 74 66 75 68 76 70 77
REMARK SMILES IDX 67 78 51 79 52 80 57 81 53 82 54 83 56 84 58 85 55 86
REMARK H PARENT 20 6 4 11 25 29 75 48 49 59
REMARK Flexibility Score: inf
ROOT
ATOM      1  C   UNL A   1      41.648  21.171  27.350  1.00  0.00     0.023 C 
ENDROOT
BRANCH   1   2
ATOM      2  C   UNL A   1      40.359  21.985  27.262  1.00  0.00     0.116 C 
BRANCH   2   3
ATOM      3  N   UNL A   1      39.470  21.477  26.239  1.00  0.00    -0.351 N 
ATOM      4  O   UNL A   1      38.091  23.309  26.215  1.00  0.00    -0.269 OA
ATOM      5  C   UNL A   1      38.399  22.206  25.773  1.00  0.00     0.275 C 
ATOM      6  H   UNL A   1      39.635  20.581  25.865  1.00  0.00     0.163 HD
BRANCH   5   7
ATOM      7  C   UNL A   1      37.615  21.537  24.643  1.00  0.00     0.363 C 
BRANCH   7   8
ATOM      8  N   UNL A   1      36.148  21.647  24.765  1.00  0.00    -0.315 N 
ATOM      9  C   UNL A   1      35.414  20.381  24.819  1.00  0.00     0.350 C 
ATOM     10  C   UNL A   1      35.528  22.646  23.858  1.00  0.00     0.356 C 
ATOM     11  H   UNL A   1      36.042  22.029  25.704  1.00  0.00     0.348 HD
ATOM     12  C   UNL A   1      33.928  20.598  25.197  1.00  0.00     0.280 C 
ATOM     13  C   UNL A   1      34.032  22.884  24.217  1.00  0.00     0.311 C 
ATOM     14  C   UNL A   1      33.726  21.186  26.620  1.00  0.00     0.121 C 
ATOM     15  C   UNL A   1      33.279  21.531  24.162  1.00  0.00     0.191 C 
ATOM     16  C   UNL A   1      33.921  23.479  25.611  1.00  0.00     0.097 C 
ATOM     17  C   UNL A   1      33.787  22.696  26.697  1.00  0.00     0.004 C 
ATOM     18  Cl  UNL A   1      34.084  25.188  25.818  1.00  0.00    -0.081 Cl
BRANCH  12  19
ATOM     19  N   UNL A   1      33.290  19.217  25.124  1.00  0.00     0.032 N 
ATOM     20  O   UNL A   1      33.992  18.276  24.736  1.00  0.00    -0.264 OA
ATOM     21  O   UNL A   1      32.080  19.142  25.377  1.00  0.00    -0.264 OA
ENDBRANCH  12  19
BRANCH  13  22
ATOM     22  N   UNL A   1      33.383  23.804  23.189  1.00  0.00     0.038 N 
ATOM     23  O   UNL A   1      34.098  24.285  22.300  1.00  0.00    -0.263 OA
ATOM     24  O   UNL A   1      32.158  23.979  23.280  1.00  0.00    -0.263 OA
ENDBRANCH  13  22
ENDBRANCH   7   8
ENDBRANCH   5   7
ENDBRANCH   2   3
ENDBRANCH   1   2
BRANCH   1  25
ATOM     25  C   UNL A   1      42.589  21.310  26.148  1.00  0.00     0.023 C 
BRANCH  25  26
ATOM     26  C   UNL A   1      42.419  22.586  25.331  1.00  0.00     0.116 C 
BRANCH  26  27
ATOM     27  N   UNL A   1      43.690  23.156  24.916  1.00  0.00    -0.352 N 
ATOM     28  C   UNL A   1      44.251  24.369  25.229  1.00  0.00     0.251 C 
ATOM     29  H   UNL A   1      44.229  22.586  24.323  1.00  0.00     0.163 HD
ATOM     30  O   UNL A   1      45.259  24.746  24.632  1.00  0.00    -0.269 OA
BRANCH  28  31
ATOM     31  C   UNL A   1      43.640  25.242  26.257  1.00  0.00     0.039 A 
ATOM     32  C   UNL A   1      42.801  24.667  27.213  1.00  0.00     0.014 A 
ATOM     33  C   UNL A   1      43.877  26.620  26.274  1.00  0.00     0.014 A 
ATOM     34  C   UNL A   1      42.253  25.460  28.226  1.00  0.00     0.010 A 
ATOM     35  C   UNL A   1      43.395  27.394  27.328  1.00  0.00     0.010 A 
ATOM     36  C   UNL A   1      42.579  26.824  28.316  1.00  0.00    -0.014 A 
BRANCH  36  37
ATOM     37  C   UNL A   1      42.083  27.660  29.440  1.00  0.00     0.031 A 
ATOM     38  C   UNL A   1      42.750  27.602  30.788  1.00  0.00     0.074 A 
ATOM     39  C   UNL A   1      40.990  28.431  29.267  1.00  0.00     0.049 A 
ATOM     40  N   UNL A   1      42.420  28.207  31.901  1.00  0.00    -0.248 NA
ATOM     41  C   UNL A   1      43.930  26.732  30.904  1.00  0.00     0.031 C 
ATOM     42  C   UNL A   1      40.224  28.545  28.024  1.00  0.00     0.029 A 
ATOM     43  N   UNL A   1      40.327  29.256  30.141  1.00  0.00    -0.354 N 
ATOM     44  C   UNL A   1      43.344  27.786  32.849  1.00  0.00     0.074 A 
ATOM     45  C   UNL A   1      44.212  26.830  32.195  1.00  0.00     0.031 C 
ATOM     46  C   UNL A   1      39.210  29.404  28.210  1.00  0.00     0.029 A 
ATOM     47  C   UNL A   1      39.225  29.868  29.593  1.00  0.00     0.049 A 
ATOM     48  H   UNL A   1      40.614  29.397  31.072  1.00  0.00     0.167 HD
ATOM     49  C   UNL A   1      43.474  28.176  34.140  1.00  0.00     0.037 A 
ATOM     50  C   UNL A   1      38.320  30.698  30.145  1.00  0.00     0.037 A 
ATOM     51  C   UNL A   1      42.614  29.133  34.787  1.00  0.00     0.049 A 
ATOM     52  C   UNL A   1      38.468  31.095  31.589  1.00  0.00     0.074 A 
ATOM     53  C   UNL A   1      42.692  29.627  36.079  1.00  0.00     0.029 A 
ATOM     54  N   UNL A   1      41.515  29.737  34.197  1.00  0.00    -0.354 N 
ATOM     55  N   UNL A   1      39.387  30.739  32.454  1.00  0.00    -0.248 NA
ATOM     56  C   UNL A   1      37.459  32.015  32.131  1.00  0.00     0.031 C 
ATOM     57  C   UNL A   1      41.610  30.488  36.286  1.00  0.00     0.029 A 
ATOM     58  C   UNL A   1      40.892  30.579  35.105  1.00  0.00     0.049 A 
ATOM     59  H   UNL A   1      41.219  29.588  33.269  1.00  0.00     0.167 HD
ATOM     60  C   UNL A   1      39.083  31.413  33.631  1.00  0.00     0.074 A 
ATOM     61  C   UNL A   1      37.905  32.212  33.362  1.00  0.00     0.031 C 
ATOM     62  C   UNL A   1      39.723  31.374  34.824  1.00  0.00     0.037 A 
BRANCH  49  63
ATOM     63  C   UNL A   1      44.589  27.565  34.940  1.00  0.00     0.057 A 
ATOM     64  C   UNL A   1      45.851  28.168  35.029  1.00  0.00     0.134 A 
ATOM     65  C   UNL A   1      44.390  26.381  35.662  1.00  0.00     0.134 A 
ATOM     66  F   UNL A   1      46.114  29.299  34.356  1.00  0.00    -0.206 F 
ATOM     67  C   UNL A   1      46.882  27.601  35.780  1.00  0.00     0.040 A 
ATOM     68  C   UNL A   1      45.403  25.821  36.442  1.00  0.00     0.040 A 
ATOM     69  F   UNL A   1      43.204  25.754  35.631  1.00  0.00    -0.206 F 
ATOM     70  C   UNL A   1      46.656  26.427  36.496  1.00  0.00     0.006 A 
ENDBRANCH  49  63
BRANCH  50  71
ATOM     71  C   UNL A   1      37.193  31.219  29.328  1.00  0.00     0.057 A 
ATOM     72  C   UNL A   1      36.078  30.424  29.042  1.00  0.00     0.134 A 
ATOM     73  C   UNL A   1      37.211  32.517  28.804  1.00  0.00     0.134 A 
ATOM     74  F   UNL A   1      36.011  29.165  29.499  1.00  0.00    -0.206 F 
ATOM     75  C   UNL A   1      35.031  30.891  28.245  1.00  0.00     0.040 A 
ATOM     76  C   UNL A   1      36.158  33.008  28.029  1.00  0.00     0.040 A 
ATOM     77  F   UNL A   1      38.245  33.334  29.048  1.00  0.00    -0.206 F 
ATOM     78  C   UNL A   1      35.068  32.189  27.741  1.00  0.00     0.006 A 
ENDBRANCH  50  71
BRANCH  62  79
ATOM     79  C   UNL A   1      39.189  32.250  35.923  1.00  0.00     0.057 A 
ATOM     80  C   UNL A   1      39.579  33.587  36.064  1.00  0.00     0.134 A 
ATOM     81  C   UNL A   1      38.242  31.754  36.829  1.00  0.00     0.134 A 
ATOM     82  F   UNL A   1      40.492  34.121  35.238  1.00  0.00    -0.206 F 
ATOM     83  C   UNL A   1      39.066  34.393  37.082  1.00  0.00     0.040 A 
ATOM     84  C   UNL A   1      37.698  32.558  37.831  1.00  0.00     0.040 A 
ATOM     85  F   UNL A   1      37.816  30.485  36.745  1.00  0.00    -0.206 F 
ATOM     86  C   UNL A   1      38.116  33.881  37.965  1.00  0.00     0.006 A 
ENDBRANCH  62  79
ENDBRANCH  36  37
ENDBRANCH  28  31
ENDBRANCH  26  27
ENDBRANCH  25  26
ENDBRANCH   1  25
TORSDOF 14
ENDMDL
