MODEL 1
REMARK VINA RESULT:     -12.8      0.000      0.000
REMARK SMILES O=C(NCCCCNC(=O)c1ccc(-c2c3nc(c(-c4c(F)cccc4F)c4ccc([nH]4)c(-c4c(F)cccc4F)c4nc(c(-c5c(F)cccc5F)c5ccc2[nH]5)C=C4)C=C3)cc1)C1=NN(c2ccc([N+](=O)[O-])cc2)[C@H](c2ccccc2)C1
REMARK SMILES IDX 5 1 4 2 3 3 1 4 2 5 65 7 66 8 84 9 67 10 77 11 68 12 69 13
REMARK SMILES IDX 76 14 70 15 75 16 71 17 72 18 73 19 74 20 78 21 79 22 83 23
REMARK SMILES IDX 80 24 82 25 81 26 6 27 7 28 8 29 9 30 10 32 11 33 12 34
REMARK SMILES IDX 64 35 13 36 63 37 14 38 15 39 16 40 57 41 17 42 62 43 56 44
REMARK SMILES IDX 58 45 18 46 61 47 55 48 54 49 19 51 45 52 28 53 44 54 29 55
REMARK SMILES IDX 32 56 43 57 59 58 30 59 31 60 42 62 60 63 33 64 20 65 21 66
REMARK SMILES IDX 26 67 22 68 23 69 25 70 27 71 24 72 46 73 47 74 52 75 48 76
REMARK SMILES IDX 49 77 51 78 53 79 50 80 34 81 35 82 40 83 36 84 37 85 39 86
REMARK SMILES IDX 41 87 38 88
REMARK H PARENT 3 6 8 31 58 50 32 61
REMARK Flexibility Score: inf
ROOT
ATOM      1  C   UNL A   1      31.478  27.510  26.331  1.00  0.00     0.023 C 
ENDROOT
BRANCH   1   2
ATOM      2  C   UNL A   1      30.799  26.352  25.608  1.00  0.00     0.116 C 
BRANCH   2   3
ATOM      3  N   UNL A   1      30.090  25.460  26.516  1.00  0.00    -0.351 N 
ATOM      4  O   UNL A   1      29.549  23.432  27.412  1.00  0.00    -0.268 OA
ATOM      5  C   UNL A   1      30.195  24.091  26.606  1.00  0.00     0.267 C 
ATOM      6  H   UNL A   1      29.460  25.888  27.139  1.00  0.00     0.163 HD
BRANCH   5   7
ATOM      7  C   UNL A   1      31.095  23.373  25.641  1.00  0.00     0.128 C 
ATOM      8  N   UNL A   1      31.199  22.085  25.613  1.00  0.00    -0.171 NA
ATOM      9  C   UNL A   1      31.900  24.132  24.641  1.00  0.00     0.096 C 
ATOM     10  N   UNL A   1      32.256  21.815  24.810  1.00  0.00    -0.257 N 
ATOM     11  C   UNL A   1      32.824  23.002  24.147  1.00  0.00     0.144 C 
BRANCH  10  12
ATOM     12  C   UNL A   1      32.537  20.488  24.543  1.00  0.00     0.061 A 
ATOM     13  C   UNL A   1      33.272  19.718  25.456  1.00  0.00     0.035 A 
ATOM     14  C   UNL A   1      32.196  19.909  23.312  1.00  0.00     0.035 A 
ATOM     15  C   UNL A   1      33.625  18.395  25.173  1.00  0.00     0.088 A 
ATOM     16  C   UNL A   1      32.539  18.588  23.011  1.00  0.00     0.088 A 
ATOM     17  C   UNL A   1      33.251  17.834  23.948  1.00  0.00     0.269 A 
BRANCH  17  18
ATOM     18  N   UNL A   1      33.619  16.448  23.636  1.00  0.00     0.062 N 
ATOM     19  O   UNL A   1      34.249  16.240  22.590  1.00  0.00    -0.258 OA
ATOM     20  O   UNL A   1      33.283  15.568  24.441  1.00  0.00    -0.258 OA
ENDBRANCH  17  18
ENDBRANCH  10  12
BRANCH  11  21
ATOM     21  C   UNL A   1      34.315  23.188  24.402  1.00  0.00    -0.023 A 
ATOM     22  C   UNL A   1      34.857  23.648  25.613  1.00  0.00     0.006 A 
ATOM     23  C   UNL A   1      35.214  22.890  23.358  1.00  0.00     0.006 A 
ATOM     24  C   UNL A   1      36.238  23.819  25.765  1.00  0.00     0.000 A 
ATOM     25  C   UNL A   1      36.594  23.022  23.524  1.00  0.00     0.000 A 
ATOM     26  C   UNL A   1      37.106  23.497  24.726  1.00  0.00     0.000 A 
ENDBRANCH  11  21
ENDBRANCH   5   7
ENDBRANCH   2   3
ENDBRANCH   1   2
BRANCH   1  27
ATOM     27  C   UNL A   1      32.903  27.814  25.876  1.00  0.00     0.023 C 
BRANCH  27  28
ATOM     28  C   UNL A   1      33.872  28.220  26.980  1.00  0.00     0.116 C 
BRANCH  28  29
ATOM     29  N   UNL A   1      33.684  29.585  27.443  1.00  0.00    -0.352 N 
ATOM     30  C   UNL A   1      34.565  30.417  28.090  1.00  0.00     0.251 C 
ATOM     31  H   UNL A   1      32.795  29.969  27.268  1.00  0.00     0.163 HD
ATOM     32  O   UNL A   1      34.186  31.509  28.500  1.00  0.00    -0.269 OA
BRANCH  30  33
ATOM     33  C   UNL A   1      35.964  29.991  28.325  1.00  0.00     0.039 A 
ATOM     34  C   UNL A   1      36.897  30.166  27.299  1.00  0.00     0.014 A 
ATOM     35  C   UNL A   1      36.356  29.402  29.530  1.00  0.00     0.014 A 
ATOM     36  C   UNL A   1      38.231  29.799  27.498  1.00  0.00     0.010 A 
ATOM     37  C   UNL A   1      37.699  29.102  29.754  1.00  0.00     0.010 A 
ATOM     38  C   UNL A   1      38.647  29.286  28.736  1.00  0.00    -0.014 A 
BRANCH  38  39
ATOM     39  C   UNL A   1      40.059  28.892  28.968  1.00  0.00     0.031 A 
ATOM     40  C   UNL A   1      41.013  29.862  29.611  1.00  0.00     0.074 A 
ATOM     41  C   UNL A   1      40.497  27.684  28.565  1.00  0.00     0.049 A 
ATOM     42  N   UNL A   1      42.297  29.737  29.835  1.00  0.00    -0.248 NA
ATOM     43  C   UNL A   1      40.453  31.157  30.034  1.00  0.00     0.031 C 
ATOM     44  C   UNL A   1      39.688  26.668  27.889  1.00  0.00     0.029 A 
ATOM     45  N   UNL A   1      41.740  27.109  28.660  1.00  0.00    -0.354 N 
ATOM     46  C   UNL A   1      42.698  30.936  30.410  1.00  0.00     0.074 A 
ATOM     47  C   UNL A   1      41.535  31.796  30.452  1.00  0.00     0.031 C 
ATOM     48  C   UNL A   1      40.451  25.590  27.644  1.00  0.00     0.029 A 
ATOM     49  C   UNL A   1      41.806  25.846  28.123  1.00  0.00     0.049 A 
ATOM     50  H   UNL A   1      42.511  27.559  29.073  1.00  0.00     0.167 HD
ATOM     51  C   UNL A   1      43.917  31.284  30.885  1.00  0.00     0.037 A 
ATOM     52  C   UNL A   1      42.843  24.992  28.031  1.00  0.00     0.037 A 
ATOM     53  C   UNL A   1      45.069  30.422  30.872  1.00  0.00     0.049 A 
ATOM     54  C   UNL A   1      44.175  25.386  28.605  1.00  0.00     0.074 A 
ATOM     55  C   UNL A   1      46.348  30.680  31.334  1.00  0.00     0.029 A 
ATOM     56  N   UNL A   1      45.074  29.125  30.382  1.00  0.00    -0.354 N 
ATOM     57  N   UNL A   1      44.532  26.513  29.172  1.00  0.00    -0.248 NA
ATOM     58  C   UNL A   1      45.248  24.381  28.542  1.00  0.00     0.031 C 
ATOM     59  C   UNL A   1      47.130  29.540  31.116  1.00  0.00     0.029 A 
ATOM     60  C   UNL A   1      46.329  28.564  30.546  1.00  0.00     0.049 A 
ATOM     61  H   UNL A   1      44.300  28.670  29.979  1.00  0.00     0.167 HD
ATOM     62  C   UNL A   1      45.852  26.340  29.564  1.00  0.00     0.074 A 
ATOM     63  C   UNL A   1      46.232  24.997  29.181  1.00  0.00     0.031 C 
ATOM     64  C   UNL A   1      46.680  27.216  30.185  1.00  0.00     0.037 A 
BRANCH  51  65
ATOM     65  C   UNL A   1      44.057  32.652  31.482  1.00  0.00     0.057 A 
ATOM     66  C   UNL A   1      43.830  32.881  32.845  1.00  0.00     0.134 A 
ATOM     67  C   UNL A   1      44.447  33.744  30.698  1.00  0.00     0.134 A 
ATOM     68  F   UNL A   1      43.439  31.878  33.646  1.00  0.00    -0.206 F 
ATOM     69  C   UNL A   1      43.965  34.152  33.405  1.00  0.00     0.040 A 
ATOM     70  C   UNL A   1      44.609  35.016  31.251  1.00  0.00     0.040 A 
ATOM     71  F   UNL A   1      44.683  33.593  29.387  1.00  0.00    -0.206 F 
ATOM     72  C   UNL A   1      44.362  35.223  32.608  1.00  0.00     0.006 A 
ENDBRANCH  51  65
BRANCH  52  73
ATOM     73  C   UNL A   1      42.660  23.660  27.403  1.00  0.00     0.057 A 
ATOM     74  C   UNL A   1      42.833  23.483  26.025  1.00  0.00     0.134 A 
ATOM     75  C   UNL A   1      42.278  22.545  28.155  1.00  0.00     0.134 A 
ATOM     76  F   UNL A   1      43.180  24.521  25.249  1.00  0.00    -0.206 F 
ATOM     77  C   UNL A   1      42.603  22.250  25.412  1.00  0.00     0.040 A 
ATOM     78  C   UNL A   1      42.067  21.301  27.559  1.00  0.00     0.040 A 
ATOM     79  F   UNL A   1      42.105  22.649  29.481  1.00  0.00    -0.206 F 
ATOM     80  C   UNL A   1      42.220  21.154  26.181  1.00  0.00     0.006 A 
ENDBRANCH  52  73
BRANCH  64  81
ATOM     81  C   UNL A   1      48.051  26.727  30.540  1.00  0.00     0.057 A 
ATOM     82  C   UNL A   1      49.143  26.895  29.679  1.00  0.00     0.134 A 
ATOM     83  C   UNL A   1      48.283  26.099  31.769  1.00  0.00     0.134 A 
ATOM     84  F   UNL A   1      48.983  27.479  28.482  1.00  0.00    -0.206 F 
ATOM     85  C   UNL A   1      50.414  26.430  30.019  1.00  0.00     0.040 A 
ATOM     86  C   UNL A   1      49.553  25.650  32.130  1.00  0.00     0.040 A 
ATOM     87  F   UNL A   1      47.279  25.914  32.640  1.00  0.00    -0.206 F 
ATOM     88  C   UNL A   1      50.622  25.809  31.250  1.00  0.00     0.006 A 
ENDBRANCH  64  81
ENDBRANCH  38  39
ENDBRANCH  30  33
ENDBRANCH  28  29
ENDBRANCH  27  28
ENDBRANCH   1  27
TORSDOF 14
ENDMDL
MODEL 2
REMARK VINA RESULT:     -12.8      3.583      7.229
REMARK SMILES O=C(NCCCCNC(=O)c1ccc(-c2c3nc(c(-c4c(F)cccc4F)c4ccc([nH]4)c(-c4c(F)cccc4F)c4nc(c(-c5c(F)cccc5F)c5ccc2[nH]5)C=C4)C=C3)cc1)C1=NN(c2ccc([N+](=O)[O-])cc2)[C@H](c2ccccc2)C1
REMARK SMILES IDX 5 1 4 2 3 3 1 4 2 5 65 7 66 8 84 9 67 10 77 11 68 12 69 13
REMARK SMILES IDX 76 14 70 15 75 16 71 17 72 18 73 19 74 20 78 21 79 22 83 23
REMARK SMILES IDX 80 24 82 25 81 26 6 27 7 28 8 29 9 30 10 32 11 33 12 34
REMARK SMILES IDX 64 35 13 36 63 37 14 38 15 39 16 40 57 41 17 42 62 43 56 44
REMARK SMILES IDX 58 45 18 46 61 47 55 48 54 49 19 51 45 52 28 53 44 54 29 55
REMARK SMILES IDX 32 56 43 57 59 58 30 59 31 60 42 62 60 63 33 64 20 65 21 66
REMARK SMILES IDX 26 67 22 68 23 69 25 70 27 71 24 72 46 73 47 74 52 75 48 76
REMARK SMILES IDX 49 77 51 78 53 79 50 80 34 81 35 82 40 83 36 84 37 85 39 86
REMARK SMILES IDX 41 87 38 88
REMARK H PARENT 3 6 8 31 58 50 32 61
REMARK Flexibility Score: inf
ROOT
ATOM      1  C   UNL A   1      31.846  28.742  22.844  1.00  0.00     0.023 C 
ENDROOT
BRANCH   1   2
ATOM      2  C   UNL A   1      31.380  27.314  22.582  1.00  0.00     0.116 C 
BRANCH   2   3
ATOM      3  N   UNL A   1      31.877  26.781  21.321  1.00  0.00    -0.351 N 
ATOM      4  O   UNL A   1      32.973  25.270  20.008  1.00  0.00    -0.268 OA
ATOM      5  C   UNL A   1      32.603  25.630  21.119  1.00  0.00     0.267 C 
ATOM      6  H   UNL A   1      31.669  27.308  20.516  1.00  0.00     0.163 HD
BRANCH   5   7
ATOM      7  C   UNL A   1      33.005  24.813  22.315  1.00  0.00     0.128 C 
ATOM      8  N   UNL A   1      34.237  24.669  22.677  1.00  0.00    -0.171 NA
ATOM      9  C   UNL A   1      31.976  24.144  23.161  1.00  0.00     0.096 C 
ATOM     10  N   UNL A   1      34.237  23.694  23.617  1.00  0.00    -0.257 N 
ATOM     11  C   UNL A   1      32.892  23.240  24.009  1.00  0.00     0.144 C 
BRANCH  10  12
ATOM     12  C   UNL A   1      35.437  23.399  24.236  1.00  0.00     0.061 A 
ATOM     13  C   UNL A   1      36.236  22.343  23.773  1.00  0.00     0.035 A 
ATOM     14  C   UNL A   1      35.835  24.068  25.402  1.00  0.00     0.035 A 
ATOM     15  C   UNL A   1      37.418  21.985  24.428  1.00  0.00     0.088 A 
ATOM     16  C   UNL A   1      37.013  23.726  26.070  1.00  0.00     0.088 A 
ATOM     17  C   UNL A   1      37.804  22.685  25.576  1.00  0.00     0.269 A 
BRANCH  17  18
ATOM     18  N   UNL A   1      39.040  22.317  26.275  1.00  0.00     0.062 N 
ATOM     19  O   UNL A   1      39.591  23.184  26.968  1.00  0.00    -0.258 OA
ATOM     20  O   UNL A   1      39.458  21.158  26.134  1.00  0.00    -0.258 OA
ENDBRANCH  17  18
ENDBRANCH  10  12
BRANCH  11  21
ATOM     21  C   UNL A   1      32.686  21.738  23.856  1.00  0.00    -0.023 A 
ATOM     22  C   UNL A   1      32.838  20.811  24.901  1.00  0.00     0.006 A 
ATOM     23  C   UNL A   1      32.328  21.237  22.589  1.00  0.00     0.006 A 
ATOM     24  C   UNL A   1      32.658  19.440  24.679  1.00  0.00     0.000 A 
ATOM     25  C   UNL A   1      32.108  19.874  22.378  1.00  0.00     0.000 A 
ATOM     26  C   UNL A   1      32.284  18.974  23.422  1.00  0.00     0.000 A 
ENDBRANCH  11  21
ENDBRANCH   5   7
ENDBRANCH   2   3
ENDBRANCH   1   2
BRANCH   1  27
ATOM     27  C   UNL A   1      33.253  28.870  23.423  1.00  0.00     0.023 C 
BRANCH  27  28
ATOM     28  C   UNL A   1      33.331  28.957  24.943  1.00  0.00     0.116 C 
BRANCH  28  29
ATOM     29  N   UNL A   1      32.569  30.062  25.499  1.00  0.00    -0.352 N 
ATOM     30  C   UNL A   1      32.839  30.844  26.597  1.00  0.00     0.251 C 
ATOM     31  H   UNL A   1      31.737  30.283  25.022  1.00  0.00     0.163 HD
ATOM     32  O   UNL A   1      32.015  31.669  26.978  1.00  0.00    -0.269 OA
BRANCH  30  33
ATOM     33  C   UNL A   1      34.107  30.676  27.343  1.00  0.00     0.039 A 
ATOM     34  C   UNL A   1      34.867  31.813  27.633  1.00  0.00     0.014 A 
ATOM     35  C   UNL A   1      34.563  29.415  27.736  1.00  0.00     0.014 A 
ATOM     36  C   UNL A   1      36.055  31.692  28.359  1.00  0.00     0.010 A 
ATOM     37  C   UNL A   1      35.709  29.302  28.521  1.00  0.00     0.010 A 
ATOM     38  C   UNL A   1      36.473  30.437  28.829  1.00  0.00    -0.014 A 
BRANCH  38  39
ATOM     39  C   UNL A   1      37.731  30.288  29.603  1.00  0.00     0.031 A 
ATOM     40  C   UNL A   1      38.891  29.534  29.011  1.00  0.00     0.074 A 
ATOM     41  C   UNL A   1      37.820  30.791  30.849  1.00  0.00     0.049 A 
ATOM     42  N   UNL A   1      40.046  29.233  29.550  1.00  0.00    -0.248 NA
ATOM     43  C   UNL A   1      38.719  29.027  27.639  1.00  0.00     0.031 C 
ATOM     44  C   UNL A   1      36.755  31.503  31.556  1.00  0.00     0.029 A 
ATOM     45  N   UNL A   1      38.858  30.770  31.747  1.00  0.00    -0.354 N 
ATOM     46  C   UNL A   1      40.728  28.494  28.592  1.00  0.00     0.074 A 
ATOM     47  C   UNL A   1      39.840  28.346  27.459  1.00  0.00     0.031 C 
ATOM     48  C   UNL A   1      37.199  31.864  32.772  1.00  0.00     0.029 A 
ATOM     49  C   UNL A   1      38.569  31.389  32.938  1.00  0.00     0.049 A 
ATOM     50  H   UNL A   1      39.727  30.350  31.555  1.00  0.00     0.167 HD
ATOM     51  C   UNL A   1      41.990  28.005  28.637  1.00  0.00     0.037 A 
ATOM     52  C   UNL A   1      39.327  31.557  34.039  1.00  0.00     0.037 A 
ATOM     53  C   UNL A   1      42.887  28.175  29.750  1.00  0.00     0.049 A 
ATOM     54  C   UNL A   1      40.739  31.041  34.047  1.00  0.00     0.074 A 
ATOM     55  C   UNL A   1      44.187  27.720  29.890  1.00  0.00     0.029 A 
ATOM     56  N   UNL A   1      42.578  28.870  30.908  1.00  0.00    -0.354 N 
ATOM     57  N   UNL A   1      41.381  30.369  33.122  1.00  0.00    -0.248 NA
ATOM     58  C   UNL A   1      41.541  31.322  35.247  1.00  0.00     0.031 C 
ATOM     59  C   UNL A   1      44.662  28.134  31.140  1.00  0.00     0.029 A 
ATOM     60  C   UNL A   1      43.668  28.870  31.762  1.00  0.00     0.049 A 
ATOM     61  H   UNL A   1      41.712  29.300  31.096  1.00  0.00     0.167 HD
ATOM     62  C   UNL A   1      42.666  30.180  33.611  1.00  0.00     0.074 A 
ATOM     63  C   UNL A   1      42.718  30.816  34.911  1.00  0.00     0.031 C 
ATOM     64  C   UNL A   1      43.710  29.534  33.038  1.00  0.00     0.037 A 
BRANCH  51  65
ATOM     65  C   UNL A   1      42.480  27.256  27.433  1.00  0.00     0.057 A 
ATOM     66  C   UNL A   1      43.035  27.925  26.335  1.00  0.00     0.134 A 
ATOM     67  C   UNL A   1      42.423  25.859  27.381  1.00  0.00     0.134 A 
ATOM     68  F   UNL A   1      43.104  29.265  26.318  1.00  0.00    -0.206 F 
ATOM     69  C   UNL A   1      43.498  27.231  25.215  1.00  0.00     0.040 A 
ATOM     70  C   UNL A   1      42.904  25.152  26.277  1.00  0.00     0.040 A 
ATOM     71  F   UNL A   1      41.906  25.158  28.400  1.00  0.00    -0.206 F 
ATOM     72  C   UNL A   1      43.439  25.840  25.188  1.00  0.00     0.006 A 
ENDBRANCH  51  65
BRANCH  52  73
ATOM     73  C   UNL A   1      38.784  32.278  35.216  1.00  0.00     0.057 A 
ATOM     74  C   UNL A   1      38.830  33.675  35.292  1.00  0.00     0.134 A 
ATOM     75  C   UNL A   1      38.239  31.589  36.305  1.00  0.00     0.134 A 
ATOM     76  F   UNL A   1      39.360  34.388  34.287  1.00  0.00    -0.206 F 
ATOM     77  C   UNL A   1      38.381  34.361  36.421  1.00  0.00     0.040 A 
ATOM     78  C   UNL A   1      37.764  32.264  37.431  1.00  0.00     0.040 A 
ATOM     79  F   UNL A   1      38.160  30.250  36.289  1.00  0.00    -0.206 F 
ATOM     80  C   UNL A   1      37.843  33.654  37.495  1.00  0.00     0.006 A 
ENDBRANCH  52  73
BRANCH  64  81
ATOM     81  C   UNL A   1      45.010  29.538  33.785  1.00  0.00     0.057 A 
ATOM     82  C   UNL A   1      45.344  28.529  34.696  1.00  0.00     0.134 A 
ATOM     83  C   UNL A   1      45.946  30.557  33.572  1.00  0.00     0.134 A 
ATOM     84  F   UNL A   1      44.484  27.532  34.953  1.00  0.00    -0.206 F 
ATOM     85  C   UNL A   1      46.554  28.547  35.390  1.00  0.00     0.040 A 
ATOM     86  C   UNL A   1      47.168  30.575  34.242  1.00  0.00     0.040 A 
ATOM     87  F   UNL A   1      45.688  31.549  32.706  1.00  0.00    -0.206 F 
ATOM     88  C   UNL A   1      47.473  29.571  35.160  1.00  0.00     0.006 A 
ENDBRANCH  64  81
ENDBRANCH  38  39
ENDBRANCH  30  33
ENDBRANCH  28  29
ENDBRANCH  27  28
ENDBRANCH   1  27
TORSDOF 14
ENDMDL
MODEL 3
REMARK VINA RESULT:     -12.8      1.786      2.527
REMARK SMILES O=C(NCCCCNC(=O)c1ccc(-c2c3nc(c(-c4c(F)cccc4F)c4ccc([nH]4)c(-c4c(F)cccc4F)c4nc(c(-c5c(F)cccc5F)c5ccc2[nH]5)C=C4)C=C3)cc1)C1=NN(c2ccc([N+](=O)[O-])cc2)[C@H](c2ccccc2)C1
REMARK SMILES IDX 5 1 4 2 3 3 1 4 2 5 65 7 66 8 84 9 67 10 77 11 68 12 69 13
REMARK SMILES IDX 76 14 70 15 75 16 71 17 72 18 73 19 74 20 78 21 79 22 83 23
REMARK SMILES IDX 80 24 82 25 81 26 6 27 7 28 8 29 9 30 10 32 11 33 12 34
REMARK SMILES IDX 64 35 13 36 63 37 14 38 15 39 16 40 57 41 17 42 62 43 56 44
REMARK SMILES IDX 58 45 18 46 61 47 55 48 54 49 19 51 45 52 28 53 44 54 29 55
REMARK SMILES IDX 32 56 43 57 59 58 30 59 31 60 42 62 60 63 33 64 20 65 21 66
REMARK SMILES IDX 26 67 22 68 23 69 25 70 27 71 24 72 46 73 47 74 52 75 48 76
REMARK SMILES IDX 49 77 51 78 53 79 50 80 34 81 35 82 40 83 36 84 37 85 39 86
REMARK SMILES IDX 41 87 38 88
REMARK H PARENT 3 6 8 31 58 50 32 61
REMARK Flexibility Score: inf
ROOT
ATOM      1  C   UNL A   1      31.705  27.794  26.415  1.00  0.00     0.023 C 
ENDROOT
BRANCH   1   2
ATOM      2  C   UNL A   1      31.238  26.536  25.691  1.00  0.00     0.116 C 
BRANCH   2   3
ATOM      3  N   UNL A   1      30.387  25.692  26.519  1.00  0.00    -0.351 N 
ATOM      4  O   UNL A   1      29.576  23.703  27.290  1.00  0.00    -0.268 OA
ATOM      5  C   UNL A   1      30.333  24.318  26.549  1.00  0.00     0.267 C 
ATOM      6  H   UNL A   1      29.776  26.162  27.131  1.00  0.00     0.163 HD
BRANCH   5   7
ATOM      7  C   UNL A   1      31.198  23.544  25.594  1.00  0.00     0.128 C 
ATOM      8  N   UNL A   1      31.256  22.252  25.599  1.00  0.00    -0.171 NA
ATOM      9  C   UNL A   1      32.019  24.247  24.568  1.00  0.00     0.096 C 
ATOM     10  N   UNL A   1      32.295  21.924  24.794  1.00  0.00    -0.257 N 
ATOM     11  C   UNL A   1      32.898  23.072  24.095  1.00  0.00     0.144 C 
BRANCH  10  12
ATOM     12  C   UNL A   1      32.526  20.582  24.559  1.00  0.00     0.061 A 
ATOM     13  C   UNL A   1      33.111  19.776  25.547  1.00  0.00     0.035 A 
ATOM     14  C   UNL A   1      32.288  20.016  23.298  1.00  0.00     0.035 A 
ATOM     15  C   UNL A   1      33.415  18.433  25.303  1.00  0.00     0.088 A 
ATOM     16  C   UNL A   1      32.584  18.676  23.035  1.00  0.00     0.088 A 
ATOM     17  C   UNL A   1      33.145  17.887  24.044  1.00  0.00     0.269 A 
BRANCH  17  18
ATOM     18  N   UNL A   1      33.464  16.481  23.775  1.00  0.00     0.062 N 
ATOM     19  O   UNL A   1      33.059  15.633  24.583  1.00  0.00    -0.258 OA
ATOM     20  O   UNL A   1      34.115  16.223  22.752  1.00  0.00    -0.258 OA
ENDBRANCH  17  18
ENDBRANCH  10  12
BRANCH  11  21
ATOM     21  C   UNL A   1      34.397  23.212  24.332  1.00  0.00    -0.023 A 
ATOM     22  C   UNL A   1      34.968  23.641  25.541  1.00  0.00     0.006 A 
ATOM     23  C   UNL A   1      35.273  22.900  23.273  1.00  0.00     0.006 A 
ATOM     24  C   UNL A   1      36.355  23.770  25.676  1.00  0.00     0.000 A 
ATOM     25  C   UNL A   1      36.659  22.989  23.422  1.00  0.00     0.000 A 
ATOM     26  C   UNL A   1      37.200  23.435  24.621  1.00  0.00     0.000 A 
ENDBRANCH  11  21
ENDBRANCH   5   7
ENDBRANCH   2   3
ENDBRANCH   1   2
BRANCH   1  27
ATOM     27  C   UNL A   1      33.183  27.813  26.796  1.00  0.00     0.023 C 
BRANCH  27  28
ATOM     28  C   UNL A   1      34.011  28.922  26.158  1.00  0.00     0.116 C 
BRANCH  28  29
ATOM     29  N   UNL A   1      33.743  30.238  26.716  1.00  0.00    -0.352 N 
ATOM     30  C   UNL A   1      34.450  30.948  27.656  1.00  0.00     0.251 C 
ATOM     31  H   UNL A   1      32.936  30.684  26.371  1.00  0.00     0.163 HD
ATOM     32  O   UNL A   1      34.005  32.008  28.083  1.00  0.00    -0.269 OA
BRANCH  30  33
ATOM     33  C   UNL A   1      35.733  30.428  28.180  1.00  0.00     0.039 A 
ATOM     34  C   UNL A   1      35.719  29.685  29.364  1.00  0.00     0.014 A 
ATOM     35  C   UNL A   1      36.946  30.684  27.533  1.00  0.00     0.014 A 
ATOM     36  C   UNL A   1      36.909  29.157  29.871  1.00  0.00     0.010 A 
ATOM     37  C   UNL A   1      38.121  30.099  27.999  1.00  0.00     0.010 A 
ATOM     38  C   UNL A   1      38.117  29.340  29.180  1.00  0.00    -0.014 A 
BRANCH  38  39
ATOM     39  C   UNL A   1      39.392  28.786  29.701  1.00  0.00     0.031 A 
ATOM     40  C   UNL A   1      40.035  29.400  30.916  1.00  0.00     0.074 A 
ATOM     41  C   UNL A   1      39.994  27.764  29.065  1.00  0.00     0.049 A 
ATOM     42  N   UNL A   1      41.178  29.110  31.484  1.00  0.00    -0.248 NA
ATOM     43  C   UNL A   1      39.308  30.506  31.561  1.00  0.00     0.031 C 
ATOM     44  C   UNL A   1      39.499  27.109  27.853  1.00  0.00     0.029 A 
ATOM     45  N   UNL A   1      41.162  27.101  29.348  1.00  0.00    -0.354 N 
ATOM     46  C   UNL A   1      41.312  30.002  32.540  1.00  0.00     0.074 A 
ATOM     47  C   UNL A   1      40.161  30.878  32.503  1.00  0.00     0.031 C 
ATOM     48  C   UNL A   1      40.350  26.128  27.505  1.00  0.00     0.029 A 
ATOM     49  C   UNL A   1      41.459  26.101  28.454  1.00  0.00     0.049 A 
ATOM     50  H   UNL A   1      41.733  27.321  30.119  1.00  0.00     0.167 HD
ATOM     51  C   UNL A   1      42.289  30.071  33.474  1.00  0.00     0.037 A 
ATOM     52  C   UNL A   1      42.507  25.257  28.409  1.00  0.00     0.037 A 
ATOM     53  C   UNL A   1      43.421  29.184  33.532  1.00  0.00     0.049 A 
ATOM     54  C   UNL A   1      43.557  25.328  29.482  1.00  0.00     0.074 A 
ATOM     55  C   UNL A   1      44.463  29.170  34.443  1.00  0.00     0.029 A 
ATOM     56  N   UNL A   1      43.647  28.141  32.648  1.00  0.00    -0.354 N 
ATOM     57  N   UNL A   1      43.655  26.158  30.492  1.00  0.00    -0.248 NA
ATOM     58  C   UNL A   1      44.636  24.329  29.421  1.00  0.00     0.031 C 
ATOM     59  C   UNL A   1      45.326  28.121  34.103  1.00  0.00     0.029 A 
ATOM     60  C   UNL A   1      44.803  27.466  33.001  1.00  0.00     0.049 A 
ATOM     61  H   UNL A   1      43.070  27.912  31.883  1.00  0.00     0.167 HD
ATOM     62  C   UNL A   1      44.779  25.762  31.203  1.00  0.00     0.074 A 
ATOM     63  C   UNL A   1      45.326  24.611  30.517  1.00  0.00     0.031 C 
ATOM     64  C   UNL A   1      45.315  26.305  32.324  1.00  0.00     0.037 A 
BRANCH  51  65
ATOM     65  C   UNL A   1      42.162  31.134  34.525  1.00  0.00     0.057 A 
ATOM     66  C   UNL A   1      41.445  30.909  35.707  1.00  0.00     0.134 A 
ATOM     67  C   UNL A   1      42.780  32.380  34.369  1.00  0.00     0.134 A 
ATOM     68  F   UNL A   1      40.816  29.740  35.909  1.00  0.00    -0.206 F 
ATOM     69  C   UNL A   1      41.329  31.894  36.689  1.00  0.00     0.040 A 
ATOM     70  C   UNL A   1      42.691  33.365  35.355  1.00  0.00     0.040 A 
ATOM     71  F   UNL A   1      43.484  32.658  33.262  1.00  0.00    -0.206 F 
ATOM     72  C   UNL A   1      41.959  33.124  36.517  1.00  0.00     0.006 A 
ENDBRANCH  51  65
BRANCH  52  73
ATOM     73  C   UNL A   1      42.603  24.243  27.330  1.00  0.00     0.057 A 
ATOM     74  C   UNL A   1      42.136  22.938  27.522  1.00  0.00     0.134 A 
ATOM     75  C   UNL A   1      43.192  24.544  26.097  1.00  0.00     0.134 A 
ATOM     76  F   UNL A   1      41.580  22.585  28.691  1.00  0.00    -0.206 F 
ATOM     77  C   UNL A   1      42.278  21.958  26.538  1.00  0.00     0.040 A 
ATOM     78  C   UNL A   1      43.319  23.581  25.095  1.00  0.00     0.040 A 
ATOM     79  F   UNL A   1      43.652  25.779  25.849  1.00  0.00    -0.206 F 
ATOM     80  C   UNL A   1      42.870  22.280  25.318  1.00  0.00     0.006 A 
ENDBRANCH  52  73
BRANCH  64  81
ATOM     81  C   UNL A   1      46.515  25.622  32.907  1.00  0.00     0.057 A 
ATOM     82  C   UNL A   1      46.399  24.622  33.880  1.00  0.00     0.134 A 
ATOM     83  C   UNL A   1      47.802  25.958  32.471  1.00  0.00     0.134 A 
ATOM     84  F   UNL A   1      45.193  24.264  34.347  1.00  0.00    -0.206 F 
ATOM     85  C   UNL A   1      47.525  23.999  34.419  1.00  0.00     0.040 A 
ATOM     86  C   UNL A   1      48.934  25.327  32.985  1.00  0.00     0.040 A 
ATOM     87  F   UNL A   1      47.980  26.904  31.535  1.00  0.00    -0.206 F 
ATOM     88  C   UNL A   1      48.797  24.348  33.968  1.00  0.00     0.006 A 
ENDBRANCH  64  81
ENDBRANCH  38  39
ENDBRANCH  30  33
ENDBRANCH  28  29
ENDBRANCH  27  28
ENDBRANCH   1  27
TORSDOF 14
ENDMDL
