MODEL 1
REMARK VINA RESULT:     -12.1      0.000      0.000
REMARK SMILES Nc1cc(C(=O)NCCCCNC(=O)c2ccc(-c3c4nc(c(-c5c(F)cccc5F)c5ccc([nH]5)c(-c5c(F)cccc5F)c5nc(c(-c6c(F)cccc6F)c6ccc3[nH]6)C=C5)C=C4)cc2)c(-c2ccc(F)cc2O)cn1
REMARK SMILES IDX 9 1 8 2 7 3 5 4 6 5 4 7 2 8 3 9 79 10 78 11 69 12 1 13 70 16
REMARK SMILES IDX 71 17 76 18 72 19 75 20 73 21 74 22 77 23 10 25 11 26 12 27
REMARK SMILES IDX 13 28 14 30 15 31 16 32 68 33 17 34 67 35 18 36 19 37 20 38
REMARK SMILES IDX 61 39 21 40 66 41 60 42 62 43 22 44 65 45 59 46 58 47 23 49
REMARK SMILES IDX 49 50 32 51 48 52 33 53 36 54 47 55 63 56 34 57 35 58 46 60
REMARK SMILES IDX 64 61 37 62 24 63 25 64 30 65 26 66 27 67 29 68 31 69 28 70
REMARK SMILES IDX 50 71 51 72 56 73 52 74 53 75 55 76 57 77 54 78 38 79 39 80
REMARK SMILES IDX 44 81 40 82 41 83 43 84 45 85 42 86
REMARK H PARENT 7 6 1 14 1 15 77 24 12 29 62 48 36 59
REMARK Flexibility Score: inf
ROOT
ATOM      1  C   UNL A   1      36.373  20.372  25.015  1.00  0.00     0.023 C 
ENDROOT
BRANCH   1   2
ATOM      2  C   UNL A   1      36.077  21.822  25.415  1.00  0.00     0.116 C 
BRANCH   2   3
ATOM      3  N   UNL A   1      35.596  22.556  24.263  1.00  0.00    -0.352 N 
ATOM      4  C   UNL A   1      34.361  22.998  23.859  1.00  0.00     0.252 C 
ATOM      5  O   UNL A   1      34.300  23.305  22.667  1.00  0.00    -0.269 OA
ATOM      6  H   UNL A   1      36.313  22.791  23.631  1.00  0.00     0.163 HD
BRANCH   4   7
ATOM      7  C   UNL A   1      33.147  23.120  24.735  1.00  0.00     0.052 A 
ATOM      8  C   UNL A   1      31.641  24.460  26.077  1.00  0.00     0.124 A 
ATOM      9  C   UNL A   1      32.818  24.331  25.357  1.00  0.00     0.061 A 
ATOM     10  N   UNL A   1      30.815  23.435  26.283  1.00  0.00    -0.239 NA
ATOM     11  C   UNL A   1      31.176  22.242  25.760  1.00  0.00     0.123 A 
ATOM     12  C   UNL A   1      32.314  22.002  24.979  1.00  0.00     0.017 A 
BRANCH   8  13
ATOM     13  N   UNL A   1      31.301  25.660  26.668  1.00  0.00    -0.384 N 
ATOM     14  H   UNL A   1      30.614  25.684  27.372  1.00  0.00     0.158 HD
ATOM     15  H   UNL A   1      31.746  26.492  26.385  1.00  0.00     0.158 HD
ENDBRANCH   8  13
BRANCH  12  16
ATOM     16  C   UNL A   1      32.537  20.608  24.532  1.00  0.00     0.026 A 
ATOM     17  C   UNL A   1      32.270  20.236  23.200  1.00  0.00     0.015 A 
ATOM     18  C   UNL A   1      32.917  19.581  25.419  1.00  0.00     0.126 A 
ATOM     19  C   UNL A   1      32.391  18.903  22.788  1.00  0.00     0.040 A 
ATOM     20  C   UNL A   1      33.036  18.254  25.022  1.00  0.00     0.086 A 
ATOM     21  C   UNL A   1      32.774  17.928  23.701  1.00  0.00     0.126 A 
ATOM     22  F   UNL A   1      32.897  16.657  23.297  1.00  0.00    -0.207 F 
BRANCH  18  23
ATOM     23  O   UNL A   1      33.266  19.865  26.712  1.00  0.00    -0.507 OA
ATOM     24  H   UNL A   1      33.250  19.190  27.362  1.00  0.00     0.293 HD
ENDBRANCH  18  23
ENDBRANCH  12  16
ENDBRANCH   4   7
ENDBRANCH   2   3
ENDBRANCH   1   2
BRANCH   1  25
ATOM     25  C   UNL A   1      37.834  20.113  24.623  1.00  0.00     0.023 C 
BRANCH  25  26
ATOM     26  C   UNL A   1      38.853  20.325  25.739  1.00  0.00     0.116 C 
BRANCH  26  27
ATOM     27  N   UNL A   1      39.915  19.332  25.739  1.00  0.00    -0.352 N 
ATOM     28  C   UNL A   1      41.234  19.486  26.091  1.00  0.00     0.251 C 
ATOM     29  H   UNL A   1      39.654  18.429  25.448  1.00  0.00     0.163 HD
ATOM     30  O   UNL A   1      42.026  18.565  25.939  1.00  0.00    -0.269 OA
BRANCH  28  31
ATOM     31  C   UNL A   1      41.696  20.787  26.612  1.00  0.00     0.039 A 
ATOM     32  C   UNL A   1      42.191  21.730  25.708  1.00  0.00     0.014 A 
ATOM     33  C   UNL A   1      41.621  21.081  27.976  1.00  0.00     0.014 A 
ATOM     34  C   UNL A   1      42.550  22.998  26.165  1.00  0.00     0.010 A 
ATOM     35  C   UNL A   1      41.923  22.365  28.419  1.00  0.00     0.010 A 
ATOM     36  C   UNL A   1      42.387  23.336  27.518  1.00  0.00    -0.014 A 
BRANCH  36  37
ATOM     37  C   UNL A   1      42.687  24.702  28.008  1.00  0.00     0.031 A 
ATOM     38  C   UNL A   1      44.090  25.075  28.392  1.00  0.00     0.074 A 
ATOM     39  C   UNL A   1      41.681  25.584  28.170  1.00  0.00     0.049 A 
ATOM     40  N   UNL A   1      44.535  26.193  28.908  1.00  0.00    -0.248 NA
ATOM     41  C   UNL A   1      45.125  24.049  28.194  1.00  0.00     0.031 C 
ATOM     42  C   UNL A   1      40.270  25.322  27.878  1.00  0.00     0.029 A 
ATOM     43  N   UNL A   1      41.691  26.875  28.632  1.00  0.00    -0.354 N 
ATOM     44  C   UNL A   1      45.896  25.998  29.108  1.00  0.00     0.074 A 
ATOM     45  C   UNL A   1      46.194  24.642  28.704  1.00  0.00     0.031 C 
ATOM     46  C   UNL A   1      39.553  26.425  28.151  1.00  0.00     0.029 A 
ATOM     47  C   UNL A   1      40.447  27.458  28.666  1.00  0.00     0.049 A 
ATOM     48  H   UNL A   1      42.512  27.341  28.911  1.00  0.00     0.167 HD
ATOM     49  C   UNL A   1      46.816  26.879  29.566  1.00  0.00     0.037 A 
ATOM     50  C   UNL A   1      40.071  28.684  29.073  1.00  0.00     0.037 A 
ATOM     51  C   UNL A   1      46.522  28.237  29.941  1.00  0.00     0.049 A 
ATOM     52  C   UNL A   1      41.114  29.644  29.574  1.00  0.00     0.074 A 
ATOM     53  C   UNL A   1      47.395  29.225  30.362  1.00  0.00     0.029 A 
ATOM     54  N   UNL A   1      45.253  28.798  29.938  1.00  0.00    -0.354 N 
ATOM     55  N   UNL A   1      42.407  29.468  29.697  1.00  0.00    -0.248 NA
ATOM     56  C   UNL A   1      40.646  30.974  29.986  1.00  0.00     0.031 C 
ATOM     57  C   UNL A   1      46.650  30.374  30.646  1.00  0.00     0.029 A 
ATOM     58  C   UNL A   1      45.319  30.114  30.364  1.00  0.00     0.049 A 
ATOM     59  H   UNL A   1      44.429  28.330  29.672  1.00  0.00     0.167 HD
ATOM     60  C   UNL A   1      42.910  30.671  30.174  1.00  0.00     0.074 A 
ATOM     61  C   UNL A   1      41.784  31.573  30.305  1.00  0.00     0.031 C 
ATOM     62  C   UNL A   1      44.189  30.999  30.478  1.00  0.00     0.037 A 
BRANCH  49  63
ATOM     63  C   UNL A   1      48.234  26.402  29.677  1.00  0.00     0.057 A 
ATOM     64  C   UNL A   1      49.146  26.554  28.624  1.00  0.00     0.134 A 
ATOM     65  C   UNL A   1      48.704  25.819  30.860  1.00  0.00     0.134 A 
ATOM     66  F   UNL A   1      48.755  27.093  27.459  1.00  0.00    -0.206 F 
ATOM     67  C   UNL A   1      50.468  26.122  28.736  1.00  0.00     0.040 A 
ATOM     68  C   UNL A   1      50.031  25.405  30.993  1.00  0.00     0.040 A 
ATOM     69  F   UNL A   1      47.884  25.648  31.908  1.00  0.00    -0.206 F 
ATOM     70  C   UNL A   1      50.916  25.553  29.926  1.00  0.00     0.006 A 
ENDBRANCH  49  63
BRANCH  50  71
ATOM     71  C   UNL A   1      38.644  29.087  29.004  1.00  0.00     0.057 A 
ATOM     72  C   UNL A   1      38.094  29.591  27.820  1.00  0.00     0.134 A 
ATOM     73  C   UNL A   1      37.802  28.992  30.119  1.00  0.00     0.134 A 
ATOM     74  F   UNL A   1      38.857  29.722  26.725  1.00  0.00    -0.206 F 
ATOM     75  C   UNL A   1      36.764  30.008  27.752  1.00  0.00     0.040 A 
ATOM     76  C   UNL A   1      36.463  29.383  30.058  1.00  0.00     0.040 A 
ATOM     77  F   UNL A   1      38.267  28.509  31.280  1.00  0.00    -0.206 F 
ATOM     78  C   UNL A   1      35.943  29.901  28.873  1.00  0.00     0.006 A 
ENDBRANCH  50  71
BRANCH  62  79
ATOM     79  C   UNL A   1      44.443  32.400  30.949  1.00  0.00     0.057 A 
ATOM     80  C   UNL A   1      44.428  32.736  32.309  1.00  0.00     0.134 A 
ATOM     81  C   UNL A   1      44.740  33.417  30.033  1.00  0.00     0.134 A 
ATOM     82  F   UNL A   1      44.137  31.810  33.235  1.00  0.00    -0.206 F 
ATOM     83  C   UNL A   1      44.683  34.038  32.739  1.00  0.00     0.040 A 
ATOM     84  C   UNL A   1      45.020  34.717  30.452  1.00  0.00     0.040 A 
ATOM     85  F   UNL A   1      44.776  33.158  28.717  1.00  0.00    -0.206 F 
ATOM     86  C   UNL A   1      44.986  35.032  31.810  1.00  0.00     0.006 A 
ENDBRANCH  62  79
ENDBRANCH  36  37
ENDBRANCH  28  31
ENDBRANCH  26  27
ENDBRANCH  25  26
ENDBRANCH   1  25
TORSDOF 14
ENDMDL
MODEL 2
REMARK VINA RESULT:     -11.9      1.924      3.054
REMARK SMILES Nc1cc(C(=O)NCCCCNC(=O)c2ccc(-c3c4nc(c(-c5c(F)cccc5F)c5ccc([nH]5)c(-c5c(F)cccc5F)c5nc(c(-c6c(F)cccc6F)c6ccc3[nH]6)C=C5)C=C4)cc2)c(-c2ccc(F)cc2O)cn1
REMARK SMILES IDX 9 1 8 2 7 3 5 4 6 5 4 7 2 8 3 9 79 10 78 11 69 12 1 13 70 16
REMARK SMILES IDX 71 17 76 18 72 19 75 20 73 21 74 22 77 23 10 25 11 26 12 27
REMARK SMILES IDX 13 28 14 30 15 31 16 32 68 33 17 34 67 35 18 36 19 37 20 38
REMARK SMILES IDX 61 39 21 40 66 41 60 42 62 43 22 44 65 45 59 46 58 47 23 49
REMARK SMILES IDX 49 50 32 51 48 52 33 53 36 54 47 55 63 56 34 57 35 58 46 60
REMARK SMILES IDX 64 61 37 62 24 63 25 64 30 65 26 66 27 67 29 68 31 69 28 70
REMARK SMILES IDX 50 71 51 72 56 73 52 74 53 75 55 76 57 77 54 78 38 79 39 80
REMARK SMILES IDX 44 81 40 82 41 83 43 84 45 85 42 86
REMARK H PARENT 7 6 1 14 1 15 77 24 12 29 62 48 36 59
REMARK Flexibility Score: inf
ROOT
ATOM      1  C   UNL A   1      39.010  22.657  26.133  1.00  0.00     0.023 C 
ENDROOT
BRANCH   1   2
ATOM      2  C   UNL A   1      37.707  23.453  25.994  1.00  0.00     0.116 C 
BRANCH   2   3
ATOM      3  N   UNL A   1      37.306  23.491  24.602  1.00  0.00    -0.352 N 
ATOM      4  C   UNL A   1      36.205  23.049  23.914  1.00  0.00     0.252 C 
ATOM      5  O   UNL A   1      36.368  22.976  22.695  1.00  0.00    -0.269 OA
ATOM      6  H   UNL A   1      37.968  23.932  24.024  1.00  0.00     0.163 HD
BRANCH   4   7
ATOM      7  C   UNL A   1      34.887  22.667  24.525  1.00  0.00     0.052 A 
ATOM      8  C   UNL A   1      33.475  21.059  25.658  1.00  0.00     0.124 A 
ATOM      9  C   UNL A   1      34.655  21.371  25.002  1.00  0.00     0.061 A 
ATOM     10  N   UNL A   1      32.481  21.937  25.795  1.00  0.00    -0.239 NA
ATOM     11  C   UNL A   1      32.667  23.162  25.256  1.00  0.00     0.123 A 
ATOM     12  C   UNL A   1      33.830  23.606  24.613  1.00  0.00     0.017 A 
BRANCH   8  13
ATOM     13  N   UNL A   1      33.254  19.790  26.153  1.00  0.00    -0.384 N 
ATOM     14  H   UNL A   1      34.000  19.152  26.221  1.00  0.00     0.158 HD
ATOM     15  H   UNL A   1      32.349  19.523  26.437  1.00  0.00     0.158 HD
ENDBRANCH   8  13
BRANCH  12  16
ATOM     16  C   UNL A   1      33.810  24.981  24.066  1.00  0.00     0.026 A 
ATOM     17  C   UNL A   1      33.885  26.092  24.928  1.00  0.00     0.015 A 
ATOM     18  C   UNL A   1      33.612  25.247  22.696  1.00  0.00     0.126 A 
ATOM     19  C   UNL A   1      33.777  27.396  24.431  1.00  0.00     0.040 A 
ATOM     20  C   UNL A   1      33.498  26.538  22.192  1.00  0.00     0.086 A 
ATOM     21  C   UNL A   1      33.586  27.605  23.070  1.00  0.00     0.126 A 
ATOM     22  F   UNL A   1      33.494  28.856  22.601  1.00  0.00    -0.207 F 
BRANCH  18  23
ATOM     23  O   UNL A   1      33.601  24.230  21.779  1.00  0.00    -0.507 OA
ATOM     24  H   UNL A   1      33.066  23.474  21.923  1.00  0.00     0.293 HD
ENDBRANCH  18  23
ENDBRANCH  12  16
ENDBRANCH   4   7
ENDBRANCH   2   3
ENDBRANCH   1   2
BRANCH   1  25
ATOM     25  C   UNL A   1      38.972  21.269  25.480  1.00  0.00     0.023 C 
BRANCH  25  26
ATOM     26  C   UNL A   1      39.320  20.107  26.405  1.00  0.00     0.116 C 
BRANCH  26  27
ATOM     27  N   UNL A   1      40.459  19.330  25.943  1.00  0.00    -0.352 N 
ATOM     28  C   UNL A   1      41.787  19.681  25.921  1.00  0.00     0.251 C 
ATOM     29  H   UNL A   1      40.250  18.431  25.600  1.00  0.00     0.163 HD
ATOM     30  O   UNL A   1      42.614  18.942  25.405  1.00  0.00    -0.269 OA
BRANCH  28  31
ATOM     31  C   UNL A   1      42.200  20.981  26.487  1.00  0.00     0.039 A 
ATOM     32  C   UNL A   1      42.642  21.977  25.614  1.00  0.00     0.014 A 
ATOM     33  C   UNL A   1      42.129  21.220  27.861  1.00  0.00     0.014 A 
ATOM     34  C   UNL A   1      42.953  23.242  26.115  1.00  0.00     0.010 A 
ATOM     35  C   UNL A   1      42.382  22.497  28.350  1.00  0.00     0.010 A 
ATOM     36  C   UNL A   1      42.793  23.520  27.481  1.00  0.00    -0.014 A 
BRANCH  36  37
ATOM     37  C   UNL A   1      43.041  24.879  28.020  1.00  0.00     0.031 A 
ATOM     38  C   UNL A   1      44.424  25.281  28.446  1.00  0.00     0.074 A 
ATOM     39  C   UNL A   1      42.006  25.725  28.186  1.00  0.00     0.049 A 
ATOM     40  N   UNL A   1      44.824  26.394  29.006  1.00  0.00    -0.248 NA
ATOM     41  C   UNL A   1      45.494  24.292  28.240  1.00  0.00     0.031 C 
ATOM     42  C   UNL A   1      40.610  25.432  27.855  1.00  0.00     0.029 A 
ATOM     43  N   UNL A   1      41.967  27.001  28.687  1.00  0.00    -0.354 N 
ATOM     44  C   UNL A   1      46.185  26.234  29.230  1.00  0.00     0.074 A 
ATOM     45  C   UNL A   1      46.533  24.900  28.792  1.00  0.00     0.031 C 
ATOM     46  C   UNL A   1      39.855  26.504  28.145  1.00  0.00     0.029 A 
ATOM     47  C   UNL A   1      40.706  27.545  28.711  1.00  0.00     0.049 A 
ATOM     48  H   UNL A   1      42.768  27.482  28.999  1.00  0.00     0.167 HD
ATOM     49  C   UNL A   1      47.069  27.127  29.737  1.00  0.00     0.037 A 
ATOM     50  C   UNL A   1      40.284  28.747  29.147  1.00  0.00     0.037 A 
ATOM     51  C   UNL A   1      46.726  28.463  30.146  1.00  0.00     0.049 A 
ATOM     52  C   UNL A   1      41.287  29.721  29.701  1.00  0.00     0.074 A 
ATOM     53  C   UNL A   1      47.559  29.462  30.617  1.00  0.00     0.029 A 
ATOM     54  N   UNL A   1      45.441  28.986  30.132  1.00  0.00    -0.354 N 
ATOM     55  N   UNL A   1      42.582  29.579  29.848  1.00  0.00    -0.248 NA
ATOM     56  C   UNL A   1      40.770  31.023  30.143  1.00  0.00     0.031 C 
ATOM     57  C   UNL A   1      46.774  30.580  30.919  1.00  0.00     0.029 A 
ATOM     58  C   UNL A   1      45.458  30.289  30.600  1.00  0.00     0.049 A 
ATOM     59  H   UNL A   1      44.637  28.502  29.834  1.00  0.00     0.167 HD
ATOM     60  C   UNL A   1      43.038  30.781  30.373  1.00  0.00     0.074 A 
ATOM     61  C   UNL A   1      41.883  31.644  30.506  1.00  0.00     0.031 C 
ATOM     62  C   UNL A   1      44.300  31.137  30.716  1.00  0.00     0.037 A 
BRANCH  49  63
ATOM     63  C   UNL A   1      48.498  26.688  29.864  1.00  0.00     0.057 A 
ATOM     64  C   UNL A   1      49.441  26.952  28.862  1.00  0.00     0.134 A 
ATOM     65  C   UNL A   1      48.945  26.029  31.016  1.00  0.00     0.134 A 
ATOM     66  F   UNL A   1      49.073  27.568  27.728  1.00  0.00    -0.206 F 
ATOM     67  C   UNL A   1      50.772  26.556  28.991  1.00  0.00     0.040 A 
ATOM     68  C   UNL A   1      50.280  25.650  31.167  1.00  0.00     0.040 A 
ATOM     69  F   UNL A   1      48.095  25.750  32.015  1.00  0.00    -0.206 F 
ATOM     70  C   UNL A   1      51.197  25.909  30.150  1.00  0.00     0.006 A 
ENDBRANCH  49  63
BRANCH  50  71
ATOM     71  C   UNL A   1      38.848  29.109  29.059  1.00  0.00     0.057 A 
ATOM     72  C   UNL A   1      38.013  29.022  30.179  1.00  0.00     0.134 A 
ATOM     73  C   UNL A   1      38.272  29.535  27.856  1.00  0.00     0.134 A 
ATOM     74  F   UNL A   1      38.504  28.602  31.355  1.00  0.00    -0.206 F 
ATOM     75  C   UNL A   1      36.653  29.324  30.103  1.00  0.00     0.040 A 
ATOM     76  C   UNL A   1      36.918  29.863  27.771  1.00  0.00     0.040 A 
ATOM     77  F   UNL A   1      39.021  29.646  26.749  1.00  0.00    -0.206 F 
ATOM     78  C   UNL A   1      36.103  29.750  28.895  1.00  0.00     0.006 A 
ENDBRANCH  50  71
BRANCH  62  79
ATOM     79  C   UNL A   1      44.501  32.529  31.235  1.00  0.00     0.057 A 
ATOM     80  C   UNL A   1      44.458  32.820  32.604  1.00  0.00     0.134 A 
ATOM     81  C   UNL A   1      44.776  33.584  30.356  1.00  0.00     0.134 A 
ATOM     82  F   UNL A   1      44.185  31.854  33.496  1.00  0.00    -0.206 F 
ATOM     83  C   UNL A   1      44.664  34.115  33.080  1.00  0.00     0.040 A 
ATOM     84  C   UNL A   1      45.007  34.879  30.821  1.00  0.00     0.040 A 
ATOM     85  F   UNL A   1      44.837  33.371  29.033  1.00  0.00    -0.206 F 
ATOM     86  C   UNL A   1      44.945  35.147  32.188  1.00  0.00     0.006 A 
ENDBRANCH  62  79
ENDBRANCH  36  37
ENDBRANCH  28  31
ENDBRANCH  26  27
ENDBRANCH  25  26
ENDBRANCH   1  25
TORSDOF 14
ENDMDL
MODEL 3
REMARK VINA RESULT:     -11.8      4.960      9.733
REMARK SMILES Nc1cc(C(=O)NCCCCNC(=O)c2ccc(-c3c4nc(c(-c5c(F)cccc5F)c5ccc([nH]5)c(-c5c(F)cccc5F)c5nc(c(-c6c(F)cccc6F)c6ccc3[nH]6)C=C5)C=C4)cc2)c(-c2ccc(F)cc2O)cn1
REMARK SMILES IDX 9 1 8 2 7 3 5 4 6 5 4 7 2 8 3 9 79 10 78 11 69 12 1 13 70 16
REMARK SMILES IDX 71 17 76 18 72 19 75 20 73 21 74 22 77 23 10 25 11 26 12 27
REMARK SMILES IDX 13 28 14 30 15 31 16 32 68 33 17 34 67 35 18 36 19 37 20 38
REMARK SMILES IDX 61 39 21 40 66 41 60 42 62 43 22 44 65 45 59 46 58 47 23 49
REMARK SMILES IDX 49 50 32 51 48 52 33 53 36 54 47 55 63 56 34 57 35 58 46 60
REMARK SMILES IDX 64 61 37 62 24 63 25 64 30 65 26 66 27 67 29 68 31 69 28 70
REMARK SMILES IDX 50 71 51 72 56 73 52 74 53 75 55 76 57 77 54 78 38 79 39 80
REMARK SMILES IDX 44 81 40 82 41 83 43 84 45 85 42 86
REMARK H PARENT 7 6 1 14 1 15 77 24 12 29 62 48 36 59
REMARK Flexibility Score: inf
ROOT
ATOM      1  C   UNL A   1      31.412  30.732  25.618  1.00  0.00     0.023 C 
ENDROOT
BRANCH   1   2
ATOM      2  C   UNL A   1      32.443  29.602  25.716  1.00  0.00     0.116 C 
BRANCH   2   3
ATOM      3  N   UNL A   1      31.829  28.433  26.312  1.00  0.00    -0.352 N 
ATOM      4  C   UNL A   1      31.491  27.189  25.844  1.00  0.00     0.252 C 
ATOM      5  O   UNL A   1      30.695  26.579  26.561  1.00  0.00    -0.269 OA
ATOM      6  H   UNL A   1      31.607  28.558  27.262  1.00  0.00     0.163 HD
BRANCH   4   7
ATOM      7  C   UNL A   1      32.003  26.562  24.578  1.00  0.00     0.052 A 
ATOM      8  C   UNL A   1      33.486  25.026  23.436  1.00  0.00     0.124 A 
ATOM      9  C   UNL A   1      33.089  25.678  24.592  1.00  0.00     0.061 A 
ATOM     10  N   UNL A   1      32.919  25.263  22.253  1.00  0.00    -0.239 NA
ATOM     11  C   UNL A   1      31.930  26.183  22.221  1.00  0.00     0.123 A 
ATOM     12  C   UNL A   1      31.414  26.870  23.328  1.00  0.00     0.017 A 
BRANCH   8  13
ATOM     13  N   UNL A   1      34.539  24.134  23.452  1.00  0.00    -0.384 N 
ATOM     14  H   UNL A   1      34.662  23.532  24.220  1.00  0.00     0.158 HD
ATOM     15  H   UNL A   1      35.168  24.102  22.694  1.00  0.00     0.158 HD
ENDBRANCH   8  13
BRANCH  12  16
ATOM     16  C   UNL A   1      30.348  27.862  23.063  1.00  0.00     0.026 A 
ATOM     17  C   UNL A   1      29.006  27.566  23.371  1.00  0.00     0.015 A 
ATOM     18  C   UNL A   1      30.598  29.085  22.407  1.00  0.00     0.126 A 
ATOM     19  C   UNL A   1      27.979  28.459  23.044  1.00  0.00     0.040 A 
ATOM     20  C   UNL A   1      29.585  29.977  22.073  1.00  0.00     0.086 A 
ATOM     21  C   UNL A   1      28.279  29.654  22.400  1.00  0.00     0.126 A 
ATOM     22  F   UNL A   1      27.292  30.508  22.100  1.00  0.00    -0.207 F 
BRANCH  18  23
ATOM     23  O   UNL A   1      31.880  29.485  22.136  1.00  0.00    -0.507 OA
ATOM     24  H   UNL A   1      32.592  28.888  22.253  1.00  0.00     0.293 HD
ENDBRANCH  18  23
ENDBRANCH  12  16
ENDBRANCH   4   7
ENDBRANCH   2   3
ENDBRANCH   1   2
BRANCH   1  25
ATOM     25  C   UNL A   1      31.402  31.681  26.824  1.00  0.00     0.023 C 
BRANCH  25  26
ATOM     26  C   UNL A   1      32.693  32.465  27.043  1.00  0.00     0.116 C 
BRANCH  26  27
ATOM     27  N   UNL A   1      32.463  33.833  27.479  1.00  0.00    -0.352 N 
ATOM     28  C   UNL A   1      33.130  34.552  28.441  1.00  0.00     0.251 C 
ATOM     29  H   UNL A   1      31.732  34.308  27.022  1.00  0.00     0.163 HD
ATOM     30  O   UNL A   1      32.744  35.669  28.757  1.00  0.00    -0.269 OA
BRANCH  28  31
ATOM     31  C   UNL A   1      34.291  33.944  29.122  1.00  0.00     0.039 A 
ATOM     32  C   UNL A   1      34.056  33.003  30.127  1.00  0.00     0.014 A 
ATOM     33  C   UNL A   1      35.595  34.283  28.756  1.00  0.00     0.014 A 
ATOM     34  C   UNL A   1      35.135  32.350  30.723  1.00  0.00     0.010 A 
ATOM     35  C   UNL A   1      36.666  33.588  29.309  1.00  0.00     0.010 A 
ATOM     36  C   UNL A   1      36.445  32.613  30.295  1.00  0.00    -0.014 A 
BRANCH  36  37
ATOM     37  C   UNL A   1      37.599  31.872  30.859  1.00  0.00     0.031 A 
ATOM     38  C   UNL A   1      38.112  32.205  32.230  1.00  0.00     0.074 A 
ATOM     39  C   UNL A   1      38.224  30.946  30.106  1.00  0.00     0.049 A 
ATOM     40  N   UNL A   1      39.150  31.721  32.864  1.00  0.00    -0.248 NA
ATOM     41  C   UNL A   1      37.378  33.237  32.979  1.00  0.00     0.031 C 
ATOM     42  C   UNL A   1      37.848  30.570  28.742  1.00  0.00     0.029 A 
ATOM     43  N   UNL A   1      39.315  30.161  30.379  1.00  0.00    -0.354 N 
ATOM     44  C   UNL A   1      39.200  32.397  34.076  1.00  0.00     0.074 A 
ATOM     45  C   UNL A   1      38.120  33.359  34.070  1.00  0.00     0.031 C 
ATOM     46  C   UNL A   1      38.685  29.614  28.304  1.00  0.00     0.029 A 
ATOM     47  C   UNL A   1      39.671  29.334  29.342  1.00  0.00     0.049 A 
ATOM     48  H   UNL A   1      39.796  30.187  31.238  1.00  0.00     0.167 HD
ATOM     49  C   UNL A   1      40.057  32.216  35.109  1.00  0.00     0.037 A 
ATOM     50  C   UNL A   1      40.684  28.454  29.239  1.00  0.00     0.037 A 
ATOM     51  C   UNL A   1      41.114  31.240  35.123  1.00  0.00     0.049 A 
ATOM     52  C   UNL A   1      41.619  28.270  30.403  1.00  0.00     0.074 A 
ATOM     53  C   UNL A   1      41.998  30.940  36.145  1.00  0.00     0.029 A 
ATOM     54  N   UNL A   1      41.428  30.402  34.063  1.00  0.00    -0.354 N 
ATOM     55  N   UNL A   1      41.615  28.871  31.568  1.00  0.00    -0.248 NA
ATOM     56  C   UNL A   1      42.693  27.281  30.239  1.00  0.00     0.031 C 
ATOM     57  C   UNL A   1      42.869  29.944  35.691  1.00  0.00     0.029 A 
ATOM     58  C   UNL A   1      42.502  29.596  34.401  1.00  0.00     0.049 A 
ATOM     59  H   UNL A   1      40.957  30.384  33.199  1.00  0.00     0.167 HD
ATOM     60  C   UNL A   1      42.667  28.316  32.284  1.00  0.00     0.074 A 
ATOM     61  C   UNL A   1      43.278  27.320  31.428  1.00  0.00     0.031 C 
ATOM     62  C   UNL A   1      43.090  28.604  33.539  1.00  0.00     0.037 A 
BRANCH  49  63
ATOM     63  C   UNL A   1      39.878  33.089  36.316  1.00  0.00     0.057 A 
ATOM     64  C   UNL A   1      40.579  34.293  36.464  1.00  0.00     0.134 A 
ATOM     65  C   UNL A   1      38.969  32.741  37.323  1.00  0.00     0.134 A 
ATOM     66  F   UNL A   1      41.474  34.676  35.541  1.00  0.00    -0.206 F 
ATOM     67  C   UNL A   1      40.399  35.109  37.581  1.00  0.00     0.040 A 
ATOM     68  C   UNL A   1      38.762  33.562  38.433  1.00  0.00     0.040 A 
ATOM     69  F   UNL A   1      38.262  31.604  37.241  1.00  0.00    -0.206 F 
ATOM     70  C   UNL A   1      39.482  34.748  38.566  1.00  0.00     0.006 A 
ENDBRANCH  49  63
BRANCH  50  71
ATOM     71  C   UNL A   1      40.859  27.660  27.998  1.00  0.00     0.057 A 
ATOM     72  C   UNL A   1      40.261  26.402  27.857  1.00  0.00     0.134 A 
ATOM     73  C   UNL A   1      41.635  28.129  26.931  1.00  0.00     0.134 A 
ATOM     74  F   UNL A   1      39.522  25.892  28.853  1.00  0.00    -0.206 F 
ATOM     75  C   UNL A   1      40.447  25.629  26.710  1.00  0.00     0.040 A 
ATOM     76  C   UNL A   1      41.809  27.376  25.768  1.00  0.00     0.040 A 
ATOM     77  F   UNL A   1      42.227  29.330  27.001  1.00  0.00    -0.206 F 
ATOM     78  C   UNL A   1      41.220  26.118  25.659  1.00  0.00     0.006 A 
ENDBRANCH  50  71
BRANCH  62  79
ATOM     79  C   UNL A   1      44.246  27.812  34.071  1.00  0.00     0.057 A 
ATOM     80  C   UNL A   1      45.565  28.270  33.968  1.00  0.00     0.134 A 
ATOM     81  C   UNL A   1      44.033  26.592  34.725  1.00  0.00     0.134 A 
ATOM     82  F   UNL A   1      45.837  29.425  33.340  1.00  0.00    -0.206 F 
ATOM     83  C   UNL A   1      46.634  27.535  34.481  1.00  0.00     0.040 A 
ATOM     84  C   UNL A   1      45.090  25.859  35.264  1.00  0.00     0.040 A 
ATOM     85  F   UNL A   1      42.792  26.101  34.863  1.00  0.00    -0.206 F 
ATOM     86  C   UNL A   1      46.396  26.328  35.137  1.00  0.00     0.006 A 
ENDBRANCH  62  79
ENDBRANCH  36  37
ENDBRANCH  28  31
ENDBRANCH  26  27
ENDBRANCH  25  26
ENDBRANCH   1  25
TORSDOF 14
ENDMDL
