MODEL 1
REMARK VINA RESULT:      -9.6      0.000      0.000
REMARK SMILES O=C(CCNC(=O)N[C@@H]1CCOC1)NCCCCNC(=O)c1ccc(-c2c3nc(c(-c4c(F)cccc4F)c4ccc([nH]4)c(-c4c(F)cccc4F)c4nc(c(-c5c(F)cccc5F)c5ccc2[nH]5)C=C4)C=C3)cc1
REMARK SMILES IDX 16 1 15 2 14 3 1 4 2 5 3 7 4 8 5 9 6 10 7 12 8 13 9 15 10 16
REMARK SMILES IDX 13 17 11 18 12 19 17 20 18 21 19 22 20 23 21 25 22 26 23 27
REMARK SMILES IDX 75 28 24 29 74 30 25 31 26 32 27 33 68 34 28 35 73 36 67 37
REMARK SMILES IDX 69 38 29 39 72 40 66 41 65 42 30 44 56 45 39 46 55 47 40 48
REMARK SMILES IDX 43 49 54 50 70 51 41 52 42 53 53 55 71 56 44 57 31 58 32 59
REMARK SMILES IDX 37 60 33 61 34 62 36 63 38 64 35 65 57 66 58 67 63 68 59 69
REMARK SMILES IDX 60 70 62 71 64 72 61 73 45 74 46 75 51 76 47 77 48 78 50 79
REMARK SMILES IDX 52 80 49 81
REMARK H PARENT 14 6 5 11 8 14 19 24 69 43 43 54
REMARK Flexibility Score: inf
ROOT
ATOM      1  C   UNL A   1      44.938  20.171  24.183  1.00  0.00     0.023 C 
ENDROOT
BRANCH   1   2
ATOM      2  C   UNL A   1      46.063  20.941  24.866  1.00  0.00     0.116 C 
BRANCH   2   3
ATOM      3  N   UNL A   1      45.648  22.255  25.311  1.00  0.00    -0.356 N 
ATOM      4  O   UNL A   1      46.822  23.441  23.729  1.00  0.00    -0.275 OA
ATOM      5  C   UNL A   1      46.030  23.407  24.663  1.00  0.00     0.221 C 
ATOM      6  H   UNL A   1      45.071  22.327  26.106  1.00  0.00     0.163 HD
BRANCH   5   7
ATOM      7  C   UNL A   1      45.348  24.654  25.177  1.00  0.00     0.121 C 
BRANCH   7   8
ATOM      8  C   UNL A   1      46.375  25.589  25.807  1.00  0.00     0.127 C 
BRANCH   8   9
ATOM      9  N   UNL A   1      46.770  26.665  24.910  1.00  0.00    -0.338 N 
ATOM     10  C   UNL A   1      46.211  27.821  24.525  1.00  0.00     0.315 C 
ATOM     11  H   UNL A   1      47.648  26.509  24.491  1.00  0.00     0.165 HD
ATOM     12  O   UNL A   1      46.788  28.468  23.650  1.00  0.00    -0.249 OA
ATOM     13  N   UNL A   1      45.067  28.301  25.033  1.00  0.00    -0.333 N 
ATOM     14  H   UNL A   1      44.744  29.116  24.582  1.00  0.00     0.165 HD
BRANCH  13  15
ATOM     15  C   UNL A   1      44.207  27.852  26.122  1.00  0.00     0.112 C 
ATOM     16  C   UNL A   1      42.831  27.446  25.638  1.00  0.00     0.056 C 
ATOM     17  C   UNL A   1      43.900  28.968  27.117  1.00  0.00     0.185 C 
ATOM     18  C   UNL A   1      41.999  28.700  25.794  1.00  0.00     0.162 C 
ATOM     19  O   UNL A   1      42.602  29.497  26.815  1.00  0.00    -0.379 OA
ENDBRANCH  13  15
ENDBRANCH   8   9
ENDBRANCH   7   8
ENDBRANCH   5   7
ENDBRANCH   2   3
ENDBRANCH   1   2
BRANCH   1  20
ATOM     20  C   UNL A   1      44.613  18.810  24.804  1.00  0.00     0.023 C 
BRANCH  20  21
ATOM     21  C   UNL A   1      43.704  18.846  26.028  1.00  0.00     0.116 C 
BRANCH  21  22
ATOM     22  N   UNL A   1      42.298  18.686  25.693  1.00  0.00    -0.352 N 
ATOM     23  C   UNL A   1      41.233  19.515  25.955  1.00  0.00     0.251 C 
ATOM     24  H   UNL A   1      42.076  17.859  25.206  1.00  0.00     0.163 HD
ATOM     25  O   UNL A   1      40.090  19.133  25.727  1.00  0.00    -0.269 OA
BRANCH  23  26
ATOM     26  C   UNL A   1      41.456  20.856  26.540  1.00  0.00     0.039 A 
ATOM     27  C   UNL A   1      41.216  21.042  27.904  1.00  0.00     0.014 A 
ATOM     28  C   UNL A   1      41.888  21.929  25.755  1.00  0.00     0.014 A 
ATOM     29  C   UNL A   1      41.479  22.281  28.494  1.00  0.00     0.010 A 
ATOM     30  C   UNL A   1      42.224  23.140  26.359  1.00  0.00     0.010 A 
ATOM     31  C   UNL A   1      42.025  23.330  27.734  1.00  0.00    -0.014 A 
BRANCH  31  32
ATOM     32  C   UNL A   1      42.403  24.622  28.364  1.00  0.00     0.031 A 
ATOM     33  C   UNL A   1      41.390  25.723  28.513  1.00  0.00     0.074 A 
ATOM     34  C   UNL A   1      43.679  24.828  28.750  1.00  0.00     0.049 A 
ATOM     35  N   UNL A   1      41.550  26.939  28.975  1.00  0.00    -0.248 NA
ATOM     36  C   UNL A   1      40.021  25.430  28.062  1.00  0.00     0.031 C 
ATOM     37  C   UNL A   1      44.769  23.859  28.620  1.00  0.00     0.029 A 
ATOM     38  N   UNL A   1      44.278  25.926  29.317  1.00  0.00    -0.354 N 
ATOM     39  C   UNL A   1      40.310  27.553  28.862  1.00  0.00     0.074 A 
ATOM     40  C   UNL A   1      39.422  26.599  28.236  1.00  0.00     0.031 C 
ATOM     41  C   UNL A   1      45.897  24.397  29.110  1.00  0.00     0.029 A 
ATOM     42  C   UNL A   1      45.622  25.762  29.549  1.00  0.00     0.049 A 
ATOM     43  H   UNL A   1      43.789  26.753  29.536  1.00  0.00     0.167 HD
ATOM     44  C   UNL A   1      39.937  28.793  29.264  1.00  0.00     0.037 A 
ATOM     45  C   UNL A   1      46.535  26.618  30.045  1.00  0.00     0.037 A 
ATOM     46  C   UNL A   1      40.820  29.740  29.897  1.00  0.00     0.049 A 
ATOM     47  C   UNL A   1      46.103  27.996  30.462  1.00  0.00     0.074 A 
ATOM     48  C   UNL A   1      40.524  31.002  30.381  1.00  0.00     0.029 A 
ATOM     49  N   UNL A   1      42.171  29.531  30.124  1.00  0.00    -0.354 N 
ATOM     50  N   UNL A   1      44.911  28.540  30.411  1.00  0.00    -0.248 NA
ATOM     51  C   UNL A   1      47.141  28.879  31.013  1.00  0.00     0.031 C 
ATOM     52  C   UNL A   1      41.707  31.577  30.856  1.00  0.00     0.029 A 
ATOM     53  C   UNL A   1      42.728  30.651  30.721  1.00  0.00     0.049 A 
ATOM     54  H   UNL A   1      42.663  28.710  29.895  1.00  0.00     0.167 HD
ATOM     55  C   UNL A   1      45.049  29.815  30.948  1.00  0.00     0.074 A 
ATOM     56  C   UNL A   1      46.438  29.956  31.333  1.00  0.00     0.031 C 
ATOM     57  C   UNL A   1      44.111  30.779  31.107  1.00  0.00     0.037 A 
BRANCH  44  58
ATOM     58  C   UNL A   1      38.508  29.195  29.035  1.00  0.00     0.057 A 
ATOM     59  C   UNL A   1      37.558  29.173  30.065  1.00  0.00     0.134 A 
ATOM     60  C   UNL A   1      38.083  29.646  27.778  1.00  0.00     0.134 A 
ATOM     61  F   UNL A   1      37.895  28.743  31.291  1.00  0.00    -0.206 F 
ATOM     62  C   UNL A   1      36.234  29.554  29.848  1.00  0.00     0.040 A 
ATOM     63  C   UNL A   1      36.768  30.059  27.556  1.00  0.00     0.040 A 
ATOM     64  F   UNL A   1      38.941  29.703  26.748  1.00  0.00    -0.206 F 
ATOM     65  C   UNL A   1      35.837  30.007  28.592  1.00  0.00     0.006 A 
ENDBRANCH  44  58
BRANCH  45  66
ATOM     66  C   UNL A   1      47.952  26.194  30.188  1.00  0.00     0.057 A 
ATOM     67  C   UNL A   1      48.858  26.327  29.129  1.00  0.00     0.134 A 
ATOM     68  C   UNL A   1      48.432  25.634  31.378  1.00  0.00     0.134 A 
ATOM     69  F   UNL A   1      48.455  26.837  27.956  1.00  0.00    -0.206 F 
ATOM     70  C   UNL A   1      50.182  25.898  29.240  1.00  0.00     0.040 A 
ATOM     71  C   UNL A   1      49.760  25.227  31.513  1.00  0.00     0.040 A 
ATOM     72  F   UNL A   1      47.617  25.485  32.433  1.00  0.00    -0.206 F 
ATOM     73  C   UNL A   1      50.637  25.351  30.438  1.00  0.00     0.006 A 
ENDBRANCH  45  66
BRANCH  57  74
ATOM     74  C   UNL A   1      44.543  32.060  31.763  1.00  0.00     0.057 A 
ATOM     75  C   UNL A   1      44.496  32.235  33.152  1.00  0.00     0.134 A 
ATOM     76  C   UNL A   1      45.047  33.117  30.995  1.00  0.00     0.134 A 
ATOM     77  F   UNL A   1      44.011  31.268  33.944  1.00  0.00    -0.206 F 
ATOM     78  C   UNL A   1      44.912  33.427  33.751  1.00  0.00     0.040 A 
ATOM     79  C   UNL A   1      45.493  34.300  31.584  1.00  0.00     0.040 A 
ATOM     80  F   UNL A   1      45.128  33.012  29.660  1.00  0.00    -0.206 F 
ATOM     81  C   UNL A   1      45.420  34.460  32.966  1.00  0.00     0.006 A 
ENDBRANCH  57  74
ENDBRANCH  31  32
ENDBRANCH  23  26
ENDBRANCH  21  22
ENDBRANCH  20  21
ENDBRANCH   1  20
TORSDOF 14
ENDMDL
MODEL 2
REMARK VINA RESULT:      -9.6      0.286      6.409
REMARK SMILES O=C(CCNC(=O)N[C@@H]1CCOC1)NCCCCNC(=O)c1ccc(-c2c3nc(c(-c4c(F)cccc4F)c4ccc([nH]4)c(-c4c(F)cccc4F)c4nc(c(-c5c(F)cccc5F)c5ccc2[nH]5)C=C4)C=C3)cc1
REMARK SMILES IDX 16 1 15 2 14 3 1 4 2 5 3 7 4 8 5 9 6 10 7 12 8 13 9 15 10 16
REMARK SMILES IDX 13 17 11 18 12 19 17 20 18 21 19 22 20 23 21 25 22 26 23 27
REMARK SMILES IDX 75 28 24 29 74 30 25 31 26 32 27 33 68 34 28 35 73 36 67 37
REMARK SMILES IDX 69 38 29 39 72 40 66 41 65 42 30 44 56 45 39 46 55 47 40 48
REMARK SMILES IDX 43 49 54 50 70 51 41 52 42 53 53 55 71 56 44 57 31 58 32 59
REMARK SMILES IDX 37 60 33 61 34 62 36 63 38 64 35 65 57 66 58 67 63 68 59 69
REMARK SMILES IDX 60 70 62 71 64 72 61 73 45 74 46 75 51 76 47 77 48 78 50 79
REMARK SMILES IDX 52 80 49 81
REMARK H PARENT 14 6 5 11 8 14 19 24 69 43 43 54
REMARK Flexibility Score: inf
ROOT
ATOM      1  C   UNL A   1      45.209  20.073  24.080  1.00  0.00     0.023 C 
ENDROOT
BRANCH   1   2
ATOM      2  C   UNL A   1      46.339  20.915  24.663  1.00  0.00     0.116 C 
BRANCH   2   3
ATOM      3  N   UNL A   1      45.875  22.187  25.180  1.00  0.00    -0.356 N 
ATOM      4  O   UNL A   1      46.981  23.500  23.649  1.00  0.00    -0.275 OA
ATOM      5  C   UNL A   1      46.202  23.385  24.589  1.00  0.00     0.221 C 
ATOM      6  H   UNL A   1      45.306  22.194  25.983  1.00  0.00     0.163 HD
BRANCH   5   7
ATOM      7  C   UNL A   1      45.476  24.575  25.173  1.00  0.00     0.121 C 
BRANCH   7   8
ATOM      8  C   UNL A   1      46.477  25.541  25.799  1.00  0.00     0.127 C 
BRANCH   8   9
ATOM      9  N   UNL A   1      46.839  26.626  24.898  1.00  0.00    -0.338 N 
ATOM     10  C   UNL A   1      46.213  27.721  24.446  1.00  0.00     0.315 C 
ATOM     11  H   UNL A   1      47.752  26.534  24.540  1.00  0.00     0.165 HD
ATOM     12  O   UNL A   1      46.791  28.394  23.592  1.00  0.00    -0.249 OA
ATOM     13  N   UNL A   1      45.003  28.115  24.867  1.00  0.00    -0.333 N 
ATOM     14  H   UNL A   1      44.644  28.889  24.374  1.00  0.00     0.165 HD
BRANCH  13  15
ATOM     15  C   UNL A   1      44.114  27.620  25.912  1.00  0.00     0.112 C 
ATOM     16  C   UNL A   1      42.764  27.203  25.369  1.00  0.00     0.056 C 
ATOM     17  C   UNL A   1      43.750  28.703  26.926  1.00  0.00     0.185 C 
ATOM     18  C   UNL A   1      41.902  28.436  25.528  1.00  0.00     0.162 C 
ATOM     19  O   UNL A   1      42.453  29.216  26.591  1.00  0.00    -0.379 OA
ENDBRANCH  13  15
ENDBRANCH   8   9
ENDBRANCH   7   8
ENDBRANCH   5   7
ENDBRANCH   2   3
ENDBRANCH   1   2
BRANCH   1  20
ATOM     20  C   UNL A   1      44.907  18.778  24.839  1.00  0.00     0.023 C 
BRANCH  20  21
ATOM     21  C   UNL A   1      43.997  18.925  26.055  1.00  0.00     0.116 C 
BRANCH  21  22
ATOM     22  N   UNL A   1      42.598  18.679  25.747  1.00  0.00    -0.352 N 
ATOM     23  C   UNL A   1      41.494  19.461  25.992  1.00  0.00     0.251 C 
ATOM     24  H   UNL A   1      42.413  17.823  25.296  1.00  0.00     0.163 HD
ATOM     25  O   UNL A   1      40.370  19.012  25.796  1.00  0.00    -0.269 OA
BRANCH  23  26
ATOM     26  C   UNL A   1      41.653  20.835  26.521  1.00  0.00     0.039 A 
ATOM     27  C   UNL A   1      41.365  21.074  27.867  1.00  0.00     0.014 A 
ATOM     28  C   UNL A   1      42.075  21.885  25.701  1.00  0.00     0.014 A 
ATOM     29  C   UNL A   1      41.568  22.347  28.407  1.00  0.00     0.010 A 
ATOM     30  C   UNL A   1      42.350  23.133  26.257  1.00  0.00     0.010 A 
ATOM     31  C   UNL A   1      42.102  23.378  27.616  1.00  0.00    -0.014 A 
BRANCH  31  32
ATOM     32  C   UNL A   1      42.417  24.710  28.197  1.00  0.00     0.031 A 
ATOM     33  C   UNL A   1      43.791  25.002  28.733  1.00  0.00     0.074 A 
ATOM     34  C   UNL A   1      41.446  25.641  28.297  1.00  0.00     0.049 A 
ATOM     35  N   UNL A   1      44.234  26.078  29.335  1.00  0.00    -0.248 NA
ATOM     36  C   UNL A   1      44.795  23.935  28.599  1.00  0.00     0.031 C 
ATOM     37  C   UNL A   1      40.061  25.469  27.856  1.00  0.00     0.029 A 
ATOM     38  N   UNL A   1      41.474  26.912  28.814  1.00  0.00    -0.354 N 
ATOM     39  C   UNL A   1      45.559  25.815  29.656  1.00  0.00     0.074 A 
ATOM     40  C   UNL A   1      45.834  24.458  29.235  1.00  0.00     0.031 C 
ATOM     41  C   UNL A   1      39.378  26.598  28.104  1.00  0.00     0.029 A 
ATOM     42  C   UNL A   1      40.262  27.557  28.759  1.00  0.00     0.049 A 
ATOM     43  H   UNL A   1      42.287  27.324  29.190  1.00  0.00     0.167 HD
ATOM     44  C   UNL A   1      46.473  26.636  30.229  1.00  0.00     0.037 A 
ATOM     45  C   UNL A   1      39.897  28.776  29.199  1.00  0.00     0.037 A 
ATOM     46  C   UNL A   1      46.202  27.989  30.639  1.00  0.00     0.049 A 
ATOM     47  C   UNL A   1      40.923  29.659  29.853  1.00  0.00     0.074 A 
ATOM     48  C   UNL A   1      47.075  28.914  31.185  1.00  0.00     0.029 A 
ATOM     49  N   UNL A   1      44.964  28.608  30.555  1.00  0.00    -0.354 N 
ATOM     50  N   UNL A   1      42.190  29.421  30.089  1.00  0.00    -0.248 NA
ATOM     51  C   UNL A   1      40.470  30.986  30.296  1.00  0.00     0.031 C 
ATOM     52  C   UNL A   1      46.353  30.076  31.479  1.00  0.00     0.029 A 
ATOM     53  C   UNL A   1      45.045  29.896  31.062  1.00  0.00     0.049 A 
ATOM     54  H   UNL A   1      44.149  28.195  30.191  1.00  0.00     0.167 HD
ATOM     55  C   UNL A   1      42.693  30.575  30.680  1.00  0.00     0.074 A 
ATOM     56  C   UNL A   1      41.596  31.517  30.751  1.00  0.00     0.031 C 
ATOM     57  C   UNL A   1      43.947  30.829  31.122  1.00  0.00     0.037 A 
BRANCH  44  58
ATOM     58  C   UNL A   1      47.856  26.090  30.442  1.00  0.00     0.057 A 
ATOM     59  C   UNL A   1      48.268  25.581  31.681  1.00  0.00     0.134 A 
ATOM     60  C   UNL A   1      48.777  26.038  29.387  1.00  0.00     0.134 A 
ATOM     61  F   UNL A   1      47.440  25.609  32.736  1.00  0.00    -0.206 F 
ATOM     62  C   UNL A   1      49.552  25.068  31.872  1.00  0.00     0.040 A 
ATOM     63  C   UNL A   1      50.054  25.500  29.557  1.00  0.00     0.040 A 
ATOM     64  F   UNL A   1      48.448  26.499  28.170  1.00  0.00    -0.206 F 
ATOM     65  C   UNL A   1      50.447  25.020  30.805  1.00  0.00     0.006 A 
ENDBRANCH  44  58
BRANCH  45  66
ATOM     66  C   UNL A   1      38.497  29.241  29.026  1.00  0.00     0.057 A 
ATOM     67  C   UNL A   1      37.591  29.224  30.093  1.00  0.00     0.134 A 
ATOM     68  C   UNL A   1      38.027  29.700  27.789  1.00  0.00     0.134 A 
ATOM     69  F   UNL A   1      37.975  28.777  31.298  1.00  0.00    -0.206 F 
ATOM     70  C   UNL A   1      36.263  29.625  29.932  1.00  0.00     0.040 A 
ATOM     71  C   UNL A   1      36.710  30.131  27.622  1.00  0.00     0.040 A 
ATOM     72  F   UNL A   1      38.846  29.748  26.729  1.00  0.00    -0.206 F 
ATOM     73  C   UNL A   1      35.821  30.086  28.694  1.00  0.00     0.006 A 
ENDBRANCH  45  66
BRANCH  57  74
ATOM     74  C   UNL A   1      44.217  32.195  31.687  1.00  0.00     0.057 A 
ATOM     75  C   UNL A   1      44.086  32.472  33.054  1.00  0.00     0.134 A 
ATOM     76  C   UNL A   1      44.649  33.235  30.855  1.00  0.00     0.134 A 
ATOM     77  F   UNL A   1      43.663  31.524  33.903  1.00  0.00    -0.206 F 
ATOM     78  C   UNL A   1      44.352  33.743  33.569  1.00  0.00     0.040 A 
ATOM     79  C   UNL A   1      44.946  34.501  31.362  1.00  0.00     0.040 A 
ATOM     80  F   UNL A   1      44.804  33.035  29.538  1.00  0.00    -0.206 F 
ATOM     81  C   UNL A   1      44.790  34.760  32.722  1.00  0.00     0.006 A 
ENDBRANCH  57  74
ENDBRANCH  31  32
ENDBRANCH  23  26
ENDBRANCH  21  22
ENDBRANCH  20  21
ENDBRANCH   1  20
TORSDOF 14
ENDMDL
MODEL 3
REMARK VINA RESULT:      -8.9      4.323     10.586
REMARK SMILES O=C(CCNC(=O)N[C@@H]1CCOC1)NCCCCNC(=O)c1ccc(-c2c3nc(c(-c4c(F)cccc4F)c4ccc([nH]4)c(-c4c(F)cccc4F)c4nc(c(-c5c(F)cccc5F)c5ccc2[nH]5)C=C4)C=C3)cc1
REMARK SMILES IDX 16 1 15 2 14 3 1 4 2 5 3 7 4 8 5 9 6 10 7 12 8 13 9 15 10 16
REMARK SMILES IDX 13 17 11 18 12 19 17 20 18 21 19 22 20 23 21 25 22 26 23 27
REMARK SMILES IDX 75 28 24 29 74 30 25 31 26 32 27 33 68 34 28 35 73 36 67 37
REMARK SMILES IDX 69 38 29 39 72 40 66 41 65 42 30 44 56 45 39 46 55 47 40 48
REMARK SMILES IDX 43 49 54 50 70 51 41 52 42 53 53 55 71 56 44 57 31 58 32 59
REMARK SMILES IDX 37 60 33 61 34 62 36 63 38 64 35 65 57 66 58 67 63 68 59 69
REMARK SMILES IDX 60 70 62 71 64 72 61 73 45 74 46 75 51 76 47 77 48 78 50 79
REMARK SMILES IDX 52 80 49 81
REMARK H PARENT 14 6 5 11 8 14 19 24 69 43 43 54
REMARK Flexibility Score: inf
ROOT
ATOM      1  C   UNL A   1      33.994  34.562  28.414  1.00  0.00     0.023 C 
ENDROOT
BRANCH   1   2
ATOM      2  C   UNL A   1      33.007  35.504  29.096  1.00  0.00     0.116 C 
BRANCH   2   3
ATOM      3  N   UNL A   1      33.637  36.338  30.099  1.00  0.00    -0.356 N 
ATOM      4  O   UNL A   1      31.823  36.454  31.508  1.00  0.00    -0.275 OA
ATOM      5  C   UNL A   1      32.996  36.706  31.260  1.00  0.00     0.221 C 
ATOM      6  H   UNL A   1      34.557  36.654  29.945  1.00  0.00     0.163 HD
BRANCH   5   7
ATOM      7  C   UNL A   1      33.885  37.425  32.249  1.00  0.00     0.121 C 
BRANCH   7   8
ATOM      8  C   UNL A   1      34.322  36.465  33.351  1.00  0.00     0.127 C 
BRANCH   8   9
ATOM      9  N   UNL A   1      33.662  35.171  33.253  1.00  0.00    -0.338 N 
ATOM     10  C   UNL A   1      34.086  33.900  33.230  1.00  0.00     0.315 C 
ATOM     11  H   UNL A   1      32.682  35.246  33.190  1.00  0.00     0.165 HD
ATOM     12  O   UNL A   1      33.244  33.023  33.034  1.00  0.00    -0.249 OA
ATOM     13  N   UNL A   1      35.365  33.537  33.404  1.00  0.00    -0.333 N 
ATOM     14  H   UNL A   1      35.526  32.574  33.271  1.00  0.00     0.165 HD
BRANCH  13  15
ATOM     15  C   UNL A   1      36.565  34.291  33.750  1.00  0.00     0.112 C 
ATOM     16  C   UNL A   1      37.436  34.570  32.544  1.00  0.00     0.056 C 
ATOM     17  C   UNL A   1      37.500  33.505  34.667  1.00  0.00     0.185 C 
ATOM     18  C   UNL A   1      38.427  33.427  32.529  1.00  0.00     0.162 C 
ATOM     19  O   UNL A   1      38.545  32.938  33.866  1.00  0.00    -0.379 OA
ENDBRANCH  13  15
ENDBRANCH   8   9
ENDBRANCH   7   8
ENDBRANCH   5   7
ENDBRANCH   2   3
ENDBRANCH   1   2
BRANCH   1  20
ATOM     20  C   UNL A   1      35.213  34.179  29.257  1.00  0.00     0.023 C 
BRANCH  20  21
ATOM     21  C   UNL A   1      35.202  32.764  29.825  1.00  0.00     0.116 C 
BRANCH  21  22
ATOM     22  N   UNL A   1      34.380  31.849  29.049  1.00  0.00    -0.352 N 
ATOM     23  C   UNL A   1      34.733  30.692  28.395  1.00  0.00     0.251 C 
ATOM     24  H   UNL A   1      33.430  32.097  28.980  1.00  0.00     0.163 HD
ATOM     25  O   UNL A   1      33.925  30.136  27.659  1.00  0.00    -0.269 OA
BRANCH  23  26
ATOM     26  C   UNL A   1      36.093  30.130  28.551  1.00  0.00     0.039 A 
ATOM     27  C   UNL A   1      36.963  30.163  27.457  1.00  0.00     0.014 A 
ATOM     28  C   UNL A   1      36.513  29.564  29.758  1.00  0.00     0.014 A 
ATOM     29  C   UNL A   1      38.273  29.697  27.596  1.00  0.00     0.010 A 
ATOM     30  C   UNL A   1      37.841  29.172  29.917  1.00  0.00     0.010 A 
ATOM     31  C   UNL A   1      38.737  29.235  28.839  1.00  0.00    -0.014 A 
BRANCH  31  32
ATOM     32  C   UNL A   1      40.154  28.828  29.031  1.00  0.00     0.031 A 
ATOM     33  C   UNL A   1      41.153  29.794  29.606  1.00  0.00     0.074 A 
ATOM     34  C   UNL A   1      40.557  27.606  28.630  1.00  0.00     0.049 A 
ATOM     35  N   UNL A   1      42.442  29.643  29.785  1.00  0.00    -0.248 NA
ATOM     36  C   UNL A   1      40.642  31.113  30.011  1.00  0.00     0.031 C 
ATOM     37  C   UNL A   1      39.698  26.591  28.016  1.00  0.00     0.029 A 
ATOM     38  N   UNL A   1      41.795  27.014  28.667  1.00  0.00    -0.354 N 
ATOM     39  C   UNL A   1      42.894  30.845  30.314  1.00  0.00     0.074 A 
ATOM     40  C   UNL A   1      41.755  31.735  30.374  1.00  0.00     0.031 C 
ATOM     41  C   UNL A   1      40.430  25.497  27.752  1.00  0.00     0.029 A 
ATOM     42  C   UNL A   1      41.816  25.746  28.137  1.00  0.00     0.049 A 
ATOM     43  H   UNL A   1      42.593  27.456  29.038  1.00  0.00     0.167 HD
ATOM     44  C   UNL A   1      44.141  31.172  30.734  1.00  0.00     0.037 A 
ATOM     45  C   UNL A   1      42.837  24.886  27.965  1.00  0.00     0.037 A 
ATOM     46  C   UNL A   1      45.272  30.282  30.683  1.00  0.00     0.049 A 
ATOM     47  C   UNL A   1      44.216  25.281  28.416  1.00  0.00     0.074 A 
ATOM     48  C   UNL A   1      46.564  30.506  31.128  1.00  0.00     0.029 A 
ATOM     49  N   UNL A   1      45.249  29.003  30.149  1.00  0.00    -0.354 N 
ATOM     50  N   UNL A   1      44.616  26.396  28.976  1.00  0.00    -0.248 NA
ATOM     51  C   UNL A   1      45.287  24.293  28.219  1.00  0.00     0.031 C 
ATOM     52  C   UNL A   1      47.335  29.381  30.816  1.00  0.00     0.029 A 
ATOM     53  C   UNL A   1      46.510  28.434  30.232  1.00  0.00     0.049 A 
ATOM     54  H   UNL A   1      44.456  28.564  29.767  1.00  0.00     0.167 HD
ATOM     55  C   UNL A   1      45.974  26.235  29.225  1.00  0.00     0.074 A 
ATOM     56  C   UNL A   1      46.325  24.906  28.768  1.00  0.00     0.031 C 
ATOM     57  C   UNL A   1      46.848  27.108  29.780  1.00  0.00     0.037 A 
BRANCH  44  58
ATOM     58  C   UNL A   1      44.344  32.553  31.290  1.00  0.00     0.057 A 
ATOM     59  C   UNL A   1      44.693  33.636  30.471  1.00  0.00     0.134 A 
ATOM     60  C   UNL A   1      44.154  32.812  32.653  1.00  0.00     0.134 A 
ATOM     61  F   UNL A   1      44.901  33.456  29.158  1.00  0.00    -0.206 F 
ATOM     62  C   UNL A   1      44.873  34.918  30.992  1.00  0.00     0.040 A 
ATOM     63  C   UNL A   1      44.301  34.096  33.181  1.00  0.00     0.040 A 
ATOM     64  F   UNL A   1      43.809  31.824  33.494  1.00  0.00    -0.206 F 
ATOM     65  C   UNL A   1      44.670  35.153  32.350  1.00  0.00     0.006 A 
ENDBRANCH  44  58
BRANCH  45  66
ATOM     66  C   UNL A   1      42.595  23.558  27.345  1.00  0.00     0.057 A 
ATOM     67  C   UNL A   1      42.272  22.442  28.126  1.00  0.00     0.134 A 
ATOM     68  C   UNL A   1      42.694  23.368  25.961  1.00  0.00     0.134 A 
ATOM     69  F   UNL A   1      42.183  22.554  29.460  1.00  0.00    -0.206 F 
ATOM     70  C   UNL A   1      42.079  21.181  27.558  1.00  0.00     0.040 A 
ATOM     71  C   UNL A   1      42.474  22.120  25.376  1.00  0.00     0.040 A 
ATOM     72  F   UNL A   1      42.992  24.398  25.156  1.00  0.00    -0.206 F 
ATOM     73  C   UNL A   1      42.175  21.020  26.177  1.00  0.00     0.006 A 
ENDBRANCH  45  66
BRANCH  57  74
ATOM     74  C   UNL A   1      48.265  26.642  29.965  1.00  0.00     0.057 A 
ATOM     75  C   UNL A   1      49.262  26.903  29.016  1.00  0.00     0.134 A 
ATOM     76  C   UNL A   1      48.642  25.956  31.126  1.00  0.00     0.134 A 
ATOM     77  F   UNL A   1      48.965  27.544  27.875  1.00  0.00    -0.206 F 
ATOM     78  C   UNL A   1      50.578  26.475  29.205  1.00  0.00     0.040 A 
ATOM     79  C   UNL A   1      49.960  25.549  31.339  1.00  0.00     0.040 A 
ATOM     80  F   UNL A   1      47.739  25.681  32.079  1.00  0.00    -0.206 F 
ATOM     81  C   UNL A   1      50.931  25.803  30.374  1.00  0.00     0.006 A 
ENDBRANCH  57  74
ENDBRANCH  31  32
ENDBRANCH  23  26
ENDBRANCH  21  22
ENDBRANCH  20  21
ENDBRANCH   1  20
TORSDOF 14
ENDMDL
