MODEL 1
REMARK VINA RESULT:     -12.8      0.000      0.000
REMARK SMILES Nn1c(S[C@@H](C(=O)NCCCCNC(=O)c2ccc(-c3c4nc(c(-c5c(F)cccc5F)c5ccc([nH]5)c(-c5c(F)cccc5F)c5nc(c(-c6c(F)cccc6F)c6ccc3[nH]6)C=C5)C=C4)cc2)c2ccccc2)nc2ccc(Br)cc2c1=O
REMARK SMILES IDX 10 1 9 2 8 3 6 4 7 5 5 7 4 8 3 9 2 10 84 11 76 12 83 13
REMARK SMILES IDX 85 14 77 15 82 16 78 17 80 18 79 19 81 20 1 21 70 24 71 25
REMARK SMILES IDX 75 26 72 27 74 28 73 29 11 30 12 31 13 32 14 33 15 35 16 36
REMARK SMILES IDX 17 37 69 38 18 39 68 40 19 41 20 42 21 43 62 44 22 45 67 46
REMARK SMILES IDX 61 47 63 48 23 49 66 50 60 51 59 52 24 54 50 55 33 56 49 57
REMARK SMILES IDX 34 58 37 59 48 60 64 61 35 62 36 63 47 65 65 66 38 67 25 68
REMARK SMILES IDX 26 69 31 70 27 71 28 72 30 73 32 74 29 75 51 76 52 77 57 78
REMARK SMILES IDX 53 79 54 80 56 81 58 82 55 83 39 84 40 85 45 86 41 87 42 88
REMARK SMILES IDX 44 89 46 90 43 91
REMARK H PARENT 8 6 1 22 1 23 13 34 63 53 37 64
REMARK Flexibility Score: inf
ROOT
ATOM      1  C   UNL A   1      36.981  21.649  24.197  1.00  0.00     0.023 C 
ENDROOT
BRANCH   1   2
ATOM      2  C   UNL A   1      36.250  22.762  24.958  1.00  0.00     0.116 C 
BRANCH   2   3
ATOM      3  N   UNL A   1      35.408  22.276  26.040  1.00  0.00    -0.355 N 
ATOM      4  C   UNL A   1      34.396  21.357  26.054  1.00  0.00     0.238 C 
ATOM      5  O   UNL A   1      33.938  21.094  27.171  1.00  0.00    -0.273 OA
ATOM      6  H   UNL A   1      35.602  22.681  26.917  1.00  0.00     0.163 HD
BRANCH   4   7
ATOM      7  C   UNL A   1      33.858  20.693  24.766  1.00  0.00     0.174 C 
BRANCH   7   8
ATOM      8  S   UNL A   1      32.564  21.671  24.008  1.00  0.00    -0.068 SA
BRANCH   8   9
ATOM      9  C   UNL A   1      32.119  23.117  24.868  1.00  0.00     0.191 A 
ATOM     10  N   UNL A   1      31.016  23.294  25.704  1.00  0.00    -0.202 N 
ATOM     11  C   UNL A   1      30.695  24.561  26.222  1.00  0.00     0.280 A 
ATOM     12  N   UNL A   1      32.981  24.060  24.649  1.00  0.00    -0.222 NA
ATOM     13  C   UNL A   1      31.687  25.623  25.998  1.00  0.00     0.069 A 
ATOM     14  O   UNL A   1      29.669  24.840  26.842  1.00  0.00    -0.267 OA
ATOM     15  C   UNL A   1      32.816  25.303  25.255  1.00  0.00     0.079 A 
ATOM     16  C   UNL A   1      31.524  26.897  26.553  1.00  0.00     0.031 A 
ATOM     17  C   UNL A   1      33.818  26.262  25.095  1.00  0.00     0.030 A 
ATOM     18  C   UNL A   1      32.524  27.848  26.373  1.00  0.00     0.018 A 
ATOM     19  C   UNL A   1      33.678  27.534  25.655  1.00  0.00     0.018 A 
ATOM     20  Br  UNL A   1      32.323  29.575  27.111  1.00  0.00    -0.051 Br
BRANCH  10  21
ATOM     21  N   UNL A   1      30.175  22.265  26.144  1.00  0.00    -0.334 N 
ATOM     22  H   UNL A   1      30.435  21.711  26.914  1.00  0.00     0.178 HD
ATOM     23  H   UNL A   1      29.322  22.096  25.682  1.00  0.00     0.178 HD
ENDBRANCH  10  21
ENDBRANCH   8   9
ENDBRANCH   7   8
BRANCH   7  24
ATOM     24  C   UNL A   1      33.677  19.173  24.850  1.00  0.00    -0.025 A 
ATOM     25  C   UNL A   1      32.524  18.527  25.322  1.00  0.00     0.005 A 
ATOM     26  C   UNL A   1      34.737  18.353  24.409  1.00  0.00     0.005 A 
ATOM     27  C   UNL A   1      32.453  17.133  25.407  1.00  0.00     0.000 A 
ATOM     28  C   UNL A   1      34.659  16.958  24.477  1.00  0.00     0.000 A 
ATOM     29  C   UNL A   1      33.520  16.348  24.989  1.00  0.00     0.000 A 
ENDBRANCH   7  24
ENDBRANCH   4   7
ENDBRANCH   2   3
ENDBRANCH   1   2
BRANCH   1  30
ATOM     30  C   UNL A   1      37.567  20.527  25.052  1.00  0.00     0.023 C 
BRANCH  30  31
ATOM     31  C   UNL A   1      38.894  20.841  25.727  1.00  0.00     0.116 C 
BRANCH  31  32
ATOM     32  N   UNL A   1      39.853  19.749  25.662  1.00  0.00    -0.352 N 
ATOM     33  C   UNL A   1      41.181  19.728  26.019  1.00  0.00     0.251 C 
ATOM     34  H   UNL A   1      39.499  18.899  25.309  1.00  0.00     0.163 HD
ATOM     35  O   UNL A   1      41.862  18.729  25.810  1.00  0.00    -0.269 OA
BRANCH  33  36
ATOM     36  C   UNL A   1      41.800  20.936  26.607  1.00  0.00     0.039 A 
ATOM     37  C   UNL A   1      41.817  21.130  27.990  1.00  0.00     0.014 A 
ATOM     38  C   UNL A   1      42.314  21.915  25.752  1.00  0.00     0.014 A 
ATOM     39  C   UNL A   1      42.164  22.376  28.502  1.00  0.00     0.010 A 
ATOM     40  C   UNL A   1      42.739  23.138  26.277  1.00  0.00     0.010 A 
ATOM     41  C   UNL A   1      42.605  23.401  27.650  1.00  0.00    -0.014 A 
BRANCH  41  42
ATOM     42  C   UNL A   1      42.863  24.755  28.203  1.00  0.00     0.031 A 
ATOM     43  C   UNL A   1      44.269  25.188  28.531  1.00  0.00     0.074 A 
ATOM     44  C   UNL A   1      41.843  25.621  28.351  1.00  0.00     0.049 A 
ATOM     45  N   UNL A   1      44.689  26.327  29.023  1.00  0.00    -0.248 NA
ATOM     46  C   UNL A   1      45.344  24.216  28.276  1.00  0.00     0.031 C 
ATOM     47  C   UNL A   1      40.441  25.333  28.047  1.00  0.00     0.029 A 
ATOM     48  N   UNL A   1      41.832  26.924  28.774  1.00  0.00    -0.354 N 
ATOM     49  C   UNL A   1      46.067  26.200  29.156  1.00  0.00     0.074 A 
ATOM     50  C   UNL A   1      46.411  24.865  28.718  1.00  0.00     0.031 C 
ATOM     51  C   UNL A   1      39.712  26.440  28.251  1.00  0.00     0.029 A 
ATOM     52  C   UNL A   1      40.584  27.496  28.753  1.00  0.00     0.049 A 
ATOM     53  H   UNL A   1      42.641  27.404  29.064  1.00  0.00     0.167 HD
ATOM     54  C   UNL A   1      46.967  27.115  29.591  1.00  0.00     0.037 A 
ATOM     55  C   UNL A   1      40.184  28.729  29.117  1.00  0.00     0.037 A 
ATOM     56  C   UNL A   1      46.632  28.454  30.000  1.00  0.00     0.049 A 
ATOM     57  C   UNL A   1      41.194  29.704  29.648  1.00  0.00     0.074 A 
ATOM     58  C   UNL A   1      47.478  29.466  30.423  1.00  0.00     0.029 A 
ATOM     59  N   UNL A   1      45.345  28.970  30.032  1.00  0.00    -0.354 N 
ATOM     60  N   UNL A   1      42.490  29.568  29.769  1.00  0.00    -0.248 NA
ATOM     61  C   UNL A   1      40.677  31.000  30.109  1.00  0.00     0.031 C 
ATOM     62  C   UNL A   1      46.698  30.583  30.746  1.00  0.00     0.029 A 
ATOM     63  C   UNL A   1      45.372  30.277  30.492  1.00  0.00     0.049 A 
ATOM     64  H   UNL A   1      44.534  28.480  29.768  1.00  0.00     0.167 HD
ATOM     65  C   UNL A   1      42.946  30.758  30.318  1.00  0.00     0.074 A 
ATOM     66  C   UNL A   1      41.790  31.615  30.481  1.00  0.00     0.031 C 
ATOM     67  C   UNL A   1      44.209  31.108  30.663  1.00  0.00     0.037 A 
BRANCH  54  68
ATOM     68  C   UNL A   1      48.403  26.693  29.660  1.00  0.00     0.057 A 
ATOM     69  C   UNL A   1      49.267  26.924  28.581  1.00  0.00     0.134 A 
ATOM     70  C   UNL A   1      48.927  26.031  30.778  1.00  0.00     0.134 A 
ATOM     71  F   UNL A   1      48.827  27.549  27.479  1.00  0.00    -0.206 F 
ATOM     72  C   UNL A   1      50.600  26.512  28.613  1.00  0.00     0.040 A 
ATOM     73  C   UNL A   1      50.264  25.633  30.829  1.00  0.00     0.040 A 
ATOM     74  F   UNL A   1      48.156  25.794  31.849  1.00  0.00    -0.206 F 
ATOM     75  C   UNL A   1      51.103  25.868  29.741  1.00  0.00     0.006 A 
ENDBRANCH  54  68
BRANCH  55  76
ATOM     76  C   UNL A   1      38.753  29.102  29.011  1.00  0.00     0.057 A 
ATOM     77  C   UNL A   1      37.901  29.036  30.120  1.00  0.00     0.134 A 
ATOM     78  C   UNL A   1      38.209  29.541  27.800  1.00  0.00     0.134 A 
ATOM     79  F   UNL A   1      38.365  28.622  31.308  1.00  0.00    -0.206 F 
ATOM     80  C   UNL A   1      36.553  29.382  30.025  1.00  0.00     0.040 A 
ATOM     81  C   UNL A   1      36.868  29.912  27.696  1.00  0.00     0.040 A 
ATOM     82  F   UNL A   1      38.983  29.644  26.710  1.00  0.00    -0.206 F 
ATOM     83  C   UNL A   1      36.035  29.827  28.810  1.00  0.00     0.006 A 
ENDBRANCH  55  76
BRANCH  67  84
ATOM     84  C   UNL A   1      44.394  32.474  31.250  1.00  0.00     0.057 A 
ATOM     85  C   UNL A   1      44.601  33.587  30.428  1.00  0.00     0.134 A 
ATOM     86  C   UNL A   1      44.375  32.682  32.635  1.00  0.00     0.134 A 
ATOM     87  F   UNL A   1      44.633  33.454  29.094  1.00  0.00    -0.206 F 
ATOM     88  C   UNL A   1      44.781  34.863  30.964  1.00  0.00     0.040 A 
ATOM     89  C   UNL A   1      44.534  33.955  33.182  1.00  0.00     0.040 A 
ATOM     90  F   UNL A   1      44.162  31.655  33.473  1.00  0.00    -0.206 F 
ATOM     91  C   UNL A   1      44.742  35.050  32.345  1.00  0.00     0.006 A 
ENDBRANCH  67  84
ENDBRANCH  41  42
ENDBRANCH  33  36
ENDBRANCH  31  32
ENDBRANCH  30  31
ENDBRANCH   1  30
TORSDOF 15
ENDMDL
MODEL 2
REMARK VINA RESULT:     -12.7      4.756      9.848
REMARK SMILES Nn1c(S[C@@H](C(=O)NCCCCNC(=O)c2ccc(-c3c4nc(c(-c5c(F)cccc5F)c5ccc([nH]5)c(-c5c(F)cccc5F)c5nc(c(-c6c(F)cccc6F)c6ccc3[nH]6)C=C5)C=C4)cc2)c2ccccc2)nc2ccc(Br)cc2c1=O
REMARK SMILES IDX 10 1 9 2 8 3 6 4 7 5 5 7 4 8 3 9 2 10 84 11 76 12 83 13
REMARK SMILES IDX 85 14 77 15 82 16 78 17 80 18 79 19 81 20 1 21 70 24 71 25
REMARK SMILES IDX 75 26 72 27 74 28 73 29 11 30 12 31 13 32 14 33 15 35 16 36
REMARK SMILES IDX 17 37 69 38 18 39 68 40 19 41 20 42 21 43 62 44 22 45 67 46
REMARK SMILES IDX 61 47 63 48 23 49 66 50 60 51 59 52 24 54 50 55 33 56 49 57
REMARK SMILES IDX 34 58 37 59 48 60 64 61 35 62 36 63 47 65 65 66 38 67 25 68
REMARK SMILES IDX 26 69 31 70 27 71 28 72 30 73 32 74 29 75 51 76 52 77 57 78
REMARK SMILES IDX 53 79 54 80 56 81 58 82 55 83 39 84 40 85 45 86 41 87 42 88
REMARK SMILES IDX 44 89 46 90 43 91
REMARK H PARENT 8 6 1 22 1 23 13 34 63 53 37 64
REMARK Flexibility Score: inf
ROOT
ATOM      1  C   UNL A   1      31.912  30.186  26.529  1.00  0.00     0.023 C 
ENDROOT
BRANCH   1   2
ATOM      2  C   UNL A   1      33.234  29.631  25.989  1.00  0.00     0.116 C 
BRANCH   2   3
ATOM      3  N   UNL A   1      33.244  29.439  24.547  1.00  0.00    -0.355 N 
ATOM      4  C   UNL A   1      32.233  29.177  23.664  1.00  0.00     0.238 C 
ATOM      5  O   UNL A   1      32.563  29.167  22.474  1.00  0.00    -0.273 OA
ATOM      6  H   UNL A   1      34.136  29.512  24.134  1.00  0.00     0.163 HD
BRANCH   4   7
ATOM      7  C   UNL A   1      30.780  28.911  24.118  1.00  0.00     0.174 C 
BRANCH   7   8
ATOM      8  S   UNL A   1      30.446  27.159  24.274  1.00  0.00    -0.068 SA
BRANCH   8   9
ATOM      9  C   UNL A   1      31.748  26.105  23.802  1.00  0.00     0.191 A 
ATOM     10  N   UNL A   1      32.107  25.739  22.504  1.00  0.00    -0.202 N 
ATOM     11  C   UNL A   1      33.092  24.762  22.272  1.00  0.00     0.280 A 
ATOM     12  N   UNL A   1      32.396  25.688  24.843  1.00  0.00    -0.222 NA
ATOM     13  C   UNL A   1      33.846  24.311  23.451  1.00  0.00     0.069 A 
ATOM     14  O   UNL A   1      33.368  24.273  21.178  1.00  0.00    -0.267 OA
ATOM     15  C   UNL A   1      33.488  24.838  24.686  1.00  0.00     0.079 A 
ATOM     16  C   UNL A   1      34.917  23.419  23.329  1.00  0.00     0.031 A 
ATOM     17  C   UNL A   1      34.237  24.496  25.813  1.00  0.00     0.030 A 
ATOM     18  C   UNL A   1      35.645  23.075  24.464  1.00  0.00     0.018 A 
ATOM     19  C   UNL A   1      35.318  23.619  25.706  1.00  0.00     0.018 A 
ATOM     20  Br  UNL A   1      37.093  21.870  24.323  1.00  0.00    -0.051 Br
BRANCH  10  21
ATOM     21  N   UNL A   1      31.586  26.315  21.339  1.00  0.00    -0.334 N 
ATOM     22  H   UNL A   1      31.987  27.137  20.975  1.00  0.00     0.178 HD
ATOM     23  H   UNL A   1      30.818  25.898  20.885  1.00  0.00     0.178 HD
ENDBRANCH  10  21
ENDBRANCH   8   9
ENDBRANCH   7   8
BRANCH   7  24
ATOM     24  C   UNL A   1      29.724  29.806  23.461  1.00  0.00    -0.025 A 
ATOM     25  C   UNL A   1      29.384  31.097  23.893  1.00  0.00     0.005 A 
ATOM     26  C   UNL A   1      29.047  29.311  22.326  1.00  0.00     0.005 A 
ATOM     27  C   UNL A   1      28.376  31.836  23.264  1.00  0.00     0.000 A 
ATOM     28  C   UNL A   1      28.052  30.056  21.685  1.00  0.00     0.000 A 
ATOM     29  C   UNL A   1      27.708  31.314  22.163  1.00  0.00     0.000 A 
ENDBRANCH   7  24
ENDBRANCH   4   7
ENDBRANCH   2   3
ENDBRANCH   1   2
BRANCH   1  30
ATOM     30  C   UNL A   1      31.772  31.707  26.525  1.00  0.00     0.023 C 
BRANCH  30  31
ATOM     31  C   UNL A   1      32.850  32.467  27.283  1.00  0.00     0.116 C 
BRANCH  31  32
ATOM     32  N   UNL A   1      32.474  33.834  27.613  1.00  0.00    -0.352 N 
ATOM     33  C   UNL A   1      33.037  34.700  28.522  1.00  0.00     0.251 C 
ATOM     34  H   UNL A   1      31.704  34.191  27.114  1.00  0.00     0.163 HD
ATOM     35  O   UNL A   1      32.526  35.796  28.729  1.00  0.00    -0.269 OA
BRANCH  33  36
ATOM     36  C   UNL A   1      34.230  34.282  29.290  1.00  0.00     0.039 A 
ATOM     37  C   UNL A   1      35.516  34.534  28.807  1.00  0.00     0.014 A 
ATOM     38  C   UNL A   1      34.052  33.573  30.481  1.00  0.00     0.014 A 
ATOM     39  C   UNL A   1      36.607  33.912  29.406  1.00  0.00     0.010 A 
ATOM     40  C   UNL A   1      35.158  33.017  31.127  1.00  0.00     0.010 A 
ATOM     41  C   UNL A   1      36.437  33.126  30.557  1.00  0.00    -0.014 A 
BRANCH  41  42
ATOM     42  C   UNL A   1      37.595  32.382  31.115  1.00  0.00     0.031 A 
ATOM     43  C   UNL A   1      38.076  32.660  32.515  1.00  0.00     0.074 A 
ATOM     44  C   UNL A   1      38.175  31.409  30.387  1.00  0.00     0.049 A 
ATOM     45  N   UNL A   1      39.070  32.115  33.171  1.00  0.00    -0.248 NA
ATOM     46  C   UNL A   1      37.349  33.686  33.280  1.00  0.00     0.031 C 
ATOM     47  C   UNL A   1      37.788  31.027  29.029  1.00  0.00     0.029 A 
ATOM     48  N   UNL A   1      39.199  30.553  30.696  1.00  0.00    -0.354 N 
ATOM     49  C   UNL A   1      39.101  32.743  34.411  1.00  0.00     0.074 A 
ATOM     50  C   UNL A   1      38.042  33.730  34.408  1.00  0.00     0.031 C 
ATOM     51  C   UNL A   1      38.534  29.983  28.638  1.00  0.00     0.029 A 
ATOM     52  C   UNL A   1      39.489  29.661  29.694  1.00  0.00     0.049 A 
ATOM     53  H   UNL A   1      39.681  30.575  31.555  1.00  0.00     0.167 HD
ATOM     54  C   UNL A   1      39.925  32.513  35.460  1.00  0.00     0.037 A 
ATOM     55  C   UNL A   1      40.431  28.703  29.625  1.00  0.00     0.037 A 
ATOM     56  C   UNL A   1      40.960  31.512  35.478  1.00  0.00     0.049 A 
ATOM     57  C   UNL A   1      41.368  28.507  30.781  1.00  0.00     0.074 A 
ATOM     58  C   UNL A   1      41.824  31.180  36.508  1.00  0.00     0.029 A 
ATOM     59  N   UNL A   1      41.268  30.678  34.414  1.00  0.00    -0.354 N 
ATOM     60  N   UNL A   1      41.384  29.110  31.943  1.00  0.00    -0.248 NA
ATOM     61  C   UNL A   1      42.429  27.504  30.605  1.00  0.00     0.031 C 
ATOM     62  C   UNL A   1      42.679  30.169  36.053  1.00  0.00     0.029 A 
ATOM     63  C   UNL A   1      42.325  29.849  34.753  1.00  0.00     0.049 A 
ATOM     64  H   UNL A   1      40.804  30.676  33.546  1.00  0.00     0.167 HD
ATOM     65  C   UNL A   1      42.453  28.562  32.639  1.00  0.00     0.074 A 
ATOM     66  C   UNL A   1      43.044  27.559  31.777  1.00  0.00     0.031 C 
ATOM     67  C   UNL A   1      42.910  28.869  33.877  1.00  0.00     0.037 A 
BRANCH  54  68
ATOM     68  C   UNL A   1      39.750  33.370  36.678  1.00  0.00     0.057 A 
ATOM     69  C   UNL A   1      38.827  33.018  37.671  1.00  0.00     0.134 A 
ATOM     70  C   UNL A   1      40.470  34.558  36.856  1.00  0.00     0.134 A 
ATOM     71  F   UNL A   1      38.102  31.895  37.559  1.00  0.00    -0.206 F 
ATOM     72  C   UNL A   1      38.626  33.818  38.797  1.00  0.00     0.040 A 
ATOM     73  C   UNL A   1      40.293  35.355  37.989  1.00  0.00     0.040 A 
ATOM     74  F   UNL A   1      41.381  34.943  35.949  1.00  0.00    -0.206 F 
ATOM     75  C   UNL A   1      39.364  34.988  38.960  1.00  0.00     0.006 A 
ENDBRANCH  54  68
BRANCH  55  76
ATOM     76  C   UNL A   1      40.550  27.870  28.404  1.00  0.00     0.057 A 
ATOM     77  C   UNL A   1      41.303  28.296  27.303  1.00  0.00     0.134 A 
ATOM     78  C   UNL A   1      39.920  26.625  28.315  1.00  0.00     0.134 A 
ATOM     79  F   UNL A   1      41.930  29.481  27.329  1.00  0.00    -0.206 F 
ATOM     80  C   UNL A   1      41.414  27.518  26.151  1.00  0.00     0.040 A 
ATOM     81  C   UNL A   1      40.041  25.826  27.178  1.00  0.00     0.040 A 
ATOM     82  F   UNL A   1      39.203  26.156  29.348  1.00  0.00    -0.206 F 
ATOM     83  C   UNL A   1      40.786  26.275  26.089  1.00  0.00     0.006 A 
ENDBRANCH  55  76
BRANCH  67  84
ATOM     84  C   UNL A   1      44.104  28.106  34.363  1.00  0.00     0.057 A 
ATOM     85  C   UNL A   1      43.955  26.873  35.009  1.00  0.00     0.134 A 
ATOM     86  C   UNL A   1      45.404  28.602  34.198  1.00  0.00     0.134 A 
ATOM     87  F   UNL A   1      42.737  26.346  35.201  1.00  0.00    -0.206 F 
ATOM     88  C   UNL A   1      45.060  26.157  35.472  1.00  0.00     0.040 A 
ATOM     89  C   UNL A   1      46.517  27.886  34.639  1.00  0.00     0.040 A 
ATOM     90  F   UNL A   1      45.610  29.769  33.570  1.00  0.00    -0.206 F 
ATOM     91  C   UNL A   1      46.346  26.661  35.282  1.00  0.00     0.006 A 
ENDBRANCH  67  84
ENDBRANCH  41  42
ENDBRANCH  33  36
ENDBRANCH  31  32
ENDBRANCH  30  31
ENDBRANCH   1  30
TORSDOF 15
ENDMDL
MODEL 3
REMARK VINA RESULT:     -12.7      0.318      6.018
REMARK SMILES Nn1c(S[C@@H](C(=O)NCCCCNC(=O)c2ccc(-c3c4nc(c(-c5c(F)cccc5F)c5ccc([nH]5)c(-c5c(F)cccc5F)c5nc(c(-c6c(F)cccc6F)c6ccc3[nH]6)C=C5)C=C4)cc2)c2ccccc2)nc2ccc(Br)cc2c1=O
REMARK SMILES IDX 10 1 9 2 8 3 6 4 7 5 5 7 4 8 3 9 2 10 84 11 76 12 83 13
REMARK SMILES IDX 85 14 77 15 82 16 78 17 80 18 79 19 81 20 1 21 70 24 71 25
REMARK SMILES IDX 75 26 72 27 74 28 73 29 11 30 12 31 13 32 14 33 15 35 16 36
REMARK SMILES IDX 17 37 69 38 18 39 68 40 19 41 20 42 21 43 62 44 22 45 67 46
REMARK SMILES IDX 61 47 63 48 23 49 66 50 60 51 59 52 24 54 50 55 33 56 49 57
REMARK SMILES IDX 34 58 37 59 48 60 64 61 35 62 36 63 47 65 65 66 38 67 25 68
REMARK SMILES IDX 26 69 31 70 27 71 28 72 30 73 32 74 29 75 51 76 52 77 57 78
REMARK SMILES IDX 53 79 54 80 56 81 58 82 55 83 39 84 40 85 45 86 41 87 42 88
REMARK SMILES IDX 44 89 46 90 43 91
REMARK H PARENT 8 6 1 22 1 23 13 34 63 53 37 64
REMARK Flexibility Score: inf
ROOT
ATOM      1  C   UNL A   1      37.198  22.263  24.087  1.00  0.00     0.023 C 
ENDROOT
BRANCH   1   2
ATOM      2  C   UNL A   1      35.858  22.914  24.446  1.00  0.00     0.116 C 
BRANCH   2   3
ATOM      3  N   UNL A   1      35.262  22.391  25.667  1.00  0.00    -0.355 N 
ATOM      4  C   UNL A   1      34.364  21.380  25.872  1.00  0.00     0.238 C 
ATOM      5  O   UNL A   1      34.129  21.117  27.055  1.00  0.00    -0.273 OA
ATOM      6  H   UNL A   1      35.557  22.845  26.489  1.00  0.00     0.163 HD
BRANCH   4   7
ATOM      7  C   UNL A   1      33.688  20.619  24.708  1.00  0.00     0.174 C 
BRANCH   7   8
ATOM      8  S   UNL A   1      32.224  21.468  24.125  1.00  0.00    -0.068 SA
BRANCH   8   9
ATOM      9  C   UNL A   1      31.846  22.956  24.944  1.00  0.00     0.191 A 
ATOM     10  N   UNL A   1      30.768  23.197  25.796  1.00  0.00    -0.202 N 
ATOM     11  C   UNL A   1      30.500  24.491  26.277  1.00  0.00     0.280 A 
ATOM     12  N   UNL A   1      32.734  23.861  24.676  1.00  0.00    -0.222 NA
ATOM     13  C   UNL A   1      31.522  25.511  25.998  1.00  0.00     0.069 A 
ATOM     14  O   UNL A   1      29.497  24.825  26.908  1.00  0.00    -0.267 OA
ATOM     15  C   UNL A   1      32.624  25.128  25.243  1.00  0.00     0.079 A 
ATOM     16  C   UNL A   1      31.413  26.807  26.512  1.00  0.00     0.031 A 
ATOM     17  C   UNL A   1      33.653  26.047  25.030  1.00  0.00     0.030 A 
ATOM     18  C   UNL A   1      32.440  27.717  26.279  1.00  0.00     0.018 A 
ATOM     19  C   UNL A   1      33.567  27.340  25.550  1.00  0.00     0.018 A 
ATOM     20  Br  UNL A   1      32.313  29.474  26.962  1.00  0.00    -0.051 Br
BRANCH  10  21
ATOM     21  N   UNL A   1      29.902  22.213  26.287  1.00  0.00    -0.334 N 
ATOM     22  H   UNL A   1      28.953  22.424  26.439  1.00  0.00     0.178 HD
ATOM     23  H   UNL A   1      30.243  21.309  26.479  1.00  0.00     0.178 HD
ENDBRANCH  10  21
ENDBRANCH   8   9
ENDBRANCH   7   8
BRANCH   7  24
ATOM     24  C   UNL A   1      33.639  19.096  24.876  1.00  0.00    -0.025 A 
ATOM     25  C   UNL A   1      32.547  18.381  25.394  1.00  0.00     0.005 A 
ATOM     26  C   UNL A   1      34.761  18.346  24.467  1.00  0.00     0.005 A 
ATOM     27  C   UNL A   1      32.596  16.992  25.555  1.00  0.00     0.000 A 
ATOM     28  C   UNL A   1      34.803  16.955  24.611  1.00  0.00     0.000 A 
ATOM     29  C   UNL A   1      33.724  16.280  25.167  1.00  0.00     0.000 A 
ENDBRANCH   7  24
ENDBRANCH   4   7
ENDBRANCH   2   3
ENDBRANCH   1   2
BRANCH   1  30
ATOM     30  C   UNL A   1      37.535  20.969  24.826  1.00  0.00     0.023 C 
BRANCH  30  31
ATOM     31  C   UNL A   1      38.702  21.053  25.798  1.00  0.00     0.116 C 
BRANCH  31  32
ATOM     32  N   UNL A   1      39.599  19.910  25.730  1.00  0.00    -0.352 N 
ATOM     33  C   UNL A   1      40.933  19.825  26.052  1.00  0.00     0.251 C 
ATOM     34  H   UNL A   1      39.191  19.074  25.406  1.00  0.00     0.163 HD
ATOM     35  O   UNL A   1      41.554  18.787  25.846  1.00  0.00    -0.269 OA
BRANCH  33  36
ATOM     36  C   UNL A   1      41.632  21.009  26.597  1.00  0.00     0.039 A 
ATOM     37  C   UNL A   1      41.661  21.253  27.971  1.00  0.00     0.014 A 
ATOM     38  C   UNL A   1      42.212  21.920  25.708  1.00  0.00     0.014 A 
ATOM     39  C   UNL A   1      42.091  22.491  28.439  1.00  0.00     0.010 A 
ATOM     40  C   UNL A   1      42.718  23.129  26.189  1.00  0.00     0.010 A 
ATOM     41  C   UNL A   1      42.601  23.451  27.551  1.00  0.00    -0.014 A 
BRANCH  41  42
ATOM     42  C   UNL A   1      42.950  24.804  28.054  1.00  0.00     0.031 A 
ATOM     43  C   UNL A   1      41.872  25.830  28.293  1.00  0.00     0.074 A 
ATOM     44  C   UNL A   1      44.228  25.092  28.360  1.00  0.00     0.049 A 
ATOM     45  N   UNL A   1      41.983  27.061  28.726  1.00  0.00    -0.248 NA
ATOM     46  C   UNL A   1      40.487  25.422  28.006  1.00  0.00     0.031 C 
ATOM     47  C   UNL A   1      45.361  24.180  28.198  1.00  0.00     0.029 A 
ATOM     48  N   UNL A   1      44.787  26.227  28.889  1.00  0.00    -0.354 N 
ATOM     49  C   UNL A   1      40.694  27.579  28.743  1.00  0.00     0.074 A 
ATOM     50  C   UNL A   1      39.816  26.538  28.251  1.00  0.00     0.031 C 
ATOM     51  C   UNL A   1      46.472  24.774  28.661  1.00  0.00     0.029 A 
ATOM     52  C   UNL A   1      46.140  26.126  29.097  1.00  0.00     0.049 A 
ATOM     53  H   UNL A   1      44.267  27.036  29.101  1.00  0.00     0.167 HD
ATOM     54  C   UNL A   1      40.274  28.804  29.141  1.00  0.00     0.037 A 
ATOM     55  C   UNL A   1      47.019  27.028  29.569  1.00  0.00     0.037 A 
ATOM     56  C   UNL A   1      41.140  29.832  29.658  1.00  0.00     0.049 A 
ATOM     57  C   UNL A   1      46.536  28.397  29.951  1.00  0.00     0.074 A 
ATOM     58  C   UNL A   1      40.804  31.093  30.120  1.00  0.00     0.029 A 
ATOM     59  N   UNL A   1      42.516  29.713  29.784  1.00  0.00    -0.354 N 
ATOM     60  N   UNL A   1      45.315  28.870  29.959  1.00  0.00    -0.248 NA
ATOM     61  C   UNL A   1      47.561  29.362  30.375  1.00  0.00     0.031 C 
ATOM     62  C   UNL A   1      41.983  31.751  30.493  1.00  0.00     0.029 A 
ATOM     63  C   UNL A   1      43.047  30.888  30.294  1.00  0.00     0.049 A 
ATOM     64  H   UNL A   1      43.038  28.913  29.547  1.00  0.00     0.167 HD
ATOM     65  C   UNL A   1      45.422  30.186  30.388  1.00  0.00     0.074 A 
ATOM     66  C   UNL A   1      46.825  30.427  30.656  1.00  0.00     0.031 C 
ATOM     67  C   UNL A   1      44.446  31.114  30.538  1.00  0.00     0.037 A 
BRANCH  54  68
ATOM     68  C   UNL A   1      38.811  29.106  29.022  1.00  0.00     0.057 A 
ATOM     69  C   UNL A   1      38.269  29.539  27.805  1.00  0.00     0.134 A 
ATOM     70  C   UNL A   1      37.942  28.998  30.116  1.00  0.00     0.134 A 
ATOM     71  F   UNL A   1      39.047  29.668  26.720  1.00  0.00    -0.206 F 
ATOM     72  C   UNL A   1      36.915  29.855  27.681  1.00  0.00     0.040 A 
ATOM     73  C   UNL A   1      36.582  29.291  29.998  1.00  0.00     0.040 A 
ATOM     74  F   UNL A   1      38.396  28.573  31.304  1.00  0.00    -0.206 F 
ATOM     75  C   UNL A   1      36.066  29.727  28.778  1.00  0.00     0.006 A 
ENDBRANCH  54  68
BRANCH  55  76
ATOM     76  C   UNL A   1      48.454  26.673  29.685  1.00  0.00     0.057 A 
ATOM     77  C   UNL A   1      49.360  26.964  28.658  1.00  0.00     0.134 A 
ATOM     78  C   UNL A   1      48.951  26.040  30.829  1.00  0.00     0.134 A 
ATOM     79  F   UNL A   1      48.943  27.568  27.537  1.00  0.00    -0.206 F 
ATOM     80  C   UNL A   1      50.710  26.626  28.760  1.00  0.00     0.040 A 
ATOM     81  C   UNL A   1      50.302  25.717  30.954  1.00  0.00     0.040 A 
ATOM     82  F   UNL A   1      48.132  25.756  31.852  1.00  0.00    -0.206 F 
ATOM     83  C   UNL A   1      51.185  26.006  29.915  1.00  0.00     0.006 A 
ENDBRANCH  55  76
BRANCH  67  84
ATOM     84  C   UNL A   1      44.873  32.469  31.014  1.00  0.00     0.057 A 
ATOM     85  C   UNL A   1      45.215  33.476  30.104  1.00  0.00     0.134 A 
ATOM     86  C   UNL A   1      44.952  32.772  32.380  1.00  0.00     0.134 A 
ATOM     87  F   UNL A   1      45.162  33.248  28.784  1.00  0.00    -0.206 F 
ATOM     88  C   UNL A   1      45.620  34.740  30.536  1.00  0.00     0.040 A 
ATOM     89  C   UNL A   1      45.336  34.037  32.824  1.00  0.00     0.040 A 
ATOM     90  F   UNL A   1      44.619  31.853  33.299  1.00  0.00    -0.206 F 
ATOM     91  C   UNL A   1      45.676  35.025  31.899  1.00  0.00     0.006 A 
ENDBRANCH  67  84
ENDBRANCH  41  42
ENDBRANCH  33  36
ENDBRANCH  31  32
ENDBRANCH  30  31
ENDBRANCH   1  30
TORSDOF 15
ENDMDL
