MODEL 1
REMARK VINA RESULT:     -11.8      0.000      0.000
REMARK SMILES O=C(NCCCCNC(=O)[C@@H]1C[NH2+]C[C@H]1c1ccncc1)c1ccc(-c2c3nc(c(-c4c(F)cccc4F)c4ccc([nH]4)c(-c4c(F)cccc4F)c4nc(c(-c5c(F)cccc5F)c5ccc2[nH]5)C=C4)C=C3)cc1
REMARK SMILES IDX 5 1 4 2 3 3 1 4 2 5 22 7 23 8 75 9 24 10 74 11 25 12 26 13
REMARK SMILES IDX 27 14 68 15 28 16 73 17 67 18 69 19 29 20 72 21 66 22 65 23
REMARK SMILES IDX 30 25 56 26 39 27 55 28 40 29 43 30 54 31 70 32 41 33 42 34
REMARK SMILES IDX 53 36 71 37 44 38 31 39 32 40 37 41 33 42 34 43 36 44 38 45
REMARK SMILES IDX 35 46 57 47 58 48 63 49 59 50 60 51 62 52 64 53 61 54 45 55
REMARK SMILES IDX 46 56 51 57 47 58 48 59 50 60 52 61 49 62 6 63 7 64 8 65
REMARK SMILES IDX 9 66 10 68 11 69 12 70 15 71 13 72 14 73 16 76 17 77 21 78
REMARK SMILES IDX 18 79 20 80 19 81
REMARK H PARENT 3 6 69 24 43 35 8 67 13 74 13 75
REMARK Flexibility Score: inf
ROOT
ATOM      1  C   UNL A   1      37.910  20.150  25.018  1.00  0.00     0.023 C 
ENDROOT
BRANCH   1   2
ATOM      2  C   UNL A   1      39.170  20.374  25.841  1.00  0.00     0.116 C 
BRANCH   2   3
ATOM      3  N   UNL A   1      40.098  19.250  25.821  1.00  0.00    -0.352 N 
ATOM      4  O   UNL A   1      42.113  18.229  25.954  1.00  0.00    -0.269 OA
ATOM      5  C   UNL A   1      41.451  19.246  26.078  1.00  0.00     0.251 C 
ATOM      6  H   UNL A   1      39.704  18.378  25.595  1.00  0.00     0.163 HD
BRANCH   5   7
ATOM      7  C   UNL A   1      42.091  20.518  26.462  1.00  0.00     0.039 A 
ATOM      8  C   UNL A   1      42.195  20.868  27.810  1.00  0.00     0.014 A 
ATOM      9  C   UNL A   1      42.500  21.400  25.459  1.00  0.00     0.014 A 
ATOM     10  C   UNL A   1      42.540  22.167  28.149  1.00  0.00     0.010 A 
ATOM     11  C   UNL A   1      42.940  22.676  25.810  1.00  0.00     0.010 A 
ATOM     12  C   UNL A   1      42.922  23.082  27.154  1.00  0.00    -0.014 A 
BRANCH  12  13
ATOM     13  C   UNL A   1      43.336  24.451  27.542  1.00  0.00     0.031 A 
ATOM     14  C   UNL A   1      42.326  25.469  27.987  1.00  0.00     0.074 A 
ATOM     15  C   UNL A   1      44.644  24.761  27.502  1.00  0.00     0.049 A 
ATOM     16  N   UNL A   1      42.508  26.730  28.292  1.00  0.00    -0.248 NA
ATOM     17  C   UNL A   1      40.928  25.021  28.098  1.00  0.00     0.031 C 
ATOM     18  C   UNL A   1      45.713  23.845  27.094  1.00  0.00     0.029 A 
ATOM     19  N   UNL A   1      45.300  25.920  27.815  1.00  0.00    -0.354 N 
ATOM     20  C   UNL A   1      41.248  27.234  28.591  1.00  0.00     0.074 A 
ATOM     21  C   UNL A   1      40.308  26.146  28.427  1.00  0.00     0.031 C 
ATOM     22  C   UNL A   1      46.894  24.465  27.218  1.00  0.00     0.029 A 
ATOM     23  C   UNL A   1      46.659  25.841  27.640  1.00  0.00     0.049 A 
ATOM     24  H   UNL A   1      44.844  26.731  28.134  1.00  0.00     0.167 HD
ATOM     25  C   UNL A   1      40.913  28.493  28.964  1.00  0.00     0.037 A 
ATOM     26  C   UNL A   1      47.613  26.780  27.769  1.00  0.00     0.037 A 
ATOM     27  C   UNL A   1      41.863  29.560  29.151  1.00  0.00     0.049 A 
ATOM     28  C   UNL A   1      47.215  28.165  28.174  1.00  0.00     0.074 A 
ATOM     29  C   UNL A   1      41.630  30.863  29.555  1.00  0.00     0.029 A 
ATOM     30  N   UNL A   1      43.231  29.443  28.948  1.00  0.00    -0.354 N 
ATOM     31  N   UNL A   1      46.020  28.632  28.444  1.00  0.00    -0.248 NA
ATOM     32  C   UNL A   1      48.292  29.157  28.280  1.00  0.00     0.031 C 
ATOM     33  C   UNL A   1      42.853  31.544  29.563  1.00  0.00     0.029 A 
ATOM     34  C   UNL A   1      43.852  30.654  29.204  1.00  0.00     0.049 A 
ATOM     35  H   UNL A   1      43.691  28.620  28.665  1.00  0.00     0.167 HD
ATOM     36  C   UNL A   1      46.200  29.970  28.761  1.00  0.00     0.074 A 
ATOM     37  C   UNL A   1      47.621  30.235  28.664  1.00  0.00     0.031 C 
ATOM     38  C   UNL A   1      45.269  30.895  29.100  1.00  0.00     0.037 A 
BRANCH  25  39
ATOM     39  C   UNL A   1      39.456  28.793  29.166  1.00  0.00     0.057 A 
ATOM     40  C   UNL A   1      38.836  28.669  30.416  1.00  0.00     0.134 A 
ATOM     41  C   UNL A   1      38.670  29.242  28.096  1.00  0.00     0.134 A 
ATOM     42  F   UNL A   1      39.529  28.231  31.478  1.00  0.00    -0.206 F 
ATOM     43  C   UNL A   1      37.482  28.964  30.591  1.00  0.00     0.040 A 
ATOM     44  C   UNL A   1      37.321  29.560  28.264  1.00  0.00     0.040 A 
ATOM     45  F   UNL A   1      39.202  29.387  26.874  1.00  0.00    -0.206 F 
ATOM     46  C   UNL A   1      36.722  29.416  29.513  1.00  0.00     0.006 A 
ENDBRANCH  25  39
BRANCH  26  47
ATOM     47  C   UNL A   1      49.022  26.421  27.491  1.00  0.00     0.057 A 
ATOM     48  C   UNL A   1      49.871  25.983  28.512  1.00  0.00     0.134 A 
ATOM     49  C   UNL A   1      49.532  26.442  26.186  1.00  0.00     0.134 A 
ATOM     50  F   UNL A   1      49.441  25.953  29.782  1.00  0.00    -0.206 F 
ATOM     51  C   UNL A   1      51.179  25.575  28.245  1.00  0.00     0.040 A 
ATOM     52  C   UNL A   1      50.829  26.014  25.903  1.00  0.00     0.040 A 
ATOM     53  F   UNL A   1      48.759  26.837  25.164  1.00  0.00    -0.206 F 
ATOM     54  C   UNL A   1      51.657  25.580  26.935  1.00  0.00     0.006 A 
ENDBRANCH  26  47
BRANCH  38  55
ATOM     55  C   UNL A   1      45.770  32.271  29.413  1.00  0.00     0.057 A 
ATOM     56  C   UNL A   1      46.175  32.628  30.704  1.00  0.00     0.134 A 
ATOM     57  C   UNL A   1      45.874  33.237  28.405  1.00  0.00     0.134 A 
ATOM     58  F   UNL A   1      46.083  31.750  31.714  1.00  0.00    -0.206 F 
ATOM     59  C   UNL A   1      46.653  33.909  30.986  1.00  0.00     0.040 A 
ATOM     60  C   UNL A   1      46.370  34.513  28.671  1.00  0.00     0.040 A 
ATOM     61  F   UNL A   1      45.505  32.951  27.147  1.00  0.00    -0.206 F 
ATOM     62  C   UNL A   1      46.757  34.853  29.965  1.00  0.00     0.006 A 
ENDBRANCH  38  55
ENDBRANCH  12  13
ENDBRANCH   5   7
ENDBRANCH   2   3
ENDBRANCH   1   2
BRANCH   1  63
ATOM     63  C   UNL A   1      37.302  21.407  24.407  1.00  0.00     0.023 C 
BRANCH  63  64
ATOM     64  C   UNL A   1      37.021  22.529  25.400  1.00  0.00     0.116 C 
BRANCH  64  65
ATOM     65  N   UNL A   1      35.970  22.184  26.334  1.00  0.00    -0.356 N 
ATOM     66  C   UNL A   1      34.811  21.494  26.246  1.00  0.00     0.229 C 
ATOM     67  H   UNL A   1      36.137  22.533  27.239  1.00  0.00     0.163 HD
ATOM     68  O   UNL A   1      34.203  21.371  27.320  1.00  0.00    -0.275 OA
BRANCH  66  69
ATOM     69  C   UNL A   1      34.167  20.945  24.974  1.00  0.00     0.146 C 
ATOM     70  C   UNL A   1      33.551  22.134  24.232  1.00  0.00     0.274 C 
ATOM     71  C   UNL A   1      33.008  19.947  24.983  1.00  0.00     0.092 C 
ATOM     72  N   UNL A   1      32.738  21.544  23.166  1.00  0.00    -0.345 N 
ATOM     73  C   UNL A   1      32.182  20.311  23.730  1.00  0.00     0.269 C 
ATOM     74  H   UNL A   1      33.315  21.334  22.352  1.00  0.00     0.346 HD
ATOM     75  H   UNL A   1      32.004  22.181  22.854  1.00  0.00     0.346 HD
BRANCH  71  76
ATOM     76  C   UNL A   1      33.357  18.465  25.027  1.00  0.00    -0.035 A 
ATOM     77  C   UNL A   1      32.590  17.513  25.708  1.00  0.00     0.024 A 
ATOM     78  C   UNL A   1      34.467  17.995  24.309  1.00  0.00     0.024 A 
ATOM     79  C   UNL A   1      32.937  16.170  25.626  1.00  0.00     0.111 A 
ATOM     80  C   UNL A   1      34.746  16.634  24.302  1.00  0.00     0.111 A 
ATOM     81  N   UNL A   1      33.998  15.711  24.938  1.00  0.00    -0.265 NA
ENDBRANCH  71  76
ENDBRANCH  66  69
ENDBRANCH  64  65
ENDBRANCH  63  64
ENDBRANCH   1  63
TORSDOF 12
ENDMDL
MODEL 2
REMARK VINA RESULT:     -11.8      0.095      1.353
REMARK SMILES O=C(NCCCCNC(=O)[C@@H]1C[NH2+]C[C@H]1c1ccncc1)c1ccc(-c2c3nc(c(-c4c(F)cccc4F)c4ccc([nH]4)c(-c4c(F)cccc4F)c4nc(c(-c5c(F)cccc5F)c5ccc2[nH]5)C=C4)C=C3)cc1
REMARK SMILES IDX 5 1 4 2 3 3 1 4 2 5 22 7 23 8 75 9 24 10 74 11 25 12 26 13
REMARK SMILES IDX 27 14 68 15 28 16 73 17 67 18 69 19 29 20 72 21 66 22 65 23
REMARK SMILES IDX 30 25 56 26 39 27 55 28 40 29 43 30 54 31 70 32 41 33 42 34
REMARK SMILES IDX 53 36 71 37 44 38 31 39 32 40 37 41 33 42 34 43 36 44 38 45
REMARK SMILES IDX 35 46 57 47 58 48 63 49 59 50 60 51 62 52 64 53 61 54 45 55
REMARK SMILES IDX 46 56 51 57 47 58 48 59 50 60 52 61 49 62 6 63 7 64 8 65
REMARK SMILES IDX 9 66 10 68 11 69 12 70 15 71 13 72 14 73 16 76 17 77 21 78
REMARK SMILES IDX 18 79 20 80 19 81
REMARK H PARENT 3 6 69 24 43 35 8 67 13 74 13 75
REMARK Flexibility Score: inf
ROOT
ATOM      1  C   UNL A   1      37.953  20.133  25.011  1.00  0.00     0.023 C 
ENDROOT
BRANCH   1   2
ATOM      2  C   UNL A   1      39.229  20.391  25.800  1.00  0.00     0.116 C 
BRANCH   2   3
ATOM      3  N   UNL A   1      40.144  19.258  25.832  1.00  0.00    -0.352 N 
ATOM      4  O   UNL A   1      42.145  18.220  26.044  1.00  0.00    -0.269 OA
ATOM      5  C   UNL A   1      41.490  19.246  26.124  1.00  0.00     0.251 C 
ATOM      6  H   UNL A   1      39.747  18.384  25.616  1.00  0.00     0.163 HD
BRANCH   5   7
ATOM      7  C   UNL A   1      42.134  20.521  26.495  1.00  0.00     0.039 A 
ATOM      8  C   UNL A   1      42.242  20.883  27.839  1.00  0.00     0.014 A 
ATOM      9  C   UNL A   1      42.540  21.392  25.483  1.00  0.00     0.014 A 
ATOM     10  C   UNL A   1      42.590  22.184  28.165  1.00  0.00     0.010 A 
ATOM     11  C   UNL A   1      42.984  22.671  25.821  1.00  0.00     0.010 A 
ATOM     12  C   UNL A   1      42.971  23.089  27.161  1.00  0.00    -0.014 A 
BRANCH  12  13
ATOM     13  C   UNL A   1      43.388  24.461  27.535  1.00  0.00     0.031 A 
ATOM     14  C   UNL A   1      42.382  25.483  27.981  1.00  0.00     0.074 A 
ATOM     15  C   UNL A   1      44.696  24.770  27.480  1.00  0.00     0.049 A 
ATOM     16  N   UNL A   1      42.566  26.745  28.274  1.00  0.00    -0.248 NA
ATOM     17  C   UNL A   1      40.985  25.035  28.107  1.00  0.00     0.031 C 
ATOM     18  C   UNL A   1      45.761  23.852  27.070  1.00  0.00     0.029 A 
ATOM     19  N   UNL A   1      45.355  25.932  27.779  1.00  0.00    -0.354 N 
ATOM     20  C   UNL A   1      41.309  27.253  28.581  1.00  0.00     0.074 A 
ATOM     21  C   UNL A   1      40.368  26.163  28.433  1.00  0.00     0.031 C 
ATOM     22  C   UNL A   1      46.943  24.473  27.178  1.00  0.00     0.029 A 
ATOM     23  C   UNL A   1      46.712  25.852  27.592  1.00  0.00     0.049 A 
ATOM     24  H   UNL A   1      44.901  26.746  28.096  1.00  0.00     0.167 HD
ATOM     25  C   UNL A   1      40.978  28.514  28.947  1.00  0.00     0.037 A 
ATOM     26  C   UNL A   1      47.666  26.791  27.705  1.00  0.00     0.037 A 
ATOM     27  C   UNL A   1      41.929  29.582  29.118  1.00  0.00     0.049 A 
ATOM     28  C   UNL A   1      47.272  28.180  28.103  1.00  0.00     0.074 A 
ATOM     29  C   UNL A   1      41.700  30.888  29.514  1.00  0.00     0.029 A 
ATOM     30  N   UNL A   1      43.296  29.463  28.904  1.00  0.00    -0.354 N 
ATOM     31  N   UNL A   1      46.080  28.649  28.381  1.00  0.00    -0.248 NA
ATOM     32  C   UNL A   1      48.351  29.173  28.192  1.00  0.00     0.031 C 
ATOM     33  C   UNL A   1      42.923  31.569  29.506  1.00  0.00     0.029 A 
ATOM     34  C   UNL A   1      43.919  30.677  29.145  1.00  0.00     0.049 A 
ATOM     35  H   UNL A   1      43.753  28.639  28.622  1.00  0.00     0.167 HD
ATOM     36  C   UNL A   1      46.262  29.989  28.686  1.00  0.00     0.074 A 
ATOM     37  C   UNL A   1      47.683  30.253  28.575  1.00  0.00     0.031 C 
ATOM     38  C   UNL A   1      45.335  30.916  29.026  1.00  0.00     0.037 A 
BRANCH  25  39
ATOM     39  C   UNL A   1      39.523  28.815  29.160  1.00  0.00     0.057 A 
ATOM     40  C   UNL A   1      38.694  29.259  28.122  1.00  0.00     0.134 A 
ATOM     41  C   UNL A   1      38.936  28.627  30.419  1.00  0.00     0.134 A 
ATOM     42  F   UNL A   1      39.196  29.471  26.896  1.00  0.00    -0.206 F 
ATOM     43  C   UNL A   1      37.339  29.524  28.333  1.00  0.00     0.040 A 
ATOM     44  C   UNL A   1      37.579  28.868  30.637  1.00  0.00     0.040 A 
ATOM     45  F   UNL A   1      39.672  28.200  31.456  1.00  0.00    -0.206 F 
ATOM     46  C   UNL A   1      36.777  29.323  29.592  1.00  0.00     0.006 A 
ENDBRANCH  25  39
BRANCH  26  47
ATOM     47  C   UNL A   1      49.074  26.431  27.417  1.00  0.00     0.057 A 
ATOM     48  C   UNL A   1      49.938  26.022  28.437  1.00  0.00     0.134 A 
ATOM     49  C   UNL A   1      49.566  26.420  26.105  1.00  0.00     0.134 A 
ATOM     50  F   UNL A   1      49.525  26.022  29.713  1.00  0.00    -0.206 F 
ATOM     51  C   UNL A   1      51.243  25.612  28.164  1.00  0.00     0.040 A 
ATOM     52  C   UNL A   1      50.860  25.990  25.816  1.00  0.00     0.040 A 
ATOM     53  F   UNL A   1      48.778  26.787  25.085  1.00  0.00    -0.206 F 
ATOM     54  C   UNL A   1      51.704  25.585  26.848  1.00  0.00     0.006 A 
ENDBRANCH  26  47
BRANCH  38  55
ATOM     55  C   UNL A   1      45.838  32.295  29.324  1.00  0.00     0.057 A 
ATOM     56  C   UNL A   1      45.916  33.279  28.333  1.00  0.00     0.134 A 
ATOM     57  C   UNL A   1      46.221  32.647  30.625  1.00  0.00     0.134 A 
ATOM     58  F   UNL A   1      45.579  32.995  27.065  1.00  0.00    -0.206 F 
ATOM     59  C   UNL A   1      46.374  34.565  28.621  1.00  0.00     0.040 A 
ATOM     60  C   UNL A   1      46.660  33.935  30.928  1.00  0.00     0.040 A 
ATOM     61  F   UNL A   1      46.163  31.747  31.618  1.00  0.00    -0.206 F 
ATOM     62  C   UNL A   1      46.742  34.897  29.924  1.00  0.00     0.006 A 
ENDBRANCH  38  55
ENDBRANCH  12  13
ENDBRANCH   5   7
ENDBRANCH   2   3
ENDBRANCH   1   2
BRANCH   1  63
ATOM     63  C   UNL A   1      37.201  21.381  24.566  1.00  0.00     0.023 C 
BRANCH  63  64
ATOM     64  C   UNL A   1      37.013  22.435  25.652  1.00  0.00     0.116 C 
BRANCH  64  65
ATOM     65  N   UNL A   1      35.896  22.133  26.522  1.00  0.00    -0.356 N 
ATOM     66  C   UNL A   1      34.720  21.486  26.366  1.00  0.00     0.229 C 
ATOM     67  H   UNL A   1      36.022  22.478  27.435  1.00  0.00     0.163 HD
ATOM     68  O   UNL A   1      34.044  21.390  27.402  1.00  0.00    -0.275 OA
BRANCH  66  69
ATOM     69  C   UNL A   1      34.132  20.958  25.058  1.00  0.00     0.146 C 
ATOM     70  C   UNL A   1      33.530  22.156  24.318  1.00  0.00     0.274 C 
ATOM     71  C   UNL A   1      32.986  19.947  25.001  1.00  0.00     0.092 C 
ATOM     72  N   UNL A   1      32.766  21.580  23.209  1.00  0.00    -0.345 N 
ATOM     73  C   UNL A   1      32.204  20.328  23.724  1.00  0.00     0.269 C 
ATOM     74  H   UNL A   1      33.377  21.395  22.413  1.00  0.00     0.346 HD
ATOM     75  H   UNL A   1      32.037  22.215  22.883  1.00  0.00     0.346 HD
BRANCH  71  76
ATOM     76  C   UNL A   1      33.352  18.468  25.026  1.00  0.00    -0.035 A 
ATOM     77  C   UNL A   1      32.592  17.498  25.689  1.00  0.00     0.024 A 
ATOM     78  C   UNL A   1      34.470  18.020  24.308  1.00  0.00     0.024 A 
ATOM     79  C   UNL A   1      32.954  16.161  25.591  1.00  0.00     0.111 A 
ATOM     80  C   UNL A   1      34.765  16.664  24.284  1.00  0.00     0.111 A 
ATOM     81  N   UNL A   1      34.024  15.723  24.903  1.00  0.00    -0.265 NA
ENDBRANCH  71  76
ENDBRANCH  66  69
ENDBRANCH  64  65
ENDBRANCH  63  64
ENDBRANCH   1  63
TORSDOF 12
ENDMDL
MODEL 3
REMARK VINA RESULT:     -11.8      6.413     10.667
REMARK SMILES O=C(NCCCCNC(=O)[C@@H]1C[NH2+]C[C@H]1c1ccncc1)c1ccc(-c2c3nc(c(-c4c(F)cccc4F)c4ccc([nH]4)c(-c4c(F)cccc4F)c4nc(c(-c5c(F)cccc5F)c5ccc2[nH]5)C=C4)C=C3)cc1
REMARK SMILES IDX 5 1 4 2 3 3 1 4 2 5 22 7 23 8 75 9 24 10 74 11 25 12 26 13
REMARK SMILES IDX 27 14 68 15 28 16 73 17 67 18 69 19 29 20 72 21 66 22 65 23
REMARK SMILES IDX 30 25 56 26 39 27 55 28 40 29 43 30 54 31 70 32 41 33 42 34
REMARK SMILES IDX 53 36 71 37 44 38 31 39 32 40 37 41 33 42 34 43 36 44 38 45
REMARK SMILES IDX 35 46 57 47 58 48 63 49 59 50 60 51 62 52 64 53 61 54 45 55
REMARK SMILES IDX 46 56 51 57 47 58 48 59 50 60 52 61 49 62 6 63 7 64 8 65
REMARK SMILES IDX 9 66 10 68 11 69 12 70 15 71 13 72 14 73 16 76 17 77 21 78
REMARK SMILES IDX 18 79 20 80 19 81
REMARK H PARENT 3 6 69 24 43 35 8 67 13 74 13 75
REMARK Flexibility Score: inf
ROOT
ATOM      1  C   UNL A   1      31.612  32.021  26.681  1.00  0.00     0.023 C 
ENDROOT
BRANCH   1   2
ATOM      2  C   UNL A   1      32.744  32.824  27.305  1.00  0.00     0.116 C 
BRANCH   2   3
ATOM      3  N   UNL A   1      32.374  34.185  27.669  1.00  0.00    -0.352 N 
ATOM      4  O   UNL A   1      32.498  36.121  28.835  1.00  0.00    -0.269 OA
ATOM      5  C   UNL A   1      32.967  35.023  28.587  1.00  0.00     0.251 C 
ATOM      6  H   UNL A   1      31.595  34.555  27.194  1.00  0.00     0.163 HD
BRANCH   5   7
ATOM      7  C   UNL A   1      34.163  34.538  29.302  1.00  0.00     0.039 A 
ATOM      8  C   UNL A   1      35.422  34.648  28.709  1.00  0.00     0.014 A 
ATOM      9  C   UNL A   1      34.002  33.886  30.526  1.00  0.00     0.014 A 
ATOM     10  C   UNL A   1      36.491  33.952  29.253  1.00  0.00     0.010 A 
ATOM     11  C   UNL A   1      35.102  33.268  31.121  1.00  0.00     0.010 A 
ATOM     12  C   UNL A   1      36.344  33.261  30.466  1.00  0.00    -0.014 A 
BRANCH  12  13
ATOM     13  C   UNL A   1      37.512  32.566  31.056  1.00  0.00     0.031 A 
ATOM     14  C   UNL A   1      38.106  33.018  32.359  1.00  0.00     0.074 A 
ATOM     15  C   UNL A   1      38.023  31.506  30.405  1.00  0.00     0.049 A 
ATOM     16  N   UNL A   1      39.169  32.569  32.978  1.00  0.00    -0.248 NA
ATOM     17  C   UNL A   1      37.427  34.122  33.056  1.00  0.00     0.031 C 
ATOM     18  C   UNL A   1      37.518  30.974  29.136  1.00  0.00     0.029 A 
ATOM     19  N   UNL A   1      39.068  30.680  30.719  1.00  0.00    -0.354 N 
ATOM     20  C   UNL A   1      39.310  33.358  34.113  1.00  0.00     0.074 A 
ATOM     21  C   UNL A   1      38.227  34.318  34.096  1.00  0.00     0.031 C 
ATOM     22  C   UNL A   1      38.229  29.891  28.800  1.00  0.00     0.029 A 
ATOM     23  C   UNL A   1      39.285  29.697  29.786  1.00  0.00     0.049 A 
ATOM     24  H   UNL A   1      39.612  30.781  31.533  1.00  0.00     0.167 HD
ATOM     25  C   UNL A   1      40.261  33.285  35.075  1.00  0.00     0.037 A 
ATOM     26  C   UNL A   1      40.247  28.761  29.711  1.00  0.00     0.037 A 
ATOM     27  C   UNL A   1      41.317  32.306  35.095  1.00  0.00     0.049 A 
ATOM     28  C   UNL A   1      41.291  28.708  30.782  1.00  0.00     0.074 A 
ATOM     29  C   UNL A   1      42.314  32.129  36.039  1.00  0.00     0.029 A 
ATOM     30  N   UNL A   1      41.511  31.335  34.122  1.00  0.00    -0.354 N 
ATOM     31  N   UNL A   1      41.419  29.465  31.845  1.00  0.00    -0.248 NA
ATOM     32  C   UNL A   1      42.331  27.681  30.640  1.00  0.00     0.031 C 
ATOM     33  C   UNL A   1      43.131  31.072  35.619  1.00  0.00     0.029 A 
ATOM     34  C   UNL A   1      42.619  30.566  34.436  1.00  0.00     0.049 A 
ATOM     35  H   UNL A   1      40.944  31.212  33.327  1.00  0.00     0.167 HD
ATOM     36  C   UNL A   1      42.547  29.003  32.505  1.00  0.00     0.074 A 
ATOM     37  C   UNL A   1      43.058  27.890  31.730  1.00  0.00     0.031 C 
ATOM     38  C   UNL A   1      43.110  29.463  33.649  1.00  0.00     0.037 A 
BRANCH  25  39
ATOM     39  C   UNL A   1      40.219  34.310  36.171  1.00  0.00     0.057 A 
ATOM     40  C   UNL A   1      40.848  35.556  36.051  1.00  0.00     0.134 A 
ATOM     41  C   UNL A   1      39.511  34.055  37.354  1.00  0.00     0.134 A 
ATOM     42  F   UNL A   1      41.553  35.857  34.951  1.00  0.00    -0.206 F 
ATOM     43  C   UNL A   1      40.791  36.504  37.075  1.00  0.00     0.040 A 
ATOM     44  C   UNL A   1      39.429  35.004  38.375  1.00  0.00     0.040 A 
ATOM     45  F   UNL A   1      38.882  32.884  37.532  1.00  0.00    -0.206 F 
ATOM     46  C   UNL A   1      40.074  36.230  38.239  1.00  0.00     0.006 A 
ENDBRANCH  25  39
BRANCH  26  47
ATOM     47  C   UNL A   1      40.256  27.825  28.563  1.00  0.00     0.057 A 
ATOM     48  C   UNL A   1      40.950  28.129  27.388  1.00  0.00     0.134 A 
ATOM     49  C   UNL A   1      39.628  26.575  28.643  1.00  0.00     0.134 A 
ATOM     50  F   UNL A   1      41.560  29.315  27.252  1.00  0.00    -0.206 F 
ATOM     51  C   UNL A   1      41.022  27.221  26.331  1.00  0.00     0.040 A 
ATOM     52  C   UNL A   1      39.713  25.649  27.604  1.00  0.00     0.040 A 
ATOM     53  F   UNL A   1      38.961  26.222  29.751  1.00  0.00    -0.206 F 
ATOM     54  C   UNL A   1      40.412  25.972  26.442  1.00  0.00     0.006 A 
ENDBRANCH  26  47
BRANCH  38  55
ATOM     55  C   UNL A   1      44.327  28.741  34.138  1.00  0.00     0.057 A 
ATOM     56  C   UNL A   1      45.617  29.155  33.788  1.00  0.00     0.134 A 
ATOM     57  C   UNL A   1      44.205  27.638  34.993  1.00  0.00     0.134 A 
ATOM     58  F   UNL A   1      45.796  30.195  32.959  1.00  0.00    -0.206 F 
ATOM     59  C   UNL A   1      46.747  28.485  34.259  1.00  0.00     0.040 A 
ATOM     60  C   UNL A   1      45.328  26.974  35.486  1.00  0.00     0.040 A 
ATOM     61  F   UNL A   1      42.994  27.198  35.367  1.00  0.00    -0.206 F 
ATOM     62  C   UNL A   1      46.603  27.394  35.115  1.00  0.00     0.006 A 
ENDBRANCH  38  55
ENDBRANCH  12  13
ENDBRANCH   5   7
ENDBRANCH   2   3
ENDBRANCH   1   2
BRANCH   1  63
ATOM     63  C   UNL A   1      31.784  30.508  26.733  1.00  0.00     0.023 C 
BRANCH  63  64
ATOM     64  C   UNL A   1      33.202  30.016  26.466  1.00  0.00     0.116 C 
BRANCH  64  65
ATOM     65  N   UNL A   1      33.414  29.681  25.073  1.00  0.00    -0.356 N 
ATOM     66  C   UNL A   1      32.626  29.216  24.079  1.00  0.00     0.229 C 
ATOM     67  H   UNL A   1      34.344  29.825  24.785  1.00  0.00     0.163 HD
ATOM     68  O   UNL A   1      33.191  29.112  22.980  1.00  0.00    -0.275 OA
BRANCH  66  69
ATOM     69  C   UNL A   1      31.178  28.744  24.203  1.00  0.00     0.146 C 
ATOM     70  C   UNL A   1      31.218  27.262  24.585  1.00  0.00     0.274 C 
ATOM     71  C   UNL A   1      30.193  28.739  23.033  1.00  0.00     0.092 C 
ATOM     72  N   UNL A   1      29.838  26.790  24.449  1.00  0.00    -0.345 N 
ATOM     73  C   UNL A   1      29.282  27.522  23.307  1.00  0.00     0.269 C 
ATOM     74  H   UNL A   1      29.306  26.994  25.295  1.00  0.00     0.346 HD
ATOM     75  H   UNL A   1      29.796  25.781  24.307  1.00  0.00     0.346 HD
BRANCH  71  76
ATOM     76  C   UNL A   1      29.389  30.009  22.786  1.00  0.00    -0.035 A 
ATOM     77  C   UNL A   1      29.239  31.023  23.739  1.00  0.00     0.024 A 
ATOM     78  C   UNL A   1      28.809  30.226  21.528  1.00  0.00     0.024 A 
ATOM     79  C   UNL A   1      28.558  32.185  23.399  1.00  0.00     0.111 A 
ATOM     80  C   UNL A   1      28.128  31.413  21.287  1.00  0.00     0.111 A 
ATOM     81  N   UNL A   1      28.000  32.401  22.194  1.00  0.00    -0.265 NA
ENDBRANCH  71  76
ENDBRANCH  66  69
ENDBRANCH  64  65
ENDBRANCH  63  64
ENDBRANCH   1  63
TORSDOF 12
ENDMDL
