MODEL 1
REMARK VINA RESULT:     -12.2      0.000      0.000
REMARK SMILES O=C(NCCCCNC(=O)[C@H]1CCCCN1C(=O)c1nc(C2CC2)n[nH]1)c1ccc(-c2c3nc(c(-c4c(F)cccc4F)c4ccc([nH]4)c(-c4c(F)cccc4F)c4nc(c(-c5c(F)cccc5F)c5ccc2[nH]5)C=C4)C=C3)cc1
REMARK SMILES IDX 6 1 5 2 4 3 3 4 1 5 2 6 27 8 28 9 80 10 29 11 79 12 30 13
REMARK SMILES IDX 31 14 32 15 73 16 33 17 78 18 72 19 74 20 34 21 77 22 71 23
REMARK SMILES IDX 70 24 35 26 61 27 44 28 60 29 45 30 48 31 59 32 75 33 46 34
REMARK SMILES IDX 47 35 58 37 76 38 49 39 36 40 37 41 42 42 38 43 39 44 41 45
REMARK SMILES IDX 43 46 40 47 62 48 63 49 68 50 64 51 65 52 67 53 69 54 66 55
REMARK SMILES IDX 50 56 51 57 56 58 52 59 53 60 55 61 57 62 54 63 7 64 8 65
REMARK SMILES IDX 9 66 10 68 11 69 12 70 16 71 13 72 15 73 14 74 17 75 18 76
REMARK SMILES IDX 19 77 20 78 26 79 21 80 25 81 22 83 23 84 24 85
REMARK H PARENT 3 7 74 25 48 36 8 67 26 82
REMARK Flexibility Score: inf
ROOT
ATOM      1  C   UNL A   1      31.341  30.834  25.786  1.00  0.00     0.023 C 
ENDROOT
BRANCH   1   2
ATOM      2  C   UNL A   1      31.266  32.202  26.473  1.00  0.00     0.023 C 
BRANCH   2   3
ATOM      3  C   UNL A   1      32.552  32.663  27.151  1.00  0.00     0.116 C 
BRANCH   3   4
ATOM      4  N   UNL A   1      32.487  34.042  27.603  1.00  0.00    -0.352 N 
ATOM      5  O   UNL A   1      32.981  35.816  28.907  1.00  0.00    -0.269 OA
ATOM      6  C   UNL A   1      33.259  34.677  28.544  1.00  0.00     0.251 C 
ATOM      7  H   UNL A   1      31.794  34.598  27.178  1.00  0.00     0.163 HD
BRANCH   6   8
ATOM      8  C   UNL A   1      34.415  33.975  29.139  1.00  0.00     0.039 A 
ATOM      9  C   UNL A   1      35.720  34.279  28.742  1.00  0.00     0.014 A 
ATOM     10  C   UNL A   1      34.187  33.005  30.121  1.00  0.00     0.014 A 
ATOM     11  C   UNL A   1      36.786  33.537  29.241  1.00  0.00     0.010 A 
ATOM     12  C   UNL A   1      35.264  32.307  30.671  1.00  0.00     0.010 A 
ATOM     13  C   UNL A   1      36.570  32.553  30.220  1.00  0.00    -0.014 A 
BRANCH  13  14
ATOM     14  C   UNL A   1      37.730  31.840  30.808  1.00  0.00     0.031 A 
ATOM     15  C   UNL A   1      38.190  32.123  32.209  1.00  0.00     0.074 A 
ATOM     16  C   UNL A   1      38.364  30.916  30.062  1.00  0.00     0.049 A 
ATOM     17  N   UNL A   1      39.184  31.588  32.872  1.00  0.00    -0.248 NA
ATOM     18  C   UNL A   1      37.443  33.141  32.964  1.00  0.00     0.031 C 
ATOM     19  C   UNL A   1      38.014  30.564  28.683  1.00  0.00     0.029 A 
ATOM     20  N   UNL A   1      39.422  30.096  30.356  1.00  0.00    -0.354 N 
ATOM     21  C   UNL A   1      39.193  32.211  34.113  1.00  0.00     0.074 A 
ATOM     22  C   UNL A   1      38.119  33.182  34.104  1.00  0.00     0.031 C 
ATOM     23  C   UNL A   1      38.818  29.576  28.264  1.00  0.00     0.029 A 
ATOM     24  C   UNL A   1      39.772  29.263  29.322  1.00  0.00     0.049 A 
ATOM     25  H   UNL A   1      39.887  30.105  31.223  1.00  0.00     0.167 HD
ATOM     26  C   UNL A   1      40.018  31.987  35.165  1.00  0.00     0.037 A 
ATOM     27  C   UNL A   1      40.762  28.356  29.228  1.00  0.00     0.037 A 
ATOM     28  C   UNL A   1      41.078  31.011  35.174  1.00  0.00     0.049 A 
ATOM     29  C   UNL A   1      41.676  28.148  30.398  1.00  0.00     0.074 A 
ATOM     30  C   UNL A   1      41.942  30.684  36.205  1.00  0.00     0.029 A 
ATOM     31  N   UNL A   1      41.420  30.206  34.097  1.00  0.00    -0.354 N 
ATOM     32  N   UNL A   1      41.652  28.722  31.576  1.00  0.00    -0.248 NA
ATOM     33  C   UNL A   1      42.758  27.169  30.226  1.00  0.00     0.031 C 
ATOM     34  C   UNL A   1      42.833  29.710  35.740  1.00  0.00     0.029 A 
ATOM     35  C   UNL A   1      42.497  29.401  34.432  1.00  0.00     0.049 A 
ATOM     36  H   UNL A   1      40.965  30.207  33.224  1.00  0.00     0.167 HD
ATOM     37  C   UNL A   1      42.706  28.170  32.288  1.00  0.00     0.074 A 
ATOM     38  C   UNL A   1      43.338  27.199  31.417  1.00  0.00     0.031 C 
ATOM     39  C   UNL A   1      43.115  28.444  33.550  1.00  0.00     0.037 A 
BRANCH  26  40
ATOM     40  C   UNL A   1      39.817  32.821  36.396  1.00  0.00     0.057 A 
ATOM     41  C   UNL A   1      40.551  33.991  36.624  1.00  0.00     0.134 A 
ATOM     42  C   UNL A   1      38.842  32.476  37.340  1.00  0.00     0.134 A 
ATOM     43  F   UNL A   1      41.508  34.372  35.763  1.00  0.00    -0.206 F 
ATOM     44  C   UNL A   1      40.334  34.781  37.754  1.00  0.00     0.040 A 
ATOM     45  C   UNL A   1      38.600  33.268  38.465  1.00  0.00     0.040 A 
ATOM     46  F   UNL A   1      38.099  31.370  37.179  1.00  0.00    -0.206 F 
ATOM     47  C   UNL A   1      39.351  34.424  38.675  1.00  0.00     0.006 A 
ENDBRANCH  26  40
BRANCH  27  48
ATOM     48  C   UNL A   1      40.933  27.585  27.974  1.00  0.00     0.057 A 
ATOM     49  C   UNL A   1      41.734  28.066  26.933  1.00  0.00     0.134 A 
ATOM     50  C   UNL A   1      40.319  26.339  27.797  1.00  0.00     0.134 A 
ATOM     51  F   UNL A   1      42.334  29.261  27.041  1.00  0.00    -0.206 F 
ATOM     52  C   UNL A   1      41.913  27.339  25.755  1.00  0.00     0.040 A 
ATOM     53  C   UNL A   1      40.509  25.591  26.635  1.00  0.00     0.040 A 
ATOM     54  F   UNL A   1      39.546  25.821  28.762  1.00  0.00    -0.206 F 
ATOM     55  C   UNL A   1      41.305  26.094  25.608  1.00  0.00     0.006 A 
ENDBRANCH  27  48
BRANCH  39  56
ATOM     56  C   UNL A   1      44.293  27.671  34.064  1.00  0.00     0.057 A 
ATOM     57  C   UNL A   1      45.598  28.167  33.960  1.00  0.00     0.134 A 
ATOM     58  C   UNL A   1      44.116  26.431  34.689  1.00  0.00     0.134 A 
ATOM     59  F   UNL A   1      45.834  29.341  33.357  1.00  0.00    -0.206 F 
ATOM     60  C   UNL A   1      46.691  27.445  34.444  1.00  0.00     0.040 A 
ATOM     61  C   UNL A   1      45.197  25.711  35.197  1.00  0.00     0.040 A 
ATOM     62  F   UNL A   1      42.888  25.905  34.824  1.00  0.00    -0.206 F 
ATOM     63  C   UNL A   1      46.490  26.215  35.070  1.00  0.00     0.006 A 
ENDBRANCH  39  56
ENDBRANCH  13  14
ENDBRANCH   6   8
ENDBRANCH   3   4
ENDBRANCH   2   3
ENDBRANCH   1   2
BRANCH   1  64
ATOM     64  C   UNL A   1      32.322  29.852  26.426  1.00  0.00     0.116 C 
BRANCH  64  65
ATOM     65  N   UNL A   1      31.638  28.670  26.915  1.00  0.00    -0.354 N 
ATOM     66  C   UNL A   1      31.468  27.452  26.320  1.00  0.00     0.242 C 
ATOM     67  H   UNL A   1      31.236  28.760  27.809  1.00  0.00     0.163 HD
ATOM     68  O   UNL A   1      30.737  26.650  26.904  1.00  0.00    -0.273 OA
BRANCH  66  69
ATOM     69  C   UNL A   1      32.279  27.105  25.048  1.00  0.00     0.174 C 
ATOM     70  C   UNL A   1      33.650  26.537  25.443  1.00  0.00     0.035 C 
ATOM     71  N   UNL A   1      31.601  26.173  24.130  1.00  0.00    -0.324 N 
ATOM     72  C   UNL A   1      33.538  25.109  25.983  1.00  0.00     0.004 C 
ATOM     73  C   UNL A   1      31.432  24.796  24.611  1.00  0.00     0.121 C 
ATOM     74  C   UNL A   1      32.784  24.206  25.009  1.00  0.00     0.022 C 
BRANCH  71  75
ATOM     75  C   UNL A   1      31.338  26.583  22.819  1.00  0.00     0.291 C 
ATOM     76  O   UNL A   1      31.651  25.882  21.855  1.00  0.00    -0.265 OA
BRANCH  75  77
ATOM     77  C   UNL A   1      30.598  27.805  22.627  1.00  0.00     0.214 A 
ATOM     78  N   UNL A   1      29.373  28.065  23.041  1.00  0.00    -0.207 NA
ATOM     79  N   UNL A   1      31.081  28.897  21.970  1.00  0.00    -0.255 N 
ATOM     80  C   UNL A   1      29.125  29.310  22.525  1.00  0.00     0.154 A 
ATOM     81  N   UNL A   1      30.131  29.833  21.813  1.00  0.00    -0.158 NA
ATOM     82  H   UNL A   1      32.009  28.988  21.652  1.00  0.00     0.192 HD
BRANCH  80  83
ATOM     83  C   UNL A   1      27.808  30.039  22.717  1.00  0.00     0.060 C 
ATOM     84  C   UNL A   1      27.739  31.158  23.737  1.00  0.00     0.012 C 
ATOM     85  C   UNL A   1      27.714  31.488  22.283  1.00  0.00     0.012 C 
ENDBRANCH  80  83
ENDBRANCH  75  77
ENDBRANCH  71  75
ENDBRANCH  66  69
ENDBRANCH  64  65
ENDBRANCH   1  64
TORSDOF 14
ENDMDL
MODEL 2
REMARK VINA RESULT:     -12.2      4.930      9.388
REMARK SMILES O=C(NCCCCNC(=O)[C@H]1CCCCN1C(=O)c1nc(C2CC2)n[nH]1)c1ccc(-c2c3nc(c(-c4c(F)cccc4F)c4ccc([nH]4)c(-c4c(F)cccc4F)c4nc(c(-c5c(F)cccc5F)c5ccc2[nH]5)C=C4)C=C3)cc1
REMARK SMILES IDX 6 1 5 2 4 3 3 4 1 5 2 6 27 8 28 9 80 10 29 11 79 12 30 13
REMARK SMILES IDX 31 14 32 15 73 16 33 17 78 18 72 19 74 20 34 21 77 22 71 23
REMARK SMILES IDX 70 24 35 26 61 27 44 28 60 29 45 30 48 31 59 32 75 33 46 34
REMARK SMILES IDX 47 35 58 37 76 38 49 39 36 40 37 41 42 42 38 43 39 44 41 45
REMARK SMILES IDX 43 46 40 47 62 48 63 49 68 50 64 51 65 52 67 53 69 54 66 55
REMARK SMILES IDX 50 56 51 57 56 58 52 59 53 60 55 61 57 62 54 63 7 64 8 65
REMARK SMILES IDX 9 66 10 68 11 69 12 70 16 71 13 72 15 73 14 74 17 75 18 76
REMARK SMILES IDX 19 77 20 78 26 79 21 80 25 81 22 83 23 84 24 85
REMARK H PARENT 3 7 74 25 48 36 8 67 26 82
REMARK Flexibility Score: inf
ROOT
ATOM      1  C   UNL A   1      36.430  20.352  24.992  1.00  0.00     0.023 C 
ENDROOT
BRANCH   1   2
ATOM      2  C   UNL A   1      37.714  19.519  24.915  1.00  0.00     0.023 C 
BRANCH   2   3
ATOM      3  C   UNL A   1      38.930  20.128  25.605  1.00  0.00     0.116 C 
BRANCH   3   4
ATOM      4  N   UNL A   1      40.043  19.200  25.709  1.00  0.00    -0.352 N 
ATOM      5  O   UNL A   1      42.190  18.571  25.995  1.00  0.00    -0.269 OA
ATOM      6  C   UNL A   1      41.337  19.448  26.093  1.00  0.00     0.251 C 
ATOM      7  H   UNL A   1      39.842  18.266  25.472  1.00  0.00     0.163 HD
BRANCH   6   8
ATOM      8  C   UNL A   1      41.708  20.785  26.604  1.00  0.00     0.039 A 
ATOM      9  C   UNL A   1      41.644  21.073  27.969  1.00  0.00     0.014 A 
ATOM     10  C   UNL A   1      42.139  21.759  25.699  1.00  0.00     0.014 A 
ATOM     11  C   UNL A   1      41.901  22.365  28.417  1.00  0.00     0.010 A 
ATOM     12  C   UNL A   1      42.463  23.038  26.157  1.00  0.00     0.010 A 
ATOM     13  C   UNL A   1      42.325  23.357  27.516  1.00  0.00    -0.014 A 
BRANCH  13  14
ATOM     14  C   UNL A   1      42.686  24.701  28.028  1.00  0.00     0.031 A 
ATOM     15  C   UNL A   1      41.638  25.751  28.266  1.00  0.00     0.074 A 
ATOM     16  C   UNL A   1      43.979  24.965  28.292  1.00  0.00     0.049 A 
ATOM     17  N   UNL A   1      41.785  26.974  28.710  1.00  0.00    -0.248 NA
ATOM     18  C   UNL A   1      40.246  25.385  27.961  1.00  0.00     0.031 C 
ATOM     19  C   UNL A   1      45.088  24.028  28.089  1.00  0.00     0.029 A 
ATOM     20  N   UNL A   1      44.582  26.089  28.796  1.00  0.00    -0.354 N 
ATOM     21  C   UNL A   1      40.512  27.528  28.726  1.00  0.00     0.074 A 
ATOM     22  C   UNL A   1      39.606  26.517  28.224  1.00  0.00     0.031 C 
ATOM     23  C   UNL A   1      46.228  24.601  28.499  1.00  0.00     0.029 A 
ATOM     24  C   UNL A   1      45.941  25.961  28.942  1.00  0.00     0.049 A 
ATOM     25  H   UNL A   1      44.088  26.907  29.030  1.00  0.00     0.167 HD
ATOM     26  C   UNL A   1      40.135  28.766  29.130  1.00  0.00     0.037 A 
ATOM     27  C   UNL A   1      46.861  26.845  29.369  1.00  0.00     0.037 A 
ATOM     28  C   UNL A   1      41.038  29.765  29.641  1.00  0.00     0.049 A 
ATOM     29  C   UNL A   1      46.418  28.216  29.785  1.00  0.00     0.074 A 
ATOM     30  C   UNL A   1      40.746  31.035  30.110  1.00  0.00     0.029 A 
ATOM     31  N   UNL A   1      42.412  29.609  29.745  1.00  0.00    -0.354 N 
ATOM     32  N   UNL A   1      45.207  28.716  29.824  1.00  0.00    -0.248 NA
ATOM     33  C   UNL A   1      47.469  29.150  30.211  1.00  0.00     0.031 C 
ATOM     34  C   UNL A   1      41.947  31.661  30.461  1.00  0.00     0.029 A 
ATOM     35  C   UNL A   1      42.984  30.766  30.250  1.00  0.00     0.049 A 
ATOM     36  H   UNL A   1      42.909  28.796  29.498  1.00  0.00     0.167 HD
ATOM     37  C   UNL A   1      45.347  30.016  30.286  1.00  0.00     0.074 A 
ATOM     38  C   UNL A   1      46.760  30.222  30.535  1.00  0.00     0.031 C 
ATOM     39  C   UNL A   1      44.392  30.955  30.486  1.00  0.00     0.037 A 
BRANCH  26  40
ATOM     40  C   UNL A   1      38.680  29.118  29.026  1.00  0.00     0.057 A 
ATOM     41  C   UNL A   1      37.816  29.024  30.124  1.00  0.00     0.134 A 
ATOM     42  C   UNL A   1      38.148  29.606  27.826  1.00  0.00     0.134 A 
ATOM     43  F   UNL A   1      38.261  28.554  31.300  1.00  0.00    -0.206 F 
ATOM     44  C   UNL A   1      36.472  29.388  30.030  1.00  0.00     0.040 A 
ATOM     45  C   UNL A   1      36.810  29.993  27.723  1.00  0.00     0.040 A 
ATOM     46  F   UNL A   1      38.922  29.727  26.737  1.00  0.00    -0.206 F 
ATOM     47  C   UNL A   1      35.966  29.880  28.827  1.00  0.00     0.006 A 
ENDBRANCH  26  40
BRANCH  27  48
ATOM     48  C   UNL A   1      48.289  26.453  29.419  1.00  0.00     0.057 A 
ATOM     49  C   UNL A   1      49.154  26.736  28.357  1.00  0.00     0.134 A 
ATOM     50  C   UNL A   1      48.827  25.806  30.539  1.00  0.00     0.134 A 
ATOM     51  F   UNL A   1      48.691  27.339  27.252  1.00  0.00    -0.206 F 
ATOM     52  C   UNL A   1      50.503  26.383  28.402  1.00  0.00     0.040 A 
ATOM     53  C   UNL A   1      50.179  25.470  30.607  1.00  0.00     0.040 A 
ATOM     54  F   UNL A   1      48.049  25.516  31.591  1.00  0.00    -0.206 F 
ATOM     55  C   UNL A   1      51.020  25.755  29.534  1.00  0.00     0.006 A 
ENDBRANCH  27  48
BRANCH  39  56
ATOM     56  C   UNL A   1      44.847  32.284  31.011  1.00  0.00     0.057 A 
ATOM     57  C   UNL A   1      45.186  33.335  30.151  1.00  0.00     0.134 A 
ATOM     58  C   UNL A   1      44.922  32.519  32.389  1.00  0.00     0.134 A 
ATOM     59  F   UNL A   1      45.150  33.166  28.822  1.00  0.00    -0.206 F 
ATOM     60  C   UNL A   1      45.605  34.572  30.646  1.00  0.00     0.040 A 
ATOM     61  C   UNL A   1      45.317  33.758  32.895  1.00  0.00     0.040 A 
ATOM     62  F   UNL A   1      44.604  31.552  33.264  1.00  0.00    -0.206 F 
ATOM     63  C   UNL A   1      45.665  34.786  32.022  1.00  0.00     0.006 A 
ENDBRANCH  39  56
ENDBRANCH  13  14
ENDBRANCH   6   8
ENDBRANCH   3   4
ENDBRANCH   2   3
ENDBRANCH   1   2
BRANCH   1  64
ATOM     64  C   UNL A   1      36.653  21.864  25.023  1.00  0.00     0.116 C 
BRANCH  64  65
ATOM     65  N   UNL A   1      36.192  22.488  23.798  1.00  0.00    -0.354 N 
ATOM     66  C   UNL A   1      34.984  23.056  23.508  1.00  0.00     0.242 C 
ATOM     67  H   UNL A   1      36.848  22.503  23.064  1.00  0.00     0.163 HD
ATOM     68  O   UNL A   1      34.806  23.411  22.342  1.00  0.00    -0.273 OA
BRANCH  66  69
ATOM     69  C   UNL A   1      33.979  23.335  24.653  1.00  0.00     0.174 C 
ATOM     70  C   UNL A   1      34.126  24.786  25.135  1.00  0.00     0.035 C 
ATOM     71  N   UNL A   1      32.573  23.067  24.305  1.00  0.00    -0.324 N 
ATOM     72  C   UNL A   1      33.538  25.779  24.130  1.00  0.00     0.004 C 
ATOM     73  C   UNL A   1      31.965  23.968  23.317  1.00  0.00     0.121 C 
ATOM     74  C   UNL A   1      32.097  25.420  23.775  1.00  0.00     0.022 C 
BRANCH  71  75
ATOM     75  C   UNL A   1      31.855  22.126  25.052  1.00  0.00     0.291 C 
ATOM     76  O   UNL A   1      30.867  22.452  25.712  1.00  0.00    -0.265 OA
BRANCH  75  77
ATOM     77  C   UNL A   1      32.245  20.743  24.950  1.00  0.00     0.214 A 
ATOM     78  N   UNL A   1      32.379  20.035  23.844  1.00  0.00    -0.207 NA
ATOM     79  N   UNL A   1      32.539  19.949  26.018  1.00  0.00    -0.255 N 
ATOM     80  C   UNL A   1      32.672  18.780  24.309  1.00  0.00     0.154 A 
ATOM     81  N   UNL A   1      32.725  18.673  25.642  1.00  0.00    -0.158 NA
ATOM     82  H   UNL A   1      32.607  20.270  26.946  1.00  0.00     0.192 HD
BRANCH  80  83
ATOM     83  C   UNL A   1      32.896  17.589  23.394  1.00  0.00     0.060 C 
ATOM     84  C   UNL A   1      34.308  17.072  23.208  1.00  0.00     0.012 C 
ATOM     85  C   UNL A   1      33.335  16.277  24.010  1.00  0.00     0.012 C 
ENDBRANCH  80  83
ENDBRANCH  75  77
ENDBRANCH  71  75
ENDBRANCH  66  69
ENDBRANCH  64  65
ENDBRANCH   1  64
TORSDOF 14
ENDMDL
MODEL 3
REMARK VINA RESULT:     -12.1      5.451     10.457
REMARK SMILES O=C(NCCCCNC(=O)[C@H]1CCCCN1C(=O)c1nc(C2CC2)n[nH]1)c1ccc(-c2c3nc(c(-c4c(F)cccc4F)c4ccc([nH]4)c(-c4c(F)cccc4F)c4nc(c(-c5c(F)cccc5F)c5ccc2[nH]5)C=C4)C=C3)cc1
REMARK SMILES IDX 6 1 5 2 4 3 3 4 1 5 2 6 27 8 28 9 80 10 29 11 79 12 30 13
REMARK SMILES IDX 31 14 32 15 73 16 33 17 78 18 72 19 74 20 34 21 77 22 71 23
REMARK SMILES IDX 70 24 35 26 61 27 44 28 60 29 45 30 48 31 59 32 75 33 46 34
REMARK SMILES IDX 47 35 58 37 76 38 49 39 36 40 37 41 42 42 38 43 39 44 41 45
REMARK SMILES IDX 43 46 40 47 62 48 63 49 68 50 64 51 65 52 67 53 69 54 66 55
REMARK SMILES IDX 50 56 51 57 56 58 52 59 53 60 55 61 57 62 54 63 7 64 8 65
REMARK SMILES IDX 9 66 10 68 11 69 12 70 16 71 13 72 15 73 14 74 17 75 18 76
REMARK SMILES IDX 19 77 20 78 26 79 21 80 25 81 22 83 23 84 24 85
REMARK H PARENT 3 7 74 25 48 36 8 67 26 82
REMARK Flexibility Score: inf
ROOT
ATOM      1  C   UNL A   1      36.420  19.703  25.001  1.00  0.00     0.023 C 
ENDROOT
BRANCH   1   2
ATOM      2  C   UNL A   1      37.894  19.546  24.612  1.00  0.00     0.023 C 
BRANCH   2   3
ATOM      3  C   UNL A   1      38.898  19.875  25.712  1.00  0.00     0.116 C 
BRANCH   3   4
ATOM      4  N   UNL A   1      39.996  18.925  25.775  1.00  0.00    -0.352 N 
ATOM      5  O   UNL A   1      42.147  18.257  25.897  1.00  0.00    -0.269 OA
ATOM      6  C   UNL A   1      41.327  19.163  26.014  1.00  0.00     0.251 C 
ATOM      7  H   UNL A   1      39.753  17.983  25.625  1.00  0.00     0.163 HD
BRANCH   6   8
ATOM      8  C   UNL A   1      41.774  20.521  26.389  1.00  0.00     0.039 A 
ATOM      9  C   UNL A   1      41.905  20.886  27.731  1.00  0.00     0.014 A 
ATOM     10  C   UNL A   1      42.079  21.436  25.377  1.00  0.00     0.014 A 
ATOM     11  C   UNL A   1      42.231  22.198  28.062  1.00  0.00     0.010 A 
ATOM     12  C   UNL A   1      42.472  22.735  25.711  1.00  0.00     0.010 A 
ATOM     13  C   UNL A   1      42.530  23.131  27.055  1.00  0.00    -0.014 A 
BRANCH  13  14
ATOM     14  C   UNL A   1      42.967  24.497  27.432  1.00  0.00     0.031 A 
ATOM     15  C   UNL A   1      44.412  24.900  27.362  1.00  0.00     0.074 A 
ATOM     16  C   UNL A   1      42.036  25.385  27.831  1.00  0.00     0.049 A 
ATOM     17  N   UNL A   1      44.959  26.053  27.655  1.00  0.00    -0.248 NA
ATOM     18  C   UNL A   1      45.368  23.878  26.911  1.00  0.00     0.031 C 
ATOM     19  C   UNL A   1      40.602  25.104  27.950  1.00  0.00     0.029 A 
ATOM     20  N   UNL A   1      42.148  26.701  28.197  1.00  0.00    -0.354 N 
ATOM     21  C   UNL A   1      46.322  25.893  27.438  1.00  0.00     0.074 A 
ATOM     22  C   UNL A   1      46.522  24.525  27.011  1.00  0.00     0.031 C 
ATOM     23  C   UNL A   1      39.966  26.222  28.325  1.00  0.00     0.029 A 
ATOM     24  C   UNL A   1      40.948  27.282  28.524  1.00  0.00     0.049 A 
ATOM     25  H   UNL A   1      43.007  27.182  28.224  1.00  0.00     0.167 HD
ATOM     26  C   UNL A   1      47.312  26.809  27.576  1.00  0.00     0.037 A 
ATOM     27  C   UNL A   1      40.668  28.525  28.954  1.00  0.00     0.037 A 
ATOM     28  C   UNL A   1      47.106  28.173  27.989  1.00  0.00     0.049 A 
ATOM     29  C   UNL A   1      41.787  29.510  29.123  1.00  0.00     0.074 A 
ATOM     30  C   UNL A   1      48.041  29.185  28.123  1.00  0.00     0.029 A 
ATOM     31  N   UNL A   1      45.879  28.716  28.341  1.00  0.00    -0.354 N 
ATOM     32  N   UNL A   1      43.066  29.353  28.884  1.00  0.00    -0.248 NA
ATOM     33  C   UNL A   1      41.426  30.842  29.626  1.00  0.00     0.031 C 
ATOM     34  C   UNL A   1      47.387  30.330  28.592  1.00  0.00     0.029 A 
ATOM     35  C   UNL A   1      46.037  30.042  28.712  1.00  0.00     0.049 A 
ATOM     36  H   UNL A   1      45.022  28.231  28.328  1.00  0.00     0.167 HD
ATOM     37  C   UNL A   1      43.662  30.566  29.197  1.00  0.00     0.074 A 
ATOM     38  C   UNL A   1      42.600  31.456  29.624  1.00  0.00     0.031 C 
ATOM     39  C   UNL A   1      44.970  30.911  29.139  1.00  0.00     0.037 A 
BRANCH  26  40
ATOM     40  C   UNL A   1      48.716  26.363  27.289  1.00  0.00     0.057 A 
ATOM     41  C   UNL A   1      49.268  26.443  26.005  1.00  0.00     0.134 A 
ATOM     42  C   UNL A   1      49.541  25.896  28.320  1.00  0.00     0.134 A 
ATOM     43  F   UNL A   1      48.527  26.872  24.971  1.00  0.00    -0.206 F 
ATOM     44  C   UNL A   1      50.587  26.060  25.753  1.00  0.00     0.040 A 
ATOM     45  C   UNL A   1      50.868  25.529  28.085  1.00  0.00     0.040 A 
ATOM     46  F   UNL A   1      49.076  25.801  29.575  1.00  0.00    -0.206 F 
ATOM     47  C   UNL A   1      51.393  25.608  26.796  1.00  0.00     0.006 A 
ENDBRANCH  26  40
BRANCH  27  48
ATOM     48  C   UNL A   1      39.266  28.900  29.254  1.00  0.00     0.057 A 
ATOM     49  C   UNL A   1      38.723  28.705  30.529  1.00  0.00     0.134 A 
ATOM     50  C   UNL A   1      38.445  29.483  28.282  1.00  0.00     0.134 A 
ATOM     51  F   UNL A   1      39.458  28.136  31.495  1.00  0.00    -0.206 F 
ATOM     52  C   UNL A   1      37.408  29.068  30.824  1.00  0.00     0.040 A 
ATOM     53  C   UNL A   1      37.137  29.873  28.571  1.00  0.00     0.040 A 
ATOM     54  F   UNL A   1      38.912  29.703  27.044  1.00  0.00    -0.206 F 
ATOM     55  C   UNL A   1      36.614  29.661  29.844  1.00  0.00     0.006 A 
ENDBRANCH  27  48
BRANCH  39  56
ATOM     56  C   UNL A   1      45.319  32.315  29.533  1.00  0.00     0.057 A 
ATOM     57  C   UNL A   1      45.696  32.637  30.842  1.00  0.00     0.134 A 
ATOM     58  C   UNL A   1      45.303  33.347  28.588  1.00  0.00     0.134 A 
ATOM     59  F   UNL A   1      45.715  31.695  31.796  1.00  0.00    -0.206 F 
ATOM     60  C   UNL A   1      46.025  33.945  31.203  1.00  0.00     0.040 A 
ATOM     61  C   UNL A   1      45.651  34.654  28.931  1.00  0.00     0.040 A 
ATOM     62  F   UNL A   1      44.956  33.100  27.315  1.00  0.00    -0.206 F 
ATOM     63  C   UNL A   1      46.007  34.956  30.243  1.00  0.00     0.006 A 
ENDBRANCH  39  56
ENDBRANCH  13  14
ENDBRANCH   6   8
ENDBRANCH   3   4
ENDBRANCH   2   3
ENDBRANCH   1   2
BRANCH   1  64
ATOM     64  C   UNL A   1      36.007  21.126  25.375  1.00  0.00     0.116 C 
BRANCH  64  65
ATOM     65  N   UNL A   1      36.260  22.049  24.286  1.00  0.00    -0.354 N 
ATOM     66  C   UNL A   1      35.457  23.023  23.764  1.00  0.00     0.242 C 
ATOM     67  H   UNL A   1      37.142  21.959  23.858  1.00  0.00     0.163 HD
ATOM     68  O   UNL A   1      35.868  23.593  22.752  1.00  0.00    -0.273 OA
BRANCH  66  69
ATOM     69  C   UNL A   1      34.171  23.438  24.520  1.00  0.00     0.174 C 
ATOM     70  C   UNL A   1      34.054  24.969  24.547  1.00  0.00     0.035 C 
ATOM     71  N   UNL A   1      32.933  22.854  23.978  1.00  0.00    -0.324 N 
ATOM     72  C   UNL A   1      33.651  25.531  23.181  1.00  0.00     0.004 C 
ATOM     73  C   UNL A   1      32.516  23.330  22.652  1.00  0.00     0.121 C 
ATOM     74  C   UNL A   1      32.390  24.853  22.654  1.00  0.00     0.022 C 
BRANCH  71  75
ATOM     75  C   UNL A   1      32.140  22.053  24.807  1.00  0.00     0.291 C 
ATOM     76  O   UNL A   1      31.187  22.523  25.431  1.00  0.00    -0.265 OA
BRANCH  75  77
ATOM     77  C   UNL A   1      32.407  20.637  24.834  1.00  0.00     0.214 A 
ATOM     78  N   UNL A   1      32.575  19.840  23.797  1.00  0.00    -0.207 NA
ATOM     79  N   UNL A   1      32.527  19.903  25.976  1.00  0.00    -0.255 N 
ATOM     80  C   UNL A   1      32.706  18.602  24.370  1.00  0.00     0.154 A 
ATOM     81  N   UNL A   1      32.627  18.591  25.706  1.00  0.00    -0.158 NA
ATOM     82  H   UNL A   1      32.540  20.286  26.883  1.00  0.00     0.192 HD
BRANCH  80  83
ATOM     83  C   UNL A   1      32.902  17.332  23.562  1.00  0.00     0.060 C 
ATOM     84  C   UNL A   1      34.304  16.956  23.126  1.00  0.00     0.012 C 
ATOM     85  C   UNL A   1      33.635  16.173  24.204  1.00  0.00     0.012 C 
ENDBRANCH  80  83
ENDBRANCH  75  77
ENDBRANCH  71  75
ENDBRANCH  66  69
ENDBRANCH  64  65
ENDBRANCH   1  64
TORSDOF 14
ENDMDL
