MODEL 1
REMARK VINA RESULT:      -9.8      0.000      0.000
REMARK SMILES C[C@H](Cc1cccs1)N(C)C(=O)[C@@H]([NH3+])CCC(=O)NCCCCNC(=O)c1ccc(-c2c3nc(c(-c4c(F)cccc4F)c4ccc([nH]4)c(-c4c(F)cccc4F)c4nc(c(-c5c(F)cccc5F)c5ccc2[nH]5)C=C4)C=C3)cc1
REMARK SMILES IDX 17 1 18 2 19 3 16 5 15 6 13 7 11 8 12 9 9 10 10 11 2 12 1 13
REMARK SMILES IDX 3 14 4 15 5 16 8 17 6 18 7 19 14 20 20 24 21 25 22 26 23 27
REMARK SMILES IDX 24 28 25 29 26 31 27 32 28 33 80 34 29 35 79 36 30 37 31 38
REMARK SMILES IDX 32 39 73 40 33 41 78 42 72 43 74 44 34 45 77 46 71 47 70 48
REMARK SMILES IDX 35 50 61 51 44 52 60 53 45 54 48 55 59 56 75 57 46 58 47 59
REMARK SMILES IDX 58 61 76 62 49 63 36 64 37 65 42 66 38 67 39 68 41 69 43 70
REMARK SMILES IDX 40 71 62 72 63 73 68 74 64 75 65 76 67 77 69 78 66 79 50 80
REMARK SMILES IDX 51 81 56 82 52 83 53 84 55 85 57 86 54 87
REMARK H PARENT 19 4 14 21 14 22 14 23 24 30 74 49 48 60
REMARK Flexibility Score: inf
ROOT
ATOM      1  C   UNL A   1      30.872  27.260  23.340  1.00  0.00     0.220 C 
ATOM      2  O   UNL A   1      31.238  26.614  22.357  1.00  0.00    -0.275 OA
ATOM      3  N   UNL A   1      31.405  28.496  23.530  1.00  0.00    -0.356 N 
ATOM      4  H   UNL A   1      31.969  28.822  22.792  1.00  0.00     0.163 HD
ENDROOT
BRANCH   1   5
ATOM      5  C   UNL A   1      29.848  26.688  24.304  1.00  0.00     0.106 C 
BRANCH   5   6
ATOM      6  C   UNL A   1      30.467  26.187  25.619  1.00  0.00     0.085 C 
BRANCH   6   7
ATOM      7  C   UNL A   1      30.542  24.659  25.730  1.00  0.00     0.271 C 
BRANCH   7   8
ATOM      8  C   UNL A   1      31.996  24.118  25.748  1.00  0.00     0.280 C 
ATOM      9  O   UNL A   1      32.479  23.838  26.852  1.00  0.00    -0.268 OA
BRANCH   8  10
ATOM     10  N   UNL A   1      32.695  23.845  24.577  1.00  0.00    -0.338 N 
ATOM     11  C   UNL A   1      32.166  23.064  23.467  1.00  0.00     0.147 C 
BRANCH  10  12
ATOM     12  C   UNL A   1      34.150  24.158  24.520  1.00  0.00     0.087 C 
ATOM     13  C   UNL A   1      34.347  25.522  23.842  1.00  0.00     0.031 C 
BRANCH  12  14
ATOM     14  C   UNL A   1      35.016  22.998  23.955  1.00  0.00     0.071 C 
BRANCH  14  15
ATOM     15  C   UNL A   1      36.299  22.762  24.704  1.00  0.00     0.007 A 
ATOM     16  C   UNL A   1      37.082  23.705  25.343  1.00  0.00     0.015 A 
ATOM     17  S   UNL A   1      36.973  21.195  24.832  1.00  0.00    -0.149 S 
ATOM     18  C   UNL A   1      38.228  23.131  25.961  1.00  0.00     0.012 A 
ATOM     19  C   UNL A   1      38.297  21.772  25.749  1.00  0.00     0.065 A 
ENDBRANCH  14  15
ENDBRANCH  12  14
ENDBRANCH  10  12
ENDBRANCH   8  10
ENDBRANCH   7   8
BRANCH   7  20
ATOM     20  N   UNL A   1      29.730  24.124  26.837  1.00  0.00    -0.347 N 
ATOM     21  H   UNL A   1      30.253  24.202  27.710  1.00  0.00     0.345 HD
ATOM     22  H   UNL A   1      29.513  23.143  26.657  1.00  0.00     0.345 HD
ATOM     23  H   UNL A   1      28.864  24.656  26.912  1.00  0.00     0.345 HD
ENDBRANCH   7  20
ENDBRANCH   6   7
ENDBRANCH   5   6
ENDBRANCH   1   5
BRANCH   3  24
ATOM     24  C   UNL A   1      31.273  29.412  24.648  1.00  0.00     0.116 C 
BRANCH  24  25
ATOM     25  C   UNL A   1      32.648  29.730  25.245  1.00  0.00     0.023 C 
BRANCH  25  26
ATOM     26  C   UNL A   1      33.337  28.552  25.916  1.00  0.00     0.023 C 
BRANCH  26  27
ATOM     27  C   UNL A   1      33.562  28.738  27.408  1.00  0.00     0.116 C 
BRANCH  27  28
ATOM     28  N   UNL A   1      33.653  30.129  27.834  1.00  0.00    -0.352 N 
ATOM     29  C   UNL A   1      34.772  30.792  28.304  1.00  0.00     0.251 C 
ATOM     30  H   UNL A   1      32.823  30.656  27.780  1.00  0.00     0.163 HD
ATOM     31  O   UNL A   1      34.727  31.942  28.692  1.00  0.00    -0.269 OA
BRANCH  29  32
ATOM     32  C   UNL A   1      36.037  30.026  28.366  1.00  0.00     0.039 A 
ATOM     33  C   UNL A   1      36.908  30.063  27.275  1.00  0.00     0.014 A 
ATOM     34  C   UNL A   1      36.413  29.419  29.565  1.00  0.00     0.014 A 
ATOM     35  C   UNL A   1      38.208  29.578  27.424  1.00  0.00     0.010 A 
ATOM     36  C   UNL A   1      37.732  29.025  29.738  1.00  0.00     0.010 A 
ATOM     37  C   UNL A   1      38.646  29.111  28.673  1.00  0.00    -0.014 A 
BRANCH  37  38
ATOM     38  C   UNL A   1      40.047  28.684  28.916  1.00  0.00     0.031 A 
ATOM     39  C   UNL A   1      41.022  29.678  29.482  1.00  0.00     0.074 A 
ATOM     40  C   UNL A   1      40.472  27.468  28.520  1.00  0.00     0.049 A 
ATOM     41  N   UNL A   1      42.325  29.611  29.557  1.00  0.00    -0.248 NA
ATOM     42  C   UNL A   1      40.452  30.939  29.983  1.00  0.00     0.031 C 
ATOM     43  C   UNL A   1      39.640  26.427  27.916  1.00  0.00     0.029 A 
ATOM     44  N   UNL A   1      41.728  26.914  28.545  1.00  0.00    -0.354 N 
ATOM     45  C   UNL A   1      42.733  30.840  30.057  1.00  0.00     0.074 A 
ATOM     46  C   UNL A   1      41.544  31.644  30.234  1.00  0.00     0.031 C 
ATOM     47  C   UNL A   1      40.403  25.353  27.646  1.00  0.00     0.029 A 
ATOM     48  C   UNL A   1      41.784  25.647  28.014  1.00  0.00     0.049 A 
ATOM     49  H   UNL A   1      42.515  27.380  28.909  1.00  0.00     0.167 HD
ATOM     50  C   UNL A   1      43.985  31.258  30.356  1.00  0.00     0.037 A 
ATOM     51  C   UNL A   1      42.835  24.824  27.835  1.00  0.00     0.037 A 
ATOM     52  C   UNL A   1      45.155  30.430  30.250  1.00  0.00     0.049 A 
ATOM     53  C   UNL A   1      44.208  25.283  28.239  1.00  0.00     0.074 A 
ATOM     54  C   UNL A   1      46.460  30.734  30.591  1.00  0.00     0.029 A 
ATOM     55  N   UNL A   1      45.153  29.124  29.786  1.00  0.00    -0.354 N 
ATOM     56  N   UNL A   1      44.578  26.440  28.734  1.00  0.00    -0.248 NA
ATOM     57  C   UNL A   1      45.310  24.326  28.061  1.00  0.00     0.031 C 
ATOM     58  C   UNL A   1      47.252  29.612  30.324  1.00  0.00     0.029 A 
ATOM     59  C   UNL A   1      46.434  28.605  29.842  1.00  0.00     0.049 A 
ATOM     60  H   UNL A   1      44.358  28.638  29.467  1.00  0.00     0.167 HD
ATOM     61  C   UNL A   1      45.944  26.338  28.957  1.00  0.00     0.074 A 
ATOM     62  C   UNL A   1      46.340  25.008  28.544  1.00  0.00     0.031 C 
ATOM     63  C   UNL A   1      46.795  27.265  29.460  1.00  0.00     0.037 A 
BRANCH  50  64
ATOM     64  C   UNL A   1      44.142  32.668  30.835  1.00  0.00     0.057 A 
ATOM     65  C   UNL A   1      44.339  33.733  29.946  1.00  0.00     0.134 A 
ATOM     66  C   UNL A   1      44.091  32.967  32.202  1.00  0.00     0.134 A 
ATOM     67  F   UNL A   1      44.417  33.509  28.626  1.00  0.00    -0.206 F 
ATOM     68  C   UNL A   1      44.510  35.040  30.402  1.00  0.00     0.040 A 
ATOM     69  C   UNL A   1      44.234  34.275  32.668  1.00  0.00     0.040 A 
ATOM     70  F   UNL A   1      43.902  31.993  33.107  1.00  0.00    -0.206 F 
ATOM     71  C   UNL A   1      44.452  35.315  31.766  1.00  0.00     0.006 A 
ENDBRANCH  50  64
BRANCH  51  72
ATOM     72  C   UNL A   1      42.630  23.466  27.271  1.00  0.00     0.057 A 
ATOM     73  C   UNL A   1      42.339  22.382  28.107  1.00  0.00     0.134 A 
ATOM     74  C   UNL A   1      42.726  23.216  25.898  1.00  0.00     0.134 A 
ATOM     75  F   UNL A   1      42.254  22.558  29.434  1.00  0.00    -0.206 F 
ATOM     76  C   UNL A   1      42.170  21.092  27.601  1.00  0.00     0.040 A 
ATOM     77  C   UNL A   1      42.539  21.935  25.376  1.00  0.00     0.040 A 
ATOM     78  F   UNL A   1      42.996  24.214  25.044  1.00  0.00    -0.206 F 
ATOM     79  C   UNL A   1      42.266  20.868  26.230  1.00  0.00     0.006 A 
ENDBRANCH  51  72
BRANCH  63  80
ATOM     80  C   UNL A   1      48.223  26.858  29.652  1.00  0.00     0.057 A 
ATOM     81  C   UNL A   1      48.649  26.180  30.798  1.00  0.00     0.134 A 
ATOM     82  C   UNL A   1      49.163  27.081  28.637  1.00  0.00     0.134 A 
ATOM     83  F   UNL A   1      47.795  25.947  31.807  1.00  0.00    -0.206 F 
ATOM     84  C   UNL A   1      49.967  25.740  30.933  1.00  0.00     0.040 A 
ATOM     85  C   UNL A   1      50.478  26.631  28.754  1.00  0.00     0.040 A 
ATOM     86  F   UNL A   1      48.811  27.720  27.512  1.00  0.00    -0.206 F 
ATOM     87  C   UNL A   1      50.882  25.958  29.905  1.00  0.00     0.006 A 
ENDBRANCH  63  80
ENDBRANCH  37  38
ENDBRANCH  29  32
ENDBRANCH  27  28
ENDBRANCH  26  27
ENDBRANCH  25  26
ENDBRANCH  24  25
ENDBRANCH   3  24
TORSDOF 19
ENDMDL
MODEL 2
REMARK VINA RESULT:      -9.7      3.919      5.422
REMARK SMILES C[C@H](Cc1cccs1)N(C)C(=O)[C@@H]([NH3+])CCC(=O)NCCCCNC(=O)c1ccc(-c2c3nc(c(-c4c(F)cccc4F)c4ccc([nH]4)c(-c4c(F)cccc4F)c4nc(c(-c5c(F)cccc5F)c5ccc2[nH]5)C=C4)C=C3)cc1
REMARK SMILES IDX 17 1 18 2 19 3 16 5 15 6 13 7 11 8 12 9 9 10 10 11 2 12 1 13
REMARK SMILES IDX 3 14 4 15 5 16 8 17 6 18 7 19 14 20 20 24 21 25 22 26 23 27
REMARK SMILES IDX 24 28 25 29 26 31 27 32 28 33 80 34 29 35 79 36 30 37 31 38
REMARK SMILES IDX 32 39 73 40 33 41 78 42 72 43 74 44 34 45 77 46 71 47 70 48
REMARK SMILES IDX 35 50 61 51 44 52 60 53 45 54 48 55 59 56 75 57 46 58 47 59
REMARK SMILES IDX 58 61 76 62 49 63 36 64 37 65 42 66 38 67 39 68 41 69 43 70
REMARK SMILES IDX 40 71 62 72 63 73 68 74 64 75 65 76 67 77 69 78 66 79 50 80
REMARK SMILES IDX 51 81 56 82 52 83 53 84 55 85 57 86 54 87
REMARK H PARENT 19 4 14 21 14 22 14 23 24 30 74 49 48 60
REMARK Flexibility Score: inf
ROOT
ATOM      1  C   UNL A   1      33.538  28.100  25.101  1.00  0.00     0.220 C 
ATOM      2  O   UNL A   1      33.771  27.812  23.925  1.00  0.00    -0.275 OA
ATOM      3  N   UNL A   1      33.610  29.407  25.467  1.00  0.00    -0.356 N 
ATOM      4  H   UNL A   1      33.740  30.039  24.723  1.00  0.00     0.163 HD
ENDROOT
BRANCH   1   5
ATOM      5  C   UNL A   1      33.172  27.021  26.103  1.00  0.00     0.106 C 
BRANCH   5   6
ATOM      6  C   UNL A   1      31.656  26.825  26.257  1.00  0.00     0.085 C 
BRANCH   6   7
ATOM      7  C   UNL A   1      31.105  25.608  25.504  1.00  0.00     0.271 C 
BRANCH   7   8
ATOM      8  C   UNL A   1      31.668  24.260  26.026  1.00  0.00     0.280 C 
ATOM      9  O   UNL A   1      31.652  24.079  27.250  1.00  0.00    -0.268 OA
BRANCH   8  10
ATOM     10  N   UNL A   1      32.066  23.244  25.164  1.00  0.00    -0.338 N 
ATOM     11  C   UNL A   1      32.140  21.836  25.531  1.00  0.00     0.147 C 
BRANCH  10  12
ATOM     12  C   UNL A   1      32.678  23.610  23.857  1.00  0.00     0.087 C 
ATOM     13  C   UNL A   1      32.678  22.381  22.936  1.00  0.00     0.031 C 
BRANCH  12  14
ATOM     14  C   UNL A   1      34.040  24.347  23.989  1.00  0.00     0.071 C 
BRANCH  14  15
ATOM     15  C   UNL A   1      35.188  23.460  24.384  1.00  0.00     0.007 A 
ATOM     16  C   UNL A   1      36.038  22.765  23.544  1.00  0.00     0.015 A 
ATOM     17  S   UNL A   1      35.573  23.190  26.028  1.00  0.00    -0.149 S 
ATOM     18  C   UNL A   1      37.024  22.026  24.256  1.00  0.00     0.012 A 
ATOM     19  C   UNL A   1      36.877  22.160  25.619  1.00  0.00     0.065 A 
ENDBRANCH  14  15
ENDBRANCH  12  14
ENDBRANCH  10  12
ENDBRANCH   8  10
ENDBRANCH   7   8
BRANCH   7  20
ATOM     20  N   UNL A   1      29.634  25.605  25.417  1.00  0.00    -0.347 N 
ATOM     21  H   UNL A   1      29.329  24.827  24.833  1.00  0.00     0.345 HD
ATOM     22  H   UNL A   1      29.316  26.484  25.005  1.00  0.00     0.345 HD
ATOM     23  H   UNL A   1      29.237  25.505  26.351  1.00  0.00     0.345 HD
ENDBRANCH   7  20
ENDBRANCH   6   7
ENDBRANCH   5   6
ENDBRANCH   1   5
BRANCH   3  24
ATOM     24  C   UNL A   1      33.526  30.018  26.780  1.00  0.00     0.116 C 
BRANCH  24  25
ATOM     25  C   UNL A   1      32.083  30.434  27.087  1.00  0.00     0.023 C 
BRANCH  25  26
ATOM     26  C   UNL A   1      31.788  31.909  26.867  1.00  0.00     0.023 C 
BRANCH  26  27
ATOM     27  C   UNL A   1      32.878  32.839  27.375  1.00  0.00     0.116 C 
BRANCH  27  28
ATOM     28  N   UNL A   1      32.432  34.202  27.636  1.00  0.00    -0.352 N 
ATOM     29  C   UNL A   1      32.938  35.087  28.571  1.00  0.00     0.251 C 
ATOM     30  H   UNL A   1      31.688  34.531  27.081  1.00  0.00     0.163 HD
ATOM     31  O   UNL A   1      32.452  36.186  28.750  1.00  0.00    -0.269 OA
BRANCH  29  32
ATOM     32  C   UNL A   1      34.076  34.623  29.395  1.00  0.00     0.039 A 
ATOM     33  C   UNL A   1      33.822  34.042  30.639  1.00  0.00     0.014 A 
ATOM     34  C   UNL A   1      35.361  34.620  28.851  1.00  0.00     0.014 A 
ATOM     35  C   UNL A   1      34.847  33.361  31.297  1.00  0.00     0.010 A 
ATOM     36  C   UNL A   1      36.351  33.864  29.460  1.00  0.00     0.010 A 
ATOM     37  C   UNL A   1      36.102  33.217  30.684  1.00  0.00    -0.014 A 
BRANCH  37  38
ATOM     38  C   UNL A   1      37.195  32.413  31.287  1.00  0.00     0.031 A 
ATOM     39  C   UNL A   1      37.768  32.842  32.609  1.00  0.00     0.074 A 
ATOM     40  C   UNL A   1      37.751  31.393  30.606  1.00  0.00     0.049 A 
ATOM     41  N   UNL A   1      38.862  32.448  33.206  1.00  0.00    -0.248 NA
ATOM     42  C   UNL A   1      37.034  33.895  33.328  1.00  0.00     0.031 C 
ATOM     43  C   UNL A   1      37.320  30.904  29.296  1.00  0.00     0.029 A 
ATOM     44  N   UNL A   1      38.826  30.597  30.918  1.00  0.00    -0.354 N 
ATOM     45  C   UNL A   1      38.977  33.244  34.337  1.00  0.00     0.074 A 
ATOM     46  C   UNL A   1      37.862  34.165  34.325  1.00  0.00     0.031 C 
ATOM     47  C   UNL A   1      38.109  29.880  28.925  1.00  0.00     0.029 A 
ATOM     48  C   UNL A   1      39.128  29.670  29.949  1.00  0.00     0.049 A 
ATOM     49  H   UNL A   1      39.332  30.681  31.759  1.00  0.00     0.167 HD
ATOM     50  C   UNL A   1      39.920  33.202  35.307  1.00  0.00     0.037 A 
ATOM     51  C   UNL A   1      40.124  28.765  29.890  1.00  0.00     0.037 A 
ATOM     52  C   UNL A   1      40.982  32.236  35.354  1.00  0.00     0.049 A 
ATOM     53  C   UNL A   1      41.119  28.691  31.014  1.00  0.00     0.074 A 
ATOM     54  C   UNL A   1      41.949  32.064  36.329  1.00  0.00     0.029 A 
ATOM     55  N   UNL A   1      41.201  31.262  34.393  1.00  0.00    -0.354 N 
ATOM     56  N   UNL A   1      41.203  29.433  32.091  1.00  0.00    -0.248 NA
ATOM     57  C   UNL A   1      42.158  27.654  30.916  1.00  0.00     0.031 C 
ATOM     58  C   UNL A   1      42.760  30.990  35.951  1.00  0.00     0.029 A 
ATOM     59  C   UNL A   1      42.282  30.479  34.756  1.00  0.00     0.049 A 
ATOM     60  H   UNL A   1      40.665  31.143  33.575  1.00  0.00     0.167 HD
ATOM     61  C   UNL A   1      42.279  28.935  32.813  1.00  0.00     0.074 A 
ATOM     62  C   UNL A   1      42.818  27.826  32.054  1.00  0.00     0.031 C 
ATOM     63  C   UNL A   1      42.776  29.357  34.001  1.00  0.00     0.037 A 
BRANCH  50  64
ATOM     64  C   UNL A   1      39.829  34.226  36.397  1.00  0.00     0.057 A 
ATOM     65  C   UNL A   1      40.432  35.485  36.278  1.00  0.00     0.134 A 
ATOM     66  C   UNL A   1      39.126  33.952  37.576  1.00  0.00     0.134 A 
ATOM     67  F   UNL A   1      41.135  35.801  35.181  1.00  0.00    -0.206 F 
ATOM     68  C   UNL A   1      40.364  36.424  37.308  1.00  0.00     0.040 A 
ATOM     69  C   UNL A   1      39.029  34.894  38.602  1.00  0.00     0.040 A 
ATOM     70  F   UNL A   1      38.523  32.766  37.751  1.00  0.00    -0.206 F 
ATOM     71  C   UNL A   1      39.656  36.132  38.471  1.00  0.00     0.006 A 
ENDBRANCH  50  64
BRANCH  51  72
ATOM     72  C   UNL A   1      40.216  27.833  28.739  1.00  0.00     0.057 A 
ATOM     73  C   UNL A   1      39.590  26.582  28.782  1.00  0.00     0.134 A 
ATOM     74  C   UNL A   1      40.929  28.160  27.581  1.00  0.00     0.134 A 
ATOM     75  F   UNL A   1      38.908  26.206  29.874  1.00  0.00    -0.206 F 
ATOM     76  C   UNL A   1      39.686  25.679  27.721  1.00  0.00     0.040 A 
ATOM     77  C   UNL A   1      41.017  27.274  26.505  1.00  0.00     0.040 A 
ATOM     78  F   UNL A   1      41.546  29.346  27.476  1.00  0.00    -0.206 F 
ATOM     79  C   UNL A   1      40.399  26.027  26.577  1.00  0.00     0.006 A 
ENDBRANCH  51  72
BRANCH  63  80
ATOM     80  C   UNL A   1      43.918  28.586  34.585  1.00  0.00     0.057 A 
ATOM     81  C   UNL A   1      43.713  27.439  35.359  1.00  0.00     0.134 A 
ATOM     82  C   UNL A   1      45.238  28.956  34.300  1.00  0.00     0.134 A 
ATOM     83  F   UNL A   1      42.470  27.042  35.672  1.00  0.00    -0.206 F 
ATOM     84  C   UNL A   1      44.787  26.685  35.836  1.00  0.00     0.040 A 
ATOM     85  C   UNL A   1      46.319  28.201  34.758  1.00  0.00     0.040 A 
ATOM     86  F   UNL A   1      45.496  30.043  33.558  1.00  0.00    -0.206 F 
ATOM     87  C   UNL A   1      46.094  27.062  35.528  1.00  0.00     0.006 A 
ENDBRANCH  63  80
ENDBRANCH  37  38
ENDBRANCH  29  32
ENDBRANCH  27  28
ENDBRANCH  26  27
ENDBRANCH  25  26
ENDBRANCH  24  25
ENDBRANCH   3  24
TORSDOF 19
ENDMDL
MODEL 3
REMARK VINA RESULT:      -9.6      2.488      7.664
REMARK SMILES C[C@H](Cc1cccs1)N(C)C(=O)[C@@H]([NH3+])CCC(=O)NCCCCNC(=O)c1ccc(-c2c3nc(c(-c4c(F)cccc4F)c4ccc([nH]4)c(-c4c(F)cccc4F)c4nc(c(-c5c(F)cccc5F)c5ccc2[nH]5)C=C4)C=C3)cc1
REMARK SMILES IDX 17 1 18 2 19 3 16 5 15 6 13 7 11 8 12 9 9 10 10 11 2 12 1 13
REMARK SMILES IDX 3 14 4 15 5 16 8 17 6 18 7 19 14 20 20 24 21 25 22 26 23 27
REMARK SMILES IDX 24 28 25 29 26 31 27 32 28 33 80 34 29 35 79 36 30 37 31 38
REMARK SMILES IDX 32 39 73 40 33 41 78 42 72 43 74 44 34 45 77 46 71 47 70 48
REMARK SMILES IDX 35 50 61 51 44 52 60 53 45 54 48 55 59 56 75 57 46 58 47 59
REMARK SMILES IDX 58 61 76 62 49 63 36 64 37 65 42 66 38 67 39 68 41 69 43 70
REMARK SMILES IDX 40 71 62 72 63 73 68 74 64 75 65 76 67 77 69 78 66 79 50 80
REMARK SMILES IDX 51 81 56 82 52 83 53 84 55 85 57 86 54 87
REMARK H PARENT 19 4 14 21 14 22 14 23 24 30 74 49 48 60
REMARK Flexibility Score: inf
ROOT
ATOM      1  C   UNL A   1      33.769  20.142  24.932  1.00  0.00     0.220 C 
ATOM      2  O   UNL A   1      33.570  18.928  25.006  1.00  0.00    -0.275 OA
ATOM      3  N   UNL A   1      35.055  20.582  24.941  1.00  0.00    -0.356 N 
ATOM      4  H   UNL A   1      35.736  19.873  24.896  1.00  0.00     0.163 HD
ENDROOT
BRANCH   1   5
ATOM      5  C   UNL A   1      32.606  21.112  24.825  1.00  0.00     0.106 C 
BRANCH   5   6
ATOM      6  C   UNL A   1      32.431  21.696  23.414  1.00  0.00     0.085 C 
BRANCH   6   7
ATOM      7  C   UNL A   1      32.080  23.188  23.397  1.00  0.00     0.271 C 
BRANCH   7   8
ATOM      8  C   UNL A   1      33.075  24.041  22.566  1.00  0.00     0.280 C 
ATOM      9  O   UNL A   1      34.131  23.497  22.221  1.00  0.00    -0.268 OA
BRANCH   8  10
ATOM     10  N   UNL A   1      32.756  25.320  22.122  1.00  0.00    -0.338 N 
ATOM     11  C   UNL A   1      32.642  25.697  20.719  1.00  0.00     0.147 C 
BRANCH  10  12
ATOM     12  C   UNL A   1      32.752  26.441  23.101  1.00  0.00     0.087 C 
ATOM     13  C   UNL A   1      33.335  27.696  22.435  1.00  0.00     0.031 C 
BRANCH  12  14
ATOM     14  C   UNL A   1      33.366  26.067  24.480  1.00  0.00     0.071 C 
BRANCH  14  15
ATOM     15  C   UNL A   1      32.942  26.965  25.610  1.00  0.00     0.007 A 
ATOM     16  C   UNL A   1      33.633  28.045  26.127  1.00  0.00     0.015 A 
ATOM     17  S   UNL A   1      31.467  26.711  26.436  1.00  0.00    -0.149 S 
ATOM     18  C   UNL A   1      32.935  28.679  27.192  1.00  0.00     0.012 A 
ATOM     19  C   UNL A   1      31.744  28.046  27.471  1.00  0.00     0.065 A 
ENDBRANCH  14  15
ENDBRANCH  12  14
ENDBRANCH  10  12
ENDBRANCH   8  10
ENDBRANCH   7   8
BRANCH   7  20
ATOM     20  N   UNL A   1      30.677  23.442  23.025  1.00  0.00    -0.347 N 
ATOM     21  H   UNL A   1      30.411  24.380  23.324  1.00  0.00     0.345 HD
ATOM     22  H   UNL A   1      30.075  22.756  23.482  1.00  0.00     0.345 HD
ATOM     23  H   UNL A   1      30.573  23.366  22.014  1.00  0.00     0.345 HD
ENDBRANCH   7  20
ENDBRANCH   6   7
ENDBRANCH   5   6
ENDBRANCH   1   5
BRANCH   3  24
ATOM     24  C   UNL A   1      35.583  21.932  25.005  1.00  0.00     0.116 C 
BRANCH  24  25
ATOM     25  C   UNL A   1      37.093  21.931  24.744  1.00  0.00     0.023 C 
BRANCH  25  26
ATOM     26  C   UNL A   1      37.792  20.621  25.071  1.00  0.00     0.023 C 
BRANCH  26  27
ATOM     27  C   UNL A   1      39.088  20.790  25.848  1.00  0.00     0.116 C 
BRANCH  27  28
ATOM     28  N   UNL A   1      39.959  19.621  25.826  1.00  0.00    -0.352 N 
ATOM     29  C   UNL A   1      41.295  19.563  26.178  1.00  0.00     0.251 C 
ATOM     30  H   UNL A   1      39.549  18.778  25.527  1.00  0.00     0.163 HD
ATOM     31  O   UNL A   1      41.950  18.547  26.065  1.00  0.00    -0.269 OA
BRANCH  29  32
ATOM     32  C   UNL A   1      41.924  20.815  26.657  1.00  0.00     0.039 A 
ATOM     33  C   UNL A   1      42.452  21.710  25.725  1.00  0.00     0.014 A 
ATOM     34  C   UNL A   1      41.831  21.155  28.007  1.00  0.00     0.014 A 
ATOM     35  C   UNL A   1      42.794  23.000  26.135  1.00  0.00     0.010 A 
ATOM     36  C   UNL A   1      42.083  22.464  28.392  1.00  0.00     0.010 A 
ATOM     37  C   UNL A   1      42.557  23.403  27.458  1.00  0.00    -0.014 A 
BRANCH  37  38
ATOM     38  C   UNL A   1      42.801  24.791  27.923  1.00  0.00     0.031 A 
ATOM     39  C   UNL A   1      44.190  25.184  28.342  1.00  0.00     0.074 A 
ATOM     40  C   UNL A   1      41.776  25.650  28.088  1.00  0.00     0.049 A 
ATOM     41  N   UNL A   1      44.592  26.243  28.994  1.00  0.00    -0.248 NA
ATOM     42  C   UNL A   1      45.262  24.225  28.030  1.00  0.00     0.031 C 
ATOM     43  C   UNL A   1      40.374  25.380  27.763  1.00  0.00     0.029 A 
ATOM     44  N   UNL A   1      41.757  26.923  28.600  1.00  0.00    -0.354 N 
ATOM     45  C   UNL A   1      45.948  26.050  29.219  1.00  0.00     0.074 A 
ATOM     46  C   UNL A   1      46.293  24.759  28.667  1.00  0.00     0.031 C 
ATOM     47  C   UNL A   1      39.635  26.461  28.065  1.00  0.00     0.029 A 
ATOM     48  C   UNL A   1      40.502  27.482  28.647  1.00  0.00     0.049 A 
ATOM     49  H   UNL A   1      42.567  27.393  28.906  1.00  0.00     0.167 HD
ATOM     50  C   UNL A   1      46.831  26.880  29.820  1.00  0.00     0.037 A 
ATOM     51  C   UNL A   1      40.097  28.678  29.117  1.00  0.00     0.037 A 
ATOM     52  C   UNL A   1      46.501  28.194  30.300  1.00  0.00     0.049 A 
ATOM     53  C   UNL A   1      41.109  29.613  29.718  1.00  0.00     0.074 A 
ATOM     54  C   UNL A   1      47.337  29.142  30.863  1.00  0.00     0.029 A 
ATOM     55  N   UNL A   1      45.234  28.753  30.249  1.00  0.00    -0.354 N 
ATOM     56  N   UNL A   1      42.394  29.429  29.903  1.00  0.00    -0.248 NA
ATOM     57  C   UNL A   1      40.618  30.922  30.175  1.00  0.00     0.031 C 
ATOM     58  C   UNL A   1      46.571  30.273  31.163  1.00  0.00     0.029 A 
ATOM     59  C   UNL A   1      45.266  30.037  30.763  1.00  0.00     0.049 A 
ATOM     60  H   UNL A   1      44.431  28.303  29.899  1.00  0.00     0.167 HD
ATOM     61  C   UNL A   1      42.869  30.606  30.466  1.00  0.00     0.074 A 
ATOM     62  C   UNL A   1      41.736  31.499  30.592  1.00  0.00     0.031 C 
ATOM     63  C   UNL A   1      44.132  30.919  30.843  1.00  0.00     0.037 A 
BRANCH  50  64
ATOM     64  C   UNL A   1      48.238  26.390  29.977  1.00  0.00     0.057 A 
ATOM     65  C   UNL A   1      49.211  26.610  28.993  1.00  0.00     0.134 A 
ATOM     66  C   UNL A   1      48.626  25.694  31.128  1.00  0.00     0.134 A 
ATOM     67  F   UNL A   1      48.896  27.254  27.860  1.00  0.00    -0.206 F 
ATOM     68  C   UNL A   1      50.512  26.128  29.136  1.00  0.00     0.040 A 
ATOM     69  C   UNL A   1      49.932  25.230  31.294  1.00  0.00     0.040 A 
ATOM     70  F   UNL A   1      47.743  25.452  32.110  1.00  0.00    -0.206 F 
ATOM     71  C   UNL A   1      50.877  25.441  30.291  1.00  0.00     0.006 A 
ENDBRANCH  50  64
BRANCH  51  72
ATOM     72  C   UNL A   1      38.671  29.075  29.015  1.00  0.00     0.057 A 
ATOM     73  C   UNL A   1      38.157  29.589  27.818  1.00  0.00     0.134 A 
ATOM     74  C   UNL A   1      37.794  28.961  30.099  1.00  0.00     0.134 A 
ATOM     75  F   UNL A   1      38.956  29.739  26.751  1.00  0.00    -0.206 F 
ATOM     76  C   UNL A   1      36.826  29.994  27.708  1.00  0.00     0.040 A 
ATOM     77  C   UNL A   1      36.455  29.343  29.996  1.00  0.00     0.040 A 
ATOM     78  F   UNL A   1      38.224  28.470  31.270  1.00  0.00    -0.206 F 
ATOM     79  C   UNL A   1      35.970  29.867  28.799  1.00  0.00     0.006 A 
ENDBRANCH  51  72
BRANCH  63  80
ATOM     80  C   UNL A   1      44.373  32.300  31.370  1.00  0.00     0.057 A 
ATOM     81  C   UNL A   1      44.667  33.371  30.520  1.00  0.00     0.134 A 
ATOM     82  C   UNL A   1      44.228  32.570  32.736  1.00  0.00     0.134 A 
ATOM     83  F   UNL A   1      44.827  33.171  29.203  1.00  0.00    -0.206 F 
ATOM     84  C   UNL A   1      44.816  34.668  31.014  1.00  0.00     0.040 A 
ATOM     85  C   UNL A   1      44.358  33.864  33.239  1.00  0.00     0.040 A 
ATOM     86  F   UNL A   1      43.939  31.583  33.598  1.00  0.00    -0.206 F 
ATOM     87  C   UNL A   1      44.652  34.918  32.376  1.00  0.00     0.006 A 
ENDBRANCH  63  80
ENDBRANCH  37  38
ENDBRANCH  29  32
ENDBRANCH  27  28
ENDBRANCH  26  27
ENDBRANCH  25  26
ENDBRANCH  24  25
ENDBRANCH   3  24
TORSDOF 19
ENDMDL
