MODEL 1
REMARK VINA RESULT:     -13.0      0.000      0.000
REMARK SMILES O=C(NCCCCNC(=O)c1ccccc1/N=C/c1coc2ccccc2c1=O)c1ccc(-c2c3nc(c(-c4c(F)cccc4F)c4ccc([nH]4)c(-c4c(F)cccc4F)c4nc(c(-c5c(F)cccc5F)c5ccc2[nH]5)C=C4)C=C3)cc1
REMARK SMILES IDX 5 1 4 2 3 3 1 4 2 5 30 7 31 8 83 9 32 10 82 11 33 12 34 13
REMARK SMILES IDX 35 14 76 15 36 16 81 17 75 18 77 19 37 20 80 21 74 22 73 23
REMARK SMILES IDX 38 25 64 26 47 27 63 28 48 29 51 30 62 31 78 32 49 33 50 34
REMARK SMILES IDX 61 36 79 37 52 38 39 39 40 40 45 41 41 42 42 43 44 44 46 45
REMARK SMILES IDX 43 46 65 47 66 48 71 49 67 50 68 51 70 52 72 53 69 54 53 55
REMARK SMILES IDX 54 56 59 57 55 58 56 59 58 60 60 61 57 62 6 63 7 64 8 65
REMARK SMILES IDX 9 66 10 68 11 69 12 70 16 71 13 72 15 73 14 74 17 75 18 76
REMARK SMILES IDX 19 77 20 78 28 79 21 80 27 81 29 82 22 83 26 84 23 85 25 86
REMARK SMILES IDX 24 87
REMARK H PARENT 3 6 77 24 51 35 8 67
REMARK Flexibility Score: inf
ROOT
ATOM      1  C   UNL A   1      33.173  28.345  26.953  1.00  0.00     0.023 C 
ENDROOT
BRANCH   1   2
ATOM      2  C   UNL A   1      34.559  28.951  27.156  1.00  0.00     0.116 C 
BRANCH   2   3
ATOM      3  N   UNL A   1      34.572  30.032  28.125  1.00  0.00    -0.352 N 
ATOM      4  O   UNL A   1      35.365  31.284  29.833  1.00  0.00    -0.269 OA
ATOM      5  C   UNL A   1      35.582  30.446  28.962  1.00  0.00     0.251 C 
ATOM      6  H   UNL A   1      33.735  30.545  28.192  1.00  0.00     0.163 HD
BRANCH   5   7
ATOM      7  C   UNL A   1      36.942  29.868  28.836  1.00  0.00     0.039 A 
ATOM      8  C   UNL A   1      37.560  29.235  29.918  1.00  0.00     0.014 A 
ATOM      9  C   UNL A   1      37.597  29.929  27.600  1.00  0.00     0.014 A 
ATOM     10  C   UNL A   1      38.875  28.788  29.803  1.00  0.00     0.010 A 
ATOM     11  C   UNL A   1      38.897  29.431  27.470  1.00  0.00     0.010 A 
ATOM     12  C   UNL A   1      39.562  28.895  28.582  1.00  0.00    -0.014 A 
BRANCH  12  13
ATOM     13  C   UNL A   1      40.976  28.446  28.508  1.00  0.00     0.031 A 
ATOM     14  C   UNL A   1      41.314  27.027  28.145  1.00  0.00     0.074 A 
ATOM     15  C   UNL A   1      41.965  29.340  28.694  1.00  0.00     0.049 A 
ATOM     16  N   UNL A   1      42.488  26.491  27.917  1.00  0.00    -0.248 NA
ATOM     17  C   UNL A   1      40.191  26.083  28.028  1.00  0.00     0.031 C 
ATOM     18  C   UNL A   1      41.776  30.741  29.075  1.00  0.00     0.029 A 
ATOM     19  N   UNL A   1      43.324  29.211  28.551  1.00  0.00    -0.354 N 
ATOM     20  C   UNL A   1      42.248  25.151  27.646  1.00  0.00     0.074 A 
ATOM     21  C   UNL A   1      40.819  24.948  27.752  1.00  0.00     0.031 C 
ATOM     22  C   UNL A   1      42.969  31.357  29.076  1.00  0.00     0.029 A 
ATOM     23  C   UNL A   1      44.003  30.394  28.709  1.00  0.00     0.049 A 
ATOM     24  H   UNL A   1      43.767  28.355  28.355  1.00  0.00     0.167 HD
ATOM     25  C   UNL A   1      43.136  24.178  27.331  1.00  0.00     0.037 A 
ATOM     26  C   UNL A   1      45.308  30.677  28.548  1.00  0.00     0.037 A 
ATOM     27  C   UNL A   1      44.554  24.371  27.195  1.00  0.00     0.049 A 
ATOM     28  C   UNL A   1      46.261  29.599  28.126  1.00  0.00     0.074 A 
ATOM     29  C   UNL A   1      45.528  23.440  26.874  1.00  0.00     0.029 A 
ATOM     30  N   UNL A   1      45.200  25.585  27.357  1.00  0.00    -0.354 N 
ATOM     31  N   UNL A   1      46.017  28.339  27.867  1.00  0.00    -0.248 NA
ATOM     32  C   UNL A   1      47.672  29.984  27.976  1.00  0.00     0.031 C 
ATOM     33  C   UNL A   1      46.767  24.091  26.849  1.00  0.00     0.029 A 
ATOM     34  C   UNL A   1      46.559  25.429  27.142  1.00  0.00     0.049 A 
ATOM     35  H   UNL A   1      44.759  26.433  27.593  1.00  0.00     0.167 HD
ATOM     36  C   UNL A   1      47.240  27.778  27.532  1.00  0.00     0.074 A 
ATOM     37  C   UNL A   1      48.224  28.840  27.594  1.00  0.00     0.031 C 
ATOM     38  C   UNL A   1      47.525  26.493  27.215  1.00  0.00     0.037 A 
BRANCH  25  39
ATOM     39  C   UNL A   1      42.590  22.802  27.109  1.00  0.00     0.057 A 
ATOM     40  C   UNL A   1      42.480  22.260  25.824  1.00  0.00     0.134 A 
ATOM     41  C   UNL A   1      42.208  22.000  28.191  1.00  0.00     0.134 A 
ATOM     42  F   UNL A   1      42.819  22.986  24.749  1.00  0.00    -0.206 F 
ATOM     43  C   UNL A   1      41.997  20.966  25.620  1.00  0.00     0.040 A 
ATOM     44  C   UNL A   1      41.734  20.701  28.001  1.00  0.00     0.040 A 
ATOM     45  F   UNL A   1      42.293  22.466  29.447  1.00  0.00    -0.206 F 
ATOM     46  C   UNL A   1      41.627  20.182  26.712  1.00  0.00     0.006 A 
ENDBRANCH  25  39
BRANCH  26  47
ATOM     47  C   UNL A   1      45.780  32.066  28.738  1.00  0.00     0.057 A 
ATOM     48  C   UNL A   1      45.848  32.954  27.660  1.00  0.00     0.134 A 
ATOM     49  C   UNL A   1      46.152  32.541  30.000  1.00  0.00     0.134 A 
ATOM     50  F   UNL A   1      45.517  32.544  26.427  1.00  0.00    -0.206 F 
ATOM     51  C   UNL A   1      46.273  34.271  27.828  1.00  0.00     0.040 A 
ATOM     52  C   UNL A   1      46.569  33.860  30.184  1.00  0.00     0.040 A 
ATOM     53  F   UNL A   1      46.106  31.732  31.068  1.00  0.00    -0.206 F 
ATOM     54  C   UNL A   1      46.631  34.728  29.095  1.00  0.00     0.006 A 
ENDBRANCH  26  47
BRANCH  38  55
ATOM     55  C   UNL A   1      48.956  26.165  26.934  1.00  0.00     0.057 A 
ATOM     56  C   UNL A   1      49.805  25.709  27.950  1.00  0.00     0.134 A 
ATOM     57  C   UNL A   1      49.483  26.281  25.644  1.00  0.00     0.134 A 
ATOM     58  F   UNL A   1      49.356  25.590  29.208  1.00  0.00    -0.206 F 
ATOM     59  C   UNL A   1      51.137  25.387  27.693  1.00  0.00     0.040 A 
ATOM     60  C   UNL A   1      50.812  25.953  25.372  1.00  0.00     0.040 A 
ATOM     61  F   UNL A   1      48.717  26.713  24.631  1.00  0.00    -0.206 F 
ATOM     62  C   UNL A   1      51.644  25.506  26.398  1.00  0.00     0.006 A 
ENDBRANCH  38  55
ENDBRANCH  12  13
ENDBRANCH   5   7
ENDBRANCH   2   3
ENDBRANCH   1   2
BRANCH   1  63
ATOM     63  C   UNL A   1      31.997  29.325  26.917  1.00  0.00     0.023 C 
BRANCH  63  64
ATOM     64  C   UNL A   1      31.747  30.041  25.589  1.00  0.00     0.116 C 
BRANCH  64  65
ATOM     65  N   UNL A   1      32.273  29.335  24.434  1.00  0.00    -0.352 N 
ATOM     66  C   UNL A   1      31.601  28.858  23.339  1.00  0.00     0.253 C 
ATOM     67  H   UNL A   1      33.245  29.176  24.438  1.00  0.00     0.163 HD
ATOM     68  O   UNL A   1      32.226  28.373  22.399  1.00  0.00    -0.269 OA
BRANCH  66  69
ATOM     69  C   UNL A   1      30.131  28.865  23.289  1.00  0.00     0.065 A 
ATOM     70  C   UNL A   1      29.526  30.078  22.920  1.00  0.00     0.016 A 
ATOM     71  C   UNL A   1      29.346  27.754  23.608  1.00  0.00     0.076 A 
ATOM     72  C   UNL A   1      28.137  30.174  22.822  1.00  0.00     0.001 A 
ATOM     73  C   UNL A   1      27.951  27.874  23.501  1.00  0.00     0.029 A 
ATOM     74  C   UNL A   1      27.347  29.068  23.110  1.00  0.00     0.002 A 
BRANCH  71  75
ATOM     75  N   UNL A   1      29.797  26.463  23.868  1.00  0.00    -0.255 NA
ATOM     76  C   UNL A   1      30.262  26.061  25.006  1.00  0.00     0.127 C 
BRANCH  76  77
ATOM     77  C   UNL A   1      30.539  24.608  25.077  1.00  0.00     0.076 A 
ATOM     78  C   UNL A   1      30.654  24.077  23.844  1.00  0.00     0.209 A 
ATOM     79  C   UNL A   1      31.563  24.146  26.048  1.00  0.00     0.201 A 
ATOM     80  O   UNL A   1      31.707  23.255  23.457  1.00  0.00    -0.463 OA
ATOM     81  C   UNL A   1      32.885  23.967  25.431  1.00  0.00     0.065 A 
ATOM     82  O   UNL A   1      31.363  24.073  27.252  1.00  0.00    -0.288 OA
ATOM     83  C   UNL A   1      32.894  23.554  24.097  1.00  0.00     0.137 A 
ATOM     84  C   UNL A   1      34.043  24.407  26.067  1.00  0.00     0.016 A 
ATOM     85  C   UNL A   1      34.084  23.559  23.380  1.00  0.00     0.048 A 
ATOM     86  C   UNL A   1      35.227  24.456  25.333  1.00  0.00     0.001 A 
ATOM     87  C   UNL A   1      35.248  24.031  23.998  1.00  0.00     0.004 A 
ENDBRANCH  76  77
ENDBRANCH  71  75
ENDBRANCH  66  69
ENDBRANCH  64  65
ENDBRANCH  63  64
ENDBRANCH   1  63
TORSDOF 13
ENDMDL
MODEL 2
REMARK VINA RESULT:     -12.8      5.480     10.075
REMARK SMILES O=C(NCCCCNC(=O)c1ccccc1/N=C/c1coc2ccccc2c1=O)c1ccc(-c2c3nc(c(-c4c(F)cccc4F)c4ccc([nH]4)c(-c4c(F)cccc4F)c4nc(c(-c5c(F)cccc5F)c5ccc2[nH]5)C=C4)C=C3)cc1
REMARK SMILES IDX 5 1 4 2 3 3 1 4 2 5 30 7 31 8 83 9 32 10 82 11 33 12 34 13
REMARK SMILES IDX 35 14 76 15 36 16 81 17 75 18 77 19 37 20 80 21 74 22 73 23
REMARK SMILES IDX 38 25 64 26 47 27 63 28 48 29 51 30 62 31 78 32 49 33 50 34
REMARK SMILES IDX 61 36 79 37 52 38 39 39 40 40 45 41 41 42 42 43 44 44 46 45
REMARK SMILES IDX 43 46 65 47 66 48 71 49 67 50 68 51 70 52 72 53 69 54 53 55
REMARK SMILES IDX 54 56 59 57 55 58 56 59 58 60 60 61 57 62 6 63 7 64 8 65
REMARK SMILES IDX 9 66 10 68 11 69 12 70 16 71 13 72 15 73 14 74 17 75 18 76
REMARK SMILES IDX 19 77 20 78 28 79 21 80 27 81 29 82 22 83 26 84 23 85 25 86
REMARK SMILES IDX 24 87
REMARK H PARENT 3 6 77 24 51 35 8 67
REMARK Flexibility Score: inf
ROOT
ATOM      1  C   UNL A   1      36.796  23.713  25.005  1.00  0.00     0.023 C 
ENDROOT
BRANCH   1   2
ATOM      2  C   UNL A   1      37.664  24.057  26.212  1.00  0.00     0.116 C 
BRANCH   2   3
ATOM      3  N   UNL A   1      39.051  23.661  26.048  1.00  0.00    -0.352 N 
ATOM      4  O   UNL A   1      41.300  23.879  26.134  1.00  0.00    -0.269 OA
ATOM      5  C   UNL A   1      40.196  24.273  26.501  1.00  0.00     0.251 C 
ATOM      6  H   UNL A   1      39.192  22.830  25.539  1.00  0.00     0.163 HD
BRANCH   5   7
ATOM      7  C   UNL A   1      40.111  25.431  27.423  1.00  0.00     0.039 A 
ATOM      8  C   UNL A   1      40.735  26.643  27.118  1.00  0.00     0.014 A 
ATOM      9  C   UNL A   1      39.360  25.313  28.599  1.00  0.00     0.014 A 
ATOM     10  C   UNL A   1      40.723  27.684  28.045  1.00  0.00     0.010 A 
ATOM     11  C   UNL A   1      39.303  26.377  29.504  1.00  0.00     0.010 A 
ATOM     12  C   UNL A   1      40.019  27.557  29.254  1.00  0.00    -0.014 A 
BRANCH  12  13
ATOM     13  C   UNL A   1      40.063  28.670  30.236  1.00  0.00     0.031 A 
ATOM     14  C   UNL A   1      39.054  29.784  30.180  1.00  0.00     0.074 A 
ATOM     15  C   UNL A   1      40.969  28.640  31.230  1.00  0.00     0.049 A 
ATOM     16  N   UNL A   1      38.867  30.769  31.023  1.00  0.00    -0.248 NA
ATOM     17  C   UNL A   1      38.140  29.798  29.027  1.00  0.00     0.031 C 
ATOM     18  C   UNL A   1      42.018  27.632  31.387  1.00  0.00     0.029 A 
ATOM     19  N   UNL A   1      41.126  29.462  32.319  1.00  0.00    -0.354 N 
ATOM     20  C   UNL A   1      37.829  31.527  30.497  1.00  0.00     0.074 A 
ATOM     21  C   UNL A   1      37.435  30.899  29.255  1.00  0.00     0.031 C 
ATOM     22  C   UNL A   1      42.673  27.859  32.537  1.00  0.00     0.029 A 
ATOM     23  C   UNL A   1      42.098  29.032  33.190  1.00  0.00     0.049 A 
ATOM     24  H   UNL A   1      40.597  30.278  32.461  1.00  0.00     0.167 HD
ATOM     25  C   UNL A   1      37.252  32.642  31.005  1.00  0.00     0.037 A 
ATOM     26  C   UNL A   1      42.463  29.510  34.392  1.00  0.00     0.037 A 
ATOM     27  C   UNL A   1      37.615  33.261  32.251  1.00  0.00     0.049 A 
ATOM     28  C   UNL A   1      41.760  30.703  34.968  1.00  0.00     0.074 A 
ATOM     29  C   UNL A   1      37.079  34.392  32.845  1.00  0.00     0.029 A 
ATOM     30  N   UNL A   1      38.599  32.791  33.105  1.00  0.00    -0.354 N 
ATOM     31  N   UNL A   1      40.776  31.403  34.462  1.00  0.00    -0.248 NA
ATOM     32  C   UNL A   1      42.220  31.171  36.284  1.00  0.00     0.031 C 
ATOM     33  C   UNL A   1      37.745  34.610  34.056  1.00  0.00     0.029 A 
ATOM     34  C   UNL A   1      38.685  33.606  34.220  1.00  0.00     0.049 A 
ATOM     35  H   UNL A   1      39.155  31.995  32.942  1.00  0.00     0.167 HD
ATOM     36  C   UNL A   1      40.503  32.397  35.389  1.00  0.00     0.074 A 
ATOM     37  C   UNL A   1      41.407  32.196  36.503  1.00  0.00     0.031 C 
ATOM     38  C   UNL A   1      39.594  33.398  35.315  1.00  0.00     0.037 A 
BRANCH  25  39
ATOM     39  C   UNL A   1      36.155  33.269  30.202  1.00  0.00     0.057 A 
ATOM     40  C   UNL A   1      36.432  34.049  29.074  1.00  0.00     0.134 A 
ATOM     41  C   UNL A   1      34.813  33.060  30.539  1.00  0.00     0.134 A 
ATOM     42  F   UNL A   1      37.699  34.294  28.711  1.00  0.00    -0.206 F 
ATOM     43  C   UNL A   1      35.407  34.611  28.311  1.00  0.00     0.040 A 
ATOM     44  C   UNL A   1      33.779  33.607  29.777  1.00  0.00     0.040 A 
ATOM     45  F   UNL A   1      34.487  32.320  31.610  1.00  0.00    -0.206 F 
ATOM     46  C   UNL A   1      34.076  34.386  28.660  1.00  0.00     0.006 A 
ENDBRANCH  25  39
BRANCH  26  47
ATOM     47  C   UNL A   1      43.525  28.821  35.158  1.00  0.00     0.057 A 
ATOM     48  C   UNL A   1      44.872  29.135  34.956  1.00  0.00     0.134 A 
ATOM     49  C   UNL A   1      43.217  27.852  36.118  1.00  0.00     0.134 A 
ATOM     50  F   UNL A   1      45.223  30.046  34.036  1.00  0.00    -0.206 F 
ATOM     51  C   UNL A   1      45.883  28.507  35.683  1.00  0.00     0.040 A 
ATOM     52  C   UNL A   1      44.217  27.223  36.861  1.00  0.00     0.040 A 
ATOM     53  F   UNL A   1      41.941  27.513  36.351  1.00  0.00    -0.206 F 
ATOM     54  C   UNL A   1      45.554  27.550  36.643  1.00  0.00     0.006 A 
ENDBRANCH  26  47
BRANCH  38  55
ATOM     55  C   UNL A   1      39.549  34.358  36.460  1.00  0.00     0.057 A 
ATOM     56  C   UNL A   1      38.854  34.049  37.635  1.00  0.00     0.134 A 
ATOM     57  C   UNL A   1      40.222  35.583  36.400  1.00  0.00     0.134 A 
ATOM     58  F   UNL A   1      38.182  32.894  37.744  1.00  0.00    -0.206 F 
ATOM     59  C   UNL A   1      38.822  34.934  38.713  1.00  0.00     0.040 A 
ATOM     60  C   UNL A   1      40.204  36.473  37.475  1.00  0.00     0.040 A 
ATOM     61  F   UNL A   1      40.904  35.933  35.300  1.00  0.00    -0.206 F 
ATOM     62  C   UNL A   1      39.501  36.150  38.635  1.00  0.00     0.006 A 
ENDBRANCH  38  55
ENDBRANCH  12  13
ENDBRANCH   5   7
ENDBRANCH   2   3
ENDBRANCH   1   2
BRANCH   1  63
ATOM     63  C   UNL A   1      36.968  22.310  24.416  1.00  0.00     0.023 C 
BRANCH  63  64
ATOM     64  C   UNL A   1      36.186  21.185  25.095  1.00  0.00     0.116 C 
BRANCH  64  65
ATOM     65  N   UNL A   1      35.061  21.650  25.887  1.00  0.00    -0.352 N 
ATOM     66  C   UNL A   1      33.748  21.262  25.826  1.00  0.00     0.253 C 
ATOM     67  H   UNL A   1      35.269  22.337  26.560  1.00  0.00     0.163 HD
ATOM     68  O   UNL A   1      32.943  21.687  26.650  1.00  0.00    -0.269 OA
BRANCH  66  69
ATOM     69  C   UNL A   1      33.267  20.380  24.751  1.00  0.00     0.065 A 
ATOM     70  C   UNL A   1      33.506  19.006  24.918  1.00  0.00     0.016 A 
ATOM     71  C   UNL A   1      32.627  20.850  23.601  1.00  0.00     0.076 A 
ATOM     72  C   UNL A   1      33.065  18.090  23.961  1.00  0.00     0.001 A 
ATOM     73  C   UNL A   1      32.191  19.910  22.652  1.00  0.00     0.029 A 
ATOM     74  C   UNL A   1      32.404  18.544  22.827  1.00  0.00     0.002 A 
BRANCH  71  75
ATOM     75  N   UNL A   1      32.214  22.156  23.352  1.00  0.00    -0.255 NA
ATOM     76  C   UNL A   1      32.941  23.062  22.783  1.00  0.00     0.127 C 
BRANCH  76  77
ATOM     77  C   UNL A   1      32.229  24.329  22.496  1.00  0.00     0.076 A 
ATOM     78  C   UNL A   1      31.012  24.339  23.072  1.00  0.00     0.209 A 
ATOM     79  C   UNL A   1      32.991  25.596  22.633  1.00  0.00     0.201 A 
ATOM     80  O   UNL A   1      30.534  25.397  23.839  1.00  0.00    -0.463 OA
ATOM     81  C   UNL A   1      32.787  26.237  23.940  1.00  0.00     0.065 A 
ATOM     82  O   UNL A   1      33.811  25.979  21.813  1.00  0.00    -0.288 OA
ATOM     83  C   UNL A   1      31.531  26.064  24.525  1.00  0.00     0.137 A 
ATOM     84  C   UNL A   1      33.854  26.781  24.650  1.00  0.00     0.016 A 
ATOM     85  C   UNL A   1      31.321  26.459  25.841  1.00  0.00     0.048 A 
ATOM     86  C   UNL A   1      33.655  27.133  25.984  1.00  0.00     0.001 A 
ATOM     87  C   UNL A   1      32.395  26.975  26.575  1.00  0.00     0.004 A 
ENDBRANCH  76  77
ENDBRANCH  71  75
ENDBRANCH  66  69
ENDBRANCH  64  65
ENDBRANCH  63  64
ENDBRANCH   1  63
TORSDOF 13
ENDMDL
MODEL 3
REMARK VINA RESULT:     -12.7      4.143      7.438
REMARK SMILES O=C(NCCCCNC(=O)c1ccccc1/N=C/c1coc2ccccc2c1=O)c1ccc(-c2c3nc(c(-c4c(F)cccc4F)c4ccc([nH]4)c(-c4c(F)cccc4F)c4nc(c(-c5c(F)cccc5F)c5ccc2[nH]5)C=C4)C=C3)cc1
REMARK SMILES IDX 5 1 4 2 3 3 1 4 2 5 30 7 31 8 83 9 32 10 82 11 33 12 34 13
REMARK SMILES IDX 35 14 76 15 36 16 81 17 75 18 77 19 37 20 80 21 74 22 73 23
REMARK SMILES IDX 38 25 64 26 47 27 63 28 48 29 51 30 62 31 78 32 49 33 50 34
REMARK SMILES IDX 61 36 79 37 52 38 39 39 40 40 45 41 41 42 42 43 44 44 46 45
REMARK SMILES IDX 43 46 65 47 66 48 71 49 67 50 68 51 70 52 72 53 69 54 53 55
REMARK SMILES IDX 54 56 59 57 55 58 56 59 58 60 60 61 57 62 6 63 7 64 8 65
REMARK SMILES IDX 9 66 10 68 11 69 12 70 16 71 13 72 15 73 14 74 17 75 18 76
REMARK SMILES IDX 19 77 20 78 28 79 21 80 27 81 29 82 22 83 26 84 23 85 25 86
REMARK SMILES IDX 24 87
REMARK H PARENT 3 6 77 24 51 35 8 67
REMARK Flexibility Score: inf
ROOT
ATOM      1  C   UNL A   1      32.519  29.728  25.427  1.00  0.00     0.023 C 
ENDROOT
BRANCH   1   2
ATOM      2  C   UNL A   1      32.061  30.242  26.790  1.00  0.00     0.116 C 
BRANCH   2   3
ATOM      3  N   UNL A   1      31.985  31.690  26.857  1.00  0.00    -0.352 N 
ATOM      4  O   UNL A   1      32.551  33.772  27.533  1.00  0.00    -0.269 OA
ATOM      5  C   UNL A   1      32.853  32.586  27.435  1.00  0.00     0.251 C 
ATOM      6  H   UNL A   1      31.197  32.089  26.424  1.00  0.00     0.163 HD
BRANCH   5   7
ATOM      7  C   UNL A   1      34.159  32.126  27.967  1.00  0.00     0.039 A 
ATOM      8  C   UNL A   1      34.337  30.811  28.404  1.00  0.00     0.014 A 
ATOM      9  C   UNL A   1      35.236  33.020  27.994  1.00  0.00     0.014 A 
ATOM     10  C   UNL A   1      35.543  30.431  28.990  1.00  0.00     0.010 A 
ATOM     11  C   UNL A   1      36.464  32.621  28.533  1.00  0.00     0.010 A 
ATOM     12  C   UNL A   1      36.614  31.336  29.074  1.00  0.00    -0.014 A 
BRANCH  12  13
ATOM     13  C   UNL A   1      37.870  30.909  29.742  1.00  0.00     0.031 A 
ATOM     14  C   UNL A   1      38.127  31.250  31.184  1.00  0.00     0.074 A 
ATOM     15  C   UNL A   1      38.751  30.145  29.070  1.00  0.00     0.049 A 
ATOM     16  N   UNL A   1      39.107  30.860  31.961  1.00  0.00    -0.248 NA
ATOM     17  C   UNL A   1      37.163  32.149  31.839  1.00  0.00     0.031 C 
ATOM     18  C   UNL A   1      38.635  29.763  27.662  1.00  0.00     0.029 A 
ATOM     19  N   UNL A   1      39.898  29.522  29.495  1.00  0.00    -0.354 N 
ATOM     20  C   UNL A   1      38.889  31.476  33.186  1.00  0.00     0.074 A 
ATOM     21  C   UNL A   1      37.692  32.278  33.049  1.00  0.00     0.031 C 
ATOM     22  C   UNL A   1      39.637  28.923  27.355  1.00  0.00     0.029 A 
ATOM     23  C   UNL A   1      40.468  28.718  28.539  1.00  0.00     0.049 A 
ATOM     24  H   UNL A   1      40.276  29.641  30.396  1.00  0.00     0.167 HD
ATOM     25  C   UNL A   1      39.615  31.378  34.325  1.00  0.00     0.037 A 
ATOM     26  C   UNL A   1      41.522  27.887  28.614  1.00  0.00     0.037 A 
ATOM     27  C   UNL A   1      40.790  30.564  34.485  1.00  0.00     0.049 A 
ATOM     28  C   UNL A   1      42.267  27.739  29.907  1.00  0.00     0.074 A 
ATOM     29  C   UNL A   1      41.586  30.402  35.606  1.00  0.00     0.029 A 
ATOM     30  N   UNL A   1      41.329  29.761  33.493  1.00  0.00    -0.354 N 
ATOM     31  N   UNL A   1      42.042  28.322  31.058  1.00  0.00    -0.248 NA
ATOM     32  C   UNL A   1      43.411  26.816  29.910  1.00  0.00     0.031 C 
ATOM     33  C   UNL A   1      42.612  29.505  35.291  1.00  0.00     0.029 A 
ATOM     34  C   UNL A   1      42.446  29.100  33.977  1.00  0.00     0.049 A 
ATOM     35  H   UNL A   1      40.972  29.674  32.580  1.00  0.00     0.167 HD
ATOM     36  C   UNL A   1      43.020  27.847  31.920  1.00  0.00     0.074 A 
ATOM     37  C   UNL A   1      43.824  26.905  31.168  1.00  0.00     0.031 C 
ATOM     38  C   UNL A   1      43.239  28.173  33.215  1.00  0.00     0.037 A 
BRANCH  25  39
ATOM     39  C   UNL A   1      39.152  32.180  35.501  1.00  0.00     0.057 A 
ATOM     40  C   UNL A   1      39.550  33.510  35.678  1.00  0.00     0.134 A 
ATOM     41  C   UNL A   1      38.274  31.630  36.442  1.00  0.00     0.134 A 
ATOM     42  F   UNL A   1      40.400  34.086  34.815  1.00  0.00    -0.206 F 
ATOM     43  C   UNL A   1      39.096  34.266  36.760  1.00  0.00     0.040 A 
ATOM     44  C   UNL A   1      37.804  32.379  37.522  1.00  0.00     0.040 A 
ATOM     45  F   UNL A   1      37.858  30.360  36.323  1.00  0.00    -0.206 F 
ATOM     46  C   UNL A   1      38.216  33.701  37.682  1.00  0.00     0.006 A 
ENDBRANCH  25  39
BRANCH  26  47
ATOM     47  C   UNL A   1      41.905  27.087  27.430  1.00  0.00     0.057 A 
ATOM     48  C   UNL A   1      42.754  27.615  26.453  1.00  0.00     0.134 A 
ATOM     49  C   UNL A   1      41.449  25.776  27.260  1.00  0.00     0.134 A 
ATOM     50  F   UNL A   1      43.208  28.872  26.561  1.00  0.00    -0.206 F 
ATOM     51  C   UNL A   1      43.139  26.866  25.341  1.00  0.00     0.040 A 
ATOM     52  C   UNL A   1      41.834  25.011  26.158  1.00  0.00     0.040 A 
ATOM     53  F   UNL A   1      40.632  25.221  28.167  1.00  0.00    -0.206 F 
ATOM     54  C   UNL A   1      42.680  25.558  25.195  1.00  0.00     0.006 A 
ENDBRANCH  26  47
BRANCH  38  55
ATOM     55  C   UNL A   1      44.405  27.524  33.890  1.00  0.00     0.057 A 
ATOM     56  C   UNL A   1      45.666  28.131  33.894  1.00  0.00     0.134 A 
ATOM     57  C   UNL A   1      44.264  26.303  34.556  1.00  0.00     0.134 A 
ATOM     58  F   UNL A   1      45.861  29.297  33.261  1.00  0.00    -0.206 F 
ATOM     59  C   UNL A   1      46.755  27.539  34.535  1.00  0.00     0.040 A 
ATOM     60  C   UNL A   1      45.343  25.704  35.208  1.00  0.00     0.040 A 
ATOM     61  F   UNL A   1      43.079  25.674  34.585  1.00  0.00    -0.206 F 
ATOM     62  C   UNL A   1      46.593  26.322  35.197  1.00  0.00     0.006 A 
ENDBRANCH  38  55
ENDBRANCH  12  13
ENDBRANCH   5   7
ENDBRANCH   2   3
ENDBRANCH   1   2
BRANCH   1  63
ATOM     63  C   UNL A   1      33.819  28.918  25.404  1.00  0.00     0.023 C 
BRANCH  63  64
ATOM     64  C   UNL A   1      33.683  27.417  25.147  1.00  0.00     0.116 C 
BRANCH  64  65
ATOM     65  N   UNL A   1      33.876  27.041  23.757  1.00  0.00    -0.352 N 
ATOM     66  C   UNL A   1      32.946  26.940  22.757  1.00  0.00     0.253 C 
ATOM     67  H   UNL A   1      34.802  26.830  23.498  1.00  0.00     0.163 HD
ATOM     68  O   UNL A   1      33.304  26.708  21.605  1.00  0.00    -0.269 OA
BRANCH  66  69
ATOM     69  C   UNL A   1      31.507  27.049  23.046  1.00  0.00     0.065 A 
ATOM     70  C   UNL A   1      30.851  28.178  22.525  1.00  0.00     0.016 A 
ATOM     71  C   UNL A   1      30.804  26.116  23.812  1.00  0.00     0.076 A 
ATOM     72  C   UNL A   1      29.482  28.354  22.727  1.00  0.00     0.001 A 
ATOM     73  C   UNL A   1      29.426  26.315  24.002  1.00  0.00     0.029 A 
ATOM     74  C   UNL A   1      28.767  27.419  23.465  1.00  0.00     0.002 A 
BRANCH  71  75
ATOM     75  N   UNL A   1      31.282  24.898  24.286  1.00  0.00    -0.255 NA
ATOM     76  C   UNL A   1      30.829  24.285  25.331  1.00  0.00     0.127 C 
BRANCH  76  77
ATOM     77  C   UNL A   1      31.399  22.936  25.547  1.00  0.00     0.076 A 
ATOM     78  C   UNL A   1      31.638  22.319  24.374  1.00  0.00     0.209 A 
ATOM     79  C   UNL A   1      32.484  22.797  26.553  1.00  0.00     0.201 A 
ATOM     80  O   UNL A   1      32.843  21.697  24.064  1.00  0.00    -0.463 OA
ATOM     81  C   UNL A   1      33.822  22.834  25.946  1.00  0.00     0.065 A 
ATOM     82  O   UNL A   1      32.287  22.805  27.759  1.00  0.00    -0.288 OA
ATOM     83  C   UNL A   1      33.934  22.300  24.661  1.00  0.00     0.137 A 
ATOM     84  C   UNL A   1      34.855  23.566  26.525  1.00  0.00     0.016 A 
ATOM     85  C   UNL A   1      35.107  22.478  23.938  1.00  0.00     0.048 A 
ATOM     86  C   UNL A   1      36.013  23.785  25.781  1.00  0.00     0.001 A 
ATOM     87  C   UNL A   1      36.139  23.242  24.495  1.00  0.00     0.004 A 
ENDBRANCH  76  77
ENDBRANCH  71  75
ENDBRANCH  66  69
ENDBRANCH  64  65
ENDBRANCH  63  64
ENDBRANCH   1  63
TORSDOF 13
ENDMDL
