MODEL 1
REMARK VINA RESULT:     -13.0      0.000      0.000
REMARK SMILES CC(C)[C@H](NC(=O)[C@H]1CC(=O)N(c2ccc(F)cc2)C1)C(=O)N1CCC[C@@H]1C(=O)NCCCCNC(=O)c1ccc(-c2c3nc(c(-c4c(F)cccc4F)c4ccc([nH]4)c(-c4c(F)cccc4F)c4nc(c(-c5c(F)cccc5F)c5ccc2[nH]5)C=C4)C=C3)cc1
REMARK SMILES IDX 31 1 30 2 28 3 29 4 27 6 23 7 24 8 25 9 26 10 21 11 22 12
REMARK SMILES IDX 4 13 2 14 1 15 3 16 5 17 6 18 7 20 8 21 9 22 20 23 10 24
REMARK SMILES IDX 12 25 11 26 13 27 14 28 19 29 15 30 18 31 16 32 17 33 32 34
REMARK SMILES IDX 33 35 34 36 35 37 36 38 37 40 38 41 39 42 91 43 40 44 90 45
REMARK SMILES IDX 41 46 42 47 43 48 84 49 44 50 89 51 83 52 85 53 45 54 88 55
REMARK SMILES IDX 82 56 81 57 46 59 72 60 55 61 71 62 56 63 59 64 70 65 86 66
REMARK SMILES IDX 57 67 58 68 69 70 87 71 60 72 47 73 48 74 53 75 49 76 50 77
REMARK SMILES IDX 52 78 54 79 51 80 73 81 74 82 79 83 75 84 76 85 78 86 80 87
REMARK SMILES IDX 77 88 61 89 62 90 67 91 63 92 64 93 66 94 68 95 65 96
REMARK H PARENT 30 5 5 19 35 39 85 58 59 69
REMARK Flexibility Score: inf
ROOT
ATOM      1  C   UNL A   1      33.218  29.768  26.471  1.00  0.00     0.116 C 
ENDROOT
BRANCH   1   2
ATOM      2  N   UNL A   1      33.389  29.425  25.073  1.00  0.00    -0.354 N 
ATOM      3  C   UNL A   1      32.502  29.008  24.122  1.00  0.00     0.242 C 
ATOM      4  O   UNL A   1      32.977  28.812  22.996  1.00  0.00    -0.273 OA
ATOM      5  H   UNL A   1      34.314  29.509  24.748  1.00  0.00     0.163 HD
BRANCH   3   6
ATOM      6  C   UNL A   1      30.995  28.741  24.389  1.00  0.00     0.174 C 
ATOM      7  N   UNL A   1      30.542  27.347  24.240  1.00  0.00    -0.329 N 
ATOM      8  C   UNL A   1      29.266  27.305  23.553  1.00  0.00     0.120 C 
ATOM      9  C   UNL A   1      29.175  28.602  22.770  1.00  0.00     0.024 C 
ATOM     10  C   UNL A   1      30.052  29.592  23.532  1.00  0.00     0.037 C 
BRANCH   7  11
ATOM     11  C   UNL A   1      30.907  26.412  25.207  1.00  0.00     0.246 C 
ATOM     12  O   UNL A   1      30.596  26.577  26.391  1.00  0.00    -0.272 OA
BRANCH  11  13
ATOM     13  C   UNL A   1      31.991  25.324  24.867  1.00  0.00     0.174 C 
BRANCH  13  14
ATOM     14  C   UNL A   1      32.801  24.926  26.119  1.00  0.00     0.015 C 
ATOM     15  C   UNL A   1      32.598  23.496  26.590  1.00  0.00     0.010 C 
ATOM     16  C   UNL A   1      34.299  25.186  25.977  1.00  0.00     0.010 C 
ENDBRANCH  13  14
BRANCH  13  17
ATOM     17  N   UNL A   1      32.734  25.554  23.604  1.00  0.00    -0.344 N 
ATOM     18  C   UNL A   1      33.085  24.879  22.484  1.00  0.00     0.226 C 
ATOM     19  H   UNL A   1      33.074  26.478  23.569  1.00  0.00     0.164 HD
ATOM     20  O   UNL A   1      33.093  25.570  21.454  1.00  0.00    -0.275 OA
BRANCH  18  21
ATOM     21  C   UNL A   1      33.626  23.457  22.380  1.00  0.00     0.107 C 
ATOM     22  C   UNL A   1      34.934  23.268  23.126  1.00  0.00     0.116 C 
ATOM     23  C   UNL A   1      32.737  22.268  22.717  1.00  0.00     0.139 C 
ATOM     24  C   UNL A   1      34.708  22.083  24.015  1.00  0.00     0.227 C 
ATOM     25  N   UNL A   1      33.517  21.470  23.640  1.00  0.00    -0.312 N 
ATOM     26  O   UNL A   1      35.491  21.757  24.884  1.00  0.00    -0.274 OA
BRANCH  25  27
ATOM     27  C   UNL A   1      33.074  20.243  24.170  1.00  0.00     0.044 A 
ATOM     28  C   UNL A   1      33.170  19.983  25.542  1.00  0.00     0.029 A 
ATOM     29  C   UNL A   1      32.621  19.232  23.315  1.00  0.00     0.029 A 
ATOM     30  C   UNL A   1      32.811  18.735  26.058  1.00  0.00     0.041 A 
ATOM     31  C   UNL A   1      32.326  17.961  23.825  1.00  0.00     0.041 A 
ATOM     32  C   UNL A   1      32.421  17.726  25.192  1.00  0.00     0.123 A 
ATOM     33  F   UNL A   1      32.151  16.507  25.679  1.00  0.00    -0.207 F 
ENDBRANCH  25  27
ENDBRANCH  18  21
ENDBRANCH  13  17
ENDBRANCH  11  13
ENDBRANCH   7  11
ENDBRANCH   3   6
ENDBRANCH   1   2
BRANCH   1  34
ATOM     34  C   UNL A   1      31.825  30.294  26.799  1.00  0.00     0.023 C 
BRANCH  34  35
ATOM     35  C   UNL A   1      31.667  31.813  26.745  1.00  0.00     0.023 C 
BRANCH  35  36
ATOM     36  C   UNL A   1      32.828  32.639  27.290  1.00  0.00     0.116 C 
BRANCH  36  37
ATOM     37  N   UNL A   1      32.458  33.994  27.665  1.00  0.00    -0.352 N 
ATOM     38  C   UNL A   1      33.017  34.855  28.579  1.00  0.00     0.251 C 
ATOM     39  H   UNL A   1      31.679  34.356  27.184  1.00  0.00     0.163 HD
ATOM     40  O   UNL A   1      32.507  35.950  28.805  1.00  0.00    -0.269 OA
BRANCH  38  41
ATOM     41  C   UNL A   1      34.228  34.452  29.320  1.00  0.00     0.039 A 
ATOM     42  C   UNL A   1      34.091  33.903  30.595  1.00  0.00     0.014 A 
ATOM     43  C   UNL A   1      35.494  34.599  28.748  1.00  0.00     0.014 A 
ATOM     44  C   UNL A   1      35.216  33.401  31.248  1.00  0.00     0.010 A 
ATOM     45  C   UNL A   1      36.604  34.040  29.366  1.00  0.00     0.010 A 
ATOM     46  C   UNL A   1      36.468  33.415  30.610  1.00  0.00    -0.014 A 
BRANCH  46  47
ATOM     47  C   UNL A   1      37.626  32.699  31.188  1.00  0.00     0.031 A 
ATOM     48  C   UNL A   1      38.273  33.179  32.450  1.00  0.00     0.074 A 
ATOM     49  C   UNL A   1      38.141  31.657  30.506  1.00  0.00     0.049 A 
ATOM     50  N   UNL A   1      39.308  32.685  33.080  1.00  0.00    -0.248 NA
ATOM     51  C   UNL A   1      37.702  34.382  33.076  1.00  0.00     0.031 C 
ATOM     52  C   UNL A   1      37.631  31.154  29.227  1.00  0.00     0.029 A 
ATOM     53  N   UNL A   1      39.206  30.840  30.783  1.00  0.00    -0.354 N 
ATOM     54  C   UNL A   1      39.509  33.512  34.176  1.00  0.00     0.074 A 
ATOM     55  C   UNL A   1      38.529  34.572  34.094  1.00  0.00     0.031 C 
ATOM     56  C   UNL A   1      38.358  30.091  28.853  1.00  0.00     0.029 A 
ATOM     57  C   UNL A   1      39.408  29.862  29.839  1.00  0.00     0.049 A 
ATOM     58  H   UNL A   1      39.771  30.943  31.582  1.00  0.00     0.167 HD
ATOM     59  C   UNL A   1      40.416  33.376  35.172  1.00  0.00     0.037 A 
ATOM     60  C   UNL A   1      40.335  28.889  29.776  1.00  0.00     0.037 A 
ATOM     61  C   UNL A   1      41.382  32.310  35.240  1.00  0.00     0.049 A 
ATOM     62  C   UNL A   1      41.340  28.769  30.885  1.00  0.00     0.074 A 
ATOM     63  C   UNL A   1      42.301  32.046  36.240  1.00  0.00     0.029 A 
ATOM     64  N   UNL A   1      41.562  31.339  34.264  1.00  0.00    -0.354 N 
ATOM     65  N   UNL A   1      41.468  29.504  31.963  1.00  0.00    -0.248 NA
ATOM     66  C   UNL A   1      42.327  27.686  30.774  1.00  0.00     0.031 C 
ATOM     67  C   UNL A   1      43.077  30.954  35.841  1.00  0.00     0.029 A 
ATOM     68  C   UNL A   1      42.600  30.495  34.623  1.00  0.00     0.049 A 
ATOM     69  H   UNL A   1      41.030  31.261  33.439  1.00  0.00     0.167 HD
ATOM     70  C   UNL A   1      42.533  28.963  32.670  1.00  0.00     0.074 A 
ATOM     71  C   UNL A   1      43.008  27.829  31.904  1.00  0.00     0.031 C 
ATOM     72  C   UNL A   1      43.066  29.371  33.847  1.00  0.00     0.037 A 
BRANCH  59  73
ATOM     73  C   UNL A   1      40.404  34.396  36.273  1.00  0.00     0.057 A 
ATOM     74  C   UNL A   1      39.547  34.254  37.372  1.00  0.00     0.134 A 
ATOM     75  C   UNL A   1      41.192  35.554  36.216  1.00  0.00     0.134 A 
ATOM     76  F   UNL A   1      38.759  33.174  37.488  1.00  0.00    -0.206 F 
ATOM     77  C   UNL A   1      39.469  35.230  38.368  1.00  0.00     0.040 A 
ATOM     78  C   UNL A   1      41.144  36.522  37.220  1.00  0.00     0.040 A 
ATOM     79  F   UNL A   1      42.039  35.749  35.194  1.00  0.00    -0.206 F 
ATOM     80  C   UNL A   1      40.272  36.365  38.295  1.00  0.00     0.006 A 
ENDBRANCH  59  73
BRANCH  60  81
ATOM     81  C   UNL A   1      40.308  27.930  28.643  1.00  0.00     0.057 A 
ATOM     82  C   UNL A   1      39.631  26.707  28.733  1.00  0.00     0.134 A 
ATOM     83  C   UNL A   1      41.014  28.191  27.464  1.00  0.00     0.134 A 
ATOM     84  F   UNL A   1      38.947  26.390  29.842  1.00  0.00    -0.206 F 
ATOM     85  C   UNL A   1      39.680  25.768  27.701  1.00  0.00     0.040 A 
ATOM     86  C   UNL A   1      41.051  27.272  26.415  1.00  0.00     0.040 A 
ATOM     87  F   UNL A   1      41.670  29.351  27.314  1.00  0.00    -0.206 F 
ATOM     88  C   UNL A   1      40.390  26.051  26.536  1.00  0.00     0.006 A 
ENDBRANCH  60  81
BRANCH  72  89
ATOM     89  C   UNL A   1      44.219  28.585  34.398  1.00  0.00     0.057 A 
ATOM     90  C   UNL A   1      45.537  28.919  34.058  1.00  0.00     0.134 A 
ATOM     91  C   UNL A   1      44.024  27.448  35.193  1.00  0.00     0.134 A 
ATOM     92  F   UNL A   1      45.793  29.990  33.291  1.00  0.00    -0.206 F 
ATOM     93  C   UNL A   1      46.617  28.138  34.470  1.00  0.00     0.040 A 
ATOM     94  C   UNL A   1      45.099  26.676  35.634  1.00  0.00     0.040 A 
ATOM     95  F   UNL A   1      42.788  27.082  35.564  1.00  0.00    -0.206 F 
ATOM     96  C   UNL A   1      46.400  27.013  35.262  1.00  0.00     0.006 A 
ENDBRANCH  72  89
ENDBRANCH  46  47
ENDBRANCH  38  41
ENDBRANCH  36  37
ENDBRANCH  35  36
ENDBRANCH  34  35
ENDBRANCH   1  34
TORSDOF 17
ENDMDL
MODEL 2
REMARK VINA RESULT:     -12.9      1.632      6.426
REMARK SMILES CC(C)[C@H](NC(=O)[C@H]1CC(=O)N(c2ccc(F)cc2)C1)C(=O)N1CCC[C@@H]1C(=O)NCCCCNC(=O)c1ccc(-c2c3nc(c(-c4c(F)cccc4F)c4ccc([nH]4)c(-c4c(F)cccc4F)c4nc(c(-c5c(F)cccc5F)c5ccc2[nH]5)C=C4)C=C3)cc1
REMARK SMILES IDX 31 1 30 2 28 3 29 4 27 6 23 7 24 8 25 9 26 10 21 11 22 12
REMARK SMILES IDX 4 13 2 14 1 15 3 16 5 17 6 18 7 20 8 21 9 22 20 23 10 24
REMARK SMILES IDX 12 25 11 26 13 27 14 28 19 29 15 30 18 31 16 32 17 33 32 34
REMARK SMILES IDX 33 35 34 36 35 37 36 38 37 40 38 41 39 42 91 43 40 44 90 45
REMARK SMILES IDX 41 46 42 47 43 48 84 49 44 50 89 51 83 52 85 53 45 54 88 55
REMARK SMILES IDX 82 56 81 57 46 59 72 60 55 61 71 62 56 63 59 64 70 65 86 66
REMARK SMILES IDX 57 67 58 68 69 70 87 71 60 72 47 73 48 74 53 75 49 76 50 77
REMARK SMILES IDX 52 78 54 79 51 80 73 81 74 82 79 83 75 84 76 85 78 86 80 87
REMARK SMILES IDX 77 88 61 89 62 90 67 91 63 92 64 93 66 94 68 95 65 96
REMARK H PARENT 30 5 5 19 35 39 85 58 59 69
REMARK Flexibility Score: inf
ROOT
ATOM      1  C   UNL A   1      33.293  29.881  26.447  1.00  0.00     0.116 C 
ENDROOT
BRANCH   1   2
ATOM      2  N   UNL A   1      33.445  29.480  25.062  1.00  0.00    -0.354 N 
ATOM      3  C   UNL A   1      32.534  29.095  24.121  1.00  0.00     0.242 C 
ATOM      4  O   UNL A   1      32.998  28.828  23.005  1.00  0.00    -0.273 OA
ATOM      5  H   UNL A   1      34.375  29.486  24.741  1.00  0.00     0.163 HD
BRANCH   3   6
ATOM      6  C   UNL A   1      31.010  28.947  24.387  1.00  0.00     0.174 C 
ATOM      7  N   UNL A   1      30.484  27.571  24.419  1.00  0.00    -0.329 N 
ATOM      8  C   UNL A   1      29.219  27.502  23.716  1.00  0.00     0.120 C 
ATOM      9  C   UNL A   1      29.212  28.681  22.760  1.00  0.00     0.024 C 
ATOM     10  C   UNL A   1      30.130  29.719  23.399  1.00  0.00     0.037 C 
BRANCH   7  11
ATOM     11  C   UNL A   1      30.782  26.761  25.514  1.00  0.00     0.246 C 
ATOM     12  O   UNL A   1      30.868  27.242  26.648  1.00  0.00    -0.272 OA
BRANCH  11  13
ATOM     13  C   UNL A   1      31.337  25.308  25.277  1.00  0.00     0.174 C 
BRANCH  13  14
ATOM     14  C   UNL A   1      31.763  25.100  23.809  1.00  0.00     0.015 C 
ATOM     15  C   UNL A   1      33.244  24.836  23.599  1.00  0.00     0.010 C 
ATOM     16  C   UNL A   1      30.966  24.008  23.098  1.00  0.00     0.010 C 
ENDBRANCH  13  14
BRANCH  13  17
ATOM     17  N   UNL A   1      30.563  24.227  25.936  1.00  0.00    -0.344 N 
ATOM     18  C   UNL A   1      30.773  23.169  26.753  1.00  0.00     0.226 C 
ATOM     19  H   UNL A   1      29.607  24.303  25.710  1.00  0.00     0.164 HD
ATOM     20  O   UNL A   1      29.857  22.961  27.563  1.00  0.00    -0.275 OA
BRANCH  18  21
ATOM     21  C   UNL A   1      31.887  22.131  26.672  1.00  0.00     0.107 C 
ATOM     22  C   UNL A   1      31.871  21.349  25.371  1.00  0.00     0.116 C 
ATOM     23  C   UNL A   1      33.331  22.528  26.944  1.00  0.00     0.139 C 
ATOM     24  C   UNL A   1      33.262  21.468  24.828  1.00  0.00     0.227 C 
ATOM     25  N   UNL A   1      34.078  22.010  25.817  1.00  0.00    -0.312 N 
ATOM     26  O   UNL A   1      33.562  21.109  23.707  1.00  0.00    -0.274 OA
BRANCH  25  27
ATOM     27  C   UNL A   1      35.476  22.124  25.694  1.00  0.00     0.044 A 
ATOM     28  C   UNL A   1      36.258  21.006  25.379  1.00  0.00     0.029 A 
ATOM     29  C   UNL A   1      36.109  23.338  25.982  1.00  0.00     0.029 A 
ATOM     30  C   UNL A   1      37.651  21.099  25.341  1.00  0.00     0.041 A 
ATOM     31  C   UNL A   1      37.507  23.412  26.010  1.00  0.00     0.041 A 
ATOM     32  C   UNL A   1      38.265  22.293  25.687  1.00  0.00     0.123 A 
ATOM     33  F   UNL A   1      39.602  22.359  25.726  1.00  0.00    -0.207 F 
ENDBRANCH  25  27
ENDBRANCH  18  21
ENDBRANCH  13  17
ENDBRANCH  11  13
ENDBRANCH   7  11
ENDBRANCH   3   6
ENDBRANCH   1   2
BRANCH   1  34
ATOM     34  C   UNL A   1      31.891  30.374  26.784  1.00  0.00     0.023 C 
BRANCH  34  35
ATOM     35  C   UNL A   1      31.711  31.892  26.785  1.00  0.00     0.023 C 
BRANCH  35  36
ATOM     36  C   UNL A   1      32.853  32.714  27.374  1.00  0.00     0.116 C 
BRANCH  36  37
ATOM     37  N   UNL A   1      32.490  34.089  27.676  1.00  0.00    -0.352 N 
ATOM     38  C   UNL A   1      33.025  34.980  28.577  1.00  0.00     0.251 C 
ATOM     39  H   UNL A   1      31.739  34.442  27.148  1.00  0.00     0.163 HD
ATOM     40  O   UNL A   1      32.525  36.090  28.735  1.00  0.00    -0.269 OA
BRANCH  38  41
ATOM     41  C   UNL A   1      34.197  34.590  29.385  1.00  0.00     0.039 A 
ATOM     42  C   UNL A   1      34.001  34.157  30.697  1.00  0.00     0.014 A 
ATOM     43  C   UNL A   1      35.482  34.633  28.842  1.00  0.00     0.014 A 
ATOM     44  C   UNL A   1      35.085  33.665  31.424  1.00  0.00     0.010 A 
ATOM     45  C   UNL A   1      36.549  34.081  29.537  1.00  0.00     0.010 A 
ATOM     46  C   UNL A   1      36.353  33.571  30.825  1.00  0.00    -0.014 A 
BRANCH  46  47
ATOM     47  C   UNL A   1      37.462  32.858  31.495  1.00  0.00     0.031 A 
ATOM     48  C   UNL A   1      38.094  31.656  30.863  1.00  0.00     0.074 A 
ATOM     49  C   UNL A   1      37.832  33.261  32.726  1.00  0.00     0.049 A 
ATOM     50  N   UNL A   1      39.059  30.901  31.322  1.00  0.00    -0.248 NA
ATOM     51  C   UNL A   1      37.560  31.231  29.559  1.00  0.00     0.031 C 
ATOM     52  C   UNL A   1      37.231  34.376  33.463  1.00  0.00     0.029 A 
ATOM     53  N   UNL A   1      38.793  32.780  33.578  1.00  0.00    -0.354 N 
ATOM     54  C   UNL A   1      39.251  29.915  30.364  1.00  0.00     0.074 A 
ATOM     55  C   UNL A   1      38.265  30.132  29.328  1.00  0.00     0.031 C 
ATOM     56  C   UNL A   1      37.863  34.517  34.637  1.00  0.00     0.029 A 
ATOM     57  C   UNL A   1      38.884  33.482  34.755  1.00  0.00     0.049 A 
ATOM     58  H   UNL A   1      39.364  32.007  33.365  1.00  0.00     0.167 HD
ATOM     59  C   UNL A   1      40.186  28.937  30.345  1.00  0.00     0.037 A 
ATOM     60  C   UNL A   1      39.700  33.312  35.812  1.00  0.00     0.037 A 
ATOM     61  C   UNL A   1      41.164  28.739  31.384  1.00  0.00     0.049 A 
ATOM     62  C   UNL A   1      40.719  32.210  35.774  1.00  0.00     0.074 A 
ATOM     63  C   UNL A   1      42.196  27.819  31.428  1.00  0.00     0.029 A 
ATOM     64  N   UNL A   1      41.225  29.467  32.565  1.00  0.00    -0.354 N 
ATOM     65  N   UNL A   1      40.951  31.336  34.824  1.00  0.00    -0.248 NA
ATOM     66  C   UNL A   1      41.591  32.068  36.947  1.00  0.00     0.031 C 
ATOM     67  C   UNL A   1      42.841  27.948  32.661  1.00  0.00     0.029 A 
ATOM     68  C   UNL A   1      42.255  28.992  33.360  1.00  0.00     0.049 A 
ATOM     69  H   UNL A   1      40.625  30.210  32.803  1.00  0.00     0.167 HD
ATOM     70  C   UNL A   1      42.007  30.555  35.272  1.00  0.00     0.074 A 
ATOM     71  C   UNL A   1      42.379  31.068  36.576  1.00  0.00     0.031 C 
ATOM     72  C   UNL A   1      42.612  29.510  34.658  1.00  0.00     0.037 A 
BRANCH  59  73
ATOM     73  C   UNL A   1      40.206  28.012  29.164  1.00  0.00     0.057 A 
ATOM     74  C   UNL A   1      40.918  28.344  28.004  1.00  0.00     0.134 A 
ATOM     75  C   UNL A   1      39.468  26.820  29.148  1.00  0.00     0.134 A 
ATOM     76  F   UNL A   1      41.640  29.473  27.946  1.00  0.00    -0.206 F 
ATOM     77  C   UNL A   1      40.886  27.530  26.869  1.00  0.00     0.040 A 
ATOM     78  C   UNL A   1      39.453  25.984  28.030  1.00  0.00     0.040 A 
ATOM     79  F   UNL A   1      38.769  26.439  30.228  1.00  0.00    -0.206 F 
ATOM     80  C   UNL A   1      40.156  26.344  26.883  1.00  0.00     0.006 A 
ENDBRANCH  59  73
BRANCH  60  81
ATOM     81  C   UNL A   1      39.608  34.247  36.961  1.00  0.00     0.057 A 
ATOM     82  C   UNL A   1      40.308  35.460  36.977  1.00  0.00     0.134 A 
ATOM     83  C   UNL A   1      38.865  33.916  38.098  1.00  0.00     0.134 A 
ATOM     84  F   UNL A   1      41.050  35.830  35.923  1.00  0.00    -0.206 F 
ATOM     85  C   UNL A   1      40.291  36.297  38.094  1.00  0.00     0.040 A 
ATOM     86  C   UNL A   1      38.820  34.755  39.213  1.00  0.00     0.040 A 
ATOM     87  F   UNL A   1      38.163  32.774  38.136  1.00  0.00    -0.206 F 
ATOM     88  C   UNL A   1      39.543  35.946  39.216  1.00  0.00     0.006 A 
ENDBRANCH  60  81
BRANCH  72  89
ATOM     89  C   UNL A   1      43.752  28.847  35.374  1.00  0.00     0.057 A 
ATOM     90  C   UNL A   1      43.511  27.856  36.335  1.00  0.00     0.134 A 
ATOM     91  C   UNL A   1      45.079  29.249  35.177  1.00  0.00     0.134 A 
ATOM     92  F   UNL A   1      42.262  27.432  36.580  1.00  0.00    -0.206 F 
ATOM     93  C   UNL A   1      44.547  27.304  37.089  1.00  0.00     0.040 A 
ATOM     94  C   UNL A   1      46.126  28.683  35.906  1.00  0.00     0.040 A 
ATOM     95  F   UNL A   1      45.378  30.184  34.264  1.00  0.00    -0.206 F 
ATOM     96  C   UNL A   1      45.860  27.717  36.874  1.00  0.00     0.006 A 
ENDBRANCH  72  89
ENDBRANCH  46  47
ENDBRANCH  38  41
ENDBRANCH  36  37
ENDBRANCH  35  36
ENDBRANCH  34  35
ENDBRANCH   1  34
TORSDOF 17
ENDMDL
MODEL 3
REMARK VINA RESULT:     -12.9      4.811     10.274
REMARK SMILES CC(C)[C@H](NC(=O)[C@H]1CC(=O)N(c2ccc(F)cc2)C1)C(=O)N1CCC[C@@H]1C(=O)NCCCCNC(=O)c1ccc(-c2c3nc(c(-c4c(F)cccc4F)c4ccc([nH]4)c(-c4c(F)cccc4F)c4nc(c(-c5c(F)cccc5F)c5ccc2[nH]5)C=C4)C=C3)cc1
REMARK SMILES IDX 31 1 30 2 28 3 29 4 27 6 23 7 24 8 25 9 26 10 21 11 22 12
REMARK SMILES IDX 4 13 2 14 1 15 3 16 5 17 6 18 7 20 8 21 9 22 20 23 10 24
REMARK SMILES IDX 12 25 11 26 13 27 14 28 19 29 15 30 18 31 16 32 17 33 32 34
REMARK SMILES IDX 33 35 34 36 35 37 36 38 37 40 38 41 39 42 91 43 40 44 90 45
REMARK SMILES IDX 41 46 42 47 43 48 84 49 44 50 89 51 83 52 85 53 45 54 88 55
REMARK SMILES IDX 82 56 81 57 46 59 72 60 55 61 71 62 56 63 59 64 70 65 86 66
REMARK SMILES IDX 57 67 58 68 69 70 87 71 60 72 47 73 48 74 53 75 49 76 50 77
REMARK SMILES IDX 52 78 54 79 51 80 73 81 74 82 79 83 75 84 76 85 78 86 80 87
REMARK SMILES IDX 77 88 61 89 62 90 67 91 63 92 64 93 66 94 68 95 65 96
REMARK H PARENT 30 5 5 19 35 39 85 58 59 69
REMARK Flexibility Score: inf
ROOT
ATOM      1  C   UNL A   1      37.232  22.818  25.453  1.00  0.00     0.116 C 
ENDROOT
BRANCH   1   2
ATOM      2  N   UNL A   1      36.137  22.469  26.337  1.00  0.00    -0.354 N 
ATOM      3  C   UNL A   1      35.038  21.679  26.158  1.00  0.00     0.242 C 
ATOM      4  O   UNL A   1      34.289  21.574  27.138  1.00  0.00    -0.273 OA
ATOM      5  H   UNL A   1      36.197  22.877  27.231  1.00  0.00     0.163 HD
BRANCH   3   6
ATOM      6  C   UNL A   1      34.680  20.967  24.824  1.00  0.00     0.174 C 
ATOM      7  N   UNL A   1      33.691  21.644  23.968  1.00  0.00    -0.329 N 
ATOM      8  C   UNL A   1      32.758  20.679  23.420  1.00  0.00     0.120 C 
ATOM      9  C   UNL A   1      32.797  19.487  24.360  1.00  0.00     0.024 C 
ATOM     10  C   UNL A   1      34.181  19.530  25.002  1.00  0.00     0.037 C 
BRANCH   7  11
ATOM     11  C   UNL A   1      34.069  22.798  23.282  1.00  0.00     0.246 C 
ATOM     12  O   UNL A   1      35.212  22.915  22.830  1.00  0.00    -0.272 OA
BRANCH  11  13
ATOM     13  C   UNL A   1      33.167  24.084  23.369  1.00  0.00     0.174 C 
BRANCH  13  14
ATOM     14  C   UNL A   1      32.112  23.958  24.488  1.00  0.00     0.015 C 
ATOM     15  C   UNL A   1      32.260  24.952  25.627  1.00  0.00     0.010 C 
ATOM     16  C   UNL A   1      30.676  24.015  23.972  1.00  0.00     0.010 C 
ENDBRANCH  13  14
BRANCH  13  17
ATOM     17  N   UNL A   1      32.730  24.631  22.061  1.00  0.00    -0.344 N 
ATOM     18  C   UNL A   1      32.732  25.807  21.390  1.00  0.00     0.226 C 
ATOM     19  H   UNL A   1      32.313  23.925  21.515  1.00  0.00     0.164 HD
ATOM     20  O   UNL A   1      32.899  25.695  20.166  1.00  0.00    -0.275 OA
BRANCH  18  21
ATOM     21  C   UNL A   1      32.383  27.191  21.928  1.00  0.00     0.107 C 
ATOM     22  C   UNL A   1      30.936  27.303  22.375  1.00  0.00     0.116 C 
ATOM     23  C   UNL A   1      33.241  27.836  23.007  1.00  0.00     0.139 C 
ATOM     24  C   UNL A   1      31.001  27.839  23.772  1.00  0.00     0.227 C 
ATOM     25  N   UNL A   1      32.303  28.261  24.024  1.00  0.00    -0.312 N 
ATOM     26  O   UNL A   1      30.031  27.887  24.501  1.00  0.00    -0.274 OA
BRANCH  25  27
ATOM     27  C   UNL A   1      32.683  28.951  25.191  1.00  0.00     0.044 A 
ATOM     28  C   UNL A   1      31.972  30.078  25.617  1.00  0.00     0.029 A 
ATOM     29  C   UNL A   1      33.838  28.572  25.885  1.00  0.00     0.029 A 
ATOM     30  C   UNL A   1      32.398  30.814  26.726  1.00  0.00     0.041 A 
ATOM     31  C   UNL A   1      34.302  29.349  26.954  1.00  0.00     0.041 A 
ATOM     32  C   UNL A   1      33.577  30.461  27.366  1.00  0.00     0.123 A 
ATOM     33  F   UNL A   1      34.026  31.212  28.379  1.00  0.00    -0.207 F 
ENDBRANCH  25  27
ENDBRANCH  18  21
ENDBRANCH  13  17
ENDBRANCH  11  13
ENDBRANCH   7  11
ENDBRANCH   3   6
ENDBRANCH   1   2
BRANCH   1  34
ATOM     34  C   UNL A   1      38.567  22.964  26.172  1.00  0.00     0.023 C 
BRANCH  34  35
ATOM     35  C   UNL A   1      39.284  21.655  26.500  1.00  0.00     0.023 C 
BRANCH  35  36
ATOM     36  C   UNL A   1      39.156  20.532  25.475  1.00  0.00     0.116 C 
BRANCH  36  37
ATOM     37  N   UNL A   1      40.025  19.396  25.737  1.00  0.00    -0.352 N 
ATOM     38  C   UNL A   1      41.338  19.348  26.143  1.00  0.00     0.251 C 
ATOM     39  H   UNL A   1      39.604  18.516  25.604  1.00  0.00     0.163 HD
ATOM     40  O   UNL A   1      41.925  18.273  26.243  1.00  0.00    -0.269 OA
BRANCH  38  41
ATOM     41  C   UNL A   1      42.061  20.600  26.436  1.00  0.00     0.039 A 
ATOM     42  C   UNL A   1      42.516  21.384  25.376  1.00  0.00     0.014 A 
ATOM     43  C   UNL A   1      42.271  21.008  27.755  1.00  0.00     0.014 A 
ATOM     44  C   UNL A   1      43.083  22.630  25.640  1.00  0.00     0.010 A 
ATOM     45  C   UNL A   1      42.774  22.274  28.019  1.00  0.00     0.010 A 
ATOM     46  C   UNL A   1      43.161  23.104  26.961  1.00  0.00    -0.014 A 
BRANCH  46  47
ATOM     47  C   UNL A   1      43.558  24.500  27.247  1.00  0.00     0.031 A 
ATOM     48  C   UNL A   1      44.993  24.922  27.168  1.00  0.00     0.074 A 
ATOM     49  C   UNL A   1      42.611  25.362  27.667  1.00  0.00     0.049 A 
ATOM     50  N   UNL A   1      45.516  26.096  27.408  1.00  0.00    -0.248 NA
ATOM     51  C   UNL A   1      45.971  23.889  26.793  1.00  0.00     0.031 C 
ATOM     52  C   UNL A   1      41.195  25.033  27.849  1.00  0.00     0.029 A 
ATOM     53  N   UNL A   1      42.693  26.684  28.022  1.00  0.00    -0.354 N 
ATOM     54  C   UNL A   1      46.881  25.946  27.211  1.00  0.00     0.074 A 
ATOM     55  C   UNL A   1      47.114  24.555  26.890  1.00  0.00     0.031 C 
ATOM     56  C   UNL A   1      40.536  26.133  28.243  1.00  0.00     0.029 A 
ATOM     57  C   UNL A   1      41.485  27.231  28.380  1.00  0.00     0.049 A 
ATOM     58  H   UNL A   1      43.536  27.192  28.019  1.00  0.00     0.167 HD
ATOM     59  C   UNL A   1      47.845  26.894  27.268  1.00  0.00     0.037 A 
ATOM     60  C   UNL A   1      41.176  28.481  28.775  1.00  0.00     0.037 A 
ATOM     61  C   UNL A   1      47.595  28.277  27.585  1.00  0.00     0.049 A 
ATOM     62  C   UNL A   1      42.266  29.511  28.846  1.00  0.00     0.074 A 
ATOM     63  C   UNL A   1      48.493  29.329  27.605  1.00  0.00     0.029 A 
ATOM     64  N   UNL A   1      46.360  28.797  27.947  1.00  0.00    -0.354 N 
ATOM     65  N   UNL A   1      43.542  29.380  28.573  1.00  0.00    -0.248 NA
ATOM     66  C   UNL A   1      41.879  30.861  29.274  1.00  0.00     0.031 C 
ATOM     67  C   UNL A   1      47.814  30.472  28.038  1.00  0.00     0.029 A 
ATOM     68  C   UNL A   1      46.480  30.149  28.227  1.00  0.00     0.049 A 
ATOM     69  H   UNL A   1      45.523  28.282  27.998  1.00  0.00     0.167 HD
ATOM     70  C   UNL A   1      44.107  30.631  28.775  1.00  0.00     0.074 A 
ATOM     71  C   UNL A   1      43.031  31.513  29.181  1.00  0.00     0.031 C 
ATOM     72  C   UNL A   1      45.399  31.013  28.635  1.00  0.00     0.037 A 
BRANCH  59  73
ATOM     73  C   UNL A   1      49.256  26.476  26.975  1.00  0.00     0.057 A 
ATOM     74  C   UNL A   1      49.732  26.431  25.658  1.00  0.00     0.134 A 
ATOM     75  C   UNL A   1      50.128  26.055  27.989  1.00  0.00     0.134 A 
ATOM     76  F   UNL A   1      48.949  26.812  24.636  1.00  0.00    -0.206 F 
ATOM     77  C   UNL A   1      51.017  25.973  25.360  1.00  0.00     0.040 A 
ATOM     78  C   UNL A   1      51.425  25.623  27.706  1.00  0.00     0.040 A 
ATOM     79  F   UNL A   1      49.738  26.079  29.272  1.00  0.00    -0.206 F 
ATOM     80  C   UNL A   1      51.869  25.572  26.387  1.00  0.00     0.006 A 
ENDBRANCH  59  73
BRANCH  60  81
ATOM     81  C   UNL A   1      39.764  28.821  29.078  1.00  0.00     0.057 A 
ATOM     82  C   UNL A   1      39.241  28.698  30.371  1.00  0.00     0.134 A 
ATOM     83  C   UNL A   1      38.887  29.219  28.063  1.00  0.00     0.134 A 
ATOM     84  F   UNL A   1      40.026  28.308  31.386  1.00  0.00    -0.206 F 
ATOM     85  C   UNL A   1      37.891  28.933  30.638  1.00  0.00     0.040 A 
ATOM     86  C   UNL A   1      37.541  29.481  28.320  1.00  0.00     0.040 A 
ATOM     87  F   UNL A   1      39.333  29.367  26.807  1.00  0.00    -0.206 F 
ATOM     88  C   UNL A   1      37.037  29.328  29.610  1.00  0.00     0.006 A 
ENDBRANCH  60  81
BRANCH  72  89
ATOM     89  C   UNL A   1      45.734  32.450  28.909  1.00  0.00     0.057 A 
ATOM     90  C   UNL A   1      45.640  33.411  27.894  1.00  0.00     0.134 A 
ATOM     91  C   UNL A   1      46.231  32.867  30.151  1.00  0.00     0.134 A 
ATOM     92  F   UNL A   1      45.182  33.076  26.678  1.00  0.00    -0.206 F 
ATOM     93  C   UNL A   1      46.050  34.729  28.097  1.00  0.00     0.040 A 
ATOM     94  C   UNL A   1      46.617  34.189  30.373  1.00  0.00     0.040 A 
ATOM     95  F   UNL A   1      46.334  31.999  31.168  1.00  0.00    -0.206 F 
ATOM     96  C   UNL A   1      46.538  35.122  29.341  1.00  0.00     0.006 A 
ENDBRANCH  72  89
ENDBRANCH  46  47
ENDBRANCH  38  41
ENDBRANCH  36  37
ENDBRANCH  35  36
ENDBRANCH  34  35
ENDBRANCH   1  34
TORSDOF 17
ENDMDL
