MODEL 1
REMARK VINA RESULT:     -11.8      0.000      0.000
REMARK SMILES CC1(C)[C@@]2(CC[C@@H]2C(=O)NCc2ccco2)[C@]1(C)C(=O)NCCCCNC(=O)c1ccc(-c2c3nc(c(-c4c(F)cccc4F)c4ccc([nH]4)c(-c4c(F)cccc4F)c4nc(c(-c5c(F)cccc5F)c5ccc2[nH]5)C=C4)C=C3)cc1
REMARK SMILES IDX 23 1 22 2 21 3 19 4 20 5 17 7 1 8 2 9 3 10 4 11 18 12 5 13
REMARK SMILES IDX 7 14 6 15 8 16 9 17 10 18 11 20 12 21 13 22 16 23 14 24
REMARK SMILES IDX 15 25 24 26 25 27 26 28 27 29 28 31 29 32 30 33 82 34 31 35
REMARK SMILES IDX 81 36 32 37 33 38 34 39 75 40 35 41 80 42 74 43 76 44 36 45
REMARK SMILES IDX 79 46 73 47 72 48 37 50 63 51 46 52 62 53 47 54 50 55 61 56
REMARK SMILES IDX 77 57 48 58 49 59 60 61 78 62 51 63 38 64 39 65 44 66 40 67
REMARK SMILES IDX 41 68 43 69 45 70 42 71 64 72 65 73 70 74 66 75 67 76 69 77
REMARK SMILES IDX 71 78 68 79 52 80 53 81 58 82 54 83 55 84 57 85 59 86 56 87
REMARK H PARENT 21 6 10 19 26 30 76 49 50 60
REMARK Flexibility Score: inf
ROOT
ATOM      1  C   UNL A   1      37.033  21.085  24.633  1.00  0.00     0.023 C 
ENDROOT
BRANCH   1   2
ATOM      2  C   UNL A   1      35.907  21.088  25.662  1.00  0.00     0.116 C 
BRANCH   2   3
ATOM      3  N   UNL A   1      34.614  20.841  25.077  1.00  0.00    -0.356 N 
ATOM      4  C   UNL A   1      33.679  21.578  24.414  1.00  0.00     0.227 C 
ATOM      5  O   UNL A   1      32.680  20.915  24.113  1.00  0.00    -0.274 OA
ATOM      6  H   UNL A   1      34.336  19.902  25.182  1.00  0.00     0.163 HD
BRANCH   4   7
ATOM      7  C   UNL A   1      33.684  23.059  24.019  1.00  0.00     0.059 C 
ATOM      8  C   UNL A   1      34.029  24.179  26.376  1.00  0.00     0.013 C 
ATOM      9  C   UNL A   1      33.701  24.330  24.907  1.00  0.00    -0.013 C 
ATOM     10  C   UNL A   1      34.313  25.634  24.401  1.00  0.00     0.013 C 
ATOM     11  C   UNL A   1      32.405  23.896  24.224  1.00  0.00     0.003 C 
ATOM     12  C   UNL A   1      34.468  23.232  22.696  1.00  0.00     0.023 C 
ATOM     13  C   UNL A   1      31.732  24.478  23.013  1.00  0.00     0.010 C 
ATOM     14  C   UNL A   1      31.092  23.492  24.835  1.00  0.00     0.086 C 
ATOM     15  C   UNL A   1      30.422  23.896  23.522  1.00  0.00     0.015 C 
BRANCH  14  16
ATOM     16  C   UNL A   1      30.578  24.106  26.161  1.00  0.00     0.224 C 
ATOM     17  O   UNL A   1      30.345  23.395  27.155  1.00  0.00    -0.275 OA
ATOM     18  N   UNL A   1      30.328  25.438  26.361  1.00  0.00    -0.349 N 
ATOM     19  H   UNL A   1      30.086  25.664  27.289  1.00  0.00     0.163 HD
BRANCH  18  20
ATOM     20  C   UNL A   1      30.354  26.569  25.468  1.00  0.00     0.191 C 
BRANCH  20  21
ATOM     21  C   UNL A   1      31.500  27.450  25.805  1.00  0.00     0.122 A 
ATOM     22  C   UNL A   1      32.342  27.562  26.895  1.00  0.00     0.047 A 
ATOM     23  O   UNL A   1      31.868  28.350  24.846  1.00  0.00    -0.467 OA
ATOM     24  C   UNL A   1      33.274  28.581  26.582  1.00  0.00     0.042 A 
ATOM     25  C   UNL A   1      32.941  29.029  25.326  1.00  0.00     0.195 A 
ENDBRANCH  20  21
ENDBRANCH  18  20
ENDBRANCH  14  16
ENDBRANCH   4   7
ENDBRANCH   2   3
ENDBRANCH   1   2
BRANCH   1  26
ATOM     26  C   UNL A   1      38.038  19.948  24.775  1.00  0.00     0.023 C 
BRANCH  26  27
ATOM     27  C   UNL A   1      39.020  20.099  25.927  1.00  0.00     0.116 C 
BRANCH  27  28
ATOM     28  N   UNL A   1      40.185  19.234  25.808  1.00  0.00    -0.352 N 
ATOM     29  C   UNL A   1      41.512  19.515  26.040  1.00  0.00     0.251 C 
ATOM     30  H   UNL A   1      39.995  18.313  25.518  1.00  0.00     0.163 HD
ATOM     31  O   UNL A   1      42.376  18.695  25.782  1.00  0.00    -0.269 OA
BRANCH  29  32
ATOM     32  C   UNL A   1      41.883  20.840  26.578  1.00  0.00     0.039 A 
ATOM     33  C   UNL A   1      42.268  21.846  25.689  1.00  0.00     0.014 A 
ATOM     34  C   UNL A   1      41.824  21.095  27.951  1.00  0.00     0.014 A 
ATOM     35  C   UNL A   1      42.538  23.127  26.176  1.00  0.00     0.010 A 
ATOM     36  C   UNL A   1      41.993  22.390  28.418  1.00  0.00     0.010 A 
ATOM     37  C   UNL A   1      42.374  23.416  27.540  1.00  0.00    -0.014 A 
BRANCH  37  38
ATOM     38  C   UNL A   1      42.648  24.770  28.081  1.00  0.00     0.031 A 
ATOM     39  C   UNL A   1      44.051  25.137  28.485  1.00  0.00     0.074 A 
ATOM     40  C   UNL A   1      41.639  25.642  28.265  1.00  0.00     0.049 A 
ATOM     41  N   UNL A   1      44.494  26.239  29.034  1.00  0.00    -0.248 NA
ATOM     42  C   UNL A   1      45.088  24.113  28.279  1.00  0.00     0.031 C 
ATOM     43  C   UNL A   1      40.229  25.387  27.964  1.00  0.00     0.029 A 
ATOM     44  N   UNL A   1      41.647  26.923  28.755  1.00  0.00    -0.354 N 
ATOM     45  C   UNL A   1      45.847  26.028  29.264  1.00  0.00     0.074 A 
ATOM     46  C   UNL A   1      46.141  24.672  28.855  1.00  0.00     0.031 C 
ATOM     47  C   UNL A   1      39.513  26.490  28.242  1.00  0.00     0.029 A 
ATOM     48  C   UNL A   1      40.408  27.516  28.771  1.00  0.00     0.049 A 
ATOM     49  H   UNL A   1      42.464  27.376  29.067  1.00  0.00     0.167 HD
ATOM     50  C   UNL A   1      46.770  26.892  29.746  1.00  0.00     0.037 A 
ATOM     51  C   UNL A   1      40.039  28.750  29.163  1.00  0.00     0.037 A 
ATOM     52  C   UNL A   1      46.485  28.254  30.107  1.00  0.00     0.049 A 
ATOM     53  C   UNL A   1      41.088  29.702  29.669  1.00  0.00     0.074 A 
ATOM     54  C   UNL A   1      47.360  29.235  30.535  1.00  0.00     0.029 A 
ATOM     55  N   UNL A   1      45.222  28.828  30.076  1.00  0.00    -0.354 N 
ATOM     56  N   UNL A   1      42.378  29.515  29.811  1.00  0.00    -0.248 NA
ATOM     57  C   UNL A   1      40.630  31.044  30.055  1.00  0.00     0.031 C 
ATOM     58  C   UNL A   1      46.621  30.394  30.800  1.00  0.00     0.029 A 
ATOM     59  C   UNL A   1      45.293  30.147  30.490  1.00  0.00     0.049 A 
ATOM     60  H   UNL A   1      44.399  28.365  29.799  1.00  0.00     0.167 HD
ATOM     61  C   UNL A   1      42.891  30.724  30.263  1.00  0.00     0.074 A 
ATOM     62  C   UNL A   1      41.773  31.639  30.365  1.00  0.00     0.031 C 
ATOM     63  C   UNL A   1      44.173  31.049  30.563  1.00  0.00     0.037 A 
BRANCH  50  64
ATOM     64  C   UNL A   1      48.175  26.384  29.903  1.00  0.00     0.057 A 
ATOM     65  C   UNL A   1      49.121  26.489  28.873  1.00  0.00     0.134 A 
ATOM     66  C   UNL A   1      48.590  25.791  31.101  1.00  0.00     0.134 A 
ATOM     67  F   UNL A   1      48.786  27.033  27.694  1.00  0.00    -0.206 F 
ATOM     68  C   UNL A   1      50.417  25.990  29.018  1.00  0.00     0.040 A 
ATOM     69  C   UNL A   1      49.892  25.316  31.269  1.00  0.00     0.040 A 
ATOM     70  F   UNL A   1      47.738  25.662  32.129  1.00  0.00    -0.206 F 
ATOM     71  C   UNL A   1      50.807  25.407  30.221  1.00  0.00     0.006 A 
ENDBRANCH  50  64
BRANCH  51  72
ATOM     72  C   UNL A   1      38.623  29.179  29.043  1.00  0.00     0.057 A 
ATOM     73  C   UNL A   1      37.768  29.151  30.151  1.00  0.00     0.134 A 
ATOM     74  C   UNL A   1      38.085  29.611  27.825  1.00  0.00     0.134 A 
ATOM     75  F   UNL A   1      38.221  28.731  31.341  1.00  0.00    -0.206 F 
ATOM     76  C   UNL A   1      36.425  29.515  30.050  1.00  0.00     0.040 A 
ATOM     77  C   UNL A   1      36.750  30.001  27.714  1.00  0.00     0.040 A 
ATOM     78  F   UNL A   1      38.853  29.668  26.728  1.00  0.00    -0.206 F 
ATOM     79  C   UNL A   1      35.913  29.945  28.828  1.00  0.00     0.006 A 
ENDBRANCH  51  72
BRANCH  63  80
ATOM     80  C   UNL A   1      44.444  32.468  30.967  1.00  0.00     0.057 A 
ATOM     81  C   UNL A   1      44.723  33.469  30.028  1.00  0.00     0.134 A 
ATOM     82  C   UNL A   1      44.389  32.842  32.316  1.00  0.00     0.134 A 
ATOM     83  F   UNL A   1      44.802  33.174  28.722  1.00  0.00    -0.206 F 
ATOM     84  C   UNL A   1      44.965  34.787  30.421  1.00  0.00     0.040 A 
ATOM     85  C   UNL A   1      44.600  34.161  32.717  1.00  0.00     0.040 A 
ATOM     86  F   UNL A   1      44.115  31.933  33.265  1.00  0.00    -0.206 F 
ATOM     87  C   UNL A   1      44.897  35.137  31.768  1.00  0.00     0.006 A 
ENDBRANCH  63  80
ENDBRANCH  37  38
ENDBRANCH  29  32
ENDBRANCH  27  28
ENDBRANCH  26  27
ENDBRANCH   1  26
TORSDOF 14
ENDMDL
MODEL 2
REMARK VINA RESULT:     -11.7      1.475      3.608
REMARK SMILES CC1(C)[C@@]2(CC[C@@H]2C(=O)NCc2ccco2)[C@]1(C)C(=O)NCCCCNC(=O)c1ccc(-c2c3nc(c(-c4c(F)cccc4F)c4ccc([nH]4)c(-c4c(F)cccc4F)c4nc(c(-c5c(F)cccc5F)c5ccc2[nH]5)C=C4)C=C3)cc1
REMARK SMILES IDX 23 1 22 2 21 3 19 4 20 5 17 7 1 8 2 9 3 10 4 11 18 12 5 13
REMARK SMILES IDX 7 14 6 15 8 16 9 17 10 18 11 20 12 21 13 22 16 23 14 24
REMARK SMILES IDX 15 25 24 26 25 27 26 28 27 29 28 31 29 32 30 33 82 34 31 35
REMARK SMILES IDX 81 36 32 37 33 38 34 39 75 40 35 41 80 42 74 43 76 44 36 45
REMARK SMILES IDX 79 46 73 47 72 48 37 50 63 51 46 52 62 53 47 54 50 55 61 56
REMARK SMILES IDX 77 57 48 58 49 59 60 61 78 62 51 63 38 64 39 65 44 66 40 67
REMARK SMILES IDX 41 68 43 69 45 70 42 71 64 72 65 73 70 74 66 75 67 76 69 77
REMARK SMILES IDX 71 78 68 79 52 80 53 81 58 82 54 83 55 84 57 85 59 86 56 87
REMARK H PARENT 21 6 10 19 26 30 76 49 50 60
REMARK Flexibility Score: inf
ROOT
ATOM      1  C   UNL A   1      36.443  20.473  25.017  1.00  0.00     0.023 C 
ENDROOT
BRANCH   1   2
ATOM      2  C   UNL A   1      36.419  21.914  25.515  1.00  0.00     0.116 C 
BRANCH   2   3
ATOM      3  N   UNL A   1      35.516  22.109  26.619  1.00  0.00    -0.356 N 
ATOM      4  C   UNL A   1      34.384  22.834  26.845  1.00  0.00     0.227 C 
ATOM      5  O   UNL A   1      33.956  22.697  27.998  1.00  0.00    -0.274 OA
ATOM      6  H   UNL A   1      35.783  21.587  27.410  1.00  0.00     0.163 HD
BRANCH   4   7
ATOM      7  C   UNL A   1      33.605  23.771  25.916  1.00  0.00     0.059 C 
ATOM      8  C   UNL A   1      31.204  22.703  26.067  1.00  0.00     0.013 C 
ATOM      9  C   UNL A   1      32.146  23.679  25.399  1.00  0.00    -0.013 C 
ATOM     10  C   UNL A   1      31.364  24.936  25.027  1.00  0.00     0.013 C 
ATOM     11  C   UNL A   1      33.307  23.321  24.472  1.00  0.00     0.003 C 
ATOM     12  C   UNL A   1      34.076  25.227  26.145  1.00  0.00     0.023 C 
ATOM     13  C   UNL A   1      33.895  24.115  23.341  1.00  0.00     0.010 C 
ATOM     14  C   UNL A   1      33.623  22.014  23.799  1.00  0.00     0.086 C 
ATOM     15  C   UNL A   1      34.400  22.808  22.750  1.00  0.00     0.015 C 
BRANCH  14  16
ATOM     16  C   UNL A   1      32.513  21.038  23.333  1.00  0.00     0.224 C 
ATOM     17  O   UNL A   1      31.835  21.268  22.316  1.00  0.00    -0.275 OA
ATOM     18  N   UNL A   1      32.175  19.876  23.973  1.00  0.00    -0.349 N 
ATOM     19  H   UNL A   1      31.505  19.336  23.495  1.00  0.00     0.163 HD
BRANCH  18  20
ATOM     20  C   UNL A   1      32.617  19.296  25.218  1.00  0.00     0.191 C 
BRANCH  20  21
ATOM     21  C   UNL A   1      33.281  17.995  24.958  1.00  0.00     0.122 A 
ATOM     22  C   UNL A   1      34.331  17.591  24.156  1.00  0.00     0.047 A 
ATOM     23  O   UNL A   1      32.809  16.928  25.669  1.00  0.00    -0.467 OA
ATOM     24  C   UNL A   1      34.510  16.207  24.392  1.00  0.00     0.042 A 
ATOM     25  C   UNL A   1      33.560  15.851  25.319  1.00  0.00     0.195 A 
ENDBRANCH  20  21
ENDBRANCH  18  20
ENDBRANCH  14  16
ENDBRANCH   4   7
ENDBRANCH   2   3
ENDBRANCH   1   2
BRANCH   1  26
ATOM     26  C   UNL A   1      37.829  19.909  24.730  1.00  0.00     0.023 C 
BRANCH  26  27
ATOM     27  C   UNL A   1      38.881  20.221  25.784  1.00  0.00     0.116 C 
BRANCH  27  28
ATOM     28  N   UNL A   1      40.015  19.308  25.755  1.00  0.00    -0.352 N 
ATOM     29  C   UNL A   1      41.334  19.540  26.068  1.00  0.00     0.251 C 
ATOM     30  H   UNL A   1      39.806  18.390  25.468  1.00  0.00     0.163 HD
ATOM     31  O   UNL A   1      42.179  18.682  25.881  1.00  0.00    -0.269 OA
BRANCH  29  32
ATOM     32  C   UNL A   1      41.723  20.859  26.609  1.00  0.00     0.039 A 
ATOM     33  C   UNL A   1      42.158  21.849  25.725  1.00  0.00     0.014 A 
ATOM     34  C   UNL A   1      41.634  21.124  27.978  1.00  0.00     0.014 A 
ATOM     35  C   UNL A   1      42.446  23.126  26.211  1.00  0.00     0.010 A 
ATOM     36  C   UNL A   1      41.823  22.418  28.442  1.00  0.00     0.010 A 
ATOM     37  C   UNL A   1      42.253  23.428  27.568  1.00  0.00    -0.014 A 
BRANCH  37  38
ATOM     38  C   UNL A   1      42.546  24.778  28.109  1.00  0.00     0.031 A 
ATOM     39  C   UNL A   1      43.956  25.131  28.500  1.00  0.00     0.074 A 
ATOM     40  C   UNL A   1      41.548  25.661  28.303  1.00  0.00     0.049 A 
ATOM     41  N   UNL A   1      44.416  26.228  29.045  1.00  0.00    -0.248 NA
ATOM     42  C   UNL A   1      44.981  24.096  28.282  1.00  0.00     0.031 C 
ATOM     43  C   UNL A   1      40.133  25.421  28.016  1.00  0.00     0.029 A 
ATOM     44  N   UNL A   1      41.574  26.941  28.796  1.00  0.00    -0.354 N 
ATOM     45  C   UNL A   1      45.769  26.002  29.262  1.00  0.00     0.074 A 
ATOM     46  C   UNL A   1      46.045  24.644  28.848  1.00  0.00     0.031 C 
ATOM     47  C   UNL A   1      39.431  26.531  28.303  1.00  0.00     0.029 A 
ATOM     48  C   UNL A   1      40.341  27.546  28.825  1.00  0.00     0.049 A 
ATOM     49  H   UNL A   1      42.399  27.385  29.100  1.00  0.00     0.167 HD
ATOM     50  C   UNL A   1      46.706  26.855  29.736  1.00  0.00     0.037 A 
ATOM     51  C   UNL A   1      39.989  28.784  29.222  1.00  0.00     0.037 A 
ATOM     52  C   UNL A   1      46.438  28.220  30.101  1.00  0.00     0.049 A 
ATOM     53  C   UNL A   1      41.052  29.724  29.718  1.00  0.00     0.074 A 
ATOM     54  C   UNL A   1      47.328  29.192  30.522  1.00  0.00     0.029 A 
ATOM     55  N   UNL A   1      45.181  28.807  30.083  1.00  0.00    -0.354 N 
ATOM     56  N   UNL A   1      42.342  29.523  29.848  1.00  0.00    -0.248 NA
ATOM     57  C   UNL A   1      40.612  31.070  30.111  1.00  0.00     0.031 C 
ATOM     58  C   UNL A   1      46.604  30.357  30.796  1.00  0.00     0.029 A 
ATOM     59  C   UNL A   1      45.270  30.124  30.498  1.00  0.00     0.049 A 
ATOM     60  H   UNL A   1      44.350  28.353  29.814  1.00  0.00     0.167 HD
ATOM     61  C   UNL A   1      42.872  30.726  30.297  1.00  0.00     0.074 A 
ATOM     62  C   UNL A   1      41.764  31.652  30.411  1.00  0.00     0.031 C 
ATOM     63  C   UNL A   1      44.160  31.038  30.584  1.00  0.00     0.037 A 
BRANCH  50  64
ATOM     64  C   UNL A   1      48.107  26.333  29.878  1.00  0.00     0.057 A 
ATOM     65  C   UNL A   1      49.035  26.401  28.828  1.00  0.00     0.134 A 
ATOM     66  C   UNL A   1      48.537  25.763  31.082  1.00  0.00     0.134 A 
ATOM     67  F   UNL A   1      48.684  26.922  27.643  1.00  0.00    -0.206 F 
ATOM     68  C   UNL A   1      50.326  25.889  28.961  1.00  0.00     0.040 A 
ATOM     69  C   UNL A   1      49.836  25.275  31.236  1.00  0.00     0.040 A 
ATOM     70  F   UNL A   1      47.704  25.669  32.129  1.00  0.00    -0.206 F 
ATOM     71  C   UNL A   1      50.732  25.329  30.170  1.00  0.00     0.006 A 
ENDBRANCH  50  64
BRANCH  51  72
ATOM     72  C   UNL A   1      38.577  29.228  29.116  1.00  0.00     0.057 A 
ATOM     73  C   UNL A   1      38.060  29.693  27.900  1.00  0.00     0.134 A 
ATOM     74  C   UNL A   1      37.716  29.214  30.218  1.00  0.00     0.134 A 
ATOM     75  F   UNL A   1      38.841  29.746  26.812  1.00  0.00    -0.206 F 
ATOM     76  C   UNL A   1      36.746  30.150  27.789  1.00  0.00     0.040 A 
ATOM     77  C   UNL A   1      36.392  29.645  30.117  1.00  0.00     0.040 A 
ATOM     78  F   UNL A   1      38.146  28.773  31.409  1.00  0.00    -0.206 F 
ATOM     79  C   UNL A   1      35.906  30.124  28.901  1.00  0.00     0.006 A 
ENDBRANCH  51  72
BRANCH  63  80
ATOM     80  C   UNL A   1      44.450  32.454  30.987  1.00  0.00     0.057 A 
ATOM     81  C   UNL A   1      44.465  32.857  32.328  1.00  0.00     0.134 A 
ATOM     82  C   UNL A   1      44.754  33.417  30.017  1.00  0.00     0.134 A 
ATOM     83  F   UNL A   1      44.171  31.986  33.305  1.00  0.00    -0.206 F 
ATOM     84  C   UNL A   1      44.745  34.177  32.687  1.00  0.00     0.040 A 
ATOM     85  C   UNL A   1      45.064  34.732  30.366  1.00  0.00     0.040 A 
ATOM     86  F   UNL A   1      44.768  33.093  28.715  1.00  0.00    -0.206 F 
ATOM     87  C   UNL A   1      45.052  35.117  31.705  1.00  0.00     0.006 A 
ENDBRANCH  63  80
ENDBRANCH  37  38
ENDBRANCH  29  32
ENDBRANCH  27  28
ENDBRANCH  26  27
ENDBRANCH   1  26
TORSDOF 14
ENDMDL
MODEL 3
REMARK VINA RESULT:     -11.7      4.369      9.080
REMARK SMILES CC1(C)[C@@]2(CC[C@@H]2C(=O)NCc2ccco2)[C@]1(C)C(=O)NCCCCNC(=O)c1ccc(-c2c3nc(c(-c4c(F)cccc4F)c4ccc([nH]4)c(-c4c(F)cccc4F)c4nc(c(-c5c(F)cccc5F)c5ccc2[nH]5)C=C4)C=C3)cc1
REMARK SMILES IDX 23 1 22 2 21 3 19 4 20 5 17 7 1 8 2 9 3 10 4 11 18 12 5 13
REMARK SMILES IDX 7 14 6 15 8 16 9 17 10 18 11 20 12 21 13 22 16 23 14 24
REMARK SMILES IDX 15 25 24 26 25 27 26 28 27 29 28 31 29 32 30 33 82 34 31 35
REMARK SMILES IDX 81 36 32 37 33 38 34 39 75 40 35 41 80 42 74 43 76 44 36 45
REMARK SMILES IDX 79 46 73 47 72 48 37 50 63 51 46 52 62 53 47 54 50 55 61 56
REMARK SMILES IDX 77 57 48 58 49 59 60 61 78 62 51 63 38 64 39 65 44 66 40 67
REMARK SMILES IDX 41 68 43 69 45 70 42 71 64 72 65 73 70 74 66 75 67 76 69 77
REMARK SMILES IDX 71 78 68 79 52 80 53 81 58 82 54 83 55 84 57 85 59 86 56 87
REMARK H PARENT 21 6 10 19 26 30 76 49 50 60
REMARK Flexibility Score: inf
ROOT
ATOM      1  C   UNL A   1      31.542  30.473  25.779  1.00  0.00     0.023 C 
ENDROOT
BRANCH   1   2
ATOM      2  C   UNL A   1      32.838  29.685  25.938  1.00  0.00     0.116 C 
BRANCH   2   3
ATOM      3  N   UNL A   1      33.476  29.399  24.679  1.00  0.00    -0.356 N 
ATOM      4  C   UNL A   1      33.714  28.287  23.928  1.00  0.00     0.227 C 
ATOM      5  O   UNL A   1      34.341  28.540  22.892  1.00  0.00    -0.274 OA
ATOM      6  H   UNL A   1      33.831  30.214  24.254  1.00  0.00     0.163 HD
BRANCH   4   7
ATOM      7  C   UNL A   1      33.342  26.822  24.183  1.00  0.00     0.059 C 
ATOM      8  C   UNL A   1      32.219  26.211  21.881  1.00  0.00     0.013 C 
ATOM      9  C   UNL A   1      32.514  25.837  23.317  1.00  0.00    -0.013 C 
ATOM     10  C   UNL A   1      32.758  24.332  23.390  1.00  0.00     0.013 C 
ATOM     11  C   UNL A   1      31.889  26.470  24.559  1.00  0.00     0.003 C 
ATOM     12  C   UNL A   1      34.488  26.131  24.960  1.00  0.00     0.023 C 
ATOM     13  C   UNL A   1      31.630  25.856  25.906  1.00  0.00     0.010 C 
ATOM     14  C   UNL A   1      30.691  27.370  24.672  1.00  0.00     0.086 C 
ATOM     15  C   UNL A   1      30.543  26.899  26.118  1.00  0.00     0.015 C 
BRANCH  14  16
ATOM     16  C   UNL A   1      29.478  27.251  23.715  1.00  0.00     0.224 C 
ATOM     17  O   UNL A   1      28.658  26.321  23.822  1.00  0.00    -0.275 OA
ATOM     18  N   UNL A   1      29.202  28.117  22.691  1.00  0.00    -0.349 N 
ATOM     19  H   UNL A   1      28.347  27.939  22.236  1.00  0.00     0.163 HD
BRANCH  18  20
ATOM     20  C   UNL A   1      29.930  29.240  22.155  1.00  0.00     0.191 C 
BRANCH  20  21
ATOM     21  C   UNL A   1      29.160  30.489  22.374  1.00  0.00     0.122 A 
ATOM     22  C   UNL A   1      28.687  31.147  23.493  1.00  0.00     0.047 A 
ATOM     23  O   UNL A   1      28.849  31.207  21.254  1.00  0.00    -0.467 OA
ATOM     24  C   UNL A   1      28.057  32.328  23.032  1.00  0.00     0.042 A 
ATOM     25  C   UNL A   1      28.182  32.317  21.663  1.00  0.00     0.195 A 
ENDBRANCH  20  21
ENDBRANCH  18  20
ENDBRANCH  14  16
ENDBRANCH   4   7
ENDBRANCH   2   3
ENDBRANCH   1   2
BRANCH   1  26
ATOM     26  C   UNL A   1      31.408  31.689  26.689  1.00  0.00     0.023 C 
BRANCH  26  27
ATOM     27  C   UNL A   1      32.689  32.482  26.894  1.00  0.00     0.116 C 
BRANCH  27  28
ATOM     28  N   UNL A   1      32.461  33.817  27.427  1.00  0.00    -0.352 N 
ATOM     29  C   UNL A   1      33.111  34.477  28.444  1.00  0.00     0.251 C 
ATOM     30  H   UNL A   1      31.734  34.322  26.996  1.00  0.00     0.163 HD
ATOM     31  O   UNL A   1      32.715  35.561  28.837  1.00  0.00    -0.269 OA
BRANCH  29  32
ATOM     32  C   UNL A   1      34.284  33.841  29.080  1.00  0.00     0.039 A 
ATOM     33  C   UNL A   1      34.076  32.850  30.042  1.00  0.00     0.014 A 
ATOM     34  C   UNL A   1      35.581  34.203  28.708  1.00  0.00     0.014 A 
ATOM     35  C   UNL A   1      35.173  32.180  30.587  1.00  0.00     0.010 A 
ATOM     36  C   UNL A   1      36.661  33.468  29.175  1.00  0.00     0.010 A 
ATOM     37  C   UNL A   1      36.472  32.464  30.137  1.00  0.00    -0.014 A 
BRANCH  37  38
ATOM     38  C   UNL A   1      37.654  31.763  30.696  1.00  0.00     0.031 A 
ATOM     39  C   UNL A   1      38.134  32.106  32.080  1.00  0.00     0.074 A 
ATOM     40  C   UNL A   1      38.327  30.869  29.946  1.00  0.00     0.049 A 
ATOM     41  N   UNL A   1      39.177  31.657  32.731  1.00  0.00    -0.248 NA
ATOM     42  C   UNL A   1      37.358  33.116  32.818  1.00  0.00     0.031 C 
ATOM     43  C   UNL A   1      37.996  30.490  28.572  1.00  0.00     0.029 A 
ATOM     44  N   UNL A   1      39.438  30.119  30.238  1.00  0.00    -0.354 N 
ATOM     45  C   UNL A   1      39.197  32.352  33.934  1.00  0.00     0.074 A 
ATOM     46  C   UNL A   1      38.101  33.294  33.899  1.00  0.00     0.031 C 
ATOM     47  C   UNL A   1      38.862  29.552  28.153  1.00  0.00     0.029 A 
ATOM     48  C   UNL A   1      39.828  29.289  29.216  1.00  0.00     0.049 A 
ATOM     49  H   UNL A   1      39.912  30.170  31.100  1.00  0.00     0.167 HD
ATOM     50  C   UNL A   1      40.034  32.200  34.986  1.00  0.00     0.037 A 
ATOM     51  C   UNL A   1      40.846  28.411  29.148  1.00  0.00     0.037 A 
ATOM     52  C   UNL A   1      41.093  31.229  35.037  1.00  0.00     0.049 A 
ATOM     53  C   UNL A   1      41.746  28.239  30.341  1.00  0.00     0.074 A 
ATOM     54  C   UNL A   1      41.951  30.941  36.083  1.00  0.00     0.029 A 
ATOM     55  N   UNL A   1      41.434  30.382  33.993  1.00  0.00    -0.354 N 
ATOM     56  N   UNL A   1      41.709  28.848  31.502  1.00  0.00    -0.248 NA
ATOM     57  C   UNL A   1      42.823  27.247  30.219  1.00  0.00     0.031 C 
ATOM     58  C   UNL A   1      42.838  29.946  35.659  1.00  0.00     0.029 A 
ATOM     59  C   UNL A   1      42.499  29.579  34.366  1.00  0.00     0.049 A 
ATOM     60  H   UNL A   1      40.984  30.354  33.118  1.00  0.00     0.167 HD
ATOM     61  C   UNL A   1      42.727  28.286  32.261  1.00  0.00     0.074 A 
ATOM     62  C   UNL A   1      43.359  27.282  31.430  1.00  0.00     0.031 C 
ATOM     63  C   UNL A   1      43.101  28.570  33.533  1.00  0.00     0.037 A 
BRANCH  50  64
ATOM     64  C   UNL A   1      39.828  33.104  36.168  1.00  0.00     0.057 A 
ATOM     65  C   UNL A   1      38.959  32.769  37.216  1.00  0.00     0.134 A 
ATOM     66  C   UNL A   1      40.513  34.322  36.262  1.00  0.00     0.134 A 
ATOM     67  F   UNL A   1      38.261  31.624  37.182  1.00  0.00    -0.206 F 
ATOM     68  C   UNL A   1      38.754  33.628  38.297  1.00  0.00     0.040 A 
ATOM     69  C   UNL A   1      40.339  35.175  37.354  1.00  0.00     0.040 A 
ATOM     70  F   UNL A   1      41.362  34.703  35.297  1.00  0.00    -0.206 F 
ATOM     71  C   UNL A   1      39.450  34.833  38.371  1.00  0.00     0.006 A 
ENDBRANCH  50  64
BRANCH  51  72
ATOM     72  C   UNL A   1      41.040  27.585  27.930  1.00  0.00     0.057 A 
ATOM     73  C   UNL A   1      41.835  28.042  26.872  1.00  0.00     0.134 A 
ATOM     74  C   UNL A   1      40.431  26.334  27.784  1.00  0.00     0.134 A 
ATOM     75  F   UNL A   1      42.431  29.241  26.946  1.00  0.00    -0.206 F 
ATOM     76  C   UNL A   1      41.999  27.297  25.704  1.00  0.00     0.040 A 
ATOM     77  C   UNL A   1      40.606  25.566  26.631  1.00  0.00     0.040 A 
ATOM     78  F   UNL A   1      39.664  25.835  28.764  1.00  0.00    -0.206 F 
ATOM     79  C   UNL A   1      41.385  26.052  25.582  1.00  0.00     0.006 A 
ENDBRANCH  51  72
BRANCH  63  80
ATOM     80  C   UNL A   1      44.204  27.743  34.124  1.00  0.00     0.057 A 
ATOM     81  C   UNL A   1      45.541  28.159  34.101  1.00  0.00     0.134 A 
ATOM     82  C   UNL A   1      43.915  26.528  34.760  1.00  0.00     0.134 A 
ATOM     83  F   UNL A   1      45.886  29.306  33.499  1.00  0.00    -0.206 F 
ATOM     84  C   UNL A   1      46.555  27.381  34.664  1.00  0.00     0.040 A 
ATOM     85  C   UNL A   1      44.915  25.757  35.351  1.00  0.00     0.040 A 
ATOM     86  F   UNL A   1      42.652  26.079  34.827  1.00  0.00    -0.206 F 
ATOM     87  C   UNL A   1      46.242  26.180  35.297  1.00  0.00     0.006 A 
ENDBRANCH  63  80
ENDBRANCH  37  38
ENDBRANCH  29  32
ENDBRANCH  27  28
ENDBRANCH  26  27
ENDBRANCH   1  26
TORSDOF 14
ENDMDL
