MODEL 1
REMARK VINA RESULT:     -10.6      0.000      0.000
REMARK SMILES CC(C)(C)OCC[C@@H]1CCC[C@]1([NH2+]C1CC1)C(=O)NCCCCNC(=O)c1ccc(-c2c3nc(c(-c4c(F)cccc4F)c4ccc([nH]4)c(-c4c(F)cccc4F)c4nc(c(-c5c(F)cccc5F)c5ccc2[nH]5)C=C4)C=C3)cc1
REMARK SMILES IDX 20 1 19 2 17 3 18 4 12 6 8 7 9 8 10 9 11 10 7 11 6 12 5 13
REMARK SMILES IDX 2 14 1 15 3 16 4 17 13 18 14 21 15 22 16 23 21 24 22 25
REMARK SMILES IDX 23 26 24 27 25 28 26 30 27 31 28 32 80 33 29 34 79 35 30 36
REMARK SMILES IDX 31 37 32 38 73 39 33 40 78 41 72 42 74 43 34 44 77 45 71 46
REMARK SMILES IDX 70 47 35 49 61 50 44 51 60 52 45 53 48 54 59 55 75 56 46 57
REMARK SMILES IDX 47 58 58 60 76 61 49 62 36 63 37 64 42 65 38 66 39 67 41 68
REMARK SMILES IDX 43 69 40 70 62 71 63 72 68 73 64 74 65 75 67 76 69 77 66 78
REMARK SMILES IDX 50 79 51 80 56 81 52 82 53 83 55 84 57 85 54 86
REMARK H PARENT 19 5 13 19 13 20 24 29 74 48 48 59
REMARK Flexibility Score: inf
ROOT
ATOM      1  C   UNL A   1      32.246  29.830  25.763  1.00  0.00     0.116 C 
ENDROOT
BRANCH   1   2
ATOM      2  N   UNL A   1      33.120  29.652  24.616  1.00  0.00    -0.351 N 
ATOM      3  C   UNL A   1      33.089  28.766  23.577  1.00  0.00     0.281 C 
ATOM      4  O   UNL A   1      33.961  28.935  22.713  1.00  0.00    -0.268 OA
ATOM      5  H   UNL A   1      33.872  30.286  24.582  1.00  0.00     0.163 HD
BRANCH   3   6
ATOM      6  C   UNL A   1      32.070  27.577  23.474  1.00  0.00     0.178 C 
ATOM      7  C   UNL A   1      32.520  26.313  24.280  1.00  0.00     0.063 C 
ATOM      8  C   UNL A   1      33.689  25.781  23.445  1.00  0.00     0.011 C 
ATOM      9  C   UNL A   1      33.181  25.877  22.021  1.00  0.00     0.008 C 
ATOM     10  C   UNL A   1      32.088  26.949  22.043  1.00  0.00     0.079 C 
BRANCH   7  11
ATOM     11  C   UNL A   1      32.944  26.386  25.744  1.00  0.00     0.039 C 
BRANCH  11  12
ATOM     12  C   UNL A   1      32.026  25.650  26.717  1.00  0.00     0.161 C 
BRANCH  12  13
ATOM     13  O   UNL A   1      31.137  24.737  26.078  1.00  0.00    -0.376 OA
BRANCH  13  14
ATOM     14  C   UNL A   1      31.197  23.333  26.357  1.00  0.00     0.060 C 
ATOM     15  C   UNL A   1      31.348  22.675  24.974  1.00  0.00     0.042 C 
ATOM     16  C   UNL A   1      29.884  22.812  26.959  1.00  0.00     0.042 C 
ATOM     17  C   UNL A   1      32.413  22.941  27.203  1.00  0.00     0.042 C 
ENDBRANCH  13  14
ENDBRANCH  12  13
ENDBRANCH  11  12
ENDBRANCH   7  11
BRANCH   6  18
ATOM     18  N   UNL A   1      30.698  28.010  23.823  1.00  0.00    -0.331 N 
ATOM     19  H   UNL A   1      30.791  28.891  24.331  1.00  0.00     0.347 HD
ATOM     20  H   UNL A   1      30.325  27.208  24.330  1.00  0.00     0.347 HD
BRANCH  18  21
ATOM     21  C   UNL A   1      29.695  28.234  22.767  1.00  0.00     0.183 C 
ATOM     22  C   UNL A   1      28.258  28.635  22.946  1.00  0.00     0.071 C 
ATOM     23  C   UNL A   1      29.253  29.649  22.474  1.00  0.00     0.071 C 
ENDBRANCH  18  21
ENDBRANCH   6  18
ENDBRANCH   3   6
ENDBRANCH   1   2
BRANCH   1  24
ATOM     24  C   UNL A   1      31.130  30.851  25.505  1.00  0.00     0.023 C 
BRANCH  24  25
ATOM     25  C   UNL A   1      31.057  32.001  26.497  1.00  0.00     0.023 C 
BRANCH  25  26
ATOM     26  C   UNL A   1      32.413  32.559  26.882  1.00  0.00     0.116 C 
BRANCH  26  27
ATOM     27  N   UNL A   1      32.328  33.902  27.442  1.00  0.00    -0.352 N 
ATOM     28  C   UNL A   1      33.112  34.487  28.412  1.00  0.00     0.251 C 
ATOM     29  H   UNL A   1      31.610  34.469  27.077  1.00  0.00     0.163 HD
ATOM     30  O   UNL A   1      32.819  35.566  28.894  1.00  0.00    -0.269 OA
BRANCH  28  31
ATOM     31  C   UNL A   1      34.306  33.755  28.874  1.00  0.00     0.039 A 
ATOM     32  C   UNL A   1      35.574  34.219  28.523  1.00  0.00     0.014 A 
ATOM     33  C   UNL A   1      34.155  32.662  29.731  1.00  0.00     0.014 A 
ATOM     34  C   UNL A   1      36.699  33.632  29.103  1.00  0.00     0.010 A 
ATOM     35  C   UNL A   1      35.264  32.159  30.391  1.00  0.00     0.010 A 
ATOM     36  C   UNL A   1      36.548  32.629  30.075  1.00  0.00    -0.014 A 
BRANCH  36  37
ATOM     37  C   UNL A   1      37.711  32.020  30.761  1.00  0.00     0.031 A 
ATOM     38  C   UNL A   1      38.499  30.950  30.056  1.00  0.00     0.074 A 
ATOM     39  C   UNL A   1      37.995  32.353  32.035  1.00  0.00     0.049 A 
ATOM     40  N   UNL A   1      39.457  30.188  30.517  1.00  0.00    -0.248 NA
ATOM     41  C   UNL A   1      38.125  30.668  28.660  1.00  0.00     0.031 C 
ATOM     42  C   UNL A   1      37.265  33.333  32.843  1.00  0.00     0.029 A 
ATOM     43  N   UNL A   1      38.972  31.891  32.878  1.00  0.00    -0.354 N 
ATOM     44  C   UNL A   1      39.771  29.319  29.479  1.00  0.00     0.074 A 
ATOM     45  C   UNL A   1      38.863  29.603  28.392  1.00  0.00     0.031 C 
ATOM     46  C   UNL A   1      37.838  33.418  34.054  1.00  0.00     0.029 A 
ATOM     47  C   UNL A   1      38.949  32.474  34.122  1.00  0.00     0.049 A 
ATOM     48  H   UNL A   1      39.629  31.205  32.617  1.00  0.00     0.167 HD
ATOM     49  C   UNL A   1      40.753  28.390  29.427  1.00  0.00     0.037 A 
ATOM     50  C   UNL A   1      39.736  32.265  35.193  1.00  0.00     0.037 A 
ATOM     51  C   UNL A   1      41.688  28.152  30.491  1.00  0.00     0.049 A 
ATOM     52  C   UNL A   1      40.840  31.249  35.099  1.00  0.00     0.074 A 
ATOM     53  C   UNL A   1      42.766  27.285  30.515  1.00  0.00     0.029 A 
ATOM     54  N   UNL A   1      41.663  28.799  31.717  1.00  0.00    -0.354 N 
ATOM     55  N   UNL A   1      41.167  30.475  34.092  1.00  0.00    -0.248 NA
ATOM     56  C   UNL A   1      41.689  31.080  36.287  1.00  0.00     0.031 C 
ATOM     57  C   UNL A   1      43.376  27.388  31.769  1.00  0.00     0.029 A 
ATOM     58  C   UNL A   1      42.701  28.345  32.510  1.00  0.00     0.049 A 
ATOM     59  H   UNL A   1      41.002  29.480  31.983  1.00  0.00     0.167 HD
ATOM     60  C   UNL A   1      42.273  29.749  34.513  1.00  0.00     0.074 A 
ATOM     61  C   UNL A   1      42.569  30.184  35.863  1.00  0.00     0.031 C 
ATOM     62  C   UNL A   1      42.982  28.807  33.845  1.00  0.00     0.037 A 
BRANCH  49  63
ATOM     63  C   UNL A   1      40.869  27.582  28.168  1.00  0.00     0.057 A 
ATOM     64  C   UNL A   1      41.643  28.015  27.083  1.00  0.00     0.134 A 
ATOM     65  C   UNL A   1      40.210  26.353  28.041  1.00  0.00     0.134 A 
ATOM     66  F   UNL A   1      42.284  29.192  27.133  1.00  0.00    -0.206 F 
ATOM     67  C   UNL A   1      41.732  27.271  25.905  1.00  0.00     0.040 A 
ATOM     68  C   UNL A   1      40.314  25.586  26.879  1.00  0.00     0.040 A 
ATOM     69  F   UNL A   1      39.454  25.879  29.042  1.00  0.00    -0.206 F 
ATOM     70  C   UNL A   1      41.071  26.048  25.804  1.00  0.00     0.006 A 
ENDBRANCH  49  63
BRANCH  50  71
ATOM     71  C   UNL A   1      39.535  33.055  36.434  1.00  0.00     0.057 A 
ATOM     72  C   UNL A   1      40.206  34.269  36.628  1.00  0.00     0.134 A 
ATOM     73  C   UNL A   1      38.682  32.619  37.454  1.00  0.00     0.134 A 
ATOM     74  F   UNL A   1      41.050  34.730  35.693  1.00  0.00    -0.206 F 
ATOM     75  C   UNL A   1      40.053  35.010  37.800  1.00  0.00     0.040 A 
ATOM     76  C   UNL A   1      38.502  33.363  38.622  1.00  0.00     0.040 A 
ATOM     77  F   UNL A   1      38.005  31.470  37.327  1.00  0.00    -0.206 F 
ATOM     78  C   UNL A   1      39.195  34.559  38.800  1.00  0.00     0.006 A 
ENDBRANCH  50  71
BRANCH  62  79
ATOM     79  C   UNL A   1      44.166  28.215  34.547  1.00  0.00     0.057 A 
ATOM     80  C   UNL A   1      44.062  27.042  35.303  1.00  0.00     0.134 A 
ATOM     81  C   UNL A   1      45.433  28.798  34.420  1.00  0.00     0.134 A 
ATOM     82  F   UNL A   1      42.873  26.443  35.472  1.00  0.00    -0.206 F 
ATOM     83  C   UNL A   1      45.177  26.477  35.923  1.00  0.00     0.040 A 
ATOM     84  C   UNL A   1      46.557  28.230  35.015  1.00  0.00     0.040 A 
ATOM     85  F   UNL A   1      45.597  29.919  33.700  1.00  0.00    -0.206 F 
ATOM     86  C   UNL A   1      46.430  27.067  35.773  1.00  0.00     0.006 A 
ENDBRANCH  62  79
ENDBRANCH  36  37
ENDBRANCH  28  31
ENDBRANCH  26  27
ENDBRANCH  25  26
ENDBRANCH  24  25
ENDBRANCH   1  24
TORSDOF 17
ENDMDL
MODEL 2
REMARK VINA RESULT:     -10.6      1.519      6.531
REMARK SMILES CC(C)(C)OCC[C@@H]1CCC[C@]1([NH2+]C1CC1)C(=O)NCCCCNC(=O)c1ccc(-c2c3nc(c(-c4c(F)cccc4F)c4ccc([nH]4)c(-c4c(F)cccc4F)c4nc(c(-c5c(F)cccc5F)c5ccc2[nH]5)C=C4)C=C3)cc1
REMARK SMILES IDX 20 1 19 2 17 3 18 4 12 6 8 7 9 8 10 9 11 10 7 11 6 12 5 13
REMARK SMILES IDX 2 14 1 15 3 16 4 17 13 18 14 21 15 22 16 23 21 24 22 25
REMARK SMILES IDX 23 26 24 27 25 28 26 30 27 31 28 32 80 33 29 34 79 35 30 36
REMARK SMILES IDX 31 37 32 38 73 39 33 40 78 41 72 42 74 43 34 44 77 45 71 46
REMARK SMILES IDX 70 47 35 49 61 50 44 51 60 52 45 53 48 54 59 55 75 56 46 57
REMARK SMILES IDX 47 58 58 60 76 61 49 62 36 63 37 64 42 65 38 66 39 67 41 68
REMARK SMILES IDX 43 69 40 70 62 71 63 72 68 73 64 74 65 75 67 76 69 77 66 78
REMARK SMILES IDX 50 79 51 80 56 81 52 82 53 83 55 84 57 85 54 86
REMARK H PARENT 19 5 13 19 13 20 24 29 74 48 48 59
REMARK Flexibility Score: inf
ROOT
ATOM      1  C   UNL A   1      32.878  29.659  26.075  1.00  0.00     0.116 C 
ENDROOT
BRANCH   1   2
ATOM      2  N   UNL A   1      33.524  29.287  24.828  1.00  0.00    -0.351 N 
ATOM      3  C   UNL A   1      33.339  28.227  23.987  1.00  0.00     0.281 C 
ATOM      4  O   UNL A   1      34.020  28.248  22.953  1.00  0.00    -0.268 OA
ATOM      5  H   UNL A   1      34.223  29.915  24.536  1.00  0.00     0.163 HD
BRANCH   3   6
ATOM      6  C   UNL A   1      32.379  27.024  24.298  1.00  0.00     0.178 C 
ATOM      7  C   UNL A   1      32.205  26.049  23.086  1.00  0.00     0.063 C 
ATOM      8  C   UNL A   1      31.352  26.872  22.115  1.00  0.00     0.011 C 
ATOM      9  C   UNL A   1      30.295  27.490  23.006  1.00  0.00     0.008 C 
ATOM     10  C   UNL A   1      30.898  27.508  24.413  1.00  0.00     0.079 C 
BRANCH   7  11
ATOM     11  C   UNL A   1      33.395  25.463  22.333  1.00  0.00     0.039 C 
BRANCH  11  12
ATOM     12  C   UNL A   1      33.920  24.141  22.890  1.00  0.00     0.161 C 
BRANCH  12  13
ATOM     13  O   UNL A   1      34.597  24.281  24.138  1.00  0.00    -0.376 OA
BRANCH  13  14
ATOM     14  C   UNL A   1      35.565  23.313  24.564  1.00  0.00     0.060 C 
ATOM     15  C   UNL A   1      36.482  23.128  23.343  1.00  0.00     0.042 C 
ATOM     16  C   UNL A   1      34.921  21.950  24.852  1.00  0.00     0.042 C 
ATOM     17  C   UNL A   1      36.426  23.802  25.734  1.00  0.00     0.042 C 
ENDBRANCH  13  14
ENDBRANCH  12  13
ENDBRANCH  11  12
ENDBRANCH   7  11
BRANCH   6  18
ATOM     18  N   UNL A   1      32.782  26.319  25.536  1.00  0.00    -0.331 N 
ATOM     19  H   UNL A   1      33.050  27.039  26.208  1.00  0.00     0.347 HD
ATOM     20  H   UNL A   1      33.507  25.680  25.211  1.00  0.00     0.347 HD
BRANCH  18  21
ATOM     21  C   UNL A   1      31.836  25.425  26.228  1.00  0.00     0.183 C 
ATOM     22  C   UNL A   1      31.328  24.094  25.754  1.00  0.00     0.071 C 
ATOM     23  C   UNL A   1      32.360  24.146  26.838  1.00  0.00     0.071 C 
ENDBRANCH  18  21
ENDBRANCH   6  18
ENDBRANCH   3   6
ENDBRANCH   1   2
BRANCH   1  24
ATOM     24  C   UNL A   1      31.707  30.630  25.869  1.00  0.00     0.023 C 
BRANCH  24  25
ATOM     25  C   UNL A   1      31.548  31.695  26.942  1.00  0.00     0.023 C 
BRANCH  25  26
ATOM     26  C   UNL A   1      32.801  32.516  27.174  1.00  0.00     0.116 C 
BRANCH  26  27
ATOM     27  N   UNL A   1      32.507  33.895  27.545  1.00  0.00    -0.352 N 
ATOM     28  C   UNL A   1      33.109  34.681  28.503  1.00  0.00     0.251 C 
ATOM     29  H   UNL A   1      31.777  34.323  27.040  1.00  0.00     0.163 HD
ATOM     30  O   UNL A   1      32.647  35.765  28.810  1.00  0.00    -0.269 OA
BRANCH  28  31
ATOM     31  C   UNL A   1      34.316  34.160  29.171  1.00  0.00     0.039 A 
ATOM     32  C   UNL A   1      34.180  33.371  30.313  1.00  0.00     0.014 A 
ATOM     33  C   UNL A   1      35.571  34.385  28.600  1.00  0.00     0.014 A 
ATOM     34  C   UNL A   1      35.306  32.735  30.839  1.00  0.00     0.010 A 
ATOM     35  C   UNL A   1      36.662  33.664  29.055  1.00  0.00     0.010 A 
ATOM     36  C   UNL A   1      36.545  32.842  30.186  1.00  0.00    -0.014 A 
BRANCH  36  37
ATOM     37  C   UNL A   1      37.752  32.137  30.674  1.00  0.00     0.031 A 
ATOM     38  C   UNL A   1      38.515  32.710  31.836  1.00  0.00     0.074 A 
ATOM     39  C   UNL A   1      38.211  31.051  30.022  1.00  0.00     0.049 A 
ATOM     40  N   UNL A   1      39.668  32.342  32.333  1.00  0.00    -0.248 NA
ATOM     41  C   UNL A   1      37.926  33.888  32.497  1.00  0.00     0.031 C 
ATOM     42  C   UNL A   1      37.590  30.438  28.845  1.00  0.00     0.029 A 
ATOM     43  N   UNL A   1      39.319  30.277  30.253  1.00  0.00    -0.354 N 
ATOM     44  C   UNL A   1      39.951  33.260  33.336  1.00  0.00     0.074 A 
ATOM     45  C   UNL A   1      38.887  34.238  33.335  1.00  0.00     0.031 C 
ATOM     46  C   UNL A   1      38.312  29.367  28.476  1.00  0.00     0.029 A 
ATOM     47  C   UNL A   1      39.463  29.241  29.363  1.00  0.00     0.049 A 
ATOM     48  H   UNL A   1      39.953  30.449  30.987  1.00  0.00     0.167 HD
ATOM     49  C   UNL A   1      40.989  33.268  34.204  1.00  0.00     0.037 A 
ATOM     50  C   UNL A   1      40.420  28.298  29.276  1.00  0.00     0.037 A 
ATOM     51  C   UNL A   1      42.013  32.261  34.236  1.00  0.00     0.049 A 
ATOM     52  C   UNL A   1      41.546  28.310  30.272  1.00  0.00     0.074 A 
ATOM     53  C   UNL A   1      43.070  32.133  35.119  1.00  0.00     0.029 A 
ATOM     54  N   UNL A   1      42.096  31.198  33.350  1.00  0.00    -0.354 N 
ATOM     55  N   UNL A   1      41.772  29.148  31.254  1.00  0.00    -0.248 NA
ATOM     56  C   UNL A   1      42.549  27.241  30.152  1.00  0.00     0.031 C 
ATOM     57  C   UNL A   1      43.811  31.006  34.747  1.00  0.00     0.029 A 
ATOM     58  C   UNL A   1      43.192  30.413  33.658  1.00  0.00     0.049 A 
ATOM     59  H   UNL A   1      41.468  31.028  32.610  1.00  0.00     0.167 HD
ATOM     60  C   UNL A   1      42.923  28.695  31.885  1.00  0.00     0.074 A 
ATOM     61  C   UNL A   1      43.343  27.500  31.181  1.00  0.00     0.031 C 
ATOM     62  C   UNL A   1      43.576  29.219  32.950  1.00  0.00     0.037 A 
BRANCH  49  63
ATOM     63  C   UNL A   1      41.049  34.392  35.196  1.00  0.00     0.057 A 
ATOM     64  C   UNL A   1      40.441  34.296  36.455  1.00  0.00     0.134 A 
ATOM     65  C   UNL A   1      41.728  35.578  34.895  1.00  0.00     0.134 A 
ATOM     66  F   UNL A   1      39.759  33.194  36.798  1.00  0.00    -0.206 F 
ATOM     67  C   UNL A   1      40.481  35.352  37.368  1.00  0.00     0.040 A 
ATOM     68  C   UNL A   1      41.799  36.630  35.810  1.00  0.00     0.040 A 
ATOM     69  F   UNL A   1      42.333  35.736  33.708  1.00  0.00    -0.206 F 
ATOM     70  C   UNL A   1      41.168  36.521  37.048  1.00  0.00     0.006 A 
ENDBRANCH  49  63
BRANCH  50  71
ATOM     71  C   UNL A   1      40.338  27.244  28.235  1.00  0.00     0.057 A 
ATOM     72  C   UNL A   1      40.987  27.399  27.003  1.00  0.00     0.134 A 
ATOM     73  C   UNL A   1      39.608  26.066  28.435  1.00  0.00     0.134 A 
ATOM     74  F   UNL A   1      41.687  28.514  26.747  1.00  0.00    -0.206 F 
ATOM     75  C   UNL A   1      40.896  26.432  26.002  1.00  0.00     0.040 A 
ATOM     76  C   UNL A   1      39.528  25.081  27.449  1.00  0.00     0.040 A 
ATOM     77  F   UNL A   1      38.970  25.853  29.594  1.00  0.00    -0.206 F 
ATOM     78  C   UNL A   1      40.167  25.267  26.225  1.00  0.00     0.006 A 
ENDBRANCH  50  71
BRANCH  62  79
ATOM     79  C   UNL A   1      44.785  28.483  33.442  1.00  0.00     0.057 A 
ATOM     80  C   UNL A   1      44.686  27.443  34.373  1.00  0.00     0.134 A 
ATOM     81  C   UNL A   1      46.056  28.785  32.937  1.00  0.00     0.134 A 
ATOM     82  F   UNL A   1      43.497  27.114  34.903  1.00  0.00    -0.206 F 
ATOM     83  C   UNL A   1      45.812  26.738  34.797  1.00  0.00     0.040 A 
ATOM     84  C   UNL A   1      47.186  28.072  33.336  1.00  0.00     0.040 A 
ATOM     85  F   UNL A   1      46.215  29.766  32.035  1.00  0.00    -0.206 F 
ATOM     86  C   UNL A   1      47.065  27.047  34.272  1.00  0.00     0.006 A 
ENDBRANCH  62  79
ENDBRANCH  36  37
ENDBRANCH  28  31
ENDBRANCH  26  27
ENDBRANCH  25  26
ENDBRANCH  24  25
ENDBRANCH   1  24
TORSDOF 17
ENDMDL
MODEL 3
REMARK VINA RESULT:     -10.5      5.056      9.301
REMARK SMILES CC(C)(C)OCC[C@@H]1CCC[C@]1([NH2+]C1CC1)C(=O)NCCCCNC(=O)c1ccc(-c2c3nc(c(-c4c(F)cccc4F)c4ccc([nH]4)c(-c4c(F)cccc4F)c4nc(c(-c5c(F)cccc5F)c5ccc2[nH]5)C=C4)C=C3)cc1
REMARK SMILES IDX 20 1 19 2 17 3 18 4 12 6 8 7 9 8 10 9 11 10 7 11 6 12 5 13
REMARK SMILES IDX 2 14 1 15 3 16 4 17 13 18 14 21 15 22 16 23 21 24 22 25
REMARK SMILES IDX 23 26 24 27 25 28 26 30 27 31 28 32 80 33 29 34 79 35 30 36
REMARK SMILES IDX 31 37 32 38 73 39 33 40 78 41 72 42 74 43 34 44 77 45 71 46
REMARK SMILES IDX 70 47 35 49 61 50 44 51 60 52 45 53 48 54 59 55 75 56 46 57
REMARK SMILES IDX 47 58 58 60 76 61 49 62 36 63 37 64 42 65 38 66 39 67 41 68
REMARK SMILES IDX 43 69 40 70 62 71 63 72 68 73 64 74 65 75 67 76 69 77 66 78
REMARK SMILES IDX 50 79 51 80 56 81 52 82 53 83 55 84 57 85 54 86
REMARK H PARENT 19 5 13 19 13 20 24 29 74 48 48 59
REMARK Flexibility Score: inf
ROOT
ATOM      1  C   UNL A   1      36.087  21.569  25.279  1.00  0.00     0.116 C 
ENDROOT
BRANCH   1   2
ATOM      2  N   UNL A   1      35.302  21.660  26.498  1.00  0.00    -0.351 N 
ATOM      3  C   UNL A   1      33.961  21.805  26.710  1.00  0.00     0.281 C 
ATOM      4  O   UNL A   1      33.607  21.776  27.897  1.00  0.00    -0.268 OA
ATOM      5  H   UNL A   1      35.837  21.608  27.323  1.00  0.00     0.163 HD
BRANCH   3   6
ATOM      6  C   UNL A   1      32.917  22.042  25.562  1.00  0.00     0.178 C 
ATOM      7  C   UNL A   1      32.790  23.547  25.150  1.00  0.00     0.063 C 
ATOM      8  C   UNL A   1      32.063  24.163  26.350  1.00  0.00     0.011 C 
ATOM      9  C   UNL A   1      30.971  23.160  26.657  1.00  0.00     0.008 C 
ATOM     10  C   UNL A   1      31.459  21.827  26.081  1.00  0.00     0.079 C 
BRANCH   7  11
ATOM     11  C   UNL A   1      34.005  24.404  24.807  1.00  0.00     0.039 C 
BRANCH  11  12
ATOM     12  C   UNL A   1      34.047  25.766  25.497  1.00  0.00     0.161 C 
BRANCH  12  13
ATOM     13  O   UNL A   1      33.629  26.840  24.658  1.00  0.00    -0.376 OA
BRANCH  13  14
ATOM     14  C   UNL A   1      33.181  28.081  25.217  1.00  0.00     0.060 C 
ATOM     15  C   UNL A   1      31.764  27.778  25.734  1.00  0.00     0.042 C 
ATOM     16  C   UNL A   1      33.044  29.174  24.148  1.00  0.00     0.042 C 
ATOM     17  C   UNL A   1      34.030  28.543  26.407  1.00  0.00     0.042 C 
ENDBRANCH  13  14
ENDBRANCH  12  13
ENDBRANCH  11  12
ENDBRANCH   7  11
BRANCH   6  18
ATOM     18  N   UNL A   1      33.180  21.159  24.403  1.00  0.00    -0.331 N 
ATOM     19  H   UNL A   1      34.179  20.950  24.418  1.00  0.00     0.347 HD
ATOM     20  H   UNL A   1      32.820  21.699  23.616  1.00  0.00     0.347 HD
BRANCH  18  21
ATOM     21  C   UNL A   1      32.479  19.870  24.272  1.00  0.00     0.183 C 
ATOM     22  C   UNL A   1      32.531  18.918  23.112  1.00  0.00     0.071 C 
ATOM     23  C   UNL A   1      33.282  18.594  24.366  1.00  0.00     0.071 C 
ENDBRANCH  18  21
ENDBRANCH   6  18
ENDBRANCH   3   6
ENDBRANCH   1   2
BRANCH   1  24
ATOM     24  C   UNL A   1      36.613  20.151  25.018  1.00  0.00     0.023 C 
BRANCH  24  25
ATOM     25  C   UNL A   1      38.075  20.065  24.610  1.00  0.00     0.023 C 
BRANCH  25  26
ATOM     26  C   UNL A   1      39.040  20.280  25.759  1.00  0.00     0.116 C 
BRANCH  26  27
ATOM     27  N   UNL A   1      39.998  19.189  25.897  1.00  0.00    -0.352 N 
ATOM     28  C   UNL A   1      41.356  19.253  26.120  1.00  0.00     0.251 C 
ATOM     29  H   UNL A   1      39.622  18.282  25.821  1.00  0.00     0.163 HD
ATOM     30  O   UNL A   1      42.054  18.257  26.053  1.00  0.00    -0.269 OA
BRANCH  28  31
ATOM     31  C   UNL A   1      41.951  20.570  26.414  1.00  0.00     0.039 A 
ATOM     32  C   UNL A   1      42.339  21.398  25.360  1.00  0.00     0.014 A 
ATOM     33  C   UNL A   1      42.032  21.009  27.738  1.00  0.00     0.014 A 
ATOM     34  C   UNL A   1      42.735  22.708  25.634  1.00  0.00     0.010 A 
ATOM     35  C   UNL A   1      42.315  22.340  27.995  1.00  0.00     0.010 A 
ATOM     36  C   UNL A   1      42.682  23.200  26.948  1.00  0.00    -0.014 A 
BRANCH  36  37
ATOM     37  C   UNL A   1      43.035  24.600  27.277  1.00  0.00     0.031 A 
ATOM     38  C   UNL A   1      44.475  25.026  27.211  1.00  0.00     0.074 A 
ATOM     39  C   UNL A   1      42.088  25.450  27.721  1.00  0.00     0.049 A 
ATOM     40  N   UNL A   1      45.024  26.152  27.589  1.00  0.00    -0.248 NA
ATOM     41  C   UNL A   1      45.434  24.034  26.696  1.00  0.00     0.031 C 
ATOM     42  C   UNL A   1      40.667  25.133  27.885  1.00  0.00     0.029 A 
ATOM     43  N   UNL A   1      42.186  26.755  28.129  1.00  0.00    -0.354 N 
ATOM     44  C   UNL A   1      46.389  25.986  27.389  1.00  0.00     0.074 A 
ATOM     45  C   UNL A   1      46.592  24.635  26.919  1.00  0.00     0.031 C 
ATOM     46  C   UNL A   1      40.023  26.224  28.331  1.00  0.00     0.029 A 
ATOM     47  C   UNL A   1      40.988  27.301  28.521  1.00  0.00     0.049 A 
ATOM     48  H   UNL A   1      43.035  27.255  28.140  1.00  0.00     0.167 HD
ATOM     49  C   UNL A   1      47.381  26.892  27.550  1.00  0.00     0.037 A 
ATOM     50  C   UNL A   1      40.706  28.533  28.984  1.00  0.00     0.037 A 
ATOM     51  C   UNL A   1      47.165  28.250  27.964  1.00  0.00     0.049 A 
ATOM     52  C   UNL A   1      41.822  29.532  29.124  1.00  0.00     0.074 A 
ATOM     53  C   UNL A   1      48.090  29.271  28.090  1.00  0.00     0.029 A 
ATOM     54  N   UNL A   1      45.930  28.780  28.304  1.00  0.00    -0.354 N 
ATOM     55  N   UNL A   1      43.100  29.382  28.874  1.00  0.00    -0.248 NA
ATOM     56  C   UNL A   1      41.455  30.872  29.606  1.00  0.00     0.031 C 
ATOM     57  C   UNL A   1      47.416  30.413  28.536  1.00  0.00     0.029 A 
ATOM     58  C   UNL A   1      46.068  30.112  28.650  1.00  0.00     0.049 A 
ATOM     59  H   UNL A   1      45.080  28.281  28.301  1.00  0.00     0.167 HD
ATOM     60  C   UNL A   1      43.686  30.613  29.141  1.00  0.00     0.074 A 
ATOM     61  C   UNL A   1      42.621  31.502  29.560  1.00  0.00     0.031 C 
ATOM     62  C   UNL A   1      44.988  30.977  29.047  1.00  0.00     0.037 A 
BRANCH  49  63
ATOM     63  C   UNL A   1      48.781  26.439  27.258  1.00  0.00     0.057 A 
ATOM     64  C   UNL A   1      49.325  26.512  25.968  1.00  0.00     0.134 A 
ATOM     65  C   UNL A   1      49.598  25.933  28.275  1.00  0.00     0.134 A 
ATOM     66  F   UNL A   1      48.588  26.968  24.944  1.00  0.00    -0.206 F 
ATOM     67  C   UNL A   1      50.620  26.070  25.695  1.00  0.00     0.040 A 
ATOM     68  C   UNL A   1      50.905  25.514  28.021  1.00  0.00     0.040 A 
ATOM     69  F   UNL A   1      49.141  25.837  29.533  1.00  0.00    -0.206 F 
ATOM     70  C   UNL A   1      51.417  25.575  26.725  1.00  0.00     0.006 A 
ENDBRANCH  49  63
BRANCH  50  71
ATOM     71  C   UNL A   1      39.307  28.906  29.313  1.00  0.00     0.057 A 
ATOM     72  C   UNL A   1      38.795  28.705  30.601  1.00  0.00     0.134 A 
ATOM     73  C   UNL A   1      38.449  29.460  28.357  1.00  0.00     0.134 A 
ATOM     74  F   UNL A   1      39.565  28.162  31.555  1.00  0.00    -0.206 F 
ATOM     75  C   UNL A   1      37.474  29.022  30.920  1.00  0.00     0.040 A 
ATOM     76  C   UNL A   1      37.132  29.802  28.669  1.00  0.00     0.040 A 
ATOM     77  F   UNL A   1      38.880  29.685  27.108  1.00  0.00    -0.206 F 
ATOM     78  C   UNL A   1      36.639  29.576  29.953  1.00  0.00     0.006 A 
ENDBRANCH  50  71
BRANCH  62  79
ATOM     79  C   UNL A   1      45.324  32.402  29.366  1.00  0.00     0.057 A 
ATOM     80  C   UNL A   1      45.258  33.409  28.395  1.00  0.00     0.134 A 
ATOM     81  C   UNL A   1      45.667  32.777  30.671  1.00  0.00     0.134 A 
ATOM     82  F   UNL A   1      44.947  33.110  27.124  1.00  0.00    -0.206 F 
ATOM     83  C   UNL A   1      45.538  34.739  28.709  1.00  0.00     0.040 A 
ATOM     84  C   UNL A   1      45.926  34.107  31.001  1.00  0.00     0.040 A 
ATOM     85  F   UNL A   1      45.739  31.859  31.647  1.00  0.00    -0.206 F 
ATOM     86  C   UNL A   1      45.864  35.092  30.017  1.00  0.00     0.006 A 
ENDBRANCH  62  79
ENDBRANCH  36  37
ENDBRANCH  28  31
ENDBRANCH  26  27
ENDBRANCH  25  26
ENDBRANCH  24  25
ENDBRANCH   1  24
TORSDOF 17
ENDMDL
