MODEL 1
REMARK VINA RESULT:     -11.8      0.000      0.000
REMARK SMILES O=C(CCCCCN1C(=O)/C(=C/c2cccc(O)c2)SC1=S)NCCCCNC(=O)c1ccc(-c2c3nc(c(-c4c(F)cccc4F)c4ccc([nH]4)c(-c4c(F)cccc4F)c4nc(c(-c5c(F)cccc5F)c5ccc2[nH]5)C=C4)C=C3)cc1
REMARK SMILES IDX 1 1 2 2 23 3 3 5 4 6 5 7 6 8 7 9 8 10 9 11 21 12 10 13 11 14
REMARK SMILES IDX 20 15 22 16 12 17 13 18 14 19 19 20 15 21 17 22 16 23 18 24
REMARK SMILES IDX 24 26 25 27 26 28 27 29 28 30 29 31 30 33 31 34 32 35 84 36
REMARK SMILES IDX 33 37 83 38 34 39 35 40 36 41 77 42 37 43 82 44 76 45 78 46
REMARK SMILES IDX 38 47 81 48 75 49 74 50 39 52 65 53 48 54 64 55 49 56 52 57
REMARK SMILES IDX 63 58 79 59 50 60 51 61 62 63 80 64 53 65 40 66 41 67 46 68
REMARK SMILES IDX 42 69 43 70 45 71 47 72 44 73 66 74 67 75 72 76 68 77 69 78
REMARK SMILES IDX 71 79 73 80 70 81 54 82 55 83 60 84 56 85 57 86 59 87 61 88
REMARK SMILES IDX 58 89
REMARK H PARENT 23 4 18 25 28 32 78 51 52 62
REMARK Flexibility Score: inf
ROOT
ATOM      1  O   UNL A   1      34.563  28.777  26.393  1.00  0.00    -0.275 OA
ATOM      2  C   UNL A   1      33.595  28.033  26.284  1.00  0.00     0.219 C 
ATOM      3  N   UNL A   1      32.302  28.414  26.563  1.00  0.00    -0.356 N 
ATOM      4  H   UNL A   1      31.572  27.778  26.385  1.00  0.00     0.163 HD
ENDROOT
BRANCH   2   5
ATOM      5  C   UNL A   1      33.733  26.589  25.834  1.00  0.00     0.100 C 
BRANCH   5   6
ATOM      6  C   UNL A   1      32.580  25.697  26.305  1.00  0.00     0.010 C 
BRANCH   6   7
ATOM      7  C   UNL A   1      32.383  24.388  25.535  1.00  0.00     0.002 C 
BRANCH   7   8
ATOM      8  C   UNL A   1      30.955  24.133  25.040  1.00  0.00     0.022 C 
BRANCH   8   9
ATOM      9  C   UNL A   1      30.690  24.499  23.574  1.00  0.00     0.127 C 
BRANCH   9  10
ATOM     10  N   UNL A   1      30.595  25.930  23.270  1.00  0.00    -0.293 N 
ATOM     11  C   UNL A   1      29.377  26.565  23.498  1.00  0.00     0.266 C 
ATOM     12  C   UNL A   1      31.562  26.691  22.642  1.00  0.00     0.148 C 
ATOM     13  O   UNL A   1      28.360  26.046  23.934  1.00  0.00    -0.268 OA
ATOM     14  C   UNL A   1      29.452  27.989  23.079  1.00  0.00     0.081 C 
ATOM     15  S   UNL A   1      31.061  28.370  22.611  1.00  0.00    -0.054 SA
ATOM     16  S   UNL A   1      33.011  26.222  21.961  1.00  0.00    -0.052 S 
ATOM     17  C   UNL A   1      28.387  28.803  23.055  1.00  0.00     0.029 C 
BRANCH  17  18
ATOM     18  C   UNL A   1      28.442  30.210  22.638  1.00  0.00    -0.021 A 
ATOM     19  C   UNL A   1      28.853  31.214  23.526  1.00  0.00     0.008 A 
ATOM     20  C   UNL A   1      28.018  30.564  21.355  1.00  0.00     0.054 A 
ATOM     21  C   UNL A   1      28.768  32.559  23.163  1.00  0.00     0.004 A 
ATOM     22  C   UNL A   1      27.947  31.907  20.998  1.00  0.00     0.116 A 
ATOM     23  C   UNL A   1      28.305  32.909  21.896  1.00  0.00     0.046 A 
BRANCH  22  24
ATOM     24  O   UNL A   1      27.494  32.208  19.747  1.00  0.00    -0.508 OA
ATOM     25  H   UNL A   1      27.270  33.091  19.530  1.00  0.00     0.293 HD
ENDBRANCH  22  24
ENDBRANCH  17  18
ENDBRANCH   9  10
ENDBRANCH   8   9
ENDBRANCH   7   8
ENDBRANCH   6   7
ENDBRANCH   5   6
ENDBRANCH   2   5
BRANCH   3  26
ATOM     26  C   UNL A   1      31.977  29.716  27.109  1.00  0.00     0.116 C 
BRANCH  26  27
ATOM     27  C   UNL A   1      31.548  30.703  26.025  1.00  0.00     0.023 C 
BRANCH  27  28
ATOM     28  C   UNL A   1      31.371  32.153  26.490  1.00  0.00     0.023 C 
BRANCH  28  29
ATOM     29  C   UNL A   1      32.561  32.757  27.232  1.00  0.00     0.116 C 
BRANCH  29  30
ATOM     30  N   UNL A   1      32.329  34.136  27.634  1.00  0.00    -0.352 N 
ATOM     31  C   UNL A   1      32.977  34.906  28.570  1.00  0.00     0.251 C 
ATOM     32  H   UNL A   1      31.593  34.587  27.163  1.00  0.00     0.163 HD
ATOM     33  O   UNL A   1      32.516  36.001  28.879  1.00  0.00    -0.269 OA
BRANCH  31  34
ATOM     34  C   UNL A   1      34.210  34.418  29.232  1.00  0.00     0.039 A 
ATOM     35  C   UNL A   1      34.114  33.897  30.527  1.00  0.00     0.014 A 
ATOM     36  C   UNL A   1      35.455  34.490  28.603  1.00  0.00     0.014 A 
ATOM     37  C   UNL A   1      35.251  33.385  31.158  1.00  0.00     0.010 A 
ATOM     38  C   UNL A   1      36.573  33.910  29.201  1.00  0.00     0.010 A 
ATOM     39  C   UNL A   1      36.485  33.350  30.485  1.00  0.00    -0.014 A 
BRANCH  39  40
ATOM     40  C   UNL A   1      37.681  32.718  31.101  1.00  0.00     0.031 A 
ATOM     41  C   UNL A   1      38.312  31.503  30.477  1.00  0.00     0.074 A 
ATOM     42  C   UNL A   1      38.166  33.202  32.261  1.00  0.00     0.049 A 
ATOM     43  N   UNL A   1      39.320  30.783  30.901  1.00  0.00    -0.248 NA
ATOM     44  C   UNL A   1      37.718  31.019  29.221  1.00  0.00     0.031 C 
ATOM     45  C   UNL A   1      37.625  34.351  32.991  1.00  0.00     0.029 A 
ATOM     46  N   UNL A   1      39.219  32.785  33.037  1.00  0.00    -0.354 N 
ATOM     47  C   UNL A   1      39.471  29.757  29.977  1.00  0.00     0.074 A 
ATOM     48  C   UNL A   1      38.420  29.919  28.995  1.00  0.00     0.031 C 
ATOM     49  C   UNL A   1      38.364  34.561  34.092  1.00  0.00     0.029 A 
ATOM     50  C   UNL A   1      39.402  33.538  34.172  1.00  0.00     0.049 A 
ATOM     51  H   UNL A   1      39.791  32.018  32.802  1.00  0.00     0.167 HD
ATOM     52  C   UNL A   1      40.410  28.782  29.937  1.00  0.00     0.037 A 
ATOM     53  C   UNL A   1      40.296  33.414  35.171  1.00  0.00     0.037 A 
ATOM     54  C   UNL A   1      41.465  28.631  30.907  1.00  0.00     0.049 A 
ATOM     55  C   UNL A   1      41.311  32.304  35.118  1.00  0.00     0.074 A 
ATOM     56  C   UNL A   1      42.499  27.712  30.919  1.00  0.00     0.029 A 
ATOM     57  N   UNL A   1      41.613  29.414  32.043  1.00  0.00    -0.354 N 
ATOM     58  N   UNL A   1      41.486  31.386  34.200  1.00  0.00    -0.248 NA
ATOM     59  C   UNL A   1      42.256  32.219  36.240  1.00  0.00     0.031 C 
ATOM     60  C   UNL A   1      43.238  27.899  32.091  1.00  0.00     0.029 A 
ATOM     61  C   UNL A   1      42.704  28.976  32.778  1.00  0.00     0.049 A 
ATOM     62  H   UNL A   1      41.031  30.169  32.289  1.00  0.00     0.167 HD
ATOM     63  C   UNL A   1      42.578  30.635  34.614  1.00  0.00     0.074 A 
ATOM     64  C   UNL A   1      43.034  31.214  35.861  1.00  0.00     0.031 C 
ATOM     65  C   UNL A   1      43.153  29.564  34.016  1.00  0.00     0.037 A 
BRANCH  52  66
ATOM     66  C   UNL A   1      40.337  27.792  28.809  1.00  0.00     0.057 A 
ATOM     67  C   UNL A   1      41.058  27.966  27.621  1.00  0.00     0.134 A 
ATOM     68  C   UNL A   1      39.566  26.628  28.929  1.00  0.00     0.134 A 
ATOM     69  F   UNL A   1      41.811  29.061  27.435  1.00  0.00    -0.206 F 
ATOM     70  C   UNL A   1      40.991  27.035  26.582  1.00  0.00     0.040 A 
ATOM     71  C   UNL A   1      39.516  25.675  27.910  1.00  0.00     0.040 A 
ATOM     72  F   UNL A   1      38.858  26.391  30.044  1.00  0.00    -0.206 F 
ATOM     73  C   UNL A   1      40.224  25.882  26.728  1.00  0.00     0.006 A 
ENDBRANCH  52  66
BRANCH  53  74
ATOM     74  C   UNL A   1      40.288  34.376  36.303  1.00  0.00     0.057 A 
ATOM     75  C   UNL A   1      41.013  35.572  36.239  1.00  0.00     0.134 A 
ATOM     76  C   UNL A   1      39.571  34.120  37.479  1.00  0.00     0.134 A 
ATOM     77  F   UNL A   1      41.736  35.865  35.148  1.00  0.00    -0.206 F 
ATOM     78  C   UNL A   1      41.045  36.467  37.310  1.00  0.00     0.040 A 
ATOM     79  C   UNL A   1      39.570  35.019  38.546  1.00  0.00     0.040 A 
ATOM     80  F   UNL A   1      38.850  32.995  37.602  1.00  0.00    -0.206 F 
ATOM     81  C   UNL A   1      40.318  36.194  38.466  1.00  0.00     0.006 A 
ENDBRANCH  53  74
BRANCH  65  82
ATOM     82  C   UNL A   1      44.367  28.972  34.676  1.00  0.00     0.057 A 
ATOM     83  C   UNL A   1      45.663  29.415  34.385  1.00  0.00     0.134 A 
ATOM     84  C   UNL A   1      44.231  27.968  35.644  1.00  0.00     0.134 A 
ATOM     85  F   UNL A   1      45.866  30.364  33.458  1.00  0.00    -0.206 F 
ATOM     86  C   UNL A   1      46.781  28.865  35.014  1.00  0.00     0.040 A 
ATOM     87  C   UNL A   1      45.338  27.432  36.303  1.00  0.00     0.040 A 
ATOM     88  F   UNL A   1      43.017  27.503  35.978  1.00  0.00    -0.206 F 
ATOM     89  C   UNL A   1      46.618  27.875  35.982  1.00  0.00     0.006 A 
ENDBRANCH  65  82
ENDBRANCH  39  40
ENDBRANCH  31  34
ENDBRANCH  29  30
ENDBRANCH  28  29
ENDBRANCH  27  28
ENDBRANCH  26  27
ENDBRANCH   3  26
TORSDOF 18
ENDMDL
MODEL 2
REMARK VINA RESULT:     -11.8      0.788      6.146
REMARK SMILES O=C(CCCCCN1C(=O)/C(=C/c2cccc(O)c2)SC1=S)NCCCCNC(=O)c1ccc(-c2c3nc(c(-c4c(F)cccc4F)c4ccc([nH]4)c(-c4c(F)cccc4F)c4nc(c(-c5c(F)cccc5F)c5ccc2[nH]5)C=C4)C=C3)cc1
REMARK SMILES IDX 1 1 2 2 23 3 3 5 4 6 5 7 6 8 7 9 8 10 9 11 21 12 10 13 11 14
REMARK SMILES IDX 20 15 22 16 12 17 13 18 14 19 19 20 15 21 17 22 16 23 18 24
REMARK SMILES IDX 24 26 25 27 26 28 27 29 28 30 29 31 30 33 31 34 32 35 84 36
REMARK SMILES IDX 33 37 83 38 34 39 35 40 36 41 77 42 37 43 82 44 76 45 78 46
REMARK SMILES IDX 38 47 81 48 75 49 74 50 39 52 65 53 48 54 64 55 49 56 52 57
REMARK SMILES IDX 63 58 79 59 50 60 51 61 62 63 80 64 53 65 40 66 41 67 46 68
REMARK SMILES IDX 42 69 43 70 45 71 47 72 44 73 66 74 67 75 72 76 68 77 69 78
REMARK SMILES IDX 71 79 73 80 70 81 54 82 55 83 60 84 56 85 57 86 59 87 61 88
REMARK SMILES IDX 58 89
REMARK H PARENT 23 4 18 25 28 32 78 51 52 62
REMARK Flexibility Score: inf
ROOT
ATOM      1  O   UNL A   1      34.496  28.964  26.372  1.00  0.00    -0.275 OA
ATOM      2  C   UNL A   1      33.573  28.174  26.207  1.00  0.00     0.219 C 
ATOM      3  N   UNL A   1      32.256  28.469  26.477  1.00  0.00    -0.356 N 
ATOM      4  H   UNL A   1      31.565  27.804  26.253  1.00  0.00     0.163 HD
ENDROOT
BRANCH   2   5
ATOM      5  C   UNL A   1      33.799  26.764  25.690  1.00  0.00     0.100 C 
BRANCH   5   6
ATOM      6  C   UNL A   1      32.804  25.746  26.256  1.00  0.00     0.010 C 
BRANCH   6   7
ATOM      7  C   UNL A   1      32.599  24.473  25.430  1.00  0.00     0.002 C 
BRANCH   7   8
ATOM      8  C   UNL A   1      31.146  24.176  25.044  1.00  0.00     0.022 C 
BRANCH   8   9
ATOM      9  C   UNL A   1      30.762  24.522  23.600  1.00  0.00     0.127 C 
BRANCH   9  10
ATOM     10  N   UNL A   1      30.649  25.949  23.284  1.00  0.00    -0.293 N 
ATOM     11  C   UNL A   1      29.430  26.576  23.528  1.00  0.00     0.266 C 
ATOM     12  C   UNL A   1      31.598  26.713  22.631  1.00  0.00     0.148 C 
ATOM     13  O   UNL A   1      28.425  26.052  23.986  1.00  0.00    -0.268 OA
ATOM     14  C   UNL A   1      29.485  27.996  23.094  1.00  0.00     0.081 C 
ATOM     15  S   UNL A   1      31.082  28.387  22.594  1.00  0.00    -0.054 SA
ATOM     16  S   UNL A   1      33.038  26.250  21.929  1.00  0.00    -0.052 S 
ATOM     17  C   UNL A   1      28.412  28.801  23.081  1.00  0.00     0.029 C 
BRANCH  17  18
ATOM     18  C   UNL A   1      28.448  30.204  22.650  1.00  0.00    -0.021 A 
ATOM     19  C   UNL A   1      28.832  31.225  23.531  1.00  0.00     0.008 A 
ATOM     20  C   UNL A   1      28.032  30.537  21.358  1.00  0.00     0.054 A 
ATOM     21  C   UNL A   1      28.727  32.564  23.153  1.00  0.00     0.004 A 
ATOM     22  C   UNL A   1      27.942  31.875  20.986  1.00  0.00     0.116 A 
ATOM     23  C   UNL A   1      28.272  32.893  21.878  1.00  0.00     0.046 A 
BRANCH  22  24
ATOM     24  O   UNL A   1      27.498  32.155  19.727  1.00  0.00    -0.508 OA
ATOM     25  H   UNL A   1      27.888  31.730  18.988  1.00  0.00     0.293 HD
ENDBRANCH  22  24
ENDBRANCH  17  18
ENDBRANCH   9  10
ENDBRANCH   8   9
ENDBRANCH   7   8
ENDBRANCH   6   7
ENDBRANCH   5   6
ENDBRANCH   2   5
BRANCH   3  26
ATOM     26  C   UNL A   1      31.849  29.722  27.079  1.00  0.00     0.116 C 
BRANCH  26  27
ATOM     27  C   UNL A   1      31.395  30.741  26.036  1.00  0.00     0.023 C 
BRANCH  27  28
ATOM     28  C   UNL A   1      31.348  32.196  26.515  1.00  0.00     0.023 C 
BRANCH  28  29
ATOM     29  C   UNL A   1      32.637  32.728  27.135  1.00  0.00     0.116 C 
BRANCH  29  30
ATOM     30  N   UNL A   1      32.496  34.081  27.650  1.00  0.00    -0.352 N 
ATOM     31  C   UNL A   1      33.173  34.720  28.661  1.00  0.00     0.251 C 
ATOM     32  H   UNL A   1      31.808  34.625  27.203  1.00  0.00     0.163 HD
ATOM     33  O   UNL A   1      32.785  35.817  29.053  1.00  0.00    -0.269 OA
BRANCH  31  34
ATOM     34  C   UNL A   1      34.349  34.088  29.304  1.00  0.00     0.039 A 
ATOM     35  C   UNL A   1      34.138  33.210  30.372  1.00  0.00     0.014 A 
ATOM     36  C   UNL A   1      35.651  34.368  28.882  1.00  0.00     0.014 A 
ATOM     37  C   UNL A   1      35.224  32.562  30.967  1.00  0.00     0.010 A 
ATOM     38  C   UNL A   1      36.726  33.664  29.423  1.00  0.00     0.010 A 
ATOM     39  C   UNL A   1      36.525  32.752  30.471  1.00  0.00    -0.014 A 
BRANCH  39  40
ATOM     40  C   UNL A   1      37.679  31.994  31.025  1.00  0.00     0.031 A 
ATOM     41  C   UNL A   1      38.242  32.339  32.376  1.00  0.00     0.074 A 
ATOM     42  C   UNL A   1      38.261  31.032  30.283  1.00  0.00     0.049 A 
ATOM     43  N   UNL A   1      39.277  31.830  32.996  1.00  0.00    -0.248 NA
ATOM     44  C   UNL A   1      37.567  33.412  33.122  1.00  0.00     0.031 C 
ATOM     45  C   UNL A   1      37.837  30.624  28.942  1.00  0.00     0.029 A 
ATOM     46  N   UNL A   1      39.340  30.225  30.547  1.00  0.00    -0.354 N 
ATOM     47  C   UNL A   1      39.386  32.528  34.192  1.00  0.00     0.074 A 
ATOM     48  C   UNL A   1      38.342  33.530  34.189  1.00  0.00     0.031 C 
ATOM     49  C   UNL A   1      38.630  29.630  28.512  1.00  0.00     0.029 A 
ATOM     50  C   UNL A   1      39.645  29.358  29.526  1.00  0.00     0.049 A 
ATOM     51  H   UNL A   1      39.848  30.263  31.390  1.00  0.00     0.167 HD
ATOM     52  C   UNL A   1      40.261  32.340  35.208  1.00  0.00     0.037 A 
ATOM     53  C   UNL A   1      40.637  28.455  29.410  1.00  0.00     0.037 A 
ATOM     54  C   UNL A   1      41.292  31.332  35.216  1.00  0.00     0.049 A 
ATOM     55  C   UNL A   1      41.614  28.285  30.541  1.00  0.00     0.074 A 
ATOM     56  C   UNL A   1      42.187  31.024  36.224  1.00  0.00     0.029 A 
ATOM     57  N   UNL A   1      41.568  30.476  34.160  1.00  0.00    -0.354 N 
ATOM     58  N   UNL A   1      41.659  28.903  31.696  1.00  0.00    -0.248 NA
ATOM     59  C   UNL A   1      42.676  27.286  30.353  1.00  0.00     0.031 C 
ATOM     60  C   UNL A   1      43.045  30.023  35.758  1.00  0.00     0.029 A 
ATOM     61  C   UNL A   1      42.643  29.662  34.483  1.00  0.00     0.049 A 
ATOM     62  H   UNL A   1      41.074  30.449  33.309  1.00  0.00     0.167 HD
ATOM     63  C   UNL A   1      42.730  28.347  32.384  1.00  0.00     0.074 A 
ATOM     64  C   UNL A   1      43.300  27.332  31.522  1.00  0.00     0.031 C 
ATOM     65  C   UNL A   1      43.198  28.649  33.619  1.00  0.00     0.037 A 
BRANCH  52  66
ATOM     66  C   UNL A   1      40.151  33.250  36.399  1.00  0.00     0.057 A 
ATOM     67  C   UNL A   1      39.278  32.980  37.461  1.00  0.00     0.134 A 
ATOM     68  C   UNL A   1      40.957  34.391  36.503  1.00  0.00     0.134 A 
ATOM     69  F   UNL A   1      38.472  31.908  37.424  1.00  0.00    -0.206 F 
ATOM     70  C   UNL A   1      39.189  33.826  38.568  1.00  0.00     0.040 A 
ATOM     71  C   UNL A   1      40.900  35.228  37.620  1.00  0.00     0.040 A 
ATOM     72  F   UNL A   1      41.823  34.705  35.528  1.00  0.00    -0.206 F 
ATOM     73  C   UNL A   1      40.008  34.950  38.653  1.00  0.00     0.006 A 
ENDBRANCH  52  66
BRANCH  53  74
ATOM     74  C   UNL A   1      40.749  27.623  28.184  1.00  0.00     0.057 A 
ATOM     75  C   UNL A   1      41.478  28.069  27.074  1.00  0.00     0.134 A 
ATOM     76  C   UNL A   1      40.122  26.375  28.082  1.00  0.00     0.134 A 
ATOM     77  F   UNL A   1      42.085  29.265  27.101  1.00  0.00    -0.206 F 
ATOM     78  C   UNL A   1      41.561  27.315  25.901  1.00  0.00     0.040 A 
ATOM     79  C   UNL A   1      40.221  25.598  26.928  1.00  0.00     0.040 A 
ATOM     80  F   UNL A   1      39.414  25.887  29.112  1.00  0.00    -0.206 F 
ATOM     81  C   UNL A   1      40.934  26.073  25.828  1.00  0.00     0.006 A 
ENDBRANCH  53  74
BRANCH  65  82
ATOM     82  C   UNL A   1      44.358  27.845  34.135  1.00  0.00     0.057 A 
ATOM     83  C   UNL A   1      44.178  26.658  34.856  1.00  0.00     0.134 A 
ATOM     84  C   UNL A   1      45.675  28.246  33.872  1.00  0.00     0.134 A 
ATOM     85  F   UNL A   1      42.945  26.223  35.154  1.00  0.00    -0.206 F 
ATOM     86  C   UNL A   1      45.265  25.913  35.319  1.00  0.00     0.040 A 
ATOM     87  C   UNL A   1      46.769  27.494  34.302  1.00  0.00     0.040 A 
ATOM     88  F   UNL A   1      45.919  29.368  33.178  1.00  0.00    -0.206 F 
ATOM     89  C   UNL A   1      46.565  26.328  35.035  1.00  0.00     0.006 A 
ENDBRANCH  65  82
ENDBRANCH  39  40
ENDBRANCH  31  34
ENDBRANCH  29  30
ENDBRANCH  28  29
ENDBRANCH  27  28
ENDBRANCH  26  27
ENDBRANCH   3  26
TORSDOF 18
ENDMDL
MODEL 3
REMARK VINA RESULT:     -11.0      2.577      7.880
REMARK SMILES O=C(CCCCCN1C(=O)/C(=C/c2cccc(O)c2)SC1=S)NCCCCNC(=O)c1ccc(-c2c3nc(c(-c4c(F)cccc4F)c4ccc([nH]4)c(-c4c(F)cccc4F)c4nc(c(-c5c(F)cccc5F)c5ccc2[nH]5)C=C4)C=C3)cc1
REMARK SMILES IDX 1 1 2 2 23 3 3 5 4 6 5 7 6 8 7 9 8 10 9 11 21 12 10 13 11 14
REMARK SMILES IDX 20 15 22 16 12 17 13 18 14 19 19 20 15 21 17 22 16 23 18 24
REMARK SMILES IDX 24 26 25 27 26 28 27 29 28 30 29 31 30 33 31 34 32 35 84 36
REMARK SMILES IDX 33 37 83 38 34 39 35 40 36 41 77 42 37 43 82 44 76 45 78 46
REMARK SMILES IDX 38 47 81 48 75 49 74 50 39 52 65 53 48 54 64 55 49 56 52 57
REMARK SMILES IDX 63 58 79 59 50 60 51 61 62 63 80 64 53 65 40 66 41 67 46 68
REMARK SMILES IDX 42 69 43 70 45 71 47 72 44 73 66 74 67 75 72 76 68 77 69 78
REMARK SMILES IDX 71 79 73 80 70 81 54 82 55 83 60 84 56 85 57 86 59 87 61 88
REMARK SMILES IDX 58 89
REMARK H PARENT 23 4 18 25 28 32 78 51 52 62
REMARK Flexibility Score: inf
ROOT
ATOM      1  O   UNL A   1      30.166  29.567  22.036  1.00  0.00    -0.275 OA
ATOM      2  C   UNL A   1      30.823  28.876  22.806  1.00  0.00     0.219 C 
ATOM      3  N   UNL A   1      31.080  29.221  24.113  1.00  0.00    -0.356 N 
ATOM      4  H   UNL A   1      31.558  28.581  24.688  1.00  0.00     0.163 HD
ENDROOT
BRANCH   2   5
ATOM      5  C   UNL A   1      31.438  27.554  22.381  1.00  0.00     0.100 C 
BRANCH   5   6
ATOM      6  C   UNL A   1      32.934  27.454  22.696  1.00  0.00     0.010 C 
BRANCH   6   7
ATOM      7  C   UNL A   1      33.377  26.215  23.478  1.00  0.00     0.002 C 
BRANCH   7   8
ATOM      8  C   UNL A   1      33.901  26.490  24.892  1.00  0.00     0.022 C 
BRANCH   8   9
ATOM      9  C   UNL A   1      33.605  25.400  25.930  1.00  0.00     0.127 C 
BRANCH   9  10
ATOM     10  N   UNL A   1      33.800  24.015  25.489  1.00  0.00    -0.293 N 
ATOM     11  C   UNL A   1      32.671  23.220  25.320  1.00  0.00     0.266 C 
ATOM     12  C   UNL A   1      35.015  23.370  25.357  1.00  0.00     0.148 C 
ATOM     13  O   UNL A   1      31.511  23.560  25.503  1.00  0.00    -0.268 OA
ATOM     14  C   UNL A   1      33.065  21.841  24.931  1.00  0.00     0.081 C 
ATOM     15  S   UNL A   1      34.764  21.774  24.680  1.00  0.00    -0.054 SA
ATOM     16  S   UNL A   1      36.549  23.896  25.750  1.00  0.00    -0.052 S 
ATOM     17  C   UNL A   1      32.191  20.828  24.837  1.00  0.00     0.029 C 
BRANCH  17  18
ATOM     18  C   UNL A   1      32.566  19.458  24.459  1.00  0.00    -0.021 A 
ATOM     19  C   UNL A   1      32.528  19.038  23.122  1.00  0.00     0.008 A 
ATOM     20  C   UNL A   1      32.903  18.539  25.456  1.00  0.00     0.054 A 
ATOM     21  C   UNL A   1      32.750  17.700  22.794  1.00  0.00     0.004 A 
ATOM     22  C   UNL A   1      33.133  17.209  25.117  1.00  0.00     0.116 A 
ATOM     23  C   UNL A   1      33.045  16.778  23.796  1.00  0.00     0.046 A 
BRANCH  22  24
ATOM     24  O   UNL A   1      33.426  16.339  26.126  1.00  0.00    -0.508 OA
ATOM     25  H   UNL A   1      32.748  15.811  26.501  1.00  0.00     0.293 HD
ENDBRANCH  22  24
ENDBRANCH  17  18
ENDBRANCH   9  10
ENDBRANCH   8   9
ENDBRANCH   7   8
ENDBRANCH   6   7
ENDBRANCH   5   6
ENDBRANCH   2   5
BRANCH   3  26
ATOM     26  C   UNL A   1      30.674  30.494  24.674  1.00  0.00     0.116 C 
BRANCH  26  27
ATOM     27  C   UNL A   1      31.403  30.804  25.981  1.00  0.00     0.023 C 
BRANCH  27  28
ATOM     28  C   UNL A   1      31.278  32.250  26.475  1.00  0.00     0.023 C 
BRANCH  28  29
ATOM     29  C   UNL A   1      32.525  32.831  27.135  1.00  0.00     0.116 C 
BRANCH  29  30
ATOM     30  N   UNL A   1      32.321  34.185  27.626  1.00  0.00    -0.352 N 
ATOM     31  C   UNL A   1      32.969  34.873  28.624  1.00  0.00     0.251 C 
ATOM     32  H   UNL A   1      31.606  34.687  27.173  1.00  0.00     0.163 HD
ATOM     33  O   UNL A   1      32.530  35.957  28.998  1.00  0.00    -0.269 OA
BRANCH  31  34
ATOM     34  C   UNL A   1      34.176  34.309  29.273  1.00  0.00     0.039 A 
ATOM     35  C   UNL A   1      34.030  33.639  30.491  1.00  0.00     0.014 A 
ATOM     36  C   UNL A   1      35.445  34.455  28.709  1.00  0.00     0.014 A 
ATOM     37  C   UNL A   1      35.142  33.055  31.104  1.00  0.00     0.010 A 
ATOM     38  C   UNL A   1      36.540  33.807  29.279  1.00  0.00     0.010 A 
ATOM     39  C   UNL A   1      36.402  33.098  30.482  1.00  0.00    -0.014 A 
BRANCH  39  40
ATOM     40  C   UNL A   1      37.575  32.397  31.068  1.00  0.00     0.031 A 
ATOM     41  C   UNL A   1      38.225  32.912  32.323  1.00  0.00     0.074 A 
ATOM     42  C   UNL A   1      38.094  31.326  30.436  1.00  0.00     0.049 A 
ATOM     43  N   UNL A   1      39.288  32.468  32.946  1.00  0.00    -0.248 NA
ATOM     44  C   UNL A   1      37.615  34.095  32.949  1.00  0.00     0.031 C 
ATOM     45  C   UNL A   1      37.582  30.747  29.192  1.00  0.00     0.029 A 
ATOM     46  N   UNL A   1      39.174  30.538  30.747  1.00  0.00    -0.354 N 
ATOM     47  C   UNL A   1      39.482  33.324  34.024  1.00  0.00     0.074 A 
ATOM     48  C   UNL A   1      38.456  34.341  33.942  1.00  0.00     0.031 C 
ATOM     49  C   UNL A   1      38.330  29.683  28.860  1.00  0.00     0.029 A 
ATOM     50  C   UNL A   1      39.402  29.530  29.841  1.00  0.00     0.049 A 
ATOM     51  H   UNL A   1      39.733  30.680  31.545  1.00  0.00     0.167 HD
ATOM     52  C   UNL A   1      40.416  33.257  35.003  1.00  0.00     0.037 A 
ATOM     53  C   UNL A   1      40.369  28.595  29.795  1.00  0.00     0.037 A 
ATOM     54  C   UNL A   1      41.428  32.235  35.091  1.00  0.00     0.049 A 
ATOM     55  C   UNL A   1      41.412  28.559  30.879  1.00  0.00     0.074 A 
ATOM     56  C   UNL A   1      42.379  32.047  36.079  1.00  0.00     0.029 A 
ATOM     57  N   UNL A   1      41.624  31.233  34.152  1.00  0.00    -0.354 N 
ATOM     58  N   UNL A   1      41.538  29.331  31.931  1.00  0.00    -0.248 NA
ATOM     59  C   UNL A   1      42.443  27.518  30.771  1.00  0.00     0.031 C 
ATOM     60  C   UNL A   1      43.190  30.970  35.707  1.00  0.00     0.029 A 
ATOM     61  C   UNL A   1      42.704  30.445  34.521  1.00  0.00     0.049 A 
ATOM     62  H   UNL A   1      41.078  31.101  33.343  1.00  0.00     0.167 HD
ATOM     63  C   UNL A   1      42.640  28.850  32.627  1.00  0.00     0.074 A 
ATOM     64  C   UNL A   1      43.139  27.711  31.884  1.00  0.00     0.031 C 
ATOM     65  C   UNL A   1      43.188  29.309  33.778  1.00  0.00     0.037 A 
BRANCH  52  66
ATOM     66  C   UNL A   1      40.394  34.326  36.058  1.00  0.00     0.057 A 
ATOM     67  C   UNL A   1      39.604  34.216  37.211  1.00  0.00     0.134 A 
ATOM     68  C   UNL A   1      41.204  35.463  35.941  1.00  0.00     0.134 A 
ATOM     69  F   UNL A   1      38.798  33.157  37.385  1.00  0.00    -0.206 F 
ATOM     70  C   UNL A   1      39.597  35.210  38.191  1.00  0.00     0.040 A 
ATOM     71  C   UNL A   1      41.229  36.449  36.929  1.00  0.00     0.040 A 
ATOM     72  F   UNL A   1      41.994  35.629  34.869  1.00  0.00    -0.206 F 
ATOM     73  C   UNL A   1      40.418  36.327  38.055  1.00  0.00     0.006 A 
ENDBRANCH  52  66
BRANCH  53  74
ATOM     74  C   UNL A   1      40.392  27.598  28.693  1.00  0.00     0.057 A 
ATOM     75  C   UNL A   1      41.149  27.820  27.536  1.00  0.00     0.134 A 
ATOM     76  C   UNL A   1      39.651  26.412  28.760  1.00  0.00     0.134 A 
ATOM     77  F   UNL A   1      41.864  28.946  27.402  1.00  0.00    -0.206 F 
ATOM     78  C   UNL A   1      41.150  26.910  26.476  1.00  0.00     0.040 A 
ATOM     79  C   UNL A   1      39.666  25.480  27.721  1.00  0.00     0.040 A 
ATOM     80  F   UNL A   1      38.911  26.136  29.844  1.00  0.00    -0.206 F 
ATOM     81  C   UNL A   1      40.410  25.734  26.570  1.00  0.00     0.006 A 
ENDBRANCH  53  74
BRANCH  65  82
ATOM     82  C   UNL A   1      44.365  28.555  34.332  1.00  0.00     0.057 A 
ATOM     83  C   UNL A   1      44.208  27.446  35.172  1.00  0.00     0.134 A 
ATOM     84  C   UNL A   1      45.672  28.925  33.988  1.00  0.00     0.134 A 
ATOM     85  F   UNL A   1      42.985  27.046  35.551  1.00  0.00    -0.206 F 
ATOM     86  C   UNL A   1      45.310  26.747  35.671  1.00  0.00     0.040 A 
ATOM     87  C   UNL A   1      46.779  28.216  34.454  1.00  0.00     0.040 A 
ATOM     88  F   UNL A   1      45.893  29.973  33.179  1.00  0.00    -0.206 F 
ATOM     89  C   UNL A   1      46.599  27.128  35.305  1.00  0.00     0.006 A 
ENDBRANCH  65  82
ENDBRANCH  39  40
ENDBRANCH  31  34
ENDBRANCH  29  30
ENDBRANCH  28  29
ENDBRANCH  27  28
ENDBRANCH  26  27
ENDBRANCH   3  26
TORSDOF 18
ENDMDL
