MODEL 1
REMARK VINA RESULT:     -12.9      0.000      0.000
REMARK SMILES C[C@@H]1CC[C@H](C)c2nc3cc(F)c(Cl)cc3c(C(=O)NCCCCNC(=O)c3ccc(-c4c5nc(c(-c6c(F)cccc6F)c6ccc([nH]6)c(-c6c(F)cccc6F)c6nc(c(-c7c(F)cccc7F)c7ccc4[nH]7)C=C6)C=C5)cc3)c21
REMARK SMILES IDX 23 1 22 2 21 3 20 4 18 5 19 6 17 8 1 9 2 10 3 11 82 12 4 13
REMARK SMILES IDX 7 14 5 15 8 16 16 17 6 18 9 19 15 20 10 21 13 22 11 23 14 24
REMARK SMILES IDX 12 25 24 26 25 27 26 28 27 30 28 31 29 32 81 33 30 34 80 35
REMARK SMILES IDX 31 36 32 37 33 38 74 39 34 40 79 41 73 42 75 43 35 44 78 45
REMARK SMILES IDX 72 46 71 47 36 49 62 50 45 51 61 52 46 53 49 54 60 55 76 56
REMARK SMILES IDX 47 57 48 58 59 60 77 61 50 62 37 63 38 64 43 65 39 66 40 67
REMARK SMILES IDX 42 68 44 69 41 70 63 71 64 72 69 73 65 74 66 75 68 76 70 77
REMARK SMILES IDX 67 78 51 79 52 80 57 81 53 82 54 83 56 84 58 85 55 86
REMARK H PARENT 20 7 25 29 75 48 49 59
REMARK Flexibility Score: inf
ROOT
ATOM      1  C   UNL A   1      37.582  21.422  24.971  1.00  0.00     0.023 C 
ENDROOT
BRANCH   1   2
ATOM      2  C   UNL A   1      37.093  22.847  24.759  1.00  0.00     0.023 C 
BRANCH   2   3
ATOM      3  C   UNL A   1      36.721  23.617  26.037  1.00  0.00     0.116 C 
BRANCH   3   4
ATOM      4  N   UNL A   1      35.646  22.910  26.709  1.00  0.00    -0.352 N 
ATOM      5  C   UNL A   1      34.287  23.080  26.549  1.00  0.00     0.252 C 
ATOM      6  O   UNL A   1      33.577  23.068  27.551  1.00  0.00    -0.269 OA
ATOM      7  H   UNL A   1      35.921  22.225  27.360  1.00  0.00     0.163 HD
BRANCH   5   8
ATOM      8  C   UNL A   1      33.648  23.113  25.200  1.00  0.00     0.054 A 
ATOM      9  C   UNL A   1      32.667  26.089  26.288  1.00  0.00     0.013 C 
ATOM     10  C   UNL A   1      33.782  25.697  25.307  1.00  0.00     0.019 C 
ATOM     11  C   UNL A   1      34.062  26.844  24.322  1.00  0.00     0.009 C 
ATOM     12  C   UNL A   1      33.445  24.386  24.607  1.00  0.00    -0.010 A 
ATOM     13  C   UNL A   1      32.998  26.933  23.240  1.00  0.00     0.010 C 
ATOM     14  C   UNL A   1      32.897  24.401  23.321  1.00  0.00     0.048 A 
ATOM     15  C   UNL A   1      32.975  25.634  22.436  1.00  0.00     0.035 C 
ATOM     16  N   UNL A   1      32.434  23.283  22.713  1.00  0.00    -0.252 NA
ATOM     17  C   UNL A   1      33.334  21.928  24.474  1.00  0.00     0.015 A 
ATOM     18  C   UNL A   1      31.883  25.688  21.365  1.00  0.00     0.014 C 
ATOM     19  C   UNL A   1      32.628  22.091  23.272  1.00  0.00     0.074 A 
ATOM     20  C   UNL A   1      33.697  20.607  24.827  1.00  0.00     0.034 A 
ATOM     21  C   UNL A   1      32.147  20.985  22.588  1.00  0.00     0.069 A 
ATOM     22  C   UNL A   1      33.204  19.498  24.142  1.00  0.00     0.077 A 
ATOM     23  C   UNL A   1      32.401  19.696  23.035  1.00  0.00     0.143 A 
ATOM     24  Cl  UNL A   1      33.593  17.917  24.692  1.00  0.00    -0.081 Cl
ATOM     25  F   UNL A   1      31.894  18.658  22.356  1.00  0.00    -0.205 F 
ENDBRANCH   5   8
ENDBRANCH   3   4
ENDBRANCH   2   3
ENDBRANCH   1   2
BRANCH   1  26
ATOM     26  C   UNL A   1      38.802  21.317  25.865  1.00  0.00     0.116 C 
BRANCH  26  27
ATOM     27  N   UNL A   1      39.593  20.103  25.659  1.00  0.00    -0.352 N 
ATOM     28  C   UNL A   1      40.915  19.892  25.969  1.00  0.00     0.251 C 
ATOM     29  H   UNL A   1      39.119  19.344  25.249  1.00  0.00     0.163 HD
ATOM     30  O   UNL A   1      41.471  18.834  25.702  1.00  0.00    -0.269 OA
BRANCH  28  31
ATOM     31  C   UNL A   1      41.672  21.007  26.569  1.00  0.00     0.039 A 
ATOM     32  C   UNL A   1      41.696  21.151  27.957  1.00  0.00     0.014 A 
ATOM     33  C   UNL A   1      42.196  21.997  25.736  1.00  0.00     0.014 A 
ATOM     34  C   UNL A   1      42.032  22.382  28.496  1.00  0.00     0.010 A 
ATOM     35  C   UNL A   1      42.641  23.196  26.295  1.00  0.00     0.010 A 
ATOM     36  C   UNL A   1      42.494  23.423  27.672  1.00  0.00    -0.014 A 
BRANCH  36  37
ATOM     37  C   UNL A   1      42.779  24.748  28.279  1.00  0.00     0.031 A 
ATOM     38  C   UNL A   1      44.190  25.172  28.590  1.00  0.00     0.074 A 
ATOM     39  C   UNL A   1      41.758  25.607  28.465  1.00  0.00     0.049 A 
ATOM     40  N   UNL A   1      44.613  26.293  29.118  1.00  0.00    -0.248 NA
ATOM     41  C   UNL A   1      45.266  24.219  28.273  1.00  0.00     0.031 C 
ATOM     42  C   UNL A   1      40.353  25.319  28.171  1.00  0.00     0.029 A 
ATOM     43  N   UNL A   1      41.749  26.907  28.898  1.00  0.00    -0.354 N 
ATOM     44  C   UNL A   1      45.992  26.166  29.232  1.00  0.00     0.074 A 
ATOM     45  C   UNL A   1      46.339  24.857  28.724  1.00  0.00     0.031 C 
ATOM     46  C   UNL A   1      39.630  26.433  28.353  1.00  0.00     0.029 A 
ATOM     47  C   UNL A   1      40.505  27.487  28.854  1.00  0.00     0.049 A 
ATOM     48  H   UNL A   1      42.554  27.379  29.212  1.00  0.00     0.167 HD
ATOM     49  C   UNL A   1      46.886  27.064  29.710  1.00  0.00     0.037 A 
ATOM     50  C   UNL A   1      40.106  28.725  29.193  1.00  0.00     0.037 A 
ATOM     51  C   UNL A   1      46.542  28.383  30.173  1.00  0.00     0.049 A 
ATOM     52  C   UNL A   1      41.112  29.691  29.740  1.00  0.00     0.074 A 
ATOM     53  C   UNL A   1      47.379  29.369  30.668  1.00  0.00     0.029 A 
ATOM     54  N   UNL A   1      45.258  28.906  30.183  1.00  0.00    -0.354 N 
ATOM     55  N   UNL A   1      42.405  29.537  29.885  1.00  0.00    -0.248 NA
ATOM     56  C   UNL A   1      40.600  30.990  30.196  1.00  0.00     0.031 C 
ATOM     57  C   UNL A   1      46.597  30.479  31.003  1.00  0.00     0.029 A 
ATOM     58  C   UNL A   1      45.278  30.196  30.687  1.00  0.00     0.049 A 
ATOM     59  H   UNL A   1      44.452  28.431  29.878  1.00  0.00     0.167 HD
ATOM     60  C   UNL A   1      42.863  30.714  30.457  1.00  0.00     0.074 A 
ATOM     61  C   UNL A   1      41.713  31.584  30.604  1.00  0.00     0.031 C 
ATOM     62  C   UNL A   1      44.122  31.040  30.837  1.00  0.00     0.037 A 
BRANCH  49  63
ATOM     63  C   UNL A   1      48.326  26.652  29.776  1.00  0.00     0.057 A 
ATOM     64  C   UNL A   1      48.838  25.917  30.851  1.00  0.00     0.134 A 
ATOM     65  C   UNL A   1      49.196  26.937  28.715  1.00  0.00     0.134 A 
ATOM     66  F   UNL A   1      48.060  25.621  31.904  1.00  0.00    -0.206 F 
ATOM     67  C   UNL A   1      50.167  25.486  30.874  1.00  0.00     0.040 A 
ATOM     68  C   UNL A   1      50.521  26.496  28.717  1.00  0.00     0.040 A 
ATOM     69  F   UNL A   1      48.767  27.633  27.651  1.00  0.00    -0.206 F 
ATOM     70  C   UNL A   1      51.009  25.769  29.800  1.00  0.00     0.006 A 
ENDBRANCH  49  63
BRANCH  50  71
ATOM     71  C   UNL A   1      38.683  29.102  29.029  1.00  0.00     0.057 A 
ATOM     72  C   UNL A   1      37.799  29.060  30.112  1.00  0.00     0.134 A 
ATOM     73  C   UNL A   1      38.187  29.563  27.803  1.00  0.00     0.134 A 
ATOM     74  F   UNL A   1      38.214  28.614  31.306  1.00  0.00    -0.206 F 
ATOM     75  C   UNL A   1      36.470  29.467  29.982  1.00  0.00     0.040 A 
ATOM     76  C   UNL A   1      36.869  29.995  27.666  1.00  0.00     0.040 A 
ATOM     77  F   UNL A   1      38.991  29.634  26.732  1.00  0.00    -0.206 F 
ATOM     78  C   UNL A   1      36.006  29.946  28.758  1.00  0.00     0.006 A 
ENDBRANCH  50  71
BRANCH  62  79
ATOM     79  C   UNL A   1      44.316  32.390  31.454  1.00  0.00     0.057 A 
ATOM     80  C   UNL A   1      44.249  32.571  32.840  1.00  0.00     0.134 A 
ATOM     81  C   UNL A   1      44.617  33.504  30.662  1.00  0.00     0.134 A 
ATOM     82  F   UNL A   1      43.952  31.542  33.648  1.00  0.00    -0.206 F 
ATOM     83  C   UNL A   1      44.463  33.822  33.420  1.00  0.00     0.040 A 
ATOM     84  C   UNL A   1      44.851  34.756  31.231  1.00  0.00     0.040 A 
ATOM     85  F   UNL A   1      44.701  33.389  29.329  1.00  0.00    -0.206 F 
ATOM     86  C   UNL A   1      44.772  34.918  32.613  1.00  0.00     0.006 A 
ENDBRANCH  62  79
ENDBRANCH  36  37
ENDBRANCH  28  31
ENDBRANCH  26  27
ENDBRANCH   1  26
TORSDOF 11
ENDMDL
MODEL 2
REMARK VINA RESULT:     -12.9      0.256      6.195
REMARK SMILES C[C@@H]1CC[C@H](C)c2nc3cc(F)c(Cl)cc3c(C(=O)NCCCCNC(=O)c3ccc(-c4c5nc(c(-c6c(F)cccc6F)c6ccc([nH]6)c(-c6c(F)cccc6F)c6nc(c(-c7c(F)cccc7F)c7ccc4[nH]7)C=C6)C=C5)cc3)c21
REMARK SMILES IDX 23 1 22 2 21 3 20 4 18 5 19 6 17 8 1 9 2 10 3 11 82 12 4 13
REMARK SMILES IDX 7 14 5 15 8 16 16 17 6 18 9 19 15 20 10 21 13 22 11 23 14 24
REMARK SMILES IDX 12 25 24 26 25 27 26 28 27 30 28 31 29 32 81 33 30 34 80 35
REMARK SMILES IDX 31 36 32 37 33 38 74 39 34 40 79 41 73 42 75 43 35 44 78 45
REMARK SMILES IDX 72 46 71 47 36 49 62 50 45 51 61 52 46 53 49 54 60 55 76 56
REMARK SMILES IDX 47 57 48 58 59 60 77 61 50 62 37 63 38 64 43 65 39 66 40 67
REMARK SMILES IDX 42 68 44 69 41 70 63 71 64 72 69 73 65 74 66 75 68 76 70 77
REMARK SMILES IDX 67 78 51 79 52 80 57 81 53 82 54 83 56 84 58 85 55 86
REMARK H PARENT 20 7 25 29 75 48 49 59
REMARK Flexibility Score: inf
ROOT
ATOM      1  C   UNL A   1      37.591  21.453  24.992  1.00  0.00     0.023 C 
ENDROOT
BRANCH   1   2
ATOM      2  C   UNL A   1      37.096  22.877  24.787  1.00  0.00     0.023 C 
BRANCH   2   3
ATOM      3  C   UNL A   1      36.703  23.631  26.068  1.00  0.00     0.116 C 
BRANCH   3   4
ATOM      4  N   UNL A   1      35.639  22.899  26.731  1.00  0.00    -0.352 N 
ATOM      5  C   UNL A   1      34.278  23.049  26.575  1.00  0.00     0.252 C 
ATOM      6  O   UNL A   1      33.569  23.012  27.578  1.00  0.00    -0.269 OA
ATOM      7  H   UNL A   1      35.926  22.208  27.371  1.00  0.00     0.163 HD
BRANCH   5   8
ATOM      8  C   UNL A   1      33.636  23.093  25.227  1.00  0.00     0.054 A 
ATOM      9  C   UNL A   1      32.641  26.052  26.347  1.00  0.00     0.013 C 
ATOM     10  C   UNL A   1      33.756  25.676  25.361  1.00  0.00     0.019 C 
ATOM     11  C   UNL A   1      34.028  26.836  24.387  1.00  0.00     0.009 C 
ATOM     12  C   UNL A   1      33.425  24.370  24.648  1.00  0.00    -0.010 A 
ATOM     13  C   UNL A   1      32.961  26.930  23.307  1.00  0.00     0.010 C 
ATOM     14  C   UNL A   1      32.875  24.396  23.363  1.00  0.00     0.048 A 
ATOM     15  C   UNL A   1      32.945  25.639  22.490  1.00  0.00     0.035 C 
ATOM     16  N   UNL A   1      32.418  23.282  22.744  1.00  0.00    -0.252 NA
ATOM     17  C   UNL A   1      33.328  21.914  24.489  1.00  0.00     0.015 A 
ATOM     18  C   UNL A   1      31.851  25.697  21.422  1.00  0.00     0.014 C 
ATOM     19  C   UNL A   1      32.619  22.086  23.290  1.00  0.00     0.074 A 
ATOM     20  C   UNL A   1      33.699  20.591  24.828  1.00  0.00     0.034 A 
ATOM     21  C   UNL A   1      32.143  20.983  22.596  1.00  0.00     0.069 A 
ATOM     22  C   UNL A   1      33.211  19.487  24.132  1.00  0.00     0.077 A 
ATOM     23  C   UNL A   1      32.405  19.692  23.029  1.00  0.00     0.143 A 
ATOM     24  Cl  UNL A   1      33.609  17.902  24.666  1.00  0.00    -0.081 Cl
ATOM     25  F   UNL A   1      31.902  18.657  22.340  1.00  0.00    -0.205 F 
ENDBRANCH   5   8
ENDBRANCH   3   4
ENDBRANCH   2   3
ENDBRANCH   1   2
BRANCH   1  26
ATOM     26  C   UNL A   1      38.807  21.346  25.890  1.00  0.00     0.116 C 
BRANCH  26  27
ATOM     27  N   UNL A   1      39.575  20.113  25.715  1.00  0.00    -0.352 N 
ATOM     28  C   UNL A   1      40.901  19.895  26.000  1.00  0.00     0.251 C 
ATOM     29  H   UNL A   1      39.080  19.344  25.350  1.00  0.00     0.163 HD
ATOM     30  O   UNL A   1      41.435  18.818  25.765  1.00  0.00    -0.269 OA
BRANCH  28  31
ATOM     31  C   UNL A   1      41.690  21.022  26.534  1.00  0.00     0.039 A 
ATOM     32  C   UNL A   1      41.726  21.243  27.911  1.00  0.00     0.014 A 
ATOM     33  C   UNL A   1      42.234  21.951  25.644  1.00  0.00     0.014 A 
ATOM     34  C   UNL A   1      42.096  22.493  28.379  1.00  0.00     0.010 A 
ATOM     35  C   UNL A   1      42.711  23.167  26.134  1.00  0.00     0.010 A 
ATOM     36  C   UNL A   1      42.578  23.475  27.496  1.00  0.00    -0.014 A 
BRANCH  36  37
ATOM     37  C   UNL A   1      42.900  24.824  28.027  1.00  0.00     0.031 A 
ATOM     38  C   UNL A   1      41.812  25.829  28.301  1.00  0.00     0.074 A 
ATOM     39  C   UNL A   1      44.177  25.105  28.348  1.00  0.00     0.049 A 
ATOM     40  N   UNL A   1      41.919  27.048  28.766  1.00  0.00    -0.248 NA
ATOM     41  C   UNL A   1      40.427  25.419  28.017  1.00  0.00     0.031 C 
ATOM     42  C   UNL A   1      45.311  24.199  28.157  1.00  0.00     0.029 A 
ATOM     43  N   UNL A   1      44.729  26.210  28.942  1.00  0.00    -0.354 N 
ATOM     44  C   UNL A   1      40.629  27.563  28.793  1.00  0.00     0.074 A 
ATOM     45  C   UNL A   1      39.751  26.527  28.292  1.00  0.00     0.031 C 
ATOM     46  C   UNL A   1      46.407  24.748  28.698  1.00  0.00     0.029 A 
ATOM     47  C   UNL A   1      46.071  26.076  29.199  1.00  0.00     0.049 A 
ATOM     48  H   UNL A   1      44.215  27.020  29.162  1.00  0.00     0.167 HD
ATOM     49  C   UNL A   1      40.215  28.785  29.204  1.00  0.00     0.037 A 
ATOM     50  C   UNL A   1      46.942  26.931  29.763  1.00  0.00     0.037 A 
ATOM     51  C   UNL A   1      41.086  29.796  29.744  1.00  0.00     0.049 A 
ATOM     52  C   UNL A   1      46.462  28.284  30.189  1.00  0.00     0.074 A 
ATOM     53  C   UNL A   1      40.760  31.063  30.197  1.00  0.00     0.029 A 
ATOM     54  N   UNL A   1      42.454  29.649  29.918  1.00  0.00    -0.354 N 
ATOM     55  N   UNL A   1      45.246  28.771  30.163  1.00  0.00    -0.248 NA
ATOM     56  C   UNL A   1      47.478  29.216  30.696  1.00  0.00     0.031 C 
ATOM     57  C   UNL A   1      41.935  31.693  30.620  1.00  0.00     0.029 A 
ATOM     58  C   UNL A   1      42.987  30.807  30.461  1.00  0.00     0.049 A 
ATOM     59  H   UNL A   1      42.969  28.842  29.690  1.00  0.00     0.167 HD
ATOM     60  C   UNL A   1      45.350  30.069  30.640  1.00  0.00     0.074 A 
ATOM     61  C   UNL A   1      46.743  30.283  30.977  1.00  0.00     0.031 C 
ATOM     62  C   UNL A   1      44.378  31.003  30.776  1.00  0.00     0.037 A 
BRANCH  49  63
ATOM     63  C   UNL A   1      38.757  29.111  29.076  1.00  0.00     0.057 A 
ATOM     64  C   UNL A   1      37.886  29.046  30.169  1.00  0.00     0.134 A 
ATOM     65  C   UNL A   1      38.234  29.562  27.857  1.00  0.00     0.134 A 
ATOM     66  F   UNL A   1      38.321  28.611  31.361  1.00  0.00    -0.206 F 
ATOM     67  C   UNL A   1      36.542  29.411  30.053  1.00  0.00     0.040 A 
ATOM     68  C   UNL A   1      36.898  29.947  27.732  1.00  0.00     0.040 A 
ATOM     69  F   UNL A   1      39.019  29.652  26.772  1.00  0.00    -0.206 F 
ATOM     70  C   UNL A   1      36.048  29.870  28.833  1.00  0.00     0.006 A 
ENDBRANCH  49  63
BRANCH  50  71
ATOM     71  C   UNL A   1      48.355  26.522  29.938  1.00  0.00     0.057 A 
ATOM     72  C   UNL A   1      49.323  26.851  28.985  1.00  0.00     0.134 A 
ATOM     73  C   UNL A   1      48.779  25.840  31.086  1.00  0.00     0.134 A 
ATOM     74  F   UNL A   1      48.972  27.491  27.860  1.00  0.00    -0.206 F 
ATOM     75  C   UNL A   1      50.666  26.520  29.168  1.00  0.00     0.040 A 
ATOM     76  C   UNL A   1      50.121  25.525  31.292  1.00  0.00     0.040 A 
ATOM     77  F   UNL A   1      47.897  25.506  32.040  1.00  0.00    -0.206 F 
ATOM     78  C   UNL A   1      51.069  25.864  30.330  1.00  0.00     0.006 A 
ENDBRANCH  50  71
BRANCH  62  79
ATOM     79  C   UNL A   1      44.792  32.341  31.304  1.00  0.00     0.057 A 
ATOM     80  C   UNL A   1      45.166  33.379  30.443  1.00  0.00     0.134 A 
ATOM     81  C   UNL A   1      44.774  32.607  32.678  1.00  0.00     0.134 A 
ATOM     82  F   UNL A   1      45.215  33.178  29.117  1.00  0.00    -0.206 F 
ATOM     83  C   UNL A   1      45.521  34.636  30.932  1.00  0.00     0.040 A 
ATOM     84  C   UNL A   1      45.109  33.866  33.178  1.00  0.00     0.040 A 
ATOM     85  F   UNL A   1      44.418  31.654  33.552  1.00  0.00    -0.206 F 
ATOM     86  C   UNL A   1      45.486  34.884  32.304  1.00  0.00     0.006 A 
ENDBRANCH  62  79
ENDBRANCH  36  37
ENDBRANCH  28  31
ENDBRANCH  26  27
ENDBRANCH   1  26
TORSDOF 11
ENDMDL
MODEL 3
REMARK VINA RESULT:     -12.8      3.985      8.602
REMARK SMILES C[C@@H]1CC[C@H](C)c2nc3cc(F)c(Cl)cc3c(C(=O)NCCCCNC(=O)c3ccc(-c4c5nc(c(-c6c(F)cccc6F)c6ccc([nH]6)c(-c6c(F)cccc6F)c6nc(c(-c7c(F)cccc7F)c7ccc4[nH]7)C=C6)C=C5)cc3)c21
REMARK SMILES IDX 23 1 22 2 21 3 20 4 18 5 19 6 17 8 1 9 2 10 3 11 82 12 4 13
REMARK SMILES IDX 7 14 5 15 8 16 16 17 6 18 9 19 15 20 10 21 13 22 11 23 14 24
REMARK SMILES IDX 12 25 24 26 25 27 26 28 27 30 28 31 29 32 81 33 30 34 80 35
REMARK SMILES IDX 31 36 32 37 33 38 74 39 34 40 79 41 73 42 75 43 35 44 78 45
REMARK SMILES IDX 72 46 71 47 36 49 62 50 45 51 61 52 46 53 49 54 60 55 76 56
REMARK SMILES IDX 47 57 48 58 59 60 77 61 50 62 37 63 38 64 43 65 39 66 40 67
REMARK SMILES IDX 42 68 44 69 41 70 63 71 64 72 69 73 65 74 66 75 68 76 70 77
REMARK SMILES IDX 67 78 51 79 52 80 57 81 53 82 54 83 56 84 58 85 55 86
REMARK H PARENT 20 7 25 29 75 48 49 59
REMARK Flexibility Score: inf
ROOT
ATOM      1  C   UNL A   1      32.415  30.590  26.874  1.00  0.00     0.023 C 
ENDROOT
BRANCH   1   2
ATOM      2  C   UNL A   1      32.897  29.190  27.228  1.00  0.00     0.023 C 
BRANCH   2   3
ATOM      3  C   UNL A   1      34.166  28.724  26.496  1.00  0.00     0.116 C 
BRANCH   3   4
ATOM      4  N   UNL A   1      33.976  28.912  25.069  1.00  0.00    -0.352 N 
ATOM      5  C   UNL A   1      33.591  27.978  24.132  1.00  0.00     0.252 C 
ATOM      6  O   UNL A   1      34.159  27.977  23.043  1.00  0.00    -0.269 OA
ATOM      7  H   UNL A   1      34.142  29.821  24.729  1.00  0.00     0.163 HD
BRANCH   5   8
ATOM      8  C   UNL A   1      32.411  27.087  24.342  1.00  0.00     0.054 A 
ATOM      9  C   UNL A   1      34.744  24.752  24.023  1.00  0.00     0.013 C 
ATOM     10  C   UNL A   1      34.042  25.305  25.272  1.00  0.00     0.019 C 
ATOM     11  C   UNL A   1      34.029  24.252  26.394  1.00  0.00     0.009 C 
ATOM     12  C   UNL A   1      32.649  25.816  24.924  1.00  0.00    -0.010 A 
ATOM     13  C   UNL A   1      32.979  23.180  26.151  1.00  0.00     0.010 C 
ATOM     14  C   UNL A   1      31.530  25.014  25.166  1.00  0.00     0.048 A 
ATOM     15  C   UNL A   1      31.592  23.822  26.107  1.00  0.00     0.035 C 
ATOM     16  N   UNL A   1      30.290  25.346  24.738  1.00  0.00    -0.252 NA
ATOM     17  C   UNL A   1      31.078  27.509  24.069  1.00  0.00     0.015 A 
ATOM     18  C   UNL A   1      30.523  22.764  25.825  1.00  0.00     0.014 C 
ATOM     19  C   UNL A   1      30.069  26.540  24.194  1.00  0.00     0.074 A 
ATOM     20  C   UNL A   1      30.666  28.817  23.719  1.00  0.00     0.034 A 
ATOM     21  C   UNL A   1      28.772  26.825  23.794  1.00  0.00     0.069 A 
ATOM     22  C   UNL A   1      29.364  29.096  23.310  1.00  0.00     0.077 A 
ATOM     23  C   UNL A   1      28.425  28.083  23.321  1.00  0.00     0.143 A 
ATOM     24  Cl  UNL A   1      28.958  30.684  22.790  1.00  0.00    -0.081 Cl
ATOM     25  F   UNL A   1      27.165  28.305  22.922  1.00  0.00    -0.205 F 
ENDBRANCH   5   8
ENDBRANCH   3   4
ENDBRANCH   2   3
ENDBRANCH   1   2
BRANCH   1  26
ATOM     26  C   UNL A   1      33.376  31.692  27.273  1.00  0.00     0.116 C 
BRANCH  26  27
ATOM     27  N   UNL A   1      32.730  32.968  27.581  1.00  0.00    -0.352 N 
ATOM     28  C   UNL A   1      33.197  33.979  28.386  1.00  0.00     0.251 C 
ATOM     29  H   UNL A   1      31.855  33.121  27.159  1.00  0.00     0.163 HD
ATOM     30  O   UNL A   1      32.532  34.986  28.595  1.00  0.00    -0.269 OA
BRANCH  28  31
ATOM     31  C   UNL A   1      34.499  33.788  29.055  1.00  0.00     0.039 A 
ATOM     32  C   UNL A   1      35.663  34.241  28.433  1.00  0.00     0.014 A 
ATOM     33  C   UNL A   1      34.560  33.000  30.206  1.00  0.00     0.014 A 
ATOM     34  C   UNL A   1      36.881  33.713  28.828  1.00  0.00     0.010 A 
ATOM     35  C   UNL A   1      35.802  32.563  30.669  1.00  0.00     0.010 A 
ATOM     36  C   UNL A   1      36.964  32.858  29.940  1.00  0.00    -0.014 A 
BRANCH  36  37
ATOM     37  C   UNL A   1      38.278  32.259  30.290  1.00  0.00     0.031 A 
ATOM     38  C   UNL A   1      39.141  32.858  31.369  1.00  0.00     0.074 A 
ATOM     39  C   UNL A   1      38.647  31.113  29.688  1.00  0.00     0.049 A 
ATOM     40  N   UNL A   1      40.311  32.461  31.800  1.00  0.00    -0.248 NA
ATOM     41  C   UNL A   1      38.630  34.058  32.053  1.00  0.00     0.031 C 
ATOM     42  C   UNL A   1      37.878  30.422  28.650  1.00  0.00     0.029 A 
ATOM     43  N   UNL A   1      39.734  30.304  29.891  1.00  0.00    -0.354 N 
ATOM     44  C   UNL A   1      40.694  33.378  32.772  1.00  0.00     0.074 A 
ATOM     45  C   UNL A   1      39.635  34.359  32.866  1.00  0.00     0.031 C 
ATOM     46  C   UNL A   1      38.473  29.256  28.368  1.00  0.00     0.029 A 
ATOM     47  C   UNL A   1      39.705  29.154  29.141  1.00  0.00     0.049 A 
ATOM     48  H   UNL A   1      40.464  30.525  30.513  1.00  0.00     0.167 HD
ATOM     49  C   UNL A   1      41.822  33.394  33.519  1.00  0.00     0.037 A 
ATOM     50  C   UNL A   1      40.579  28.135  29.071  1.00  0.00     0.037 A 
ATOM     51  C   UNL A   1      42.854  32.391  33.454  1.00  0.00     0.049 A 
ATOM     52  C   UNL A   1      41.830  28.189  29.893  1.00  0.00     0.074 A 
ATOM     53  C   UNL A   1      44.031  32.316  34.178  1.00  0.00     0.029 A 
ATOM     54  N   UNL A   1      42.822  31.281  32.625  1.00  0.00    -0.354 N 
ATOM     55  N   UNL A   1      42.197  29.088  30.772  1.00  0.00    -0.248 NA
ATOM     56  C   UNL A   1      42.799  27.104  29.694  1.00  0.00     0.031 C 
ATOM     57  C   UNL A   1      44.726  31.173  33.768  1.00  0.00     0.029 A 
ATOM     58  C   UNL A   1      43.965  30.520  32.811  1.00  0.00     0.049 A 
ATOM     59  H   UNL A   1      42.096  31.064  31.997  1.00  0.00     0.167 HD
ATOM     60  C   UNL A   1      43.444  28.685  31.225  1.00  0.00     0.074 A 
ATOM     61  C   UNL A   1      43.756  27.443  30.546  1.00  0.00     0.031 C 
ATOM     62  C   UNL A   1      44.262  29.295  32.116  1.00  0.00     0.037 A 
BRANCH  49  63
ATOM     63  C   UNL A   1      42.018  34.539  34.468  1.00  0.00     0.057 A 
ATOM     64  C   UNL A   1      42.558  35.761  34.051  1.00  0.00     0.134 A 
ATOM     65  C   UNL A   1      41.598  34.438  35.800  1.00  0.00     0.134 A 
ATOM     66  F   UNL A   1      42.991  35.919  32.791  1.00  0.00    -0.206 F 
ATOM     67  C   UNL A   1      42.680  36.842  34.929  1.00  0.00     0.040 A 
ATOM     68  C   UNL A   1      41.696  35.516  36.682  1.00  0.00     0.040 A 
ATOM     69  F   UNL A   1      41.066  33.295  36.261  1.00  0.00    -0.206 F 
ATOM     70  C   UNL A   1      42.241  36.722  36.246  1.00  0.00     0.006 A 
ENDBRANCH  49  63
BRANCH  50  71
ATOM     71  C   UNL A   1      40.292  26.990  28.176  1.00  0.00     0.057 A 
ATOM     72  C   UNL A   1      40.846  26.923  26.894  1.00  0.00     0.134 A 
ATOM     73  C   UNL A   1      39.502  25.913  28.599  1.00  0.00     0.134 A 
ATOM     74  F   UNL A   1      41.599  27.930  26.431  1.00  0.00    -0.206 F 
ATOM     75  C   UNL A   1      40.629  25.822  26.064  1.00  0.00     0.040 A 
ATOM     76  C   UNL A   1      39.296  24.797  27.790  1.00  0.00     0.040 A 
ATOM     77  F   UNL A   1      38.951  25.918  29.822  1.00  0.00    -0.206 F 
ATOM     78  C   UNL A   1      39.860  24.750  26.517  1.00  0.00     0.006 A 
ENDBRANCH  50  71
BRANCH  62  79
ATOM     79  C   UNL A   1      45.573  28.631  32.399  1.00  0.00     0.057 A 
ATOM     80  C   UNL A   1      45.696  27.661  33.401  1.00  0.00     0.134 A 
ATOM     81  C   UNL A   1      46.708  28.931  31.636  1.00  0.00     0.134 A 
ATOM     82  F   UNL A   1      44.645  27.344  34.172  1.00  0.00    -0.206 F 
ATOM     83  C   UNL A   1      46.910  27.018  33.643  1.00  0.00     0.040 A 
ATOM     84  C   UNL A   1      47.923  28.281  31.857  1.00  0.00     0.040 A 
ATOM     85  F   UNL A   1      46.649  29.847  30.658  1.00  0.00    -0.206 F 
ATOM     86  C   UNL A   1      48.026  27.323  32.865  1.00  0.00     0.006 A 
ENDBRANCH  62  79
ENDBRANCH  36  37
ENDBRANCH  28  31
ENDBRANCH  26  27
ENDBRANCH   1  26
TORSDOF 11
ENDMDL
