MODEL 1
REMARK VINA RESULT:     -12.4      0.000      0.000
REMARK SMILES C[C@@H]1c2ccccc2-c2ccc(C(=O)NCCCCNC(=O)c3ccc(-c4c5nc(c(-c6c(F)cccc6F)c6ccc([nH]6)c(-c6c(F)cccc6F)c6nc(c(-c7c(F)cccc7F)c7ccc4[nH]7)C=C6)C=C5)cc3)cc21
REMARK SMILES IDX 18 1 17 2 16 3 15 4 13 5 14 6 12 8 1 9 2 10 3 11 78 12 4 13
REMARK SMILES IDX 8 14 9 15 77 16 5 17 7 18 10 19 6 20 11 21 19 22 20 23 21 24
REMARK SMILES IDX 22 26 23 27 24 28 76 29 25 30 75 31 26 32 27 33 28 34 69 35
REMARK SMILES IDX 29 36 74 37 68 38 70 39 30 40 73 41 67 42 66 43 31 45 57 46
REMARK SMILES IDX 40 47 56 48 41 49 44 50 55 51 71 52 42 53 43 54 54 56 72 57
REMARK SMILES IDX 45 58 32 59 33 60 38 61 34 62 35 63 37 64 39 65 36 66 58 67
REMARK SMILES IDX 59 68 64 69 60 70 61 71 63 72 65 73 62 74 46 75 47 76 52 77
REMARK SMILES IDX 48 78 49 79 51 80 53 81 50 82
REMARK H PARENT 15 7 20 25 70 44 44 55
REMARK Flexibility Score: inf
ROOT
ATOM      1  C   UNL A   1      37.923  19.969  24.990  1.00  0.00     0.023 C 
ENDROOT
BRANCH   1   2
ATOM      2  C   UNL A   1      36.915  21.101  24.776  1.00  0.00     0.023 C 
BRANCH   2   3
ATOM      3  C   UNL A   1      35.600  20.927  25.541  1.00  0.00     0.116 C 
BRANCH   3   4
ATOM      4  N   UNL A   1      34.482  20.821  24.627  1.00  0.00    -0.352 N 
ATOM      5  C   UNL A   1      33.516  21.712  24.232  1.00  0.00     0.251 C 
ATOM      6  O   UNL A   1      32.701  21.309  23.401  1.00  0.00    -0.269 OA
ATOM      7  H   UNL A   1      34.398  19.935  24.205  1.00  0.00     0.163 HD
BRANCH   5   8
ATOM      8  C   UNL A   1      33.418  23.125  24.717  1.00  0.00     0.040 A 
ATOM      9  C   UNL A   1      29.919  25.839  25.751  1.00  0.00     0.018 C 
ATOM     10  C   UNL A   1      31.256  25.797  26.477  1.00  0.00     0.047 C 
ATOM     11  C   UNL A   1      31.917  27.157  26.629  1.00  0.00    -0.033 A 
ATOM     12  C   UNL A   1      32.331  25.015  25.732  1.00  0.00    -0.032 A 
ATOM     13  C   UNL A   1      31.405  28.304  27.214  1.00  0.00     0.005 A 
ATOM     14  C   UNL A   1      33.227  27.124  26.099  1.00  0.00    -0.014 A 
ATOM     15  C   UNL A   1      33.486  25.802  25.570  1.00  0.00    -0.014 A 
ATOM     16  C   UNL A   1      32.276  23.702  25.281  1.00  0.00     0.018 A 
ATOM     17  C   UNL A   1      32.214  29.440  27.251  1.00  0.00     0.000 A 
ATOM     18  C   UNL A   1      34.028  28.253  26.134  1.00  0.00     0.009 A 
ATOM     19  C   UNL A   1      34.613  25.266  24.976  1.00  0.00     0.010 A 
ATOM     20  C   UNL A   1      33.513  29.416  26.713  1.00  0.00     0.001 A 
ATOM     21  C   UNL A   1      34.576  23.927  24.562  1.00  0.00     0.014 A 
ENDBRANCH   5   8
ENDBRANCH   3   4
ENDBRANCH   2   3
ENDBRANCH   1   2
BRANCH   1  22
ATOM     22  C   UNL A   1      39.164  20.361  25.784  1.00  0.00     0.116 C 
BRANCH  22  23
ATOM     23  N   UNL A   1      40.185  19.325  25.814  1.00  0.00    -0.352 N 
ATOM     24  C   UNL A   1      41.519  19.453  26.126  1.00  0.00     0.251 C 
ATOM     25  H   UNL A   1      39.882  18.418  25.581  1.00  0.00     0.163 HD
ATOM     26  O   UNL A   1      42.278  18.503  26.019  1.00  0.00    -0.269 OA
BRANCH  24  27
ATOM     27  C   UNL A   1      42.030  20.774  26.544  1.00  0.00     0.039 A 
ATOM     28  C   UNL A   1      42.399  21.691  25.558  1.00  0.00     0.014 A 
ATOM     29  C   UNL A   1      42.098  21.119  27.896  1.00  0.00     0.014 A 
ATOM     30  C   UNL A   1      42.771  22.984  25.925  1.00  0.00     0.010 A 
ATOM     31  C   UNL A   1      42.406  22.426  28.257  1.00  0.00     0.010 A 
ATOM     32  C   UNL A   1      42.740  23.372  27.276  1.00  0.00    -0.014 A 
BRANCH  32  33
ATOM     33  C   UNL A   1      43.046  24.765  27.680  1.00  0.00     0.031 A 
ATOM     34  C   UNL A   1      44.470  25.201  27.865  1.00  0.00     0.074 A 
ATOM     35  C   UNL A   1      42.035  25.614  27.952  1.00  0.00     0.049 A 
ATOM     36  N   UNL A   1      44.935  26.348  28.290  1.00  0.00    -0.248 NA
ATOM     37  C   UNL A   1      45.510  24.206  27.559  1.00  0.00     0.031 C 
ATOM     38  C   UNL A   1      40.609  25.291  27.864  1.00  0.00     0.029 A 
ATOM     39  N   UNL A   1      42.055  26.919  28.373  1.00  0.00    -0.354 N 
ATOM     40  C   UNL A   1      46.316  26.208  28.315  1.00  0.00     0.074 A 
ATOM     41  C   UNL A   1      46.613  24.850  27.912  1.00  0.00     0.031 C 
ATOM     42  C   UNL A   1      39.892  26.375  28.203  1.00  0.00     0.029 A 
ATOM     43  C   UNL A   1      40.805  27.456  28.563  1.00  0.00     0.049 A 
ATOM     44  H   UNL A   1      42.887  27.423  28.526  1.00  0.00     0.167 HD
ATOM     45  C   UNL A   1      47.254  27.134  28.624  1.00  0.00     0.037 A 
ATOM     46  C   UNL A   1      40.437  28.680  28.984  1.00  0.00     0.037 A 
ATOM     47  C   UNL A   1      46.959  28.492  28.998  1.00  0.00     0.049 A 
ATOM     48  C   UNL A   1      41.497  29.695  29.307  1.00  0.00     0.074 A 
ATOM     49  C   UNL A   1      47.839  29.522  29.276  1.00  0.00     0.029 A 
ATOM     50  N   UNL A   1      45.680  29.008  29.144  1.00  0.00    -0.354 N 
ATOM     51  N   UNL A   1      42.801  29.568  29.267  1.00  0.00    -0.248 NA
ATOM     52  C   UNL A   1      41.035  31.025  29.728  1.00  0.00     0.031 C 
ATOM     53  C   UNL A   1      47.093  30.654  29.621  1.00  0.00     0.029 A 
ATOM     54  C   UNL A   1      45.748  30.339  29.521  1.00  0.00     0.049 A 
ATOM     55  H   UNL A   1      44.846  28.503  29.002  1.00  0.00     0.167 HD
ATOM     56  C   UNL A   1      43.315  30.806  29.631  1.00  0.00     0.074 A 
ATOM     57  C   UNL A   1      42.181  31.673  29.876  1.00  0.00     0.031 C 
ATOM     58  C   UNL A   1      44.609  31.189  29.752  1.00  0.00     0.037 A 
BRANCH  45  59
ATOM     59  C   UNL A   1      48.690  26.708  28.556  1.00  0.00     0.057 A 
ATOM     60  C   UNL A   1      49.441  26.838  27.381  1.00  0.00     0.134 A 
ATOM     61  C   UNL A   1      49.337  26.186  29.682  1.00  0.00     0.134 A 
ATOM     62  F   UNL A   1      48.876  27.319  26.263  1.00  0.00    -0.206 F 
ATOM     63  C   UNL A   1      50.778  26.441  27.321  1.00  0.00     0.040 A 
ATOM     64  C   UNL A   1      50.680  25.807  29.642  1.00  0.00     0.040 A 
ATOM     65  F   UNL A   1      48.677  26.038  30.841  1.00  0.00    -0.206 F 
ATOM     66  C   UNL A   1      51.402  25.929  28.456  1.00  0.00     0.006 A 
ENDBRANCH  45  59
BRANCH  46  67
ATOM     67  C   UNL A   1      38.998  29.024  29.099  1.00  0.00     0.057 A 
ATOM     68  C   UNL A   1      38.286  29.519  28.001  1.00  0.00     0.134 A 
ATOM     69  C   UNL A   1      38.304  28.871  30.304  1.00  0.00     0.134 A 
ATOM     70  F   UNL A   1      38.903  29.703  26.824  1.00  0.00    -0.206 F 
ATOM     71  C   UNL A   1      36.939  29.869  28.101  1.00  0.00     0.040 A 
ATOM     72  C   UNL A   1      36.951  29.196  30.413  1.00  0.00     0.040 A 
ATOM     73  F   UNL A   1      38.928  28.393  31.390  1.00  0.00    -0.206 F 
ATOM     74  C   UNL A   1      36.266  29.703  29.310  1.00  0.00     0.006 A 
ENDBRANCH  46  67
BRANCH  58  75
ATOM     75  C   UNL A   1      44.867  32.614  30.139  1.00  0.00     0.057 A 
ATOM     76  C   UNL A   1      44.960  33.632  29.182  1.00  0.00     0.134 A 
ATOM     77  C   UNL A   1      44.986  32.976  31.487  1.00  0.00     0.134 A 
ATOM     78  F   UNL A   1      44.868  33.346  27.874  1.00  0.00    -0.206 F 
ATOM     79  C   UNL A   1      45.180  34.960  29.552  1.00  0.00     0.040 A 
ATOM     80  C   UNL A   1      45.184  34.303  31.870  1.00  0.00     0.040 A 
ATOM     81  F   UNL A   1      44.900  32.048  32.451  1.00  0.00    -0.206 F 
ATOM     82  C   UNL A   1      45.286  35.299  30.900  1.00  0.00     0.006 A 
ENDBRANCH  58  75
ENDBRANCH  32  33
ENDBRANCH  24  27
ENDBRANCH  22  23
ENDBRANCH   1  22
TORSDOF 11
ENDMDL
MODEL 2
REMARK VINA RESULT:     -12.3      0.752      6.449
REMARK SMILES C[C@@H]1c2ccccc2-c2ccc(C(=O)NCCCCNC(=O)c3ccc(-c4c5nc(c(-c6c(F)cccc6F)c6ccc([nH]6)c(-c6c(F)cccc6F)c6nc(c(-c7c(F)cccc7F)c7ccc4[nH]7)C=C6)C=C5)cc3)cc21
REMARK SMILES IDX 18 1 17 2 16 3 15 4 13 5 14 6 12 8 1 9 2 10 3 11 78 12 4 13
REMARK SMILES IDX 8 14 9 15 77 16 5 17 7 18 10 19 6 20 11 21 19 22 20 23 21 24
REMARK SMILES IDX 22 26 23 27 24 28 76 29 25 30 75 31 26 32 27 33 28 34 69 35
REMARK SMILES IDX 29 36 74 37 68 38 70 39 30 40 73 41 67 42 66 43 31 45 57 46
REMARK SMILES IDX 40 47 56 48 41 49 44 50 55 51 71 52 42 53 43 54 54 56 72 57
REMARK SMILES IDX 45 58 32 59 33 60 38 61 34 62 35 63 37 64 39 65 36 66 58 67
REMARK SMILES IDX 59 68 64 69 60 70 61 71 63 72 65 73 62 74 46 75 47 76 52 77
REMARK SMILES IDX 48 78 49 79 51 80 53 81 50 82
REMARK H PARENT 15 7 20 25 70 44 44 55
REMARK Flexibility Score: inf
ROOT
ATOM      1  C   UNL A   1      37.905  20.103  24.927  1.00  0.00     0.023 C 
ENDROOT
BRANCH   1   2
ATOM      2  C   UNL A   1      36.884  21.244  24.913  1.00  0.00     0.023 C 
BRANCH   2   3
ATOM      3  C   UNL A   1      35.547  20.901  25.576  1.00  0.00     0.116 C 
BRANCH   3   4
ATOM      4  N   UNL A   1      34.484  20.847  24.594  1.00  0.00    -0.352 N 
ATOM      5  C   UNL A   1      33.568  21.774  24.163  1.00  0.00     0.251 C 
ATOM      6  O   UNL A   1      32.794  21.413  23.275  1.00  0.00    -0.269 OA
ATOM      7  H   UNL A   1      34.401  19.973  24.148  1.00  0.00     0.163 HD
BRANCH   5   8
ATOM      8  C   UNL A   1      33.480  23.178  24.674  1.00  0.00     0.040 A 
ATOM      9  C   UNL A   1      30.002  25.886  25.790  1.00  0.00     0.018 C 
ATOM     10  C   UNL A   1      31.345  25.826  26.503  1.00  0.00     0.047 C 
ATOM     11  C   UNL A   1      32.013  27.181  26.672  1.00  0.00    -0.033 A 
ATOM     12  C   UNL A   1      32.410  25.054  25.734  1.00  0.00    -0.032 A 
ATOM     13  C   UNL A   1      31.511  28.319  27.283  1.00  0.00     0.005 A 
ATOM     14  C   UNL A   1      33.318  27.152  26.130  1.00  0.00    -0.014 A 
ATOM     15  C   UNL A   1      33.566  25.839  25.574  1.00  0.00    -0.014 A 
ATOM     16  C   UNL A   1      32.346  23.750  25.259  1.00  0.00     0.018 A 
ATOM     17  C   UNL A   1      32.324  29.451  27.332  1.00  0.00     0.000 A 
ATOM     18  C   UNL A   1      34.123  28.278  26.177  1.00  0.00     0.009 A 
ATOM     19  C   UNL A   1      34.685  25.310  24.960  1.00  0.00     0.010 A 
ATOM     20  C   UNL A   1      33.618  29.432  26.782  1.00  0.00     0.001 A 
ATOM     21  C   UNL A   1      34.639  23.979  24.523  1.00  0.00     0.014 A 
ENDBRANCH   5   8
ENDBRANCH   3   4
ENDBRANCH   2   3
ENDBRANCH   1   2
BRANCH   1  22
ATOM     22  C   UNL A   1      39.126  20.351  25.806  1.00  0.00     0.116 C 
BRANCH  22  23
ATOM     23  N   UNL A   1      40.053  19.231  25.841  1.00  0.00    -0.352 N 
ATOM     24  C   UNL A   1      41.397  19.246  26.135  1.00  0.00     0.251 C 
ATOM     25  H   UNL A   1      39.670  18.350  25.626  1.00  0.00     0.163 HD
ATOM     26  O   UNL A   1      42.069  18.232  26.035  1.00  0.00    -0.269 OA
BRANCH  24  27
ATOM     27  C   UNL A   1      42.026  20.524  26.527  1.00  0.00     0.039 A 
ATOM     28  C   UNL A   1      42.524  21.359  25.523  1.00  0.00     0.014 A 
ATOM     29  C   UNL A   1      42.082  20.914  27.867  1.00  0.00     0.014 A 
ATOM     30  C   UNL A   1      43.013  22.621  25.859  1.00  0.00     0.010 A 
ATOM     31  C   UNL A   1      42.510  22.195  28.193  1.00  0.00     0.010 A 
ATOM     32  C   UNL A   1      42.975  23.063  27.193  1.00  0.00    -0.014 A 
BRANCH  32  33
ATOM     33  C   UNL A   1      43.408  24.432  27.560  1.00  0.00     0.031 A 
ATOM     34  C   UNL A   1      42.389  25.471  27.929  1.00  0.00     0.074 A 
ATOM     35  C   UNL A   1      44.713  24.758  27.487  1.00  0.00     0.049 A 
ATOM     36  N   UNL A   1      42.563  26.739  28.202  1.00  0.00    -0.248 NA
ATOM     37  C   UNL A   1      40.985  25.033  27.970  1.00  0.00     0.031 C 
ATOM     38  C   UNL A   1      45.792  23.851  27.086  1.00  0.00     0.029 A 
ATOM     39  N   UNL A   1      45.352  25.946  27.734  1.00  0.00    -0.354 N 
ATOM     40  C   UNL A   1      41.293  27.252  28.432  1.00  0.00     0.074 A 
ATOM     41  C   UNL A   1      40.354  26.172  28.219  1.00  0.00     0.031 C 
ATOM     42  C   UNL A   1      46.960  24.513  27.132  1.00  0.00     0.029 A 
ATOM     43  C   UNL A   1      46.710  25.894  27.532  1.00  0.00     0.049 A 
ATOM     44  H   UNL A   1      44.881  26.760  28.026  1.00  0.00     0.167 HD
ATOM     45  C   UNL A   1      40.943  28.503  28.810  1.00  0.00     0.037 A 
ATOM     46  C   UNL A   1      47.646  26.853  27.652  1.00  0.00     0.037 A 
ATOM     47  C   UNL A   1      41.880  29.569  29.049  1.00  0.00     0.049 A 
ATOM     48  C   UNL A   1      47.234  28.231  28.087  1.00  0.00     0.074 A 
ATOM     49  C   UNL A   1      41.630  30.857  29.489  1.00  0.00     0.029 A 
ATOM     50  N   UNL A   1      43.251  29.466  28.869  1.00  0.00    -0.354 N 
ATOM     51  N   UNL A   1      46.036  28.686  28.363  1.00  0.00    -0.248 NA
ATOM     52  C   UNL A   1      48.304  29.228  28.235  1.00  0.00     0.031 C 
ATOM     53  C   UNL A   1      42.847  31.544  29.545  1.00  0.00     0.029 A 
ATOM     54  C   UNL A   1      43.859  30.673  29.176  1.00  0.00     0.049 A 
ATOM     55  H   UNL A   1      43.724  28.657  28.566  1.00  0.00     0.167 HD
ATOM     56  C   UNL A   1      46.209  30.011  28.740  1.00  0.00     0.074 A 
ATOM     57  C   UNL A   1      47.631  30.283  28.670  1.00  0.00     0.031 C 
ATOM     58  C   UNL A   1      45.276  30.921  29.109  1.00  0.00     0.037 A 
BRANCH  45  59
ATOM     59  C   UNL A   1      39.482  28.781  29.001  1.00  0.00     0.057 A 
ATOM     60  C   UNL A   1      38.855  28.605  30.241  1.00  0.00     0.134 A 
ATOM     61  C   UNL A   1      38.697  29.253  27.942  1.00  0.00     0.134 A 
ATOM     62  F   UNL A   1      39.548  28.142  31.293  1.00  0.00    -0.206 F 
ATOM     63  C   UNL A   1      37.495  28.864  30.416  1.00  0.00     0.040 A 
ATOM     64  C   UNL A   1      37.342  29.539  28.110  1.00  0.00     0.040 A 
ATOM     65  F   UNL A   1      39.235  29.448  26.728  1.00  0.00    -0.206 F 
ATOM     66  C   UNL A   1      36.736  29.338  29.349  1.00  0.00     0.006 A 
ENDBRANCH  45  59
BRANCH  46  67
ATOM     67  C   UNL A   1      49.071  26.538  27.383  1.00  0.00     0.057 A 
ATOM     68  C   UNL A   1      49.892  26.005  28.382  1.00  0.00     0.134 A 
ATOM     69  C   UNL A   1      49.645  26.766  26.127  1.00  0.00     0.134 A 
ATOM     70  F   UNL A   1      49.401  25.782  29.610  1.00  0.00    -0.206 F 
ATOM     71  C   UNL A   1      51.239  25.725  28.149  1.00  0.00     0.040 A 
ATOM     72  C   UNL A   1      50.985  26.470  25.874  1.00  0.00     0.040 A 
ATOM     73  F   UNL A   1      48.908  27.267  25.126  1.00  0.00    -0.206 F 
ATOM     74  C   UNL A   1      51.788  25.955  26.890  1.00  0.00     0.006 A 
ENDBRANCH  46  67
BRANCH  58  75
ATOM     75  C   UNL A   1      45.765  32.284  29.496  1.00  0.00     0.057 A 
ATOM     76  C   UNL A   1      46.144  32.587  30.809  1.00  0.00     0.134 A 
ATOM     77  C   UNL A   1      45.894  33.295  28.534  1.00  0.00     0.134 A 
ATOM     78  F   UNL A   1      46.031  31.667  31.779  1.00  0.00    -0.206 F 
ATOM     79  C   UNL A   1      46.618  33.854  31.156  1.00  0.00     0.040 A 
ATOM     80  C   UNL A   1      46.388  34.557  28.864  1.00  0.00     0.040 A 
ATOM     81  F   UNL A   1      45.554  33.065  27.256  1.00  0.00    -0.206 F 
ATOM     82  C   UNL A   1      46.747  34.840  30.180  1.00  0.00     0.006 A 
ENDBRANCH  58  75
ENDBRANCH  32  33
ENDBRANCH  24  27
ENDBRANCH  22  23
ENDBRANCH   1  22
TORSDOF 11
ENDMDL
MODEL 3
REMARK VINA RESULT:     -12.3      2.793      7.837
REMARK SMILES C[C@@H]1c2ccccc2-c2ccc(C(=O)NCCCCNC(=O)c3ccc(-c4c5nc(c(-c6c(F)cccc6F)c6ccc([nH]6)c(-c6c(F)cccc6F)c6nc(c(-c7c(F)cccc7F)c7ccc4[nH]7)C=C6)C=C5)cc3)cc21
REMARK SMILES IDX 18 1 17 2 16 3 15 4 13 5 14 6 12 8 1 9 2 10 3 11 78 12 4 13
REMARK SMILES IDX 8 14 9 15 77 16 5 17 7 18 10 19 6 20 11 21 19 22 20 23 21 24
REMARK SMILES IDX 22 26 23 27 24 28 76 29 25 30 75 31 26 32 27 33 28 34 69 35
REMARK SMILES IDX 29 36 74 37 68 38 70 39 30 40 73 41 67 42 66 43 31 45 57 46
REMARK SMILES IDX 40 47 56 48 41 49 44 50 55 51 71 52 42 53 43 54 54 56 72 57
REMARK SMILES IDX 45 58 32 59 33 60 38 61 34 62 35 63 37 64 39 65 36 66 58 67
REMARK SMILES IDX 59 68 64 69 60 70 61 71 63 72 65 73 62 74 46 75 47 76 52 77
REMARK SMILES IDX 48 78 49 79 51 80 53 81 50 82
REMARK H PARENT 15 7 20 25 70 44 44 55
REMARK Flexibility Score: inf
ROOT
ATOM      1  C   UNL A   1      32.445  28.249  26.528  1.00  0.00     0.023 C 
ENDROOT
BRANCH   1   2
ATOM      2  C   UNL A   1      31.772  29.361  25.719  1.00  0.00     0.023 C 
BRANCH   2   3
ATOM      3  C   UNL A   1      31.437  28.975  24.275  1.00  0.00     0.116 C 
BRANCH   3   4
ATOM      4  N   UNL A   1      32.607  29.079  23.430  1.00  0.00    -0.352 N 
ATOM      5  C   UNL A   1      33.482  28.146  22.932  1.00  0.00     0.251 C 
ATOM      6  O   UNL A   1      34.383  28.567  22.205  1.00  0.00    -0.269 OA
ATOM      7  H   UNL A   1      32.819  30.003  23.159  1.00  0.00     0.163 HD
BRANCH   5   8
ATOM      8  C   UNL A   1      33.385  26.674  23.188  1.00  0.00     0.040 A 
ATOM      9  C   UNL A   1      35.785  23.781  25.747  1.00  0.00     0.018 C 
ATOM     10  C   UNL A   1      34.280  23.732  25.523  1.00  0.00     0.047 C 
ATOM     11  C   UNL A   1      33.770  22.374  25.066  1.00  0.00    -0.033 A 
ATOM     12  C   UNL A   1      33.801  24.635  24.393  1.00  0.00    -0.032 A 
ATOM     13  C   UNL A   1      33.923  21.143  25.685  1.00  0.00     0.005 A 
ATOM     14  C   UNL A   1      33.035  22.508  23.867  1.00  0.00    -0.014 A 
ATOM     15  C   UNL A   1      33.037  23.899  23.468  1.00  0.00    -0.014 A 
ATOM     16  C   UNL A   1      34.009  26.000  24.242  1.00  0.00     0.018 A 
ATOM     17  C   UNL A   1      33.345  20.028  25.079  1.00  0.00     0.000 A 
ATOM     18  C   UNL A   1      32.464  21.399  23.265  1.00  0.00     0.009 A 
ATOM     19  C   UNL A   1      32.446  24.537  22.394  1.00  0.00     0.010 A 
ATOM     20  C   UNL A   1      32.625  20.153  23.879  1.00  0.00     0.001 A 
ATOM     21  C   UNL A   1      32.615  25.923  22.266  1.00  0.00     0.014 A 
ENDBRANCH   5   8
ENDBRANCH   3   4
ENDBRANCH   2   3
ENDBRANCH   1   2
BRANCH   1  22
ATOM     22  C   UNL A   1      33.710  28.673  27.266  1.00  0.00     0.116 C 
BRANCH  22  23
ATOM     23  N   UNL A   1      33.658  30.036  27.771  1.00  0.00    -0.352 N 
ATOM     24  C   UNL A   1      34.657  30.754  28.387  1.00  0.00     0.251 C 
ATOM     25  H   UNL A   1      32.800  30.503  27.658  1.00  0.00     0.163 HD
ATOM     26  O   UNL A   1      34.437  31.865  28.841  1.00  0.00    -0.269 OA
BRANCH  24  27
ATOM     27  C   UNL A   1      35.991  30.137  28.535  1.00  0.00     0.039 A 
ATOM     28  C   UNL A   1      36.874  30.186  27.454  1.00  0.00     0.014 A 
ATOM     29  C   UNL A   1      36.382  29.559  29.746  1.00  0.00     0.014 A 
ATOM     30  C   UNL A   1      38.179  29.716  27.610  1.00  0.00     0.010 A 
ATOM     31  C   UNL A   1      37.699  29.151  29.919  1.00  0.00     0.010 A 
ATOM     32  C   UNL A   1      38.611  29.230  28.855  1.00  0.00    -0.014 A 
BRANCH  32  33
ATOM     33  C   UNL A   1      40.016  28.809  29.068  1.00  0.00     0.031 A 
ATOM     34  C   UNL A   1      41.008  29.766  29.663  1.00  0.00     0.074 A 
ATOM     35  C   UNL A   1      40.414  27.589  28.655  1.00  0.00     0.049 A 
ATOM     36  N   UNL A   1      42.294  29.612  29.853  1.00  0.00    -0.248 NA
ATOM     37  C   UNL A   1      40.492  31.082  30.072  1.00  0.00     0.031 C 
ATOM     38  C   UNL A   1      39.556  26.591  28.012  1.00  0.00     0.029 A 
ATOM     39  N   UNL A   1      41.646  26.988  28.702  1.00  0.00    -0.354 N 
ATOM     40  C   UNL A   1      42.741  30.812  30.389  1.00  0.00     0.074 A 
ATOM     41  C   UNL A   1      41.601  31.702  30.448  1.00  0.00     0.031 C 
ATOM     42  C   UNL A   1      40.285  25.496  27.741  1.00  0.00     0.029 A 
ATOM     43  C   UNL A   1      41.664  25.726  28.161  1.00  0.00     0.049 A 
ATOM     44  H   UNL A   1      42.442  27.421  29.087  1.00  0.00     0.167 HD
ATOM     45  C   UNL A   1      43.984  31.136  30.816  1.00  0.00     0.037 A 
ATOM     46  C   UNL A   1      42.680  24.856  28.015  1.00  0.00     0.037 A 
ATOM     47  C   UNL A   1      45.110  30.241  30.782  1.00  0.00     0.049 A 
ATOM     48  C   UNL A   1      44.047  25.233  28.510  1.00  0.00     0.074 A 
ATOM     49  C   UNL A   1      46.398  30.455  31.242  1.00  0.00     0.029 A 
ATOM     50  N   UNL A   1      45.080  28.957  30.258  1.00  0.00    -0.354 N 
ATOM     51  N   UNL A   1      44.443  26.348  29.073  1.00  0.00    -0.248 NA
ATOM     52  C   UNL A   1      45.109  24.228  28.356  1.00  0.00     0.031 C 
ATOM     53  C   UNL A   1      47.156  29.311  30.969  1.00  0.00     0.029 A 
ATOM     54  C   UNL A   1      46.331  28.372  30.372  1.00  0.00     0.049 A 
ATOM     55  H   UNL A   1      44.288  28.525  29.863  1.00  0.00     0.167 HD
ATOM     56  C   UNL A   1      45.789  26.172  29.362  1.00  0.00     0.074 A 
ATOM     57  C   UNL A   1      46.139  24.836  28.925  1.00  0.00     0.031 C 
ATOM     58  C   UNL A   1      46.658  27.038  29.938  1.00  0.00     0.037 A 
BRANCH  45  59
ATOM     59  C   UNL A   1      44.184  32.515  31.369  1.00  0.00     0.057 A 
ATOM     60  C   UNL A   1      44.551  33.590  30.549  1.00  0.00     0.134 A 
ATOM     61  C   UNL A   1      43.983  32.779  32.729  1.00  0.00     0.134 A 
ATOM     62  F   UNL A   1      44.771  33.401  29.239  1.00  0.00    -0.206 F 
ATOM     63  C   UNL A   1      44.735  34.874  31.066  1.00  0.00     0.040 A 
ATOM     64  C   UNL A   1      44.141  34.063  33.254  1.00  0.00     0.040 A 
ATOM     65  F   UNL A   1      43.627  31.796  33.569  1.00  0.00    -0.206 F 
ATOM     66  C   UNL A   1      44.525  35.113  32.422  1.00  0.00     0.006 A 
ENDBRANCH  45  59
BRANCH  46  67
ATOM     67  C   UNL A   1      42.437  23.529  27.396  1.00  0.00     0.057 A 
ATOM     68  C   UNL A   1      42.061  22.429  28.175  1.00  0.00     0.134 A 
ATOM     69  C   UNL A   1      42.579  23.328  26.019  1.00  0.00     0.134 A 
ATOM     70  F   UNL A   1      41.927  22.557  29.503  1.00  0.00    -0.206 F 
ATOM     71  C   UNL A   1      41.852  21.170  27.610  1.00  0.00     0.040 A 
ATOM     72  C   UNL A   1      42.351  22.080  25.437  1.00  0.00     0.040 A 
ATOM     73  F   UNL A   1      42.928  24.345  25.217  1.00  0.00    -0.206 F 
ATOM     74  C   UNL A   1      41.994  20.995  26.235  1.00  0.00     0.006 A 
ENDBRANCH  46  67
BRANCH  58  75
ATOM     75  C   UNL A   1      48.061  26.557  30.155  1.00  0.00     0.057 A 
ATOM     76  C   UNL A   1      48.440  25.891  31.327  1.00  0.00     0.134 A 
ATOM     77  C   UNL A   1      49.035  26.729  29.163  1.00  0.00     0.134 A 
ATOM     78  F   UNL A   1      47.556  25.709  32.321  1.00  0.00    -0.206 F 
ATOM     79  C   UNL A   1      49.744  25.429  31.513  1.00  0.00     0.040 A 
ATOM     80  C   UNL A   1      50.335  26.251  29.327  1.00  0.00     0.040 A 
ATOM     81  F   UNL A   1      48.733  27.353  28.014  1.00  0.00    -0.206 F 
ATOM     82  C   UNL A   1      50.693  25.603  30.507  1.00  0.00     0.006 A 
ENDBRANCH  58  75
ENDBRANCH  32  33
ENDBRANCH  24  27
ENDBRANCH  22  23
ENDBRANCH   1  22
TORSDOF 11
ENDMDL
