MODEL 1
REMARK VINA RESULT:     -11.3      0.000      0.000
REMARK SMILES O=C(NCCCCNC(=O)[C@H]1CSC2(CCCCC2)[NH2+]1)c1ccc(-c2c3nc(c(-c4c(F)cccc4F)c4ccc([nH]4)c(-c4c(F)cccc4F)c4nc(c(-c5c(F)cccc5F)c5ccc2[nH]5)C=C4)C=C3)cc1
REMARK SMILES IDX 4 1 3 2 1 3 2 4 21 6 22 7 74 8 23 9 73 10 24 11 25 12 26 13
REMARK SMILES IDX 67 14 27 15 72 16 66 17 68 18 28 19 71 20 65 21 64 22 29 24
REMARK SMILES IDX 55 25 38 26 54 27 39 28 42 29 53 30 69 31 40 32 41 33 52 35
REMARK SMILES IDX 70 36 43 37 30 38 31 39 36 40 32 41 33 42 35 43 37 44 34 45
REMARK SMILES IDX 56 46 57 47 62 48 58 49 59 50 61 51 63 52 60 53 44 54 45 55
REMARK SMILES IDX 50 56 46 57 47 58 49 59 51 60 48 61 5 62 6 63 7 64 8 65 9 66
REMARK SMILES IDX 10 68 11 69 12 70 20 71 13 72 14 73 15 76 19 77 16 78 18 79
REMARK SMILES IDX 17 80
REMARK H PARENT 3 5 68 23 42 34 8 67 20 74 20 75
REMARK Flexibility Score: inf
ROOT
ATOM      1  C   UNL A   1      39.107  20.264  25.740  1.00  0.00     0.116 C 
ENDROOT
BRANCH   1   2
ATOM      2  N   UNL A   1      40.051  19.157  25.755  1.00  0.00    -0.352 N 
ATOM      3  O   UNL A   1      42.106  18.215  25.937  1.00  0.00    -0.269 OA
ATOM      4  C   UNL A   1      41.399  19.213  26.029  1.00  0.00     0.251 C 
ATOM      5  H   UNL A   1      39.685  18.268  25.544  1.00  0.00     0.163 HD
BRANCH   4   6
ATOM      6  C   UNL A   1      41.989  20.516  26.391  1.00  0.00     0.039 A 
ATOM      7  C   UNL A   1      42.152  20.861  27.734  1.00  0.00     0.014 A 
ATOM      8  C   UNL A   1      42.309  21.421  25.377  1.00  0.00     0.014 A 
ATOM      9  C   UNL A   1      42.498  22.165  28.066  1.00  0.00     0.010 A 
ATOM     10  C   UNL A   1      42.727  22.710  25.713  1.00  0.00     0.010 A 
ATOM     11  C   UNL A   1      42.787  23.101  27.060  1.00  0.00    -0.014 A 
BRANCH  11  12
ATOM     12  C   UNL A   1      43.192  24.473  27.446  1.00  0.00     0.031 A 
ATOM     13  C   UNL A   1      44.624  24.916  27.354  1.00  0.00     0.074 A 
ATOM     14  C   UNL A   1      42.238  25.334  27.847  1.00  0.00     0.049 A 
ATOM     15  N   UNL A   1      45.143  26.084  27.636  1.00  0.00    -0.248 NA
ATOM     16  C   UNL A   1      45.604  23.920  26.892  1.00  0.00     0.031 C 
ATOM     17  C   UNL A   1      40.816  25.010  27.981  1.00  0.00     0.029 A 
ATOM     18  N   UNL A   1      42.314  26.657  28.196  1.00  0.00    -0.354 N 
ATOM     19  C   UNL A   1      46.508  25.960  27.409  1.00  0.00     0.074 A 
ATOM     20  C   UNL A   1      46.741  24.599  26.979  1.00  0.00     0.031 C 
ATOM     21  C   UNL A   1      40.146  26.115  28.338  1.00  0.00     0.029 A 
ATOM     22  C   UNL A   1      41.097  27.208  28.511  1.00  0.00     0.049 A 
ATOM     23  H   UNL A   1      43.158  27.162  28.218  1.00  0.00     0.167 HD
ATOM     24  C   UNL A   1      47.473  26.900  27.547  1.00  0.00     0.037 A 
ATOM     25  C   UNL A   1      40.780  28.452  28.907  1.00  0.00     0.037 A 
ATOM     26  C   UNL A   1      47.231  28.261  27.953  1.00  0.00     0.049 A 
ATOM     27  C   UNL A   1      41.869  29.473  29.047  1.00  0.00     0.074 A 
ATOM     28  C   UNL A   1      48.140  29.296  28.090  1.00  0.00     0.029 A 
ATOM     29  N   UNL A   1      45.987  28.775  28.287  1.00  0.00    -0.354 N 
ATOM     30  N   UNL A   1      43.153  29.344  28.816  1.00  0.00    -0.248 NA
ATOM     31  C   UNL A   1      41.468  30.807  29.510  1.00  0.00     0.031 C 
ATOM     32  C   UNL A   1      47.451  30.429  28.537  1.00  0.00     0.029 A 
ATOM     33  C   UNL A   1      46.107  30.109  28.645  1.00  0.00     0.049 A 
ATOM     34  H   UNL A   1      45.144  28.269  28.272  1.00  0.00     0.167 HD
ATOM     35  C   UNL A   1      43.714  30.578  29.102  1.00  0.00     0.074 A 
ATOM     36  C   UNL A   1      42.627  31.451  29.499  1.00  0.00     0.031 C 
ATOM     37  C   UNL A   1      45.014  30.955  29.046  1.00  0.00     0.037 A 
BRANCH  24  38
ATOM     38  C   UNL A   1      48.889  26.489  27.271  1.00  0.00     0.057 A 
ATOM     39  C   UNL A   1      49.726  25.998  28.281  1.00  0.00     0.134 A 
ATOM     40  C   UNL A   1      49.403  26.534  25.970  1.00  0.00     0.134 A 
ATOM     41  F   UNL A   1      49.298  25.940  29.551  1.00  0.00    -0.206 F 
ATOM     42  C   UNL A   1      51.030  25.578  28.007  1.00  0.00     0.040 A 
ATOM     43  C   UNL A   1      50.698  26.100  25.680  1.00  0.00     0.040 A 
ATOM     44  F   UNL A   1      48.652  26.989  24.957  1.00  0.00    -0.206 F 
ATOM     45  C   UNL A   1      51.517  25.622  26.702  1.00  0.00     0.006 A 
ENDBRANCH  24  38
BRANCH  25  46
ATOM     46  C   UNL A   1      39.367  28.789  29.198  1.00  0.00     0.057 A 
ATOM     47  C   UNL A   1      38.829  28.606  30.476  1.00  0.00     0.134 A 
ATOM     48  C   UNL A   1      38.534  29.337  28.215  1.00  0.00     0.134 A 
ATOM     49  F   UNL A   1      39.576  28.073  31.453  1.00  0.00    -0.206 F 
ATOM     50  C   UNL A   1      37.509  28.951  30.766  1.00  0.00     0.040 A 
ATOM     51  C   UNL A   1      37.220  29.708  28.496  1.00  0.00     0.040 A 
ATOM     52  F   UNL A   1      38.998  29.545  26.974  1.00  0.00    -0.206 F 
ATOM     53  C   UNL A   1      36.702  29.512  29.775  1.00  0.00     0.006 A 
ENDBRANCH  25  46
BRANCH  37  54
ATOM     54  C   UNL A   1      45.320  32.374  29.418  1.00  0.00     0.057 A 
ATOM     55  C   UNL A   1      45.664  32.728  30.728  1.00  0.00     0.134 A 
ATOM     56  C   UNL A   1      45.285  33.390  28.456  1.00  0.00     0.134 A 
ATOM     57  F   UNL A   1      45.700  31.801  31.696  1.00  0.00    -0.206 F 
ATOM     58  C   UNL A   1      45.943  34.051  31.073  1.00  0.00     0.040 A 
ATOM     59  C   UNL A   1      45.581  34.713  28.785  1.00  0.00     0.040 A 
ATOM     60  F   UNL A   1      44.966  33.111  27.183  1.00  0.00    -0.206 F 
ATOM     61  C   UNL A   1      45.905  35.046  30.098  1.00  0.00     0.006 A 
ENDBRANCH  37  54
ENDBRANCH  11  12
ENDBRANCH   4   6
ENDBRANCH   1   2
BRANCH   1  62
ATOM     62  C   UNL A   1      37.806  19.974  25.001  1.00  0.00     0.023 C 
BRANCH  62  63
ATOM     63  C   UNL A   1      36.788  21.113  24.992  1.00  0.00     0.023 C 
BRANCH  63  64
ATOM     64  C   UNL A   1      35.341  20.688  25.225  1.00  0.00     0.116 C 
BRANCH  64  65
ATOM     65  N   UNL A   1      34.771  21.244  26.434  1.00  0.00    -0.351 N 
ATOM     66  C   UNL A   1      33.520  21.667  26.739  1.00  0.00     0.279 C 
ATOM     67  H   UNL A   1      35.414  21.332  27.173  1.00  0.00     0.163 HD
ATOM     68  O   UNL A   1      33.308  21.861  27.948  1.00  0.00    -0.268 OA
BRANCH  66  69
ATOM     69  C   UNL A   1      32.380  21.976  25.729  1.00  0.00     0.283 C 
ATOM     70  C   UNL A   1      31.055  22.580  26.137  1.00  0.00     0.151 C 
ATOM     71  N   UNL A   1      32.916  22.865  24.655  1.00  0.00    -0.322 N 
ATOM     72  S   UNL A   1      31.410  24.335  26.295  1.00  0.00    -0.089 SA
ATOM     73  C   UNL A   1      32.726  24.280  25.021  1.00  0.00     0.143 C 
ATOM     74  H   UNL A   1      32.424  22.675  23.783  1.00  0.00     0.348 HD
ATOM     75  H   UNL A   1      33.914  22.683  24.539  1.00  0.00     0.348 HD
ATOM     76  C   UNL A   1      34.032  24.920  25.536  1.00  0.00     0.081 C 
ATOM     77  C   UNL A   1      32.227  25.035  23.774  1.00  0.00     0.081 C 
ATOM     78  C   UNL A   1      33.926  26.432  25.750  1.00  0.00     0.007 C 
ATOM     79  C   UNL A   1      32.092  26.545  24.000  1.00  0.00     0.007 C 
ATOM     80  C   UNL A   1      33.391  27.154  24.517  1.00  0.00     0.001 C 
ENDBRANCH  66  69
ENDBRANCH  64  65
ENDBRANCH  63  64
ENDBRANCH  62  63
ENDBRANCH   1  62
TORSDOF 11
ENDMDL
MODEL 2
REMARK VINA RESULT:     -11.3      5.420     10.405
REMARK SMILES O=C(NCCCCNC(=O)[C@H]1CSC2(CCCCC2)[NH2+]1)c1ccc(-c2c3nc(c(-c4c(F)cccc4F)c4ccc([nH]4)c(-c4c(F)cccc4F)c4nc(c(-c5c(F)cccc5F)c5ccc2[nH]5)C=C4)C=C3)cc1
REMARK SMILES IDX 4 1 3 2 1 3 2 4 21 6 22 7 74 8 23 9 73 10 24 11 25 12 26 13
REMARK SMILES IDX 67 14 27 15 72 16 66 17 68 18 28 19 71 20 65 21 64 22 29 24
REMARK SMILES IDX 55 25 38 26 54 27 39 28 42 29 53 30 69 31 40 32 41 33 52 35
REMARK SMILES IDX 70 36 43 37 30 38 31 39 36 40 32 41 33 42 35 43 37 44 34 45
REMARK SMILES IDX 56 46 57 47 62 48 58 49 59 50 61 51 63 52 60 53 44 54 45 55
REMARK SMILES IDX 50 56 46 57 47 58 49 59 51 60 48 61 5 62 6 63 7 64 8 65 9 66
REMARK SMILES IDX 10 68 11 69 12 70 20 71 13 72 14 73 15 76 19 77 16 78 18 79
REMARK SMILES IDX 17 80
REMARK H PARENT 3 5 68 23 42 34 8 67 20 74 20 75
REMARK Flexibility Score: inf
ROOT
ATOM      1  C   UNL A   1      32.672  32.860  27.349  1.00  0.00     0.116 C 
ENDROOT
BRANCH   1   2
ATOM      2  N   UNL A   1      32.312  34.229  27.686  1.00  0.00    -0.352 N 
ATOM      3  O   UNL A   1      32.497  36.176  28.835  1.00  0.00    -0.269 OA
ATOM      4  C   UNL A   1      32.943  35.062  28.583  1.00  0.00     0.251 C 
ATOM      5  H   UNL A   1      31.528  34.602  27.221  1.00  0.00     0.163 HD
BRANCH   4   6
ATOM      6  C   UNL A   1      34.146  34.564  29.276  1.00  0.00     0.039 A 
ATOM      7  C   UNL A   1      35.399  34.675  28.669  1.00  0.00     0.014 A 
ATOM      8  C   UNL A   1      34.004  33.919  30.506  1.00  0.00     0.014 A 
ATOM      9  C   UNL A   1      36.486  34.011  29.222  1.00  0.00     0.010 A 
ATOM     10  C   UNL A   1      35.115  33.315  31.098  1.00  0.00     0.010 A 
ATOM     11  C   UNL A   1      36.354  33.324  30.440  1.00  0.00    -0.014 A 
BRANCH  11  12
ATOM     12  C   UNL A   1      37.543  32.660  31.025  1.00  0.00     0.031 A 
ATOM     13  C   UNL A   1      38.108  33.100  32.346  1.00  0.00     0.074 A 
ATOM     14  C   UNL A   1      38.086  31.621  30.366  1.00  0.00     0.049 A 
ATOM     15  N   UNL A   1      39.129  32.616  33.005  1.00  0.00    -0.248 NA
ATOM     16  C   UNL A   1      37.446  34.233  33.012  1.00  0.00     0.031 C 
ATOM     17  C   UNL A   1      37.623  31.112  29.072  1.00  0.00     0.029 A 
ATOM     18  N   UNL A   1      39.128  30.795  30.696  1.00  0.00    -0.354 N 
ATOM     19  C   UNL A   1      39.249  33.395  34.148  1.00  0.00     0.074 A 
ATOM     20  C   UNL A   1      38.206  34.394  34.089  1.00  0.00     0.031 C 
ATOM     21  C   UNL A   1      38.348  30.034  28.740  1.00  0.00     0.029 A 
ATOM     22  C   UNL A   1      39.359  29.810  29.768  1.00  0.00     0.049 A 
ATOM     23  H   UNL A   1      39.660  30.898  31.518  1.00  0.00     0.167 HD
ATOM     24  C   UNL A   1      40.150  33.281  35.154  1.00  0.00     0.037 A 
ATOM     25  C   UNL A   1      40.288  28.839  29.741  1.00  0.00     0.037 A 
ATOM     26  C   UNL A   1      41.173  32.269  35.219  1.00  0.00     0.049 A 
ATOM     27  C   UNL A   1      41.269  28.735  30.869  1.00  0.00     0.074 A 
ATOM     28  C   UNL A   1      42.112  32.052  36.214  1.00  0.00     0.029 A 
ATOM     29  N   UNL A   1      41.389  31.303  34.248  1.00  0.00    -0.354 N 
ATOM     30  N   UNL A   1      41.361  29.472  31.950  1.00  0.00    -0.248 NA
ATOM     31  C   UNL A   1      42.278  27.674  30.772  1.00  0.00     0.031 C 
ATOM     32  C   UNL A   1      42.916  30.974  35.830  1.00  0.00     0.029 A 
ATOM     33  C   UNL A   1      42.457  30.497  34.613  1.00  0.00     0.049 A 
ATOM     34  H   UNL A   1      40.864  31.203  33.423  1.00  0.00     0.167 HD
ATOM     35  C   UNL A   1      42.435  28.962  32.663  1.00  0.00     0.074 A 
ATOM     36  C   UNL A   1      42.947  27.838  31.904  1.00  0.00     0.031 C 
ATOM     37  C   UNL A   1      42.955  29.390  33.838  1.00  0.00     0.037 A 
BRANCH  24  38
ATOM     38  C   UNL A   1      40.083  34.288  36.265  1.00  0.00     0.057 A 
ATOM     39  C   UNL A   1      40.763  35.510  36.196  1.00  0.00     0.134 A 
ATOM     40  C   UNL A   1      39.286  34.053  37.391  1.00  0.00     0.134 A 
ATOM     41  F   UNL A   1      41.553  35.792  35.150  1.00  0.00    -0.206 F 
ATOM     42  C   UNL A   1      40.661  36.458  37.216  1.00  0.00     0.040 A 
ATOM     43  C   UNL A   1      39.162  35.000  38.409  1.00  0.00     0.040 A 
ATOM     44  F   UNL A   1      38.605  32.904  37.516  1.00  0.00    -0.206 F 
ATOM     45  C   UNL A   1      39.853  36.208  38.324  1.00  0.00     0.006 A 
ENDBRANCH  24  38
BRANCH  25  46
ATOM     46  C   UNL A   1      40.324  27.896  28.599  1.00  0.00     0.057 A 
ATOM     47  C   UNL A   1      41.046  28.194  27.438  1.00  0.00     0.134 A 
ATOM     48  C   UNL A   1      39.671  26.659  28.657  1.00  0.00     0.134 A 
ATOM     49  F   UNL A   1      41.681  29.369  27.322  1.00  0.00    -0.206 F 
ATOM     50  C   UNL A   1      41.113  27.297  26.372  1.00  0.00     0.040 A 
ATOM     51  C   UNL A   1      39.748  25.743  27.609  1.00  0.00     0.040 A 
ATOM     52  F   UNL A   1      38.972  26.314  29.749  1.00  0.00    -0.206 F 
ATOM     53  C   UNL A   1      40.469  26.063  26.460  1.00  0.00     0.006 A 
ENDBRANCH  25  46
BRANCH  37  54
ATOM     54  C   UNL A   1      44.131  28.631  34.370  1.00  0.00     0.057 A 
ATOM     55  C   UNL A   1      45.445  29.016  34.074  1.00  0.00     0.134 A 
ATOM     56  C   UNL A   1      43.949  27.515  35.196  1.00  0.00     0.134 A 
ATOM     57  F   UNL A   1      45.682  30.067  33.276  1.00  0.00    -0.206 F 
ATOM     58  C   UNL A   1      46.539  28.303  34.566  1.00  0.00     0.040 A 
ATOM     59  C   UNL A   1      45.036  26.806  35.709  1.00  0.00     0.040 A 
ATOM     60  F   UNL A   1      42.715  27.101  35.519  1.00  0.00    -0.206 F 
ATOM     61  C   UNL A   1      46.335  27.197  35.389  1.00  0.00     0.006 A 
ENDBRANCH  37  54
ENDBRANCH  11  12
ENDBRANCH   4   6
ENDBRANCH   1   2
BRANCH   1  62
ATOM     62  C   UNL A   1      31.562  32.065  26.670  1.00  0.00     0.023 C 
BRANCH  62  63
ATOM     63  C   UNL A   1      31.743  30.549  26.677  1.00  0.00     0.023 C 
BRANCH  63  64
ATOM     64  C   UNL A   1      33.124  30.061  26.245  1.00  0.00     0.116 C 
BRANCH  64  65
ATOM     65  N   UNL A   1      33.181  29.671  24.853  1.00  0.00    -0.351 N 
ATOM     66  C   UNL A   1      32.365  28.904  24.089  1.00  0.00     0.279 C 
ATOM     67  H   UNL A   1      33.959  30.031  24.370  1.00  0.00     0.163 HD
ATOM     68  O   UNL A   1      32.571  28.970  22.865  1.00  0.00    -0.268 OA
BRANCH  66  69
ATOM     69  C   UNL A   1      31.266  27.932  24.603  1.00  0.00     0.283 C 
ATOM     70  C   UNL A   1      30.639  26.861  23.740  1.00  0.00     0.151 C 
ATOM     71  N   UNL A   1      31.777  27.227  25.816  1.00  0.00    -0.322 N 
ATOM     72  S   UNL A   1      31.845  25.529  23.760  1.00  0.00    -0.089 SA
ATOM     73  C   UNL A   1      32.447  25.972  25.433  1.00  0.00     0.143 C 
ATOM     74  H   UNL A   1      30.996  27.014  26.437  1.00  0.00     0.348 HD
ATOM     75  H   UNL A   1      32.447  27.830  26.295  1.00  0.00     0.348 HD
ATOM     76  C   UNL A   1      33.983  26.111  25.458  1.00  0.00     0.081 C 
ATOM     77  C   UNL A   1      32.003  24.871  26.416  1.00  0.00     0.081 C 
ATOM     78  C   UNL A   1      34.719  24.785  25.249  1.00  0.00     0.007 C 
ATOM     79  C   UNL A   1      32.718  23.536  26.184  1.00  0.00     0.007 C 
ATOM     80  C   UNL A   1      34.234  23.699  26.205  1.00  0.00     0.001 C 
ENDBRANCH  66  69
ENDBRANCH  64  65
ENDBRANCH  63  64
ENDBRANCH  62  63
ENDBRANCH   1  62
TORSDOF 11
ENDMDL
MODEL 3
REMARK VINA RESULT:     -11.3      4.427      9.748
REMARK SMILES O=C(NCCCCNC(=O)[C@H]1CSC2(CCCCC2)[NH2+]1)c1ccc(-c2c3nc(c(-c4c(F)cccc4F)c4ccc([nH]4)c(-c4c(F)cccc4F)c4nc(c(-c5c(F)cccc5F)c5ccc2[nH]5)C=C4)C=C3)cc1
REMARK SMILES IDX 4 1 3 2 1 3 2 4 21 6 22 7 74 8 23 9 73 10 24 11 25 12 26 13
REMARK SMILES IDX 67 14 27 15 72 16 66 17 68 18 28 19 71 20 65 21 64 22 29 24
REMARK SMILES IDX 55 25 38 26 54 27 39 28 42 29 53 30 69 31 40 32 41 33 52 35
REMARK SMILES IDX 70 36 43 37 30 38 31 39 36 40 32 41 33 42 35 43 37 44 34 45
REMARK SMILES IDX 56 46 57 47 62 48 58 49 59 50 61 51 63 52 60 53 44 54 45 55
REMARK SMILES IDX 50 56 46 57 47 58 49 59 51 60 48 61 5 62 6 63 7 64 8 65 9 66
REMARK SMILES IDX 10 68 11 69 12 70 20 71 13 72 14 73 15 76 19 77 16 78 18 79
REMARK SMILES IDX 17 80
REMARK H PARENT 3 5 68 23 42 34 8 67 20 74 20 75
REMARK Flexibility Score: inf
ROOT
ATOM      1  C   UNL A   1      34.577  32.438  28.161  1.00  0.00     0.116 C 
ENDROOT
BRANCH   1   2
ATOM      2  N   UNL A   1      33.899  31.173  27.920  1.00  0.00    -0.352 N 
ATOM      3  O   UNL A   1      33.789  28.927  27.626  1.00  0.00    -0.269 OA
ATOM      4  C   UNL A   1      34.456  29.915  27.917  1.00  0.00     0.251 C 
ATOM      5  H   UNL A   1      32.933  31.224  27.738  1.00  0.00     0.163 HD
BRANCH   4   6
ATOM      6  C   UNL A   1      35.893  29.782  28.225  1.00  0.00     0.039 A 
ATOM      7  C   UNL A   1      36.846  30.043  27.239  1.00  0.00     0.014 A 
ATOM      8  C   UNL A   1      36.278  29.320  29.485  1.00  0.00     0.014 A 
ATOM      9  C   UNL A   1      38.174  29.704  27.466  1.00  0.00     0.010 A 
ATOM     10  C   UNL A   1      37.624  29.050  29.736  1.00  0.00     0.010 A 
ATOM     11  C   UNL A   1      38.575  29.203  28.715  1.00  0.00    -0.014 A 
BRANCH  11  12
ATOM     12  C   UNL A   1      40.005  28.889  28.940  1.00  0.00     0.031 A 
ATOM     13  C   UNL A   1      40.907  29.847  29.664  1.00  0.00     0.074 A 
ATOM     14  C   UNL A   1      40.475  27.702  28.516  1.00  0.00     0.049 A 
ATOM     15  N   UNL A   1      42.176  29.718  29.960  1.00  0.00    -0.248 NA
ATOM     16  C   UNL A   1      40.313  31.117  30.111  1.00  0.00     0.031 C 
ATOM     17  C   UNL A   1      39.690  26.696  27.795  1.00  0.00     0.029 A 
ATOM     18  N   UNL A   1      41.714  27.130  28.642  1.00  0.00    -0.354 N 
ATOM     19  C   UNL A   1      42.539  30.894  30.603  1.00  0.00     0.074 A 
ATOM     20  C   UNL A   1      41.361  31.733  30.645  1.00  0.00     0.031 C 
ATOM     21  C   UNL A   1      40.452  25.614  27.584  1.00  0.00     0.029 A 
ATOM     22  C   UNL A   1      41.791  25.870  28.104  1.00  0.00     0.049 A 
ATOM     23  H   UNL A   1      42.474  27.580  29.077  1.00  0.00     0.167 HD
ATOM     24  C   UNL A   1      43.747  31.237  31.113  1.00  0.00     0.037 A 
ATOM     25  C   UNL A   1      42.827  25.017  28.027  1.00  0.00     0.037 A 
ATOM     26  C   UNL A   1      44.910  30.387  31.089  1.00  0.00     0.049 A 
ATOM     27  C   UNL A   1      44.150  25.422  28.603  1.00  0.00     0.074 A 
ATOM     28  C   UNL A   1      46.170  30.634  31.608  1.00  0.00     0.029 A 
ATOM     29  N   UNL A   1      44.955  29.127  30.514  1.00  0.00    -0.354 N 
ATOM     30  N   UNL A   1      44.474  26.532  29.220  1.00  0.00    -0.248 NA
ATOM     31  C   UNL A   1      45.252  24.462  28.464  1.00  0.00     0.031 C 
ATOM     32  C   UNL A   1      46.985  29.534  31.320  1.00  0.00     0.029 A 
ATOM     33  C   UNL A   1      46.224  28.589  30.652  1.00  0.00     0.049 A 
ATOM     34  H   UNL A   1      44.198  28.680  30.073  1.00  0.00     0.167 HD
ATOM     35  C   UNL A   1      45.814  26.404  29.548  1.00  0.00     0.074 A 
ATOM     36  C   UNL A   1      46.237  25.099  29.082  1.00  0.00     0.031 C 
ATOM     37  C   UNL A   1      46.626  27.292  30.172  1.00  0.00     0.037 A 
BRANCH  24  38
ATOM     38  C   UNL A   1      43.880  32.598  31.729  1.00  0.00     0.057 A 
ATOM     39  C   UNL A   1      44.255  33.717  30.976  1.00  0.00     0.134 A 
ATOM     40  C   UNL A   1      43.578  32.800  33.082  1.00  0.00     0.134 A 
ATOM     41  F   UNL A   1      44.570  33.589  29.679  1.00  0.00    -0.206 F 
ATOM     42  C   UNL A   1      44.337  34.988  31.549  1.00  0.00     0.040 A 
ATOM     43  C   UNL A   1      43.638  34.068  33.662  1.00  0.00     0.040 A 
ATOM     44  F   UNL A   1      43.207  31.771  33.857  1.00  0.00    -0.206 F 
ATOM     45  C   UNL A   1      44.020  35.168  32.895  1.00  0.00     0.006 A 
ENDBRANCH  24  38
BRANCH  25  46
ATOM     46  C   UNL A   1      42.641  23.700  27.375  1.00  0.00     0.057 A 
ATOM     47  C   UNL A   1      42.791  23.550  25.992  1.00  0.00     0.134 A 
ATOM     48  C   UNL A   1      42.347  22.554  28.124  1.00  0.00     0.134 A 
ATOM     49  F   UNL A   1      43.060  24.616  25.224  1.00  0.00    -0.206 F 
ATOM     50  C   UNL A   1      42.651  22.307  25.375  1.00  0.00     0.040 A 
ATOM     51  C   UNL A   1      42.227  21.301  27.524  1.00  0.00     0.040 A 
ATOM     52  F   UNL A   1      42.202  22.634  29.455  1.00  0.00    -0.206 F 
ATOM     53  C   UNL A   1      42.375  21.176  26.144  1.00  0.00     0.006 A 
ENDBRANCH  25  46
BRANCH  37  54
ATOM     54  C   UNL A   1      48.046  26.868  30.390  1.00  0.00     0.057 A 
ATOM     55  C   UNL A   1      48.414  26.079  31.487  1.00  0.00     0.134 A 
ATOM     56  C   UNL A   1      49.050  27.239  29.487  1.00  0.00     0.134 A 
ATOM     57  F   UNL A   1      47.499  25.706  32.393  1.00  0.00    -0.206 F 
ATOM     58  C   UNL A   1      49.738  25.691  31.690  1.00  0.00     0.040 A 
ATOM     59  C   UNL A   1      50.374  26.840  29.670  1.00  0.00     0.040 A 
ATOM     60  F   UNL A   1      48.758  27.989  28.415  1.00  0.00    -0.206 F 
ATOM     61  C   UNL A   1      50.722  26.069  30.778  1.00  0.00     0.006 A 
ENDBRANCH  37  54
ENDBRANCH  11  12
ENDBRANCH   4   6
ENDBRANCH   1   2
BRANCH   1  62
ATOM     62  C   UNL A   1      33.648  33.643  28.257  1.00  0.00     0.023 C 
BRANCH  62  63
ATOM     63  C   UNL A   1      34.337  34.984  28.506  1.00  0.00     0.023 C 
BRANCH  63  64
ATOM     64  C   UNL A   1      33.537  35.975  29.348  1.00  0.00     0.116 C 
BRANCH  64  65
ATOM     65  N   UNL A   1      32.854  35.354  30.463  1.00  0.00    -0.351 N 
ATOM     66  C   UNL A   1      33.060  35.409  31.801  1.00  0.00     0.279 C 
ATOM     67  H   UNL A   1      32.098  34.784  30.198  1.00  0.00     0.163 HD
ATOM     68  O   UNL A   1      32.139  34.952  32.498  1.00  0.00    -0.268 OA
BRANCH  66  69
ATOM     69  C   UNL A   1      34.340  35.928  32.516  1.00  0.00     0.283 C 
ATOM     70  C   UNL A   1      34.576  35.777  34.001  1.00  0.00     0.151 C 
ATOM     71  N   UNL A   1      35.537  35.328  31.853  1.00  0.00    -0.322 N 
ATOM     72  S   UNL A   1      35.146  34.083  34.180  1.00  0.00    -0.089 SA
ATOM     73  C   UNL A   1      35.905  34.063  32.512  1.00  0.00     0.143 C 
ATOM     74  H   UNL A   1      36.319  35.980  31.917  1.00  0.00     0.348 HD
ATOM     75  H   UNL A   1      35.318  35.142  30.874  1.00  0.00     0.348 HD
ATOM     76  C   UNL A   1      35.440  32.837  31.699  1.00  0.00     0.081 C 
ATOM     77  C   UNL A   1      37.437  34.034  32.675  1.00  0.00     0.081 C 
ATOM     78  C   UNL A   1      35.962  31.507  32.249  1.00  0.00     0.007 C 
ATOM     79  C   UNL A   1      37.954  32.714  33.256  1.00  0.00     0.007 C 
ATOM     80  C   UNL A   1      37.476  31.516  32.442  1.00  0.00     0.001 C 
ENDBRANCH  66  69
ENDBRANCH  64  65
ENDBRANCH  63  64
ENDBRANCH  62  63
ENDBRANCH   1  62
TORSDOF 11
ENDMDL
