MODEL 1
REMARK VINA RESULT:     -12.1      0.000      0.000
REMARK SMILES O=C(NCCCCNC(=O)[C@H]1CC[C@@H]2CCCC[C@@H]2N1C(=O)NC1CC1)c1ccc(-c2c3nc(c(-c4c(F)cccc4F)c4ccc([nH]4)c(-c4c(F)cccc4F)c4nc(c(-c5c(F)cccc5F)c5ccc2[nH]5)C=C4)C=C3)cc1
REMARK SMILES IDX 5 1 4 2 3 3 1 4 2 5 27 7 28 8 80 9 29 10 79 11 30 12 31 13
REMARK SMILES IDX 32 14 73 15 33 16 78 17 72 18 74 19 34 20 77 21 71 22 70 23
REMARK SMILES IDX 35 25 61 26 44 27 60 28 45 29 48 30 59 31 75 32 46 33 47 34
REMARK SMILES IDX 58 36 76 37 49 38 36 39 37 40 42 41 38 42 39 43 41 44 43 45
REMARK SMILES IDX 40 46 62 47 63 48 68 49 64 50 65 51 67 52 69 53 66 54 50 55
REMARK SMILES IDX 51 56 56 57 52 58 53 59 55 60 57 61 54 62 6 63 7 64 8 65
REMARK SMILES IDX 9 66 10 68 11 69 12 70 20 71 13 72 19 73 14 74 18 75 15 76
REMARK SMILES IDX 17 77 16 78 21 79 22 80 23 81 24 83 25 84 26 85
REMARK H PARENT 3 6 74 24 48 35 8 67 23 82
REMARK Flexibility Score: inf
ROOT
ATOM      1  C   UNL A   1      31.374  32.289  26.479  1.00  0.00     0.023 C 
ENDROOT
BRANCH   1   2
ATOM      2  C   UNL A   1      32.571  32.808  27.264  1.00  0.00     0.116 C 
BRANCH   2   3
ATOM      3  N   UNL A   1      32.401  34.205  27.627  1.00  0.00    -0.352 N 
ATOM      4  O   UNL A   1      32.532  35.988  29.002  1.00  0.00    -0.269 OA
ATOM      5  C   UNL A   1      32.987  34.906  28.652  1.00  0.00     0.251 C 
ATOM      6  H   UNL A   1      31.781  34.719  27.061  1.00  0.00     0.163 HD
BRANCH   5   7
ATOM      7  C   UNL A   1      34.175  34.344  29.325  1.00  0.00     0.039 A 
ATOM      8  C   UNL A   1      34.027  33.608  30.503  1.00  0.00     0.014 A 
ATOM      9  C   UNL A   1      35.436  34.513  28.750  1.00  0.00     0.014 A 
ATOM     10  C   UNL A   1      35.149  33.132  31.166  1.00  0.00     0.010 A 
ATOM     11  C   UNL A   1      36.556  33.953  29.369  1.00  0.00     0.010 A 
ATOM     12  C   UNL A   1      36.418  33.259  30.583  1.00  0.00    -0.014 A 
BRANCH  12  13
ATOM     13  C   UNL A   1      37.562  32.529  31.179  1.00  0.00     0.031 A 
ATOM     14  C   UNL A   1      38.218  31.384  30.469  1.00  0.00     0.074 A 
ATOM     15  C   UNL A   1      37.984  32.915  32.400  1.00  0.00     0.049 A 
ATOM     16  N   UNL A   1      39.195  30.618  30.881  1.00  0.00    -0.248 NA
ATOM     17  C   UNL A   1      37.715  31.047  29.127  1.00  0.00     0.031 C 
ATOM     18  C   UNL A   1      37.401  34.007  33.187  1.00  0.00     0.029 A 
ATOM     19  N   UNL A   1      38.992  32.439  33.196  1.00  0.00    -0.354 N 
ATOM     20  C   UNL A   1      39.412  29.696  29.866  1.00  0.00     0.074 A 
ATOM     21  C   UNL A   1      38.457  29.990  28.819  1.00  0.00     0.031 C 
ATOM     22  C   UNL A   1      38.071  34.128  34.340  1.00  0.00     0.029 A 
ATOM     23  C   UNL A   1      39.079  33.079  34.410  1.00  0.00     0.049 A 
ATOM     24  H   UNL A   1      39.596  31.709  32.927  1.00  0.00     0.167 HD
ATOM     25  C   UNL A   1      40.325  28.698  29.825  1.00  0.00     0.037 A 
ATOM     26  C   UNL A   1      39.850  32.822  35.481  1.00  0.00     0.037 A 
ATOM     27  C   UNL A   1      41.280  28.432  30.870  1.00  0.00     0.049 A 
ATOM     28  C   UNL A   1      40.820  31.679  35.414  1.00  0.00     0.074 A 
ATOM     29  C   UNL A   1      42.301  27.495  30.883  1.00  0.00     0.029 A 
ATOM     30  N   UNL A   1      41.324  29.087  32.091  1.00  0.00    -0.354 N 
ATOM     31  N   UNL A   1      41.068  30.868  34.416  1.00  0.00    -0.248 NA
ATOM     32  C   UNL A   1      41.608  31.409  36.623  1.00  0.00     0.031 C 
ATOM     33  C   UNL A   1      42.915  27.536  32.138  1.00  0.00     0.029 A 
ATOM     34  C   UNL A   1      42.319  28.539  32.885  1.00  0.00     0.049 A 
ATOM     35  H   UNL A   1      40.736  29.831  32.356  1.00  0.00     0.167 HD
ATOM     36  C   UNL A   1      42.048  29.997  34.871  1.00  0.00     0.074 A 
ATOM     37  C   UNL A   1      42.370  30.401  36.225  1.00  0.00     0.031 C 
ATOM     38  C   UNL A   1      42.623  28.952  34.230  1.00  0.00     0.037 A 
BRANCH  25  39
ATOM     39  C   UNL A   1      40.337  27.791  28.629  1.00  0.00     0.057 A 
ATOM     40  C   UNL A   1      41.104  28.068  27.492  1.00  0.00     0.134 A 
ATOM     41  C   UNL A   1      39.651  26.568  28.664  1.00  0.00     0.134 A 
ATOM     42  F   UNL A   1      41.779  29.222  27.391  1.00  0.00    -0.206 F 
ATOM     43  C   UNL A   1      41.188  27.163  26.431  1.00  0.00     0.040 A 
ATOM     44  C   UNL A   1      39.745  25.647  27.620  1.00  0.00     0.040 A 
ATOM     45  F   UNL A   1      38.905  26.237  29.728  1.00  0.00    -0.206 F 
ATOM     46  C   UNL A   1      40.517  25.943  26.499  1.00  0.00     0.006 A 
ENDBRANCH  25  39
BRANCH  26  47
ATOM     47  C   UNL A   1      39.693  33.622  36.722  1.00  0.00     0.057 A 
ATOM     48  C   UNL A   1      38.779  33.254  37.716  1.00  0.00     0.134 A 
ATOM     49  C   UNL A   1      40.438  34.790  36.933  1.00  0.00     0.134 A 
ATOM     50  F   UNL A   1      38.025  32.156  37.566  1.00  0.00    -0.206 F 
ATOM     51  C   UNL A   1      38.591  34.034  38.859  1.00  0.00     0.040 A 
ATOM     52  C   UNL A   1      40.286  35.559  38.085  1.00  0.00     0.040 A 
ATOM     53  F   UNL A   1      41.339  35.192  36.024  1.00  0.00    -0.206 F 
ATOM     54  C   UNL A   1      39.349  35.188  39.048  1.00  0.00     0.006 A 
ENDBRANCH  26  47
BRANCH  38  55
ATOM     55  C   UNL A   1      43.664  28.179  34.984  1.00  0.00     0.057 A 
ATOM     56  C   UNL A   1      43.337  27.031  35.718  1.00  0.00     0.134 A 
ATOM     57  C   UNL A   1      45.011  28.561  34.940  1.00  0.00     0.134 A 
ATOM     58  F   UNL A   1      42.062  26.625  35.814  1.00  0.00    -0.206 F 
ATOM     59  C   UNL A   1      44.313  26.300  36.396  1.00  0.00     0.040 A 
ATOM     60  C   UNL A   1      45.998  27.820  35.589  1.00  0.00     0.040 A 
ATOM     61  F   UNL A   1      45.389  29.647  34.250  1.00  0.00    -0.206 F 
ATOM     62  C   UNL A   1      45.649  26.688  36.323  1.00  0.00     0.006 A 
ENDBRANCH  38  55
ENDBRANCH  12  13
ENDBRANCH   5   7
ENDBRANCH   2   3
ENDBRANCH   1   2
BRANCH   1  63
ATOM     63  C   UNL A   1      31.481  30.814  26.070  1.00  0.00     0.023 C 
BRANCH  63  64
ATOM     64  C   UNL A   1      32.248  29.940  27.065  1.00  0.00     0.116 C 
BRANCH  64  65
ATOM     65  N   UNL A   1      33.365  29.301  26.401  1.00  0.00    -0.354 N 
ATOM     66  C   UNL A   1      33.448  27.988  26.049  1.00  0.00     0.242 C 
ATOM     67  H   UNL A   1      34.139  29.870  26.184  1.00  0.00     0.163 HD
ATOM     68  O   UNL A   1      34.401  27.346  26.500  1.00  0.00    -0.273 OA
BRANCH  66  69
ATOM     69  C   UNL A   1      32.363  27.318  25.207  1.00  0.00     0.176 C 
ATOM     70  C   UNL A   1      30.928  27.084  25.669  1.00  0.00     0.036 C 
ATOM     71  N   UNL A   1      32.339  27.513  23.742  1.00  0.00    -0.310 N 
ATOM     72  C   UNL A   1      30.528  25.693  25.146  1.00  0.00     0.008 C 
ATOM     73  C   UNL A   1      32.009  26.239  23.048  1.00  0.00     0.091 C 
ATOM     74  C   UNL A   1      30.731  25.569  23.619  1.00  0.00     0.012 C 
ATOM     75  C   UNL A   1      33.259  25.355  22.893  1.00  0.00     0.025 C 
ATOM     76  C   UNL A   1      30.653  24.121  23.134  1.00  0.00     0.006 C 
ATOM     77  C   UNL A   1      33.204  23.931  23.433  1.00  0.00     0.002 C 
ATOM     78  C   UNL A   1      31.835  23.278  23.589  1.00  0.00     0.000 C 
BRANCH  71  79
ATOM     79  C   UNL A   1      32.404  28.610  22.943  1.00  0.00     0.318 C 
ATOM     80  O   UNL A   1      33.515  29.046  22.583  1.00  0.00    -0.249 OA
ATOM     81  N   UNL A   1      31.440  29.377  22.433  1.00  0.00    -0.335 N 
ATOM     82  H   UNL A   1      31.900  30.142  22.015  1.00  0.00     0.165 HD
BRANCH  81  83
ATOM     83  C   UNL A   1      30.057  29.597  22.214  1.00  0.00     0.084 C 
ATOM     84  C   UNL A   1      28.903  28.837  22.751  1.00  0.00     0.027 C 
ATOM     85  C   UNL A   1      29.144  30.267  23.185  1.00  0.00     0.027 C 
ENDBRANCH  81  83
ENDBRANCH  71  79
ENDBRANCH  66  69
ENDBRANCH  64  65
ENDBRANCH  63  64
ENDBRANCH   1  63
TORSDOF 13
ENDMDL
MODEL 2
REMARK VINA RESULT:     -12.1      1.053      1.449
REMARK SMILES O=C(NCCCCNC(=O)[C@H]1CC[C@@H]2CCCC[C@@H]2N1C(=O)NC1CC1)c1ccc(-c2c3nc(c(-c4c(F)cccc4F)c4ccc([nH]4)c(-c4c(F)cccc4F)c4nc(c(-c5c(F)cccc5F)c5ccc2[nH]5)C=C4)C=C3)cc1
REMARK SMILES IDX 5 1 4 2 3 3 1 4 2 5 27 7 28 8 80 9 29 10 79 11 30 12 31 13
REMARK SMILES IDX 32 14 73 15 33 16 78 17 72 18 74 19 34 20 77 21 71 22 70 23
REMARK SMILES IDX 35 25 61 26 44 27 60 28 45 29 48 30 59 31 75 32 46 33 47 34
REMARK SMILES IDX 58 36 76 37 49 38 36 39 37 40 42 41 38 42 39 43 41 44 43 45
REMARK SMILES IDX 40 46 62 47 63 48 68 49 64 50 65 51 67 52 69 53 66 54 50 55
REMARK SMILES IDX 51 56 56 57 52 58 53 59 55 60 57 61 54 62 6 63 7 64 8 65
REMARK SMILES IDX 9 66 10 68 11 69 12 70 20 71 13 72 19 73 14 74 18 75 15 76
REMARK SMILES IDX 17 77 16 78 21 79 22 80 23 81 24 83 25 84 26 85
REMARK H PARENT 3 6 74 24 48 35 8 67 23 82
REMARK Flexibility Score: inf
ROOT
ATOM      1  C   UNL A   1      31.345  31.820  26.461  1.00  0.00     0.023 C 
ENDROOT
BRANCH   1   2
ATOM      2  C   UNL A   1      32.653  32.439  26.935  1.00  0.00     0.116 C 
BRANCH   2   3
ATOM      3  N   UNL A   1      32.470  33.826  27.330  1.00  0.00    -0.352 N 
ATOM      4  O   UNL A   1      32.565  35.573  28.752  1.00  0.00    -0.269 OA
ATOM      5  C   UNL A   1      33.032  34.502  28.384  1.00  0.00     0.251 C 
ATOM      6  H   UNL A   1      31.859  34.352  26.765  1.00  0.00     0.163 HD
BRANCH   5   7
ATOM      7  C   UNL A   1      34.208  33.927  29.067  1.00  0.00     0.039 A 
ATOM      8  C   UNL A   1      34.041  32.899  29.999  1.00  0.00     0.014 A 
ATOM      9  C   UNL A   1      35.486  34.384  28.739  1.00  0.00     0.014 A 
ATOM     10  C   UNL A   1      35.141  32.401  30.683  1.00  0.00     0.010 A 
ATOM     11  C   UNL A   1      36.601  33.816  29.361  1.00  0.00     0.010 A 
ATOM     12  C   UNL A   1      36.434  32.821  30.338  1.00  0.00    -0.014 A 
BRANCH  12  13
ATOM     13  C   UNL A   1      37.600  32.099  30.900  1.00  0.00     0.031 A 
ATOM     14  C   UNL A   1      38.318  31.042  30.119  1.00  0.00     0.074 A 
ATOM     15  C   UNL A   1      37.984  32.411  32.154  1.00  0.00     0.049 A 
ATOM     16  N   UNL A   1      39.323  30.291  30.491  1.00  0.00    -0.248 NA
ATOM     17  C   UNL A   1      37.853  30.785  28.746  1.00  0.00     0.031 C 
ATOM     18  C   UNL A   1      37.340  33.414  33.009  1.00  0.00     0.029 A 
ATOM     19  N   UNL A   1      39.001  31.921  32.932  1.00  0.00    -0.354 N 
ATOM     20  C   UNL A   1      39.597  29.458  29.415  1.00  0.00     0.074 A 
ATOM     21  C   UNL A   1      38.647  29.788  28.374  1.00  0.00     0.031 C 
ATOM     22  C   UNL A   1      37.986  33.477  34.181  1.00  0.00     0.029 A 
ATOM     23  C   UNL A   1      39.039  32.471  34.191  1.00  0.00     0.049 A 
ATOM     24  H   UNL A   1      39.642  31.241  32.620  1.00  0.00     0.167 HD
ATOM     25  C   UNL A   1      40.555  28.507  29.316  1.00  0.00     0.037 A 
ATOM     26  C   UNL A   1      39.803  32.169  35.255  1.00  0.00     0.037 A 
ATOM     27  C   UNL A   1      41.505  28.206  30.358  1.00  0.00     0.049 A 
ATOM     28  C   UNL A   1      40.826  31.078  35.122  1.00  0.00     0.074 A 
ATOM     29  C   UNL A   1      42.567  27.316  30.320  1.00  0.00     0.029 A 
ATOM     30  N   UNL A   1      41.500  28.768  31.624  1.00  0.00    -0.354 N 
ATOM     31  N   UNL A   1      41.127  30.356  34.070  1.00  0.00    -0.248 NA
ATOM     32  C   UNL A   1      41.606  30.753  36.322  1.00  0.00     0.031 C 
ATOM     33  C   UNL A   1      43.159  27.290  31.586  1.00  0.00     0.029 A 
ATOM     34  C   UNL A   1      42.506  28.206  32.394  1.00  0.00     0.049 A 
ATOM     35  H   UNL A   1      40.874  29.463  31.932  1.00  0.00     0.167 HD
ATOM     36  C   UNL A   1      42.138  29.498  34.478  1.00  0.00     0.074 A 
ATOM     37  C   UNL A   1      42.420  29.812  35.864  1.00  0.00     0.031 C 
ATOM     38  C   UNL A   1      42.769  28.530  33.772  1.00  0.00     0.037 A 
BRANCH  25  39
ATOM     39  C   UNL A   1      40.628  27.694  28.057  1.00  0.00     0.057 A 
ATOM     40  C   UNL A   1      41.388  28.098  26.953  1.00  0.00     0.134 A 
ATOM     41  C   UNL A   1      40.011  26.437  27.992  1.00  0.00     0.134 A 
ATOM     42  F   UNL A   1      41.999  29.292  26.947  1.00  0.00    -0.206 F 
ATOM     43  C   UNL A   1      41.531  27.281  25.829  1.00  0.00     0.040 A 
ATOM     44  C   UNL A   1      40.164  25.603  26.884  1.00  0.00     0.040 A 
ATOM     45  F   UNL A   1      39.275  25.987  29.020  1.00  0.00    -0.206 F 
ATOM     46  C   UNL A   1      40.928  26.024  25.798  1.00  0.00     0.006 A 
ENDBRANCH  25  39
BRANCH  26  47
ATOM     47  C   UNL A   1      39.591  32.865  36.549  1.00  0.00     0.057 A 
ATOM     48  C   UNL A   1      38.608  32.443  37.450  1.00  0.00     0.134 A 
ATOM     49  C   UNL A   1      40.352  33.987  36.904  1.00  0.00     0.134 A 
ATOM     50  F   UNL A   1      37.836  31.385  37.162  1.00  0.00    -0.206 F 
ATOM     51  C   UNL A   1      38.370  33.128  38.643  1.00  0.00     0.040 A 
ATOM     52  C   UNL A   1      40.148  34.660  38.107  1.00  0.00     0.040 A 
ATOM     53  F   UNL A   1      41.317  34.436  36.088  1.00  0.00    -0.206 F 
ATOM     54  C   UNL A   1      39.144  34.238  38.976  1.00  0.00     0.006 A 
ENDBRANCH  26  47
BRANCH  38  55
ATOM     55  C   UNL A   1      43.832  27.749  34.486  1.00  0.00     0.057 A 
ATOM     56  C   UNL A   1      43.555  26.519  35.096  1.00  0.00     0.134 A 
ATOM     57  C   UNL A   1      45.155  28.210  34.527  1.00  0.00     0.134 A 
ATOM     58  F   UNL A   1      42.304  26.032  35.107  1.00  0.00    -0.206 F 
ATOM     59  C   UNL A   1      44.552  25.783  35.736  1.00  0.00     0.040 A 
ATOM     60  C   UNL A   1      46.165  27.469  35.138  1.00  0.00     0.040 A 
ATOM     61  F   UNL A   1      45.487  29.378  33.956  1.00  0.00    -0.206 F 
ATOM     62  C   UNL A   1      45.864  26.253  35.748  1.00  0.00     0.006 A 
ENDBRANCH  38  55
ENDBRANCH  12  13
ENDBRANCH   5   7
ENDBRANCH   2   3
ENDBRANCH   1   2
BRANCH   1  63
ATOM     63  C   UNL A   1      31.446  30.331  26.105  1.00  0.00     0.023 C 
BRANCH  63  64
ATOM     64  C   UNL A   1      32.844  29.881  25.676  1.00  0.00     0.116 C 
BRANCH  64  65
ATOM     65  N   UNL A   1      32.815  29.423  24.303  1.00  0.00    -0.354 N 
ATOM     66  C   UNL A   1      33.458  28.329  23.806  1.00  0.00     0.242 C 
ATOM     67  H   UNL A   1      32.280  29.952  23.668  1.00  0.00     0.163 HD
ATOM     68  O   UNL A   1      34.242  28.517  22.871  1.00  0.00    -0.273 OA
BRANCH  66  69
ATOM     69  C   UNL A   1      33.284  26.948  24.435  1.00  0.00     0.176 C 
ATOM     70  C   UNL A   1      34.059  26.443  25.648  1.00  0.00     0.036 C 
ATOM     71  N   UNL A   1      31.952  26.306  24.451  1.00  0.00    -0.310 N 
ATOM     72  C   UNL A   1      34.387  24.966  25.367  1.00  0.00     0.008 C 
ATOM     73  C   UNL A   1      32.064  24.854  24.149  1.00  0.00     0.091 C 
ATOM     74  C   UNL A   1      33.120  24.145  25.037  1.00  0.00     0.012 C 
ATOM     75  C   UNL A   1      32.143  24.612  22.631  1.00  0.00     0.025 C 
ATOM     76  C   UNL A   1      33.450  22.774  24.444  1.00  0.00     0.006 C 
ATOM     77  C   UNL A   1      33.323  23.812  22.091  1.00  0.00     0.002 C 
ATOM     78  C   UNL A   1      34.037  22.859  23.043  1.00  0.00     0.000 C 
BRANCH  71  79
ATOM     79  C   UNL A   1      30.715  26.728  24.824  1.00  0.00     0.318 C 
ATOM     80  O   UNL A   1      30.263  26.406  25.940  1.00  0.00    -0.249 OA
ATOM     81  N   UNL A   1      29.817  27.474  24.180  1.00  0.00    -0.335 N 
ATOM     82  H   UNL A   1      29.002  27.449  24.734  1.00  0.00     0.165 HD
BRANCH  81  83
ATOM     83  C   UNL A   1      29.494  28.287  23.065  1.00  0.00     0.084 C 
ATOM     84  C   UNL A   1      28.210  28.959  22.751  1.00  0.00     0.027 C 
ATOM     85  C   UNL A   1      29.436  29.777  23.094  1.00  0.00     0.027 C 
ENDBRANCH  81  83
ENDBRANCH  71  79
ENDBRANCH  66  69
ENDBRANCH  64  65
ENDBRANCH  63  64
ENDBRANCH   1  63
TORSDOF 13
ENDMDL
MODEL 3
REMARK VINA RESULT:     -12.1      5.664     10.746
REMARK SMILES O=C(NCCCCNC(=O)[C@H]1CC[C@@H]2CCCC[C@@H]2N1C(=O)NC1CC1)c1ccc(-c2c3nc(c(-c4c(F)cccc4F)c4ccc([nH]4)c(-c4c(F)cccc4F)c4nc(c(-c5c(F)cccc5F)c5ccc2[nH]5)C=C4)C=C3)cc1
REMARK SMILES IDX 5 1 4 2 3 3 1 4 2 5 27 7 28 8 80 9 29 10 79 11 30 12 31 13
REMARK SMILES IDX 32 14 73 15 33 16 78 17 72 18 74 19 34 20 77 21 71 22 70 23
REMARK SMILES IDX 35 25 61 26 44 27 60 28 45 29 48 30 59 31 75 32 46 33 47 34
REMARK SMILES IDX 58 36 76 37 49 38 36 39 37 40 42 41 38 42 39 43 41 44 43 45
REMARK SMILES IDX 40 46 62 47 63 48 68 49 64 50 65 51 67 52 69 53 66 54 50 55
REMARK SMILES IDX 51 56 56 57 52 58 53 59 55 60 57 61 54 62 6 63 7 64 8 65
REMARK SMILES IDX 9 66 10 68 11 69 12 70 20 71 13 72 19 73 14 74 18 75 15 76
REMARK SMILES IDX 17 77 16 78 21 79 22 80 23 81 24 83 25 84 26 85
REMARK H PARENT 3 6 74 24 48 35 8 67 23 82
REMARK Flexibility Score: inf
ROOT
ATOM      1  C   UNL A   1      38.088  19.252  25.099  1.00  0.00     0.023 C 
ENDROOT
BRANCH   1   2
ATOM      2  C   UNL A   1      39.339  19.819  25.756  1.00  0.00     0.116 C 
BRANCH   2   3
ATOM      3  N   UNL A   1      40.375  18.807  25.886  1.00  0.00    -0.352 N 
ATOM      4  O   UNL A   1      42.494  18.039  25.848  1.00  0.00    -0.269 OA
ATOM      5  C   UNL A   1      41.728  18.975  26.039  1.00  0.00     0.251 C 
ATOM      6  H   UNL A   1      40.062  17.874  25.859  1.00  0.00     0.163 HD
BRANCH   5   7
ATOM      7  C   UNL A   1      42.251  20.296  26.442  1.00  0.00     0.039 A 
ATOM      8  C   UNL A   1      42.951  21.080  25.521  1.00  0.00     0.014 A 
ATOM      9  C   UNL A   1      41.999  20.773  27.730  1.00  0.00     0.014 A 
ATOM     10  C   UNL A   1      43.493  22.294  25.918  1.00  0.00     0.010 A 
ATOM     11  C   UNL A   1      42.466  22.037  28.100  1.00  0.00     0.010 A 
ATOM     12  C   UNL A   1      43.217  22.805  27.195  1.00  0.00    -0.014 A 
BRANCH  12  13
ATOM     13  C   UNL A   1      43.591  24.204  27.508  1.00  0.00     0.031 A 
ATOM     14  C   UNL A   1      42.567  25.217  27.919  1.00  0.00     0.074 A 
ATOM     15  C   UNL A   1      44.890  24.546  27.389  1.00  0.00     0.049 A 
ATOM     16  N   UNL A   1      42.732  26.489  28.179  1.00  0.00    -0.248 NA
ATOM     17  C   UNL A   1      41.177  24.752  28.053  1.00  0.00     0.031 C 
ATOM     18  C   UNL A   1      45.967  23.640  26.977  1.00  0.00     0.029 A 
ATOM     19  N   UNL A   1      45.529  25.740  27.599  1.00  0.00    -0.354 N 
ATOM     20  C   UNL A   1      41.472  26.983  28.484  1.00  0.00     0.074 A 
ATOM     21  C   UNL A   1      40.546  25.877  28.368  1.00  0.00     0.031 C 
ATOM     22  C   UNL A   1      47.130  24.303  26.982  1.00  0.00     0.029 A 
ATOM     23  C   UNL A   1      46.875  25.695  27.322  1.00  0.00     0.049 A 
ATOM     24  H   UNL A   1      45.070  26.552  27.916  1.00  0.00     0.167 HD
ATOM     25  C   UNL A   1      41.130  28.248  28.825  1.00  0.00     0.037 A 
ATOM     26  C   UNL A   1      47.796  26.675  27.297  1.00  0.00     0.037 A 
ATOM     27  C   UNL A   1      42.070  29.333  28.954  1.00  0.00     0.049 A 
ATOM     28  C   UNL A   1      47.371  28.073  27.639  1.00  0.00     0.074 A 
ATOM     29  C   UNL A   1      41.831  30.631  29.376  1.00  0.00     0.029 A 
ATOM     30  N   UNL A   1      43.419  29.254  28.646  1.00  0.00    -0.354 N 
ATOM     31  N   UNL A   1      46.190  28.509  28.004  1.00  0.00    -0.248 NA
ATOM     32  C   UNL A   1      48.400  29.116  27.555  1.00  0.00     0.031 C 
ATOM     33  C   UNL A   1      43.021  31.354  29.256  1.00  0.00     0.029 A 
ATOM     34  C   UNL A   1      44.015  30.494  28.817  1.00  0.00     0.049 A 
ATOM     35  H   UNL A   1      43.886  28.440  28.349  1.00  0.00     0.167 HD
ATOM     36  C   UNL A   1      46.336  29.874  28.204  1.00  0.00     0.074 A 
ATOM     37  C   UNL A   1      47.727  30.188  27.950  1.00  0.00     0.031 C 
ATOM     38  C   UNL A   1      45.400  30.788  28.556  1.00  0.00     0.037 A 
BRANCH  25  39
ATOM     39  C   UNL A   1      39.681  28.555  29.066  1.00  0.00     0.057 A 
ATOM     40  C   UNL A   1      39.083  28.387  30.320  1.00  0.00     0.134 A 
ATOM     41  C   UNL A   1      38.904  29.130  28.050  1.00  0.00     0.134 A 
ATOM     42  F   UNL A   1      39.768  27.838  31.333  1.00  0.00    -0.206 F 
ATOM     43  C   UNL A   1      37.761  28.777  30.554  1.00  0.00     0.040 A 
ATOM     44  C   UNL A   1      37.591  29.544  28.279  1.00  0.00     0.040 A 
ATOM     45  F   UNL A   1      39.420  29.327  26.827  1.00  0.00    -0.206 F 
ATOM     46  C   UNL A   1      37.017  29.369  29.536  1.00  0.00     0.006 A 
ENDBRANCH  25  39
BRANCH  26  47
ATOM     47  C   UNL A   1      49.189  26.379  26.880  1.00  0.00     0.057 A 
ATOM     48  C   UNL A   1      50.137  25.901  27.792  1.00  0.00     0.134 A 
ATOM     49  C   UNL A   1      49.614  26.591  25.561  1.00  0.00     0.134 A 
ATOM     50  F   UNL A   1      49.797  25.692  29.072  1.00  0.00    -0.206 F 
ATOM     51  C   UNL A   1      51.462  25.672  27.414  1.00  0.00     0.040 A 
ATOM     52  C   UNL A   1      50.925  26.334  25.162  1.00  0.00     0.040 A 
ATOM     53  F   UNL A   1      48.751  27.038  24.636  1.00  0.00    -0.206 F 
ATOM     54  C   UNL A   1      51.857  25.885  26.095  1.00  0.00     0.006 A 
ENDBRANCH  26  47
BRANCH  38  55
ATOM     55  C   UNL A   1      45.855  32.210  28.696  1.00  0.00     0.057 A 
ATOM     56  C   UNL A   1      46.387  32.696  29.896  1.00  0.00     0.134 A 
ATOM     57  C   UNL A   1      45.800  33.089  27.606  1.00  0.00     0.134 A 
ATOM     58  F   UNL A   1      46.449  31.909  30.981  1.00  0.00    -0.206 F 
ATOM     59  C   UNL A   1      46.834  34.013  30.013  1.00  0.00     0.040 A 
ATOM     60  C   UNL A   1      46.271  34.398  27.703  1.00  0.00     0.040 A 
ATOM     61  F   UNL A   1      45.307  32.683  26.427  1.00  0.00    -0.206 F 
ATOM     62  C   UNL A   1      46.786  34.864  28.911  1.00  0.00     0.006 A 
ENDBRANCH  38  55
ENDBRANCH  12  13
ENDBRANCH   5   7
ENDBRANCH   2   3
ENDBRANCH   1   2
BRANCH   1  63
ATOM     63  C   UNL A   1      36.981  20.286  24.855  1.00  0.00     0.023 C 
BRANCH  63  64
ATOM     64  C   UNL A   1      37.488  21.719  24.680  1.00  0.00     0.116 C 
BRANCH  64  65
ATOM     65  N   UNL A   1      36.899  22.576  25.688  1.00  0.00    -0.354 N 
ATOM     66  C   UNL A   1      35.893  23.473  25.493  1.00  0.00     0.242 C 
ATOM     67  H   UNL A   1      37.261  22.504  26.601  1.00  0.00     0.163 HD
ATOM     68  O   UNL A   1      36.123  24.648  25.795  1.00  0.00    -0.273 OA
BRANCH  66  69
ATOM     69  C   UNL A   1      34.571  23.061  24.848  1.00  0.00     0.176 C 
ATOM     70  C   UNL A   1      34.415  22.615  23.397  1.00  0.00     0.036 C 
ATOM     71  N   UNL A   1      33.546  22.358  25.648  1.00  0.00    -0.310 N 
ATOM     72  C   UNL A   1      33.101  23.237  22.892  1.00  0.00     0.008 C 
ATOM     73  C   UNL A   1      32.186  22.867  25.325  1.00  0.00     0.091 C 
ATOM     74  C   UNL A   1      31.904  22.874  23.799  1.00  0.00     0.012 C 
ATOM     75  C   UNL A   1      31.882  24.160  26.103  1.00  0.00     0.025 C 
ATOM     76  C   UNL A   1      30.670  23.731  23.510  1.00  0.00     0.006 C 
ATOM     77  C   UNL A   1      31.460  25.393  25.312  1.00  0.00     0.002 C 
ATOM     78  C   UNL A   1      30.844  25.182  23.933  1.00  0.00     0.000 C 
BRANCH  71  79
ATOM     79  C   UNL A   1      33.581  21.278  26.472  1.00  0.00     0.318 C 
ATOM     80  O   UNL A   1      33.872  21.429  27.675  1.00  0.00    -0.249 OA
ATOM     81  N   UNL A   1      33.354  19.987  26.229  1.00  0.00    -0.335 N 
ATOM     82  H   UNL A   1      33.604  19.512  27.056  1.00  0.00     0.165 HD
BRANCH  81  83
ATOM     83  C   UNL A   1      32.918  18.983  25.330  1.00  0.00     0.084 C 
ATOM     84  C   UNL A   1      32.543  19.120  23.902  1.00  0.00     0.027 C 
ATOM     85  C   UNL A   1      33.781  18.342  24.295  1.00  0.00     0.027 C 
ENDBRANCH  81  83
ENDBRANCH  71  79
ENDBRANCH  66  69
ENDBRANCH  64  65
ENDBRANCH  63  64
ENDBRANCH   1  63
TORSDOF 13
ENDMDL
