MODEL 1
REMARK VINA RESULT:      -9.5      0.000      0.000
REMARK SMILES C/C=C/c1cncc(-c2ccc([C@@H](C)C(=O)NCCCCNC(=O)c3ccc(-c4c5nc(c(-c6c(F)cccc6F)c6ccc([nH]6)c(-c6c(F)cccc6F)c6nc(c(-c7c(F)cccc7F)c7ccc4[nH]7)C=C6)C=C5)cc3)cc2)c1
REMARK SMILES IDX 19 1 18 2 17 3 15 4 16 5 13 7 14 8 12 9 9 10 10 11 80 12
REMARK SMILES IDX 11 13 79 14 8 15 4 16 5 17 81 18 6 19 7 20 3 21 1 22 2 23
REMARK SMILES IDX 20 24 21 25 22 26 23 27 24 29 25 30 26 31 78 32 27 33 77 34
REMARK SMILES IDX 28 35 29 36 30 37 71 38 31 39 76 40 70 41 72 42 32 43 75 44
REMARK SMILES IDX 69 45 68 46 33 48 59 49 42 50 58 51 43 52 46 53 57 54 73 55
REMARK SMILES IDX 44 56 45 57 56 59 74 60 47 61 34 62 35 63 40 64 36 65 37 66
REMARK SMILES IDX 39 67 41 68 38 69 60 70 61 71 66 72 62 73 63 74 65 75 67 76
REMARK SMILES IDX 64 77 48 78 49 79 54 80 50 81 51 82 53 83 55 84 52 85
REMARK H PARENT 17 6 22 28 72 47 46 58
REMARK Flexibility Score: inf
ROOT
ATOM      1  C   UNL A   1      34.198  35.538  28.813  1.00  0.00     0.023 C 
ENDROOT
BRANCH   1   2
ATOM      2  C   UNL A   1      33.357  35.294  30.066  1.00  0.00     0.116 C 
BRANCH   2   3
ATOM      3  N   UNL A   1      33.970  35.850  31.253  1.00  0.00    -0.356 N 
ATOM      4  C   UNL A   1      34.857  35.317  32.139  1.00  0.00     0.227 C 
ATOM      5  O   UNL A   1      35.144  36.019  33.117  1.00  0.00    -0.274 OA
ATOM      6  H   UNL A   1      33.699  36.774  31.457  1.00  0.00     0.163 HD
BRANCH   4   7
ATOM      7  C   UNL A   1      35.504  33.933  31.972  1.00  0.00     0.105 C 
ATOM      8  C   UNL A   1      35.229  32.980  33.137  1.00  0.00     0.023 C 
BRANCH   7   9
ATOM      9  C   UNL A   1      36.940  33.995  31.475  1.00  0.00    -0.036 A 
ATOM     10  C   UNL A   1      39.694  33.940  30.694  1.00  0.00    -0.017 A 
ATOM     11  C   UNL A   1      38.665  33.596  29.803  1.00  0.00     0.009 A 
ATOM     12  C   UNL A   1      39.304  34.359  31.976  1.00  0.00     0.009 A 
ATOM     13  C   UNL A   1      37.314  33.655  30.172  1.00  0.00     0.005 A 
ATOM     14  C   UNL A   1      37.957  34.367  32.365  1.00  0.00     0.005 A 
BRANCH  10  15
ATOM     15  C   UNL A   1      41.118  33.849  30.298  1.00  0.00     0.001 A 
ATOM     16  C   UNL A   1      43.079  32.577  29.570  1.00  0.00    -0.007 A 
ATOM     17  C   UNL A   1      43.778  33.779  29.537  1.00  0.00     0.119 A 
ATOM     18  C   UNL A   1      41.733  32.630  29.958  1.00  0.00     0.020 A 
ATOM     19  N   UNL A   1      43.243  34.979  29.849  1.00  0.00    -0.263 NA
ATOM     20  C   UNL A   1      41.941  34.978  30.223  1.00  0.00     0.119 A 
BRANCH  16  21
ATOM     21  C   UNL A   1      43.778  31.323  29.271  1.00  0.00     0.005 C 
ATOM     22  C   UNL A   1      44.046  29.103  28.157  1.00  0.00     0.035 C 
ATOM     23  C   UNL A   1      43.306  30.368  28.454  1.00  0.00    -0.030 C 
ENDBRANCH  16  21
ENDBRANCH  10  15
ENDBRANCH   7   9
ENDBRANCH   4   7
ENDBRANCH   2   3
ENDBRANCH   1   2
BRANCH   1  24
ATOM     24  C   UNL A   1      34.510  34.290  27.990  1.00  0.00     0.023 C 
BRANCH  24  25
ATOM     25  C   UNL A   1      34.280  32.964  28.705  1.00  0.00     0.116 C 
BRANCH  25  26
ATOM     26  N   UNL A   1      33.817  31.890  27.837  1.00  0.00    -0.352 N 
ATOM     27  C   UNL A   1      34.430  30.685  27.574  1.00  0.00     0.251 C 
ATOM     28  H   UNL A   1      32.958  32.044  27.381  1.00  0.00     0.163 HD
ATOM     29  O   UNL A   1      33.952  29.902  26.765  1.00  0.00    -0.269 OA
BRANCH  27  30
ATOM     30  C   UNL A   1      35.709  30.373  28.247  1.00  0.00     0.039 A 
ATOM     31  C   UNL A   1      35.682  29.653  29.443  1.00  0.00     0.014 A 
ATOM     32  C   UNL A   1      36.926  30.730  27.661  1.00  0.00     0.014 A 
ATOM     33  C   UNL A   1      36.880  29.214  30.008  1.00  0.00     0.010 A 
ATOM     34  C   UNL A   1      38.112  30.228  28.183  1.00  0.00     0.010 A 
ATOM     35  C   UNL A   1      38.100  29.459  29.357  1.00  0.00    -0.014 A 
BRANCH  35  36
ATOM     36  C   UNL A   1      39.378  28.914  29.878  1.00  0.00     0.031 A 
ATOM     37  C   UNL A   1      40.010  29.520  31.098  1.00  0.00     0.074 A 
ATOM     38  C   UNL A   1      40.006  27.928  29.208  1.00  0.00     0.049 A 
ATOM     39  N   UNL A   1      41.164  29.251  31.652  1.00  0.00    -0.248 NA
ATOM     40  C   UNL A   1      39.258  30.595  31.766  1.00  0.00     0.031 C 
ATOM     41  C   UNL A   1      39.522  27.291  27.981  1.00  0.00     0.029 A 
ATOM     42  N   UNL A   1      41.198  27.296  29.460  1.00  0.00    -0.354 N 
ATOM     43  C   UNL A   1      41.285  30.132  32.718  1.00  0.00     0.074 A 
ATOM     44  C   UNL A   1      40.113  30.979  32.702  1.00  0.00     0.031 C 
ATOM     45  C   UNL A   1      40.393  26.342  27.605  1.00  0.00     0.029 A 
ATOM     46  C   UNL A   1      41.513  26.326  28.540  1.00  0.00     0.049 A 
ATOM     47  H   UNL A   1      41.773  27.517  30.229  1.00  0.00     0.167 HD
ATOM     48  C   UNL A   1      42.272  30.212  33.642  1.00  0.00     0.037 A 
ATOM     49  C   UNL A   1      42.585  25.516  28.462  1.00  0.00     0.037 A 
ATOM     50  C   UNL A   1      43.420  29.347  33.676  1.00  0.00     0.049 A 
ATOM     51  C   UNL A   1      43.661  25.616  29.506  1.00  0.00     0.074 A 
ATOM     52  C   UNL A   1      44.449  29.314  34.602  1.00  0.00     0.029 A 
ATOM     53  N   UNL A   1      43.689  28.358  32.742  1.00  0.00    -0.354 N 
ATOM     54  N   UNL A   1      43.737  26.420  30.539  1.00  0.00    -0.248 NA
ATOM     55  C   UNL A   1      44.797  24.693  29.376  1.00  0.00     0.031 C 
ATOM     56  C   UNL A   1      45.355  28.321  34.212  1.00  0.00     0.029 A 
ATOM     57  C   UNL A   1      44.872  27.714  33.064  1.00  0.00     0.049 A 
ATOM     58  H   UNL A   1      43.123  28.145  31.966  1.00  0.00     0.167 HD
ATOM     59  C   UNL A   1      44.913  26.082  31.197  1.00  0.00     0.074 A 
ATOM     60  C   UNL A   1      45.512  24.995  30.452  1.00  0.00     0.031 C 
ATOM     61  C   UNL A   1      45.447  26.626  32.317  1.00  0.00     0.037 A 
BRANCH  48  62
ATOM     62  C   UNL A   1      42.136  31.266  34.699  1.00  0.00     0.057 A 
ATOM     63  C   UNL A   1      42.496  32.599  34.459  1.00  0.00     0.134 A 
ATOM     64  C   UNL A   1      41.624  30.953  35.965  1.00  0.00     0.134 A 
ATOM     65  F   UNL A   1      43.009  32.961  33.273  1.00  0.00    -0.206 F 
ATOM     66  C   UNL A   1      42.378  33.577  35.447  1.00  0.00     0.040 A 
ATOM     67  C   UNL A   1      41.476  31.928  36.953  1.00  0.00     0.040 A 
ATOM     68  F   UNL A   1      41.256  29.697  36.259  1.00  0.00    -0.206 F 
ATOM     69  C   UNL A   1      41.860  33.243  36.697  1.00  0.00     0.006 A 
ENDBRANCH  48  62
BRANCH  49  70
ATOM     70  C   UNL A   1      42.679  24.513  27.373  1.00  0.00     0.057 A 
ATOM     71  C   UNL A   1      43.253  24.845  26.141  1.00  0.00     0.134 A 
ATOM     72  C   UNL A   1      42.201  23.207  27.532  1.00  0.00     0.134 A 
ATOM     73  F   UNL A   1      43.711  26.087  25.924  1.00  0.00    -0.206 F 
ATOM     74  C   UNL A   1      43.333  23.921  25.098  1.00  0.00     0.040 A 
ATOM     75  C   UNL A   1      42.294  22.266  26.505  1.00  0.00     0.040 A 
ATOM     76  F   UNL A   1      41.647  22.825  28.692  1.00  0.00    -0.206 F 
ATOM     77  C   UNL A   1      42.856  22.625  25.281  1.00  0.00     0.006 A 
ENDBRANCH  49  70
BRANCH  61  78
ATOM     78  C   UNL A   1      46.725  26.029  32.823  1.00  0.00     0.057 A 
ATOM     79  C   UNL A   1      46.732  24.971  33.740  1.00  0.00     0.134 A 
ATOM     80  C   UNL A   1      47.962  26.490  32.355  1.00  0.00     0.134 A 
ATOM     81  F   UNL A   1      45.581  24.494  34.236  1.00  0.00    -0.206 F 
ATOM     82  C   UNL A   1      47.926  24.403  34.187  1.00  0.00     0.040 A 
ATOM     83  C   UNL A   1      49.161  25.916  32.776  1.00  0.00     0.040 A 
ATOM     84  F   UNL A   1      48.021  27.495  31.469  1.00  0.00    -0.206 F 
ATOM     85  C   UNL A   1      49.145  24.872  33.699  1.00  0.00     0.006 A 
ENDBRANCH  61  78
ENDBRANCH  35  36
ENDBRANCH  27  30
ENDBRANCH  25  26
ENDBRANCH  24  25
ENDBRANCH   1  24
TORSDOF 14
ENDMDL
MODEL 2
REMARK VINA RESULT:      -9.5      4.820     10.443
REMARK SMILES C/C=C/c1cncc(-c2ccc([C@@H](C)C(=O)NCCCCNC(=O)c3ccc(-c4c5nc(c(-c6c(F)cccc6F)c6ccc([nH]6)c(-c6c(F)cccc6F)c6nc(c(-c7c(F)cccc7F)c7ccc4[nH]7)C=C6)C=C5)cc3)cc2)c1
REMARK SMILES IDX 19 1 18 2 17 3 15 4 16 5 13 7 14 8 12 9 9 10 10 11 80 12
REMARK SMILES IDX 11 13 79 14 8 15 4 16 5 17 81 18 6 19 7 20 3 21 1 22 2 23
REMARK SMILES IDX 20 24 21 25 22 26 23 27 24 29 25 30 26 31 78 32 27 33 77 34
REMARK SMILES IDX 28 35 29 36 30 37 71 38 31 39 76 40 70 41 72 42 32 43 75 44
REMARK SMILES IDX 69 45 68 46 33 48 59 49 42 50 58 51 43 52 46 53 57 54 73 55
REMARK SMILES IDX 44 56 45 57 56 59 74 60 47 61 34 62 35 63 40 64 36 65 37 66
REMARK SMILES IDX 39 67 41 68 38 69 60 70 61 71 66 72 62 73 63 74 65 75 67 76
REMARK SMILES IDX 64 77 48 78 49 79 54 80 50 81 51 82 53 83 55 84 52 85
REMARK H PARENT 17 6 22 28 72 47 46 58
REMARK Flexibility Score: inf
ROOT
ATOM      1  C   UNL A   1      35.910  21.474  25.843  1.00  0.00     0.023 C 
ENDROOT
BRANCH   1   2
ATOM      2  C   UNL A   1      35.278  20.514  24.834  1.00  0.00     0.116 C 
BRANCH   2   3
ATOM      3  N   UNL A   1      34.354  19.594  25.460  1.00  0.00    -0.356 N 
ATOM      4  C   UNL A   1      33.039  19.336  25.214  1.00  0.00     0.227 C 
ATOM      5  O   UNL A   1      32.484  18.537  25.979  1.00  0.00    -0.274 OA
ATOM      6  H   UNL A   1      34.742  19.060  26.190  1.00  0.00     0.163 HD
BRANCH   4   7
ATOM      7  C   UNL A   1      32.247  19.965  24.057  1.00  0.00     0.105 C 
ATOM      8  C   UNL A   1      32.399  19.219  22.730  1.00  0.00     0.023 C 
BRANCH   7   9
ATOM      9  C   UNL A   1      32.365  21.480  23.998  1.00  0.00    -0.036 A 
ATOM     10  C   UNL A   1      32.751  24.316  24.062  1.00  0.00    -0.017 A 
ATOM     11  C   UNL A   1      33.071  23.551  22.929  1.00  0.00     0.009 A 
ATOM     12  C   UNL A   1      32.186  23.629  25.147  1.00  0.00     0.009 A 
ATOM     13  C   UNL A   1      32.851  22.167  22.883  1.00  0.00     0.005 A 
ATOM     14  C   UNL A   1      32.016  22.237  25.125  1.00  0.00     0.005 A 
BRANCH  10  15
ATOM     15  C   UNL A   1      33.011  25.774  24.104  1.00  0.00     0.001 A 
ATOM     16  C   UNL A   1      33.655  27.817  25.290  1.00  0.00    -0.007 A 
ATOM     17  C   UNL A   1      33.507  28.496  24.085  1.00  0.00     0.119 A 
ATOM     18  C   UNL A   1      33.399  26.438  25.283  1.00  0.00     0.020 A 
ATOM     19  N   UNL A   1      33.140  27.913  22.923  1.00  0.00    -0.263 NA
ATOM     20  C   UNL A   1      32.899  26.581  22.968  1.00  0.00     0.119 A 
BRANCH  16  21
ATOM     21  C   UNL A   1      33.998  28.562  26.505  1.00  0.00     0.005 C 
ATOM     22  C   UNL A   1      34.375  30.638  27.844  1.00  0.00     0.035 C 
ATOM     23  C   UNL A   1      34.034  29.902  26.588  1.00  0.00    -0.030 C 
ENDBRANCH  16  21
ENDBRANCH  10  15
ENDBRANCH   7   9
ENDBRANCH   4   7
ENDBRANCH   2   3
ENDBRANCH   1   2
BRANCH   1  24
ATOM     24  C   UNL A   1      35.849  22.951  25.457  1.00  0.00     0.023 C 
BRANCH  24  25
ATOM     25  C   UNL A   1      37.196  23.606  25.175  1.00  0.00     0.116 C 
BRANCH  25  26
ATOM     26  N   UNL A   1      38.341  22.740  25.409  1.00  0.00    -0.352 N 
ATOM     27  C   UNL A   1      39.484  23.015  26.127  1.00  0.00     0.251 C 
ATOM     28  H   UNL A   1      38.294  21.843  25.004  1.00  0.00     0.163 HD
ATOM     29  O   UNL A   1      40.400  22.205  26.183  1.00  0.00    -0.269 OA
BRANCH  27  30
ATOM     30  C   UNL A   1      39.611  24.331  26.788  1.00  0.00     0.039 A 
ATOM     31  C   UNL A   1      39.102  24.489  28.078  1.00  0.00     0.014 A 
ATOM     32  C   UNL A   1      40.293  25.378  26.162  1.00  0.00     0.014 A 
ATOM     33  C   UNL A   1      39.352  25.670  28.777  1.00  0.00     0.010 A 
ATOM     34  C   UNL A   1      40.606  26.523  26.886  1.00  0.00     0.010 A 
ATOM     35  C   UNL A   1      40.144  26.677  28.202  1.00  0.00    -0.014 A 
BRANCH  35  36
ATOM     36  C   UNL A   1      40.514  27.897  28.960  1.00  0.00     0.031 A 
ATOM     37  C   UNL A   1      41.874  28.007  29.588  1.00  0.00     0.074 A 
ATOM     38  C   UNL A   1      39.600  28.869  29.149  1.00  0.00     0.049 A 
ATOM     39  N   UNL A   1      42.353  28.945  30.365  1.00  0.00    -0.248 NA
ATOM     40  C   UNL A   1      42.809  26.900  29.335  1.00  0.00     0.031 C 
ATOM     41  C   UNL A   1      38.229  28.857  28.636  1.00  0.00     0.029 A 
ATOM     42  N   UNL A   1      39.685  30.053  29.837  1.00  0.00    -0.354 N 
ATOM     43  C   UNL A   1      43.633  28.532  30.707  1.00  0.00     0.074 A 
ATOM     44  C   UNL A   1      43.838  27.237  30.098  1.00  0.00     0.031 C 
ATOM     45  C   UNL A   1      37.612  29.991  29.002  1.00  0.00     0.029 A 
ATOM     46  C   UNL A   1      38.528  30.794  29.806  1.00  0.00     0.049 A 
ATOM     47  H   UNL A   1      40.499  30.345  30.310  1.00  0.00     0.167 HD
ATOM     48  C   UNL A   1      44.565  29.186  31.442  1.00  0.00     0.037 A 
ATOM     49  C   UNL A   1      38.242  31.986  30.362  1.00  0.00     0.037 A 
ATOM     50  C   UNL A   1      44.371  30.489  32.020  1.00  0.00     0.049 A 
ATOM     51  C   UNL A   1      39.296  32.696  31.162  1.00  0.00     0.074 A 
ATOM     52  C   UNL A   1      45.272  31.257  32.737  1.00  0.00     0.029 A 
ATOM     53  N   UNL A   1      43.195  31.218  31.941  1.00  0.00    -0.354 N 
ATOM     54  N   UNL A   1      40.522  32.317  31.435  1.00  0.00    -0.248 NA
ATOM     55  C   UNL A   1      38.929  34.001  31.729  1.00  0.00     0.031 C 
ATOM     56  C   UNL A   1      44.631  32.441  33.115  1.00  0.00     0.029 A 
ATOM     57  C   UNL A   1      43.343  32.425  32.604  1.00  0.00     0.049 A 
ATOM     58  H   UNL A   1      42.377  30.923  31.482  1.00  0.00     0.167 HD
ATOM     59  C   UNL A   1      41.080  33.347  32.181  1.00  0.00     0.074 A 
ATOM     60  C   UNL A   1      40.064  34.371  32.309  1.00  0.00     0.031 C 
ATOM     61  C   UNL A   1      42.323  33.435  32.711  1.00  0.00     0.037 A 
BRANCH  48  62
ATOM     62  C   UNL A   1      45.882  28.499  31.647  1.00  0.00     0.057 A 
ATOM     63  C   UNL A   1      46.947  28.670  30.752  1.00  0.00     0.134 A 
ATOM     64  C   UNL A   1      46.096  27.672  32.757  1.00  0.00     0.134 A 
ATOM     65  F   UNL A   1      46.801  29.435  29.660  1.00  0.00    -0.206 F 
ATOM     66  C   UNL A   1      48.169  28.023  30.940  1.00  0.00     0.040 A 
ATOM     67  C   UNL A   1      47.323  27.040  32.969  1.00  0.00     0.040 A 
ATOM     68  F   UNL A   1      45.119  27.469  33.653  1.00  0.00    -0.206 F 
ATOM     69  C   UNL A   1      48.361  27.209  32.055  1.00  0.00     0.006 A 
ENDBRANCH  48  62
BRANCH  49  70
ATOM     70  C   UNL A   1      36.909  32.602  30.151  1.00  0.00     0.057 A 
ATOM     71  C   UNL A   1      35.847  32.325  31.019  1.00  0.00     0.134 A 
ATOM     72  C   UNL A   1      36.662  33.474  29.085  1.00  0.00     0.134 A 
ATOM     73  F   UNL A   1      36.020  31.482  32.048  1.00  0.00    -0.206 F 
ATOM     74  C   UNL A   1      34.581  32.880  30.827  1.00  0.00     0.040 A 
ATOM     75  C   UNL A   1      35.406  34.054  28.893  1.00  0.00     0.040 A 
ATOM     76  F   UNL A   1      37.640  33.784  28.223  1.00  0.00    -0.206 F 
ATOM     77  C   UNL A   1      34.360  33.751  29.762  1.00  0.00     0.006 A 
ENDBRANCH  49  70
BRANCH  61  78
ATOM     78  C   UNL A   1      42.664  34.696  33.448  1.00  0.00     0.057 A 
ATOM     79  C   UNL A   1      43.092  35.848  32.778  1.00  0.00     0.134 A 
ATOM     80  C   UNL A   1      42.519  34.769  34.839  1.00  0.00     0.134 A 
ATOM     81  F   UNL A   1      43.263  35.837  31.448  1.00  0.00    -0.206 F 
ATOM     82  C   UNL A   1      43.382  37.025  33.469  1.00  0.00     0.040 A 
ATOM     83  C   UNL A   1      42.784  35.946  35.538  1.00  0.00     0.040 A 
ATOM     84  F   UNL A   1      42.105  33.701  35.537  1.00  0.00    -0.206 F 
ATOM     85  C   UNL A   1      43.222  37.079  34.853  1.00  0.00     0.006 A 
ENDBRANCH  61  78
ENDBRANCH  35  36
ENDBRANCH  27  30
ENDBRANCH  25  26
ENDBRANCH  24  25
ENDBRANCH   1  24
TORSDOF 14
ENDMDL
MODEL 3
REMARK VINA RESULT:      -9.3      4.346     10.450
REMARK SMILES C/C=C/c1cncc(-c2ccc([C@@H](C)C(=O)NCCCCNC(=O)c3ccc(-c4c5nc(c(-c6c(F)cccc6F)c6ccc([nH]6)c(-c6c(F)cccc6F)c6nc(c(-c7c(F)cccc7F)c7ccc4[nH]7)C=C6)C=C5)cc3)cc2)c1
REMARK SMILES IDX 19 1 18 2 17 3 15 4 16 5 13 7 14 8 12 9 9 10 10 11 80 12
REMARK SMILES IDX 11 13 79 14 8 15 4 16 5 17 81 18 6 19 7 20 3 21 1 22 2 23
REMARK SMILES IDX 20 24 21 25 22 26 23 27 24 29 25 30 26 31 78 32 27 33 77 34
REMARK SMILES IDX 28 35 29 36 30 37 71 38 31 39 76 40 70 41 72 42 32 43 75 44
REMARK SMILES IDX 69 45 68 46 33 48 59 49 42 50 58 51 43 52 46 53 57 54 73 55
REMARK SMILES IDX 44 56 45 57 56 59 74 60 47 61 34 62 35 63 40 64 36 65 37 66
REMARK SMILES IDX 39 67 41 68 38 69 60 70 61 71 66 72 62 73 63 74 65 75 67 76
REMARK SMILES IDX 64 77 48 78 49 79 54 80 50 81 51 82 53 83 55 84 52 85
REMARK H PARENT 17 6 22 28 72 47 46 58
REMARK Flexibility Score: inf
ROOT
ATOM      1  C   UNL A   1      39.117  22.746  26.492  1.00  0.00     0.023 C 
ENDROOT
BRANCH   1   2
ATOM      2  C   UNL A   1      37.889  23.544  26.052  1.00  0.00     0.116 C 
BRANCH   2   3
ATOM      3  N   UNL A   1      37.615  23.392  24.639  1.00  0.00    -0.356 N 
ATOM      4  C   UNL A   1      36.465  23.091  23.975  1.00  0.00     0.227 C 
ATOM      5  O   UNL A   1      36.560  22.951  22.749  1.00  0.00    -0.274 OA
ATOM      6  H   UNL A   1      38.396  23.530  24.056  1.00  0.00     0.163 HD
BRANCH   4   7
ATOM      7  C   UNL A   1      35.097  22.938  24.660  1.00  0.00     0.105 C 
ATOM      8  C   UNL A   1      34.329  21.688  24.228  1.00  0.00     0.023 C 
BRANCH   7   9
ATOM      9  C   UNL A   1      34.303  24.234  24.716  1.00  0.00    -0.036 A 
ATOM     10  C   UNL A   1      32.985  26.765  24.951  1.00  0.00    -0.017 A 
ATOM     11  C   UNL A   1      33.404  26.261  23.709  1.00  0.00     0.009 A 
ATOM     12  C   UNL A   1      33.201  25.945  26.069  1.00  0.00     0.009 A 
ATOM     13  C   UNL A   1      34.018  25.007  23.588  1.00  0.00     0.005 A 
ATOM     14  C   UNL A   1      33.865  24.714  25.958  1.00  0.00     0.005 A 
BRANCH  10  15
ATOM     15  C   UNL A   1      32.359  28.102  25.068  1.00  0.00     0.001 A 
ATOM     16  C   UNL A   1      30.710  29.779  24.387  1.00  0.00    -0.007 A 
ATOM     17  C   UNL A   1      31.228  30.609  25.376  1.00  0.00     0.119 A 
ATOM     18  C   UNL A   1      31.295  28.513  24.243  1.00  0.00     0.020 A 
ATOM     19  N   UNL A   1      32.244  30.270  26.198  1.00  0.00    -0.263 NA
ATOM     20  C   UNL A   1      32.780  29.039  26.017  1.00  0.00     0.119 A 
BRANCH  16  21
ATOM     21  C   UNL A   1      29.645  30.275  23.509  1.00  0.00     0.005 C 
ATOM     22  C   UNL A   1      27.653  31.676  22.953  1.00  0.00     0.035 C 
ATOM     23  C   UNL A   1      28.722  31.178  23.873  1.00  0.00    -0.030 C 
ENDBRANCH  16  21
ENDBRANCH  10  15
ENDBRANCH   7   9
ENDBRANCH   4   7
ENDBRANCH   2   3
ENDBRANCH   1   2
BRANCH   1  24
ATOM     24  C   UNL A   1      39.332  21.428  25.751  1.00  0.00     0.023 C 
BRANCH  24  25
ATOM     25  C   UNL A   1      39.683  20.235  26.633  1.00  0.00     0.116 C 
BRANCH  25  26
ATOM     26  N   UNL A   1      40.720  19.373  26.085  1.00  0.00    -0.352 N 
ATOM     27  C   UNL A   1      42.059  19.651  25.922  1.00  0.00     0.251 C 
ATOM     28  H   UNL A   1      40.428  18.478  25.795  1.00  0.00     0.163 HD
ATOM     29  O   UNL A   1      42.805  18.845  25.382  1.00  0.00    -0.269 OA
BRANCH  27  30
ATOM     30  C   UNL A   1      42.574  20.964  26.364  1.00  0.00     0.039 A 
ATOM     31  C   UNL A   1      42.911  21.915  25.399  1.00  0.00     0.014 A 
ATOM     32  C   UNL A   1      42.654  21.274  27.724  1.00  0.00     0.014 A 
ATOM     33  C   UNL A   1      43.246  23.209  25.797  1.00  0.00     0.010 A 
ATOM     34  C   UNL A   1      42.914  22.582  28.115  1.00  0.00     0.010 A 
ATOM     35  C   UNL A   1      43.205  23.564  27.155  1.00  0.00    -0.014 A 
BRANCH  35  36
ATOM     36  C   UNL A   1      43.454  24.958  27.598  1.00  0.00     0.031 A 
ATOM     37  C   UNL A   1      44.862  25.449  27.777  1.00  0.00     0.074 A 
ATOM     38  C   UNL A   1      42.413  25.754  27.915  1.00  0.00     0.049 A 
ATOM     39  N   UNL A   1      45.285  26.596  28.243  1.00  0.00    -0.248 NA
ATOM     40  C   UNL A   1      45.938  24.514  27.411  1.00  0.00     0.031 C 
ATOM     41  C   UNL A   1      41.001  25.377  27.836  1.00  0.00     0.029 A 
ATOM     42  N   UNL A   1      42.386  27.044  28.380  1.00  0.00    -0.354 N 
ATOM     43  C   UNL A   1      46.671  26.512  28.245  1.00  0.00     0.074 A 
ATOM     44  C   UNL A   1      47.016  25.186  27.784  1.00  0.00     0.031 C 
ATOM     45  C   UNL A   1      40.246  26.422  28.211  1.00  0.00     0.029 A 
ATOM     46  C   UNL A   1      41.118  27.528  28.591  1.00  0.00     0.049 A 
ATOM     47  H   UNL A   1      43.200  27.574  28.548  1.00  0.00     0.167 HD
ATOM     48  C   UNL A   1      47.575  27.465  28.577  1.00  0.00     0.037 A 
ATOM     49  C   UNL A   1      40.707  28.728  29.040  1.00  0.00     0.037 A 
ATOM     50  C   UNL A   1      47.230  28.794  29.004  1.00  0.00     0.049 A 
ATOM     51  C   UNL A   1      41.729  29.772  29.391  1.00  0.00     0.074 A 
ATOM     52  C   UNL A   1      48.074  29.847  29.313  1.00  0.00     0.029 A 
ATOM     53  N   UNL A   1      45.934  29.254  29.178  1.00  0.00    -0.354 N 
ATOM     54  N   UNL A   1      43.038  29.697  29.338  1.00  0.00    -0.248 NA
ATOM     55  C   UNL A   1      41.219  31.068  29.858  1.00  0.00     0.031 C 
ATOM     56  C   UNL A   1      47.287  30.937  29.699  1.00  0.00     0.029 A 
ATOM     57  C   UNL A   1      45.954  30.573  29.597  1.00  0.00     0.049 A 
ATOM     58  H   UNL A   1      45.120  28.722  29.024  1.00  0.00     0.167 HD
ATOM     59  C   UNL A   1      43.505  30.942  29.740  1.00  0.00     0.074 A 
ATOM     60  C   UNL A   1      42.341  31.756  30.023  1.00  0.00     0.031 C 
ATOM     61  C   UNL A   1      44.785  31.370  29.863  1.00  0.00     0.037 A 
BRANCH  48  62
ATOM     62  C   UNL A   1      49.025  27.097  28.475  1.00  0.00     0.057 A 
ATOM     63  C   UNL A   1      49.751  27.287  27.290  1.00  0.00     0.134 A 
ATOM     64  C   UNL A   1      49.711  26.566  29.575  1.00  0.00     0.134 A 
ATOM     65  F   UNL A   1      49.148  27.776  26.196  1.00  0.00    -0.206 F 
ATOM     66  C   UNL A   1      51.097  26.937  27.195  1.00  0.00     0.040 A 
ATOM     67  C   UNL A   1      51.065  26.237  29.499  1.00  0.00     0.040 A 
ATOM     68  F   UNL A   1      49.077  26.364  30.739  1.00  0.00    -0.206 F 
ATOM     69  C   UNL A   1      51.760  26.414  28.305  1.00  0.00     0.006 A 
ENDBRANCH  48  62
BRANCH  49  70
ATOM     70  C   UNL A   1      39.257  29.023  29.151  1.00  0.00     0.057 A 
ATOM     71  C   UNL A   1      38.536  29.495  28.048  1.00  0.00     0.134 A 
ATOM     72  C   UNL A   1      38.559  28.844  30.350  1.00  0.00     0.134 A 
ATOM     73  F   UNL A   1      39.156  29.703  26.877  1.00  0.00    -0.206 F 
ATOM     74  C   UNL A   1      37.176  29.796  28.137  1.00  0.00     0.040 A 
ATOM     75  C   UNL A   1      37.194  29.120  30.448  1.00  0.00     0.040 A 
ATOM     76  F   UNL A   1      39.192  28.388  31.441  1.00  0.00    -0.206 F 
ATOM     77  C   UNL A   1      36.500  29.603  29.340  1.00  0.00     0.006 A 
ENDBRANCH  49  70
BRANCH  61  78
ATOM     78  C   UNL A   1      44.991  32.793  30.289  1.00  0.00     0.057 A 
ATOM     79  C   UNL A   1      45.044  33.840  29.361  1.00  0.00     0.134 A 
ATOM     80  C   UNL A   1      45.093  33.123  31.646  1.00  0.00     0.134 A 
ATOM     81  F   UNL A   1      44.964  33.587  28.046  1.00  0.00    -0.206 F 
ATOM     82  C   UNL A   1      45.210  35.164  29.767  1.00  0.00     0.040 A 
ATOM     83  C   UNL A   1      45.236  34.444  32.066  1.00  0.00     0.040 A 
ATOM     84  F   UNL A   1      45.041  32.165  32.584  1.00  0.00    -0.206 F 
ATOM     85  C   UNL A   1      45.300  35.470  31.124  1.00  0.00     0.006 A 
ENDBRANCH  61  78
ENDBRANCH  35  36
ENDBRANCH  27  30
ENDBRANCH  25  26
ENDBRANCH  24  25
ENDBRANCH   1  24
TORSDOF 14
ENDMDL
