MODEL 1
REMARK VINA RESULT:     -13.5      0.000      0.000
REMARK SMILES O=C(NCCCCNC(=O)c1ccc([C@H]2CCCN(C(=O)c3ccc4[nH]ccc4c3)C2)cc1)c1ccc(-c2c3nc(c(-c4c(F)cccc4F)c4ccc([nH]4)c(-c4c(F)cccc4F)c4nc(c(-c5c(F)cccc5F)c5ccc2[nH]5)C=C4)C=C3)cc1
REMARK SMILES IDX 6 1 5 2 4 3 3 4 1 5 2 6 34 8 35 9 87 10 36 11 86 12 37 13
REMARK SMILES IDX 38 14 39 15 80 16 40 17 85 18 79 19 81 20 41 21 84 22 78 23
REMARK SMILES IDX 77 24 42 26 68 27 51 28 67 29 52 30 55 31 66 32 82 33 53 34
REMARK SMILES IDX 54 35 65 37 83 38 56 39 43 40 44 41 49 42 45 43 46 44 48 45
REMARK SMILES IDX 50 46 47 47 69 48 70 49 75 50 71 51 72 52 74 53 76 54 73 55
REMARK SMILES IDX 57 56 58 57 63 58 59 59 60 60 62 61 64 62 61 63 7 64 8 65
REMARK SMILES IDX 9 66 10 68 11 69 12 70 33 71 13 72 32 73 14 74 15 75 16 76
REMARK SMILES IDX 31 77 17 78 19 79 18 80 20 81 21 82 22 83 23 84 30 85 24 86
REMARK SMILES IDX 29 87 25 88 28 89 26 90 27 91
REMARK H PARENT 3 7 81 25 55 36 8 67 26 92
REMARK Flexibility Score: inf
ROOT
ATOM      1  C   UNL A   1      31.735  30.515  26.678  1.00  0.00     0.023 C 
ENDROOT
BRANCH   1   2
ATOM      2  C   UNL A   1      31.508  32.019  26.790  1.00  0.00     0.023 C 
BRANCH   2   3
ATOM      3  C   UNL A   1      32.757  32.824  27.110  1.00  0.00     0.116 C 
BRANCH   3   4
ATOM      4  N   UNL A   1      32.453  34.163  27.590  1.00  0.00    -0.352 N 
ATOM      5  O   UNL A   1      32.549  35.908  29.022  1.00  0.00    -0.269 OA
ATOM      6  C   UNL A   1      33.027  34.851  28.634  1.00  0.00     0.251 C 
ATOM      7  H   UNL A   1      31.742  34.639  27.103  1.00  0.00     0.163 HD
BRANCH   6   8
ATOM      8  C   UNL A   1      34.224  34.288  29.293  1.00  0.00     0.039 A 
ATOM      9  C   UNL A   1      34.089  33.481  30.425  1.00  0.00     0.014 A 
ATOM     10  C   UNL A   1      35.491  34.570  28.775  1.00  0.00     0.014 A 
ATOM     11  C   UNL A   1      35.219  33.061  31.114  1.00  0.00     0.010 A 
ATOM     12  C   UNL A   1      36.627  34.065  29.415  1.00  0.00     0.010 A 
ATOM     13  C   UNL A   1      36.498  33.315  30.594  1.00  0.00    -0.014 A 
BRANCH  13  14
ATOM     14  C   UNL A   1      37.669  32.657  31.222  1.00  0.00     0.031 A 
ATOM     15  C   UNL A   1      38.324  31.454  30.608  1.00  0.00     0.074 A 
ATOM     16  C   UNL A   1      38.132  33.174  32.378  1.00  0.00     0.049 A 
ATOM     17  N   UNL A   1      39.336  30.756  31.057  1.00  0.00    -0.248 NA
ATOM     18  C   UNL A   1      37.775  30.963  29.335  1.00  0.00     0.031 C 
ATOM     19  C   UNL A   1      37.556  34.331  33.071  1.00  0.00     0.029 A 
ATOM     20  N   UNL A   1      39.184  32.804  33.174  1.00  0.00    -0.354 N 
ATOM     21  C   UNL A   1      39.536  29.735  30.138  1.00  0.00     0.074 A 
ATOM     22  C   UNL A   1      38.531  29.895  29.108  1.00  0.00     0.031 C 
ATOM     23  C   UNL A   1      38.276  34.592  34.170  1.00  0.00     0.029 A 
ATOM     24  C   UNL A   1      39.313  33.578  34.302  1.00  0.00     0.049 A 
ATOM     25  H   UNL A   1      39.787  32.056  32.959  1.00  0.00     0.167 HD
ATOM     26  C   UNL A   1      40.473  28.759  30.162  1.00  0.00     0.037 A 
ATOM     27  C   UNL A   1      40.146  33.462  35.352  1.00  0.00     0.037 A 
ATOM     28  C   UNL A   1      41.481  28.625  31.184  1.00  0.00     0.049 A 
ATOM     29  C   UNL A   1      41.144  32.343  35.360  1.00  0.00     0.074 A 
ATOM     30  C   UNL A   1      42.521  27.714  31.252  1.00  0.00     0.029 A 
ATOM     31  N   UNL A   1      41.564  29.411  32.324  1.00  0.00    -0.354 N 
ATOM     32  N   UNL A   1      41.368  31.430  34.447  1.00  0.00    -0.248 NA
ATOM     33  C   UNL A   1      41.999  32.229  36.549  1.00  0.00     0.031 C 
ATOM     34  C   UNL A   1      43.193  27.907  32.463  1.00  0.00     0.029 A 
ATOM     35  C   UNL A   1      42.608  28.974  33.123  1.00  0.00     0.049 A 
ATOM     36  H   UNL A   1      40.969  30.167  32.533  1.00  0.00     0.167 HD
ATOM     37  C   UNL A   1      42.394  30.641  34.944  1.00  0.00     0.074 A 
ATOM     38  C   UNL A   1      42.771  31.203  36.226  1.00  0.00     0.031 C 
ATOM     39  C   UNL A   1      42.966  29.542  34.397  1.00  0.00     0.037 A 
BRANCH  26  40
ATOM     40  C   UNL A   1      40.463  27.732  29.066  1.00  0.00     0.057 A 
ATOM     41  C   UNL A   1      39.597  26.632  29.086  1.00  0.00     0.134 A 
ATOM     42  C   UNL A   1      41.250  27.913  27.920  1.00  0.00     0.134 A 
ATOM     43  F   UNL A   1      38.819  26.398  30.153  1.00  0.00    -0.206 F 
ATOM     44  C   UNL A   1      39.516  25.749  28.007  1.00  0.00     0.040 A 
ATOM     45  C   UNL A   1      41.163  27.050  26.827  1.00  0.00     0.040 A 
ATOM     46  F   UNL A   1      42.095  28.953  27.833  1.00  0.00    -0.206 F 
ATOM     47  C   UNL A   1      40.292  25.964  26.869  1.00  0.00     0.006 A 
ENDBRANCH  26  40
BRANCH  27  48
ATOM     48  C   UNL A   1      40.032  34.394  36.502  1.00  0.00     0.057 A 
ATOM     49  C   UNL A   1      39.229  34.093  37.606  1.00  0.00     0.134 A 
ATOM     50  C   UNL A   1      40.706  35.622  36.510  1.00  0.00     0.134 A 
ATOM     51  F   UNL A   1      38.546  32.940  37.651  1.00  0.00    -0.206 F 
ATOM     52  C   UNL A   1      39.075  34.991  38.663  1.00  0.00     0.040 A 
ATOM     53  C   UNL A   1      40.588  36.515  37.575  1.00  0.00     0.040 A 
ATOM     54  F   UNL A   1      41.500  35.968  35.485  1.00  0.00    -0.206 F 
ATOM     55  C   UNL A   1      39.759  36.206  38.651  1.00  0.00     0.006 A 
ENDBRANCH  27  48
BRANCH  39  56
ATOM     56  C   UNL A   1      44.062  28.885  35.180  1.00  0.00     0.057 A 
ATOM     57  C   UNL A   1      45.401  29.272  35.035  1.00  0.00     0.134 A 
ATOM     58  C   UNL A   1      43.776  27.878  36.110  1.00  0.00     0.134 A 
ATOM     59  F   UNL A   1      45.743  30.219  34.148  1.00  0.00    -0.206 F 
ATOM     60  C   UNL A   1      46.419  28.665  35.771  1.00  0.00     0.040 A 
ATOM     61  C   UNL A   1      44.781  27.284  36.873  1.00  0.00     0.040 A 
ATOM     62  F   UNL A   1      42.514  27.466  36.302  1.00  0.00    -0.206 F 
ATOM     63  C   UNL A   1      46.108  27.673  36.700  1.00  0.00     0.006 A 
ENDBRANCH  39  56
ENDBRANCH  13  14
ENDBRANCH   6   8
ENDBRANCH   3   4
ENDBRANCH   2   3
ENDBRANCH   1   2
BRANCH   1  64
ATOM     64  C   UNL A   1      31.706  29.966  25.255  1.00  0.00     0.116 C 
BRANCH  64  65
ATOM     65  N   UNL A   1      30.569  30.456  24.485  1.00  0.00    -0.352 N 
ATOM     66  C   UNL A   1      29.890  29.824  23.468  1.00  0.00     0.251 C 
ATOM     67  H   UNL A   1      30.246  31.355  24.721  1.00  0.00     0.163 HD
ATOM     68  O   UNL A   1      29.049  30.416  22.804  1.00  0.00    -0.269 OA
BRANCH  66  69
ATOM     69  C   UNL A   1      30.221  28.417  23.179  1.00  0.00     0.039 A 
ATOM     70  C   UNL A   1      31.243  28.116  22.283  1.00  0.00     0.014 A 
ATOM     71  C   UNL A   1      29.566  27.403  23.873  1.00  0.00     0.014 A 
ATOM     72  C   UNL A   1      31.704  26.800  22.189  1.00  0.00     0.005 A 
ATOM     73  C   UNL A   1      30.043  26.100  23.792  1.00  0.00     0.005 A 
ATOM     74  C   UNL A   1      31.163  25.786  23.000  1.00  0.00    -0.043 A 
BRANCH  74  75
ATOM     75  C   UNL A   1      31.809  24.397  23.030  1.00  0.00     0.039 C 
ATOM     76  C   UNL A   1      33.258  24.445  22.480  1.00  0.00     0.012 C 
ATOM     77  C   UNL A   1      31.822  23.774  24.442  1.00  0.00     0.128 C 
ATOM     78  C   UNL A   1      33.990  23.108  22.621  1.00  0.00     0.022 C 
ATOM     79  N   UNL A   1      32.550  22.519  24.502  1.00  0.00    -0.338 N 
ATOM     80  C   UNL A   1      33.935  22.581  24.049  1.00  0.00     0.120 C 
BRANCH  79  81
ATOM     81  C   UNL A   1      31.900  21.406  25.017  1.00  0.00     0.253 C 
ATOM     82  O   UNL A   1      30.984  21.452  25.832  1.00  0.00    -0.269 OA
BRANCH  81  83
ATOM     83  C   UNL A   1      32.330  20.078  24.565  1.00  0.00     0.040 A 
ATOM     84  C   UNL A   1      32.190  19.752  23.217  1.00  0.00     0.016 A 
ATOM     85  C   UNL A   1      32.813  19.163  25.510  1.00  0.00     0.024 A 
ATOM     86  C   UNL A   1      32.575  18.492  22.757  1.00  0.00     0.027 A 
ATOM     87  C   UNL A   1      33.172  17.879  25.064  1.00  0.00     0.000 A 
ATOM     88  C   UNL A   1      33.063  17.581  23.704  1.00  0.00     0.045 A 
ATOM     89  C   UNL A   1      33.634  16.704  25.716  1.00  0.00     0.028 A 
ATOM     90  N   UNL A   1      33.496  16.284  23.541  1.00  0.00    -0.361 N 
ATOM     91  C   UNL A   1      33.810  15.734  24.755  1.00  0.00     0.083 A 
ATOM     92  H   UNL A   1      33.571  15.820  22.676  1.00  0.00     0.166 HD
ENDBRANCH  81  83
ENDBRANCH  79  81
ENDBRANCH  74  75
ENDBRANCH  66  69
ENDBRANCH  64  65
ENDBRANCH   1  64
TORSDOF 14
ENDMDL
MODEL 2
REMARK VINA RESULT:     -13.4      0.429      6.029
REMARK SMILES O=C(NCCCCNC(=O)c1ccc([C@H]2CCCN(C(=O)c3ccc4[nH]ccc4c3)C2)cc1)c1ccc(-c2c3nc(c(-c4c(F)cccc4F)c4ccc([nH]4)c(-c4c(F)cccc4F)c4nc(c(-c5c(F)cccc5F)c5ccc2[nH]5)C=C4)C=C3)cc1
REMARK SMILES IDX 6 1 5 2 4 3 3 4 1 5 2 6 34 8 35 9 87 10 36 11 86 12 37 13
REMARK SMILES IDX 38 14 39 15 80 16 40 17 85 18 79 19 81 20 41 21 84 22 78 23
REMARK SMILES IDX 77 24 42 26 68 27 51 28 67 29 52 30 55 31 66 32 82 33 53 34
REMARK SMILES IDX 54 35 65 37 83 38 56 39 43 40 44 41 49 42 45 43 46 44 48 45
REMARK SMILES IDX 50 46 47 47 69 48 70 49 75 50 71 51 72 52 74 53 76 54 73 55
REMARK SMILES IDX 57 56 58 57 63 58 59 59 60 60 62 61 64 62 61 63 7 64 8 65
REMARK SMILES IDX 9 66 10 68 11 69 12 70 33 71 13 72 32 73 14 74 15 75 16 76
REMARK SMILES IDX 31 77 17 78 19 79 18 80 20 81 21 82 22 83 23 84 30 85 24 86
REMARK SMILES IDX 29 87 25 88 28 89 26 90 27 91
REMARK H PARENT 3 7 81 25 55 36 8 67 26 92
REMARK Flexibility Score: inf
ROOT
ATOM      1  C   UNL A   1      31.432  30.663  26.562  1.00  0.00     0.023 C 
ENDROOT
BRANCH   1   2
ATOM      2  C   UNL A   1      31.390  32.186  26.605  1.00  0.00     0.023 C 
BRANCH   2   3
ATOM      3  C   UNL A   1      32.637  32.836  27.181  1.00  0.00     0.116 C 
BRANCH   3   4
ATOM      4  N   UNL A   1      32.406  34.206  27.613  1.00  0.00    -0.352 N 
ATOM      5  O   UNL A   1      32.612  35.998  28.975  1.00  0.00    -0.269 OA
ATOM      6  C   UNL A   1      33.031  34.905  28.620  1.00  0.00     0.251 C 
ATOM      7  H   UNL A   1      31.710  34.697  27.120  1.00  0.00     0.163 HD
BRANCH   6   8
ATOM      8  C   UNL A   1      34.212  34.310  29.282  1.00  0.00     0.039 A 
ATOM      9  C   UNL A   1      34.060  33.567  30.456  1.00  0.00     0.014 A 
ATOM     10  C   UNL A   1      35.480  34.496  28.723  1.00  0.00     0.014 A 
ATOM     11  C   UNL A   1      35.182  33.121  31.140  1.00  0.00     0.010 A 
ATOM     12  C   UNL A   1      36.601  33.961  29.364  1.00  0.00     0.010 A 
ATOM     13  C   UNL A   1      36.460  33.278  30.581  1.00  0.00    -0.014 A 
BRANCH  13  14
ATOM     14  C   UNL A   1      37.609  32.588  31.217  1.00  0.00     0.031 A 
ATOM     15  C   UNL A   1      38.190  33.056  32.520  1.00  0.00     0.074 A 
ATOM     16  C   UNL A   1      38.127  31.520  30.581  1.00  0.00     0.049 A 
ATOM     17  N   UNL A   1      39.211  32.572  33.181  1.00  0.00    -0.248 NA
ATOM     18  C   UNL A   1      37.554  34.216  33.164  1.00  0.00     0.031 C 
ATOM     19  C   UNL A   1      37.651  30.992  29.298  1.00  0.00     0.029 A 
ATOM     20  N   UNL A   1      39.161  30.684  30.916  1.00  0.00    -0.354 N 
ATOM     21  C   UNL A   1      39.355  33.374  34.305  1.00  0.00     0.074 A 
ATOM     22  C   UNL A   1      38.323  34.387  34.234  1.00  0.00     0.031 C 
ATOM     23  C   UNL A   1      38.369  29.911  28.970  1.00  0.00     0.029 A 
ATOM     24  C   UNL A   1      39.404  29.713  29.974  1.00  0.00     0.049 A 
ATOM     25  H   UNL A   1      39.677  30.771  31.748  1.00  0.00     0.167 HD
ATOM     26  C   UNL A   1      40.268  33.266  35.298  1.00  0.00     0.037 A 
ATOM     27  C   UNL A   1      40.380  28.790  29.902  1.00  0.00     0.037 A 
ATOM     28  C   UNL A   1      41.277  32.238  35.366  1.00  0.00     0.049 A 
ATOM     29  C   UNL A   1      41.397  28.729  31.002  1.00  0.00     0.074 A 
ATOM     30  C   UNL A   1      42.198  32.002  36.372  1.00  0.00     0.029 A 
ATOM     31  N   UNL A   1      41.510  31.289  34.382  1.00  0.00    -0.354 N 
ATOM     32  N   UNL A   1      41.475  29.447  32.095  1.00  0.00    -0.248 NA
ATOM     33  C   UNL A   1      42.470  27.736  30.854  1.00  0.00     0.031 C 
ATOM     34  C   UNL A   1      43.028  30.952  35.968  1.00  0.00     0.029 A 
ATOM     35  C   UNL A   1      42.590  30.497  34.736  1.00  0.00     0.049 A 
ATOM     36  H   UNL A   1      40.985  31.192  33.554  1.00  0.00     0.167 HD
ATOM     37  C   UNL A   1      42.596  28.987  32.771  1.00  0.00     0.074 A 
ATOM     38  C   UNL A   1      43.148  27.906  31.980  1.00  0.00     0.031 C 
ATOM     39  C   UNL A   1      43.129  29.429  33.935  1.00  0.00     0.037 A 
BRANCH  26  40
ATOM     40  C   UNL A   1      40.251  34.287  36.399  1.00  0.00     0.057 A 
ATOM     41  C   UNL A   1      40.911  35.516  36.283  1.00  0.00     0.134 A 
ATOM     42  C   UNL A   1      39.464  34.082  37.541  1.00  0.00     0.134 A 
ATOM     43  F   UNL A   1      41.684  35.776  35.217  1.00  0.00    -0.206 F 
ATOM     44  C   UNL A   1      40.791  36.503  37.264  1.00  0.00     0.040 A 
ATOM     45  C   UNL A   1      39.319  35.069  38.517  1.00  0.00     0.040 A 
ATOM     46  F   UNL A   1      38.798  32.930  37.710  1.00  0.00    -0.206 F 
ATOM     47  C   UNL A   1      39.984  36.285  38.379  1.00  0.00     0.006 A 
ENDBRANCH  26  40
BRANCH  27  48
ATOM     48  C   UNL A   1      40.473  27.893  28.723  1.00  0.00     0.057 A 
ATOM     49  C   UNL A   1      41.223  28.246  27.596  1.00  0.00     0.134 A 
ATOM     50  C   UNL A   1      39.790  26.670  28.686  1.00  0.00     0.134 A 
ATOM     51  F   UNL A   1      41.886  29.411  27.564  1.00  0.00    -0.206 F 
ATOM     52  C   UNL A   1      41.266  27.431  26.465  1.00  0.00     0.040 A 
ATOM     53  C   UNL A   1      39.853  25.829  27.575  1.00  0.00     0.040 A 
ATOM     54  F   UNL A   1      39.061  26.267  29.738  1.00  0.00    -0.206 F 
ATOM     55  C   UNL A   1      40.583  26.216  26.453  1.00  0.00     0.006 A 
ENDBRANCH  27  48
BRANCH  39  56
ATOM     56  C   UNL A   1      44.365  28.734  34.422  1.00  0.00     0.057 A 
ATOM     57  C   UNL A   1      45.645  29.208  34.110  1.00  0.00     0.134 A 
ATOM     58  C   UNL A   1      44.275  27.598  35.236  1.00  0.00     0.134 A 
ATOM     59  F   UNL A   1      45.799  30.282  33.320  1.00  0.00    -0.206 F 
ATOM     60  C   UNL A   1      46.793  28.564  34.571  1.00  0.00     0.040 A 
ATOM     61  C   UNL A   1      45.415  26.962  35.727  1.00  0.00     0.040 A 
ATOM     62  F   UNL A   1      43.079  27.096  35.577  1.00  0.00    -0.206 F 
ATOM     63  C   UNL A   1      46.679  27.441  35.389  1.00  0.00     0.006 A 
ENDBRANCH  39  56
ENDBRANCH  13  14
ENDBRANCH   6   8
ENDBRANCH   3   4
ENDBRANCH   2   3
ENDBRANCH   1   2
BRANCH   1  64
ATOM     64  C   UNL A   1      31.489  30.062  25.161  1.00  0.00     0.116 C 
BRANCH  64  65
ATOM     65  N   UNL A   1      30.384  30.495  24.315  1.00  0.00    -0.352 N 
ATOM     66  C   UNL A   1      29.796  29.823  23.267  1.00  0.00     0.251 C 
ATOM     67  H   UNL A   1      30.009  31.382  24.519  1.00  0.00     0.163 HD
ATOM     68  O   UNL A   1      28.974  30.372  22.545  1.00  0.00    -0.269 OA
BRANCH  66  69
ATOM     69  C   UNL A   1      30.202  28.428  23.018  1.00  0.00     0.039 A 
ATOM     70  C   UNL A   1      31.357  28.164  22.286  1.00  0.00     0.014 A 
ATOM     71  C   UNL A   1      29.474  27.390  23.593  1.00  0.00     0.014 A 
ATOM     72  C   UNL A   1      31.860  26.860  22.251  1.00  0.00     0.005 A 
ATOM     73  C   UNL A   1      29.991  26.100  23.573  1.00  0.00     0.005 A 
ATOM     74  C   UNL A   1      31.226  25.823  22.960  1.00  0.00    -0.043 A 
BRANCH  74  75
ATOM     75  C   UNL A   1      31.895  24.449  23.074  1.00  0.00     0.039 C 
ATOM     76  C   UNL A   1      33.369  24.506  22.597  1.00  0.00     0.012 C 
ATOM     77  C   UNL A   1      31.846  23.879  24.507  1.00  0.00     0.128 C 
ATOM     78  C   UNL A   1      34.117  23.190  22.825  1.00  0.00     0.022 C 
ATOM     79  N   UNL A   1      32.592  22.641  24.651  1.00  0.00    -0.338 N 
ATOM     80  C   UNL A   1      33.999  22.714  24.268  1.00  0.00     0.120 C 
BRANCH  79  81
ATOM     81  C   UNL A   1      31.937  21.535  25.173  1.00  0.00     0.253 C 
ATOM     82  O   UNL A   1      31.073  21.586  26.043  1.00  0.00    -0.269 OA
BRANCH  81  83
ATOM     83  C   UNL A   1      32.296  20.208  24.661  1.00  0.00     0.040 A 
ATOM     84  C   UNL A   1      32.110  19.941  23.305  1.00  0.00     0.016 A 
ATOM     85  C   UNL A   1      32.757  19.235  25.558  1.00  0.00     0.024 A 
ATOM     86  C   UNL A   1      32.426  18.685  22.788  1.00  0.00     0.027 A 
ATOM     87  C   UNL A   1      33.046  17.955  25.054  1.00  0.00     0.000 A 
ATOM     88  C   UNL A   1      32.893  17.716  23.687  1.00  0.00     0.045 A 
ATOM     89  C   UNL A   1      33.468  16.735  25.649  1.00  0.00     0.028 A 
ATOM     90  N   UNL A   1      33.262  16.407  23.464  1.00  0.00    -0.361 N 
ATOM     91  C   UNL A   1      33.577  15.797  24.649  1.00  0.00     0.083 A 
ATOM     92  H   UNL A   1      33.295  15.975  22.581  1.00  0.00     0.166 HD
ENDBRANCH  81  83
ENDBRANCH  79  81
ENDBRANCH  74  75
ENDBRANCH  66  69
ENDBRANCH  64  65
ENDBRANCH   1  64
TORSDOF 14
ENDMDL
MODEL 3
REMARK VINA RESULT:     -13.3      1.465      2.386
REMARK SMILES O=C(NCCCCNC(=O)c1ccc([C@H]2CCCN(C(=O)c3ccc4[nH]ccc4c3)C2)cc1)c1ccc(-c2c3nc(c(-c4c(F)cccc4F)c4ccc([nH]4)c(-c4c(F)cccc4F)c4nc(c(-c5c(F)cccc5F)c5ccc2[nH]5)C=C4)C=C3)cc1
REMARK SMILES IDX 6 1 5 2 4 3 3 4 1 5 2 6 34 8 35 9 87 10 36 11 86 12 37 13
REMARK SMILES IDX 38 14 39 15 80 16 40 17 85 18 79 19 81 20 41 21 84 22 78 23
REMARK SMILES IDX 77 24 42 26 68 27 51 28 67 29 52 30 55 31 66 32 82 33 53 34
REMARK SMILES IDX 54 35 65 37 83 38 56 39 43 40 44 41 49 42 45 43 46 44 48 45
REMARK SMILES IDX 50 46 47 47 69 48 70 49 75 50 71 51 72 52 74 53 76 54 73 55
REMARK SMILES IDX 57 56 58 57 63 58 59 59 60 60 62 61 64 62 61 63 7 64 8 65
REMARK SMILES IDX 9 66 10 68 11 69 12 70 33 71 13 72 32 73 14 74 15 75 16 76
REMARK SMILES IDX 31 77 17 78 19 79 18 80 20 81 21 82 22 83 23 84 30 85 24 86
REMARK SMILES IDX 29 87 25 88 28 89 26 90 27 91
REMARK H PARENT 3 7 81 25 55 36 8 67 26 92
REMARK Flexibility Score: inf
ROOT
ATOM      1  C   UNL A   1      30.672  31.806  25.483  1.00  0.00     0.023 C 
ENDROOT
BRANCH   1   2
ATOM      2  C   UNL A   1      31.335  31.681  26.850  1.00  0.00     0.023 C 
BRANCH   2   3
ATOM      3  C   UNL A   1      32.637  32.453  26.994  1.00  0.00     0.116 C 
BRANCH   3   4
ATOM      4  N   UNL A   1      32.428  33.833  27.404  1.00  0.00    -0.352 N 
ATOM      5  O   UNL A   1      32.669  35.646  28.730  1.00  0.00    -0.269 OA
ATOM      6  C   UNL A   1      33.071  34.542  28.392  1.00  0.00     0.251 C 
ATOM      7  H   UNL A   1      31.734  34.324  26.907  1.00  0.00     0.163 HD
BRANCH   6   8
ATOM      8  C   UNL A   1      34.249  33.943  29.054  1.00  0.00     0.039 A 
ATOM      9  C   UNL A   1      34.084  32.926  29.998  1.00  0.00     0.014 A 
ATOM     10  C   UNL A   1      35.528  34.402  28.728  1.00  0.00     0.014 A 
ATOM     11  C   UNL A   1      35.181  32.458  30.708  1.00  0.00     0.010 A 
ATOM     12  C   UNL A   1      36.643  33.860  29.375  1.00  0.00     0.010 A 
ATOM     13  C   UNL A   1      36.475  32.891  30.376  1.00  0.00    -0.014 A 
BRANCH  13  14
ATOM     14  C   UNL A   1      37.638  32.203  30.988  1.00  0.00     0.031 A 
ATOM     15  C   UNL A   1      38.391  31.126  30.263  1.00  0.00     0.074 A 
ATOM     16  C   UNL A   1      38.001  32.574  32.231  1.00  0.00     0.049 A 
ATOM     17  N   UNL A   1      39.409  30.417  30.680  1.00  0.00    -0.248 NA
ATOM     18  C   UNL A   1      37.947  30.793  28.900  1.00  0.00     0.031 C 
ATOM     19  C   UNL A   1      37.325  33.598  33.034  1.00  0.00     0.029 A 
ATOM     20  N   UNL A   1      39.020  32.143  33.040  1.00  0.00    -0.354 N 
ATOM     21  C   UNL A   1      39.717  29.543  29.647  1.00  0.00     0.074 A 
ATOM     22  C   UNL A   1      38.770  29.800  28.582  1.00  0.00     0.031 C 
ATOM     23  C   UNL A   1      37.962  33.735  34.205  1.00  0.00     0.029 A 
ATOM     24  C   UNL A   1      39.040  32.758  34.268  1.00  0.00     0.049 A 
ATOM     25  H   UNL A   1      39.673  31.459  32.767  1.00  0.00     0.167 HD
ATOM     26  C   UNL A   1      40.701  28.614  29.602  1.00  0.00     0.037 A 
ATOM     27  C   UNL A   1      39.812  32.534  35.347  1.00  0.00     0.037 A 
ATOM     28  C   UNL A   1      41.650  28.384  30.663  1.00  0.00     0.049 A 
ATOM     29  C   UNL A   1      40.864  31.468  35.271  1.00  0.00     0.074 A 
ATOM     30  C   UNL A   1      42.729  27.517  30.677  1.00  0.00     0.029 A 
ATOM     31  N   UNL A   1      41.621  29.006  31.901  1.00  0.00    -0.354 N 
ATOM     32  N   UNL A   1      41.191  30.702  34.260  1.00  0.00    -0.248 NA
ATOM     33  C   UNL A   1      41.649  31.228  36.489  1.00  0.00     0.031 C 
ATOM     34  C   UNL A   1      43.315  27.569  31.946  1.00  0.00     0.029 A 
ATOM     35  C   UNL A   1      42.636  28.509  32.703  1.00  0.00     0.049 A 
ATOM     36  H   UNL A   1      40.977  29.700  32.171  1.00  0.00     0.167 HD
ATOM     37  C   UNL A   1      42.224  29.897  34.715  1.00  0.00     0.074 A 
ATOM     38  C   UNL A   1      42.492  30.291  36.083  1.00  0.00     0.031 C 
ATOM     39  C   UNL A   1      42.885  28.909  34.063  1.00  0.00     0.037 A 
BRANCH  26  40
ATOM     40  C   UNL A   1      40.812  27.749  28.379  1.00  0.00     0.057 A 
ATOM     41  C   UNL A   1      40.106  26.547  28.252  1.00  0.00     0.134 A 
ATOM     42  C   UNL A   1      41.545  28.188  27.267  1.00  0.00     0.134 A 
ATOM     43  F   UNL A   1      39.388  26.068  29.279  1.00  0.00    -0.206 F 
ATOM     44  C   UNL A   1      40.127  25.811  27.065  1.00  0.00     0.040 A 
ATOM     45  C   UNL A   1      41.556  27.473  26.069  1.00  0.00     0.040 A 
ATOM     46  F   UNL A   1      42.236  29.337  27.319  1.00  0.00    -0.206 F 
ATOM     47  C   UNL A   1      40.844  26.280  25.966  1.00  0.00     0.006 A 
ENDBRANCH  26  40
BRANCH  27  48
ATOM     48  C   UNL A   1      39.578  33.292  36.602  1.00  0.00     0.057 A 
ATOM     49  C   UNL A   1      38.681  32.836  37.572  1.00  0.00     0.134 A 
ATOM     50  C   UNL A   1      40.232  34.506  36.848  1.00  0.00     0.134 A 
ATOM     51  F   UNL A   1      38.012  31.688  37.388  1.00  0.00    -0.206 F 
ATOM     52  C   UNL A   1      38.417  33.574  38.727  1.00  0.00     0.040 A 
ATOM     53  C   UNL A   1      40.005  35.237  38.014  1.00  0.00     0.040 A 
ATOM     54  F   UNL A   1      41.114  34.995  35.962  1.00  0.00    -0.206 F 
ATOM     55  C   UNL A   1      39.084  34.777  38.952  1.00  0.00     0.006 A 
ENDBRANCH  27  48
BRANCH  39  56
ATOM     56  C   UNL A   1      43.964  28.199  34.823  1.00  0.00     0.057 A 
ATOM     57  C   UNL A   1      43.715  27.002  35.507  1.00  0.00     0.134 A 
ATOM     58  C   UNL A   1      45.272  28.698  34.848  1.00  0.00     0.134 A 
ATOM     59  F   UNL A   1      42.478  26.481  35.537  1.00  0.00    -0.206 F 
ATOM     60  C   UNL A   1      44.723  26.339  36.207  1.00  0.00     0.040 A 
ATOM     61  C   UNL A   1      46.295  28.029  35.519  1.00  0.00     0.040 A 
ATOM     62  F   UNL A   1      45.579  29.836  34.207  1.00  0.00    -0.206 F 
ATOM     63  C   UNL A   1      46.020  26.849  36.207  1.00  0.00     0.006 A 
ENDBRANCH  39  56
ENDBRANCH  13  14
ENDBRANCH   6   8
ENDBRANCH   3   4
ENDBRANCH   2   3
ENDBRANCH   1   2
BRANCH   1  64
ATOM     64  C   UNL A   1      30.740  30.549  24.621  1.00  0.00     0.116 C 
BRANCH  64  65
ATOM     65  N   UNL A   1      29.908  30.639  23.427  1.00  0.00    -0.352 N 
ATOM     66  C   UNL A   1      29.573  29.638  22.542  1.00  0.00     0.251 C 
ATOM     67  H   UNL A   1      29.539  31.529  23.227  1.00  0.00     0.163 HD
ATOM     68  O   UNL A   1      28.989  29.888  21.496  1.00  0.00    -0.269 OA
BRANCH  66  69
ATOM     69  C   UNL A   1      29.959  28.255  22.875  1.00  0.00     0.039 A 
ATOM     70  C   UNL A   1      31.231  27.793  22.545  1.00  0.00     0.014 A 
ATOM     71  C   UNL A   1      29.079  27.453  23.596  1.00  0.00     0.014 A 
ATOM     72  C   UNL A   1      31.670  26.572  23.064  1.00  0.00     0.005 A 
ATOM     73  C   UNL A   1      29.529  26.250  24.127  1.00  0.00     0.005 A 
ATOM     74  C   UNL A   1      30.853  25.819  23.927  1.00  0.00    -0.043 A 
BRANCH  74  75
ATOM     75  C   UNL A   1      31.419  24.588  24.642  1.00  0.00     0.039 C 
ATOM     76  C   UNL A   1      30.753  24.394  26.028  1.00  0.00     0.012 C 
ATOM     77  C   UNL A   1      31.261  23.293  23.816  1.00  0.00     0.128 C 
ATOM     78  C   UNL A   1      31.186  23.098  26.718  1.00  0.00     0.022 C 
ATOM     79  N   UNL A   1      31.673  22.104  24.541  1.00  0.00    -0.338 N 
ATOM     80  C   UNL A   1      30.995  21.885  25.815  1.00  0.00     0.120 C 
BRANCH  79  81
ATOM     81  C   UNL A   1      32.617  21.271  23.957  1.00  0.00     0.253 C 
ATOM     82  O   UNL A   1      32.372  20.460  23.069  1.00  0.00    -0.269 OA
BRANCH  81  83
ATOM     83  C   UNL A   1      34.004  21.355  24.425  1.00  0.00     0.040 A 
ATOM     84  C   UNL A   1      34.682  20.174  24.727  1.00  0.00     0.016 A 
ATOM     85  C   UNL A   1      34.584  22.618  24.611  1.00  0.00     0.024 A 
ATOM     86  C   UNL A   1      35.997  20.220  25.189  1.00  0.00     0.027 A 
ATOM     87  C   UNL A   1      35.897  22.676  25.109  1.00  0.00     0.000 A 
ATOM     88  C   UNL A   1      36.576  21.483  25.367  1.00  0.00     0.045 A 
ATOM     89  C   UNL A   1      36.767  23.741  25.468  1.00  0.00     0.028 A 
ATOM     90  N   UNL A   1      37.832  21.826  25.817  1.00  0.00    -0.361 N 
ATOM     91  C   UNL A   1      37.944  23.187  25.914  1.00  0.00     0.083 A 
ATOM     92  H   UNL A   1      38.545  21.184  26.036  1.00  0.00     0.166 HD
ENDBRANCH  81  83
ENDBRANCH  79  81
ENDBRANCH  74  75
ENDBRANCH  66  69
ENDBRANCH  64  65
ENDBRANCH   1  64
TORSDOF 14
ENDMDL
