MODEL 1
REMARK VINA RESULT:      -9.8      0.000      0.000
REMARK SMILES Cc1ccsc1[C@@H]1[NH2+][C@@H](C(=O)NCCCCNC(=O)c2ccc(-c3c4nc(c(-c5c(F)cccc5F)c5ccc([nH]5)c(-c5c(F)cccc5F)c5nc(c(-c6c(F)cccc6F)c6ccc3[nH]6)C=C5)C=C4)cc2)CS1
REMARK SMILES IDX 15 1 14 2 13 3 12 4 10 5 11 6 9 8 7 9 8 10 75 11 74 14 6 15
REMARK SMILES IDX 1 16 2 17 3 18 4 19 5 20 16 21 17 22 18 23 19 25 20 26 21 27
REMARK SMILES IDX 73 28 22 29 72 30 23 31 24 32 25 33 66 34 26 35 71 36 65 37
REMARK SMILES IDX 67 38 27 39 70 40 64 41 63 42 28 44 54 45 37 46 53 47 38 48
REMARK SMILES IDX 41 49 52 50 68 51 39 52 40 53 51 55 69 56 42 57 29 58 30 59
REMARK SMILES IDX 35 60 31 61 32 62 34 63 36 64 33 65 55 66 56 67 61 68 57 69
REMARK SMILES IDX 58 70 60 71 62 72 59 73 43 74 44 75 49 76 45 77 46 78 48 79
REMARK SMILES IDX 50 80 47 81
REMARK H PARENT 12 7 8 12 8 13 17 24 67 43 41 54
REMARK Flexibility Score: inf
ROOT
ATOM      1  C   UNL A   1      44.586  19.114  24.642  1.00  0.00     0.023 C 
ENDROOT
BRANCH   1   2
ATOM      2  C   UNL A   1      45.856  19.936  24.914  1.00  0.00     0.023 C 
BRANCH   2   3
ATOM      3  C   UNL A   1      45.619  21.399  25.301  1.00  0.00     0.116 C 
BRANCH   3   4
ATOM      4  N   UNL A   1      46.357  22.278  24.420  1.00  0.00    -0.351 N 
ATOM      5  C   UNL A   1      46.550  23.621  24.427  1.00  0.00     0.279 C 
ATOM      6  O   UNL A   1      47.240  24.055  23.501  1.00  0.00    -0.268 OA
ATOM      7  H   UNL A   1      46.803  21.814  23.676  1.00  0.00     0.163 HD
BRANCH   5   8
ATOM      8  C   UNL A   1      46.013  24.519  25.571  1.00  0.00     0.283 C 
ATOM      9  C   UNL A   1      45.329  26.792  24.989  1.00  0.00     0.284 C 
ATOM     10  N   UNL A   1      44.870  25.398  25.158  1.00  0.00    -0.320 N 
ATOM     11  S   UNL A   1      47.135  26.803  25.023  1.00  0.00    -0.087 SA
ATOM     12  H   UNL A   1      44.488  25.061  24.275  1.00  0.00     0.348 HD
ATOM     13  H   UNL A   1      44.154  25.372  25.884  1.00  0.00     0.348 HD
ATOM     14  C   UNL A   1      47.162  25.367  26.115  1.00  0.00     0.151 C 
BRANCH   9  15
ATOM     15  C   UNL A   1      44.695  27.766  25.991  1.00  0.00     0.075 A 
ATOM     16  C   UNL A   1      42.187  27.542  25.406  1.00  0.00     0.046 C 
ATOM     17  C   UNL A   1      43.355  28.145  26.115  1.00  0.00    -0.030 A 
ATOM     18  C   UNL A   1      43.202  29.277  26.990  1.00  0.00     0.015 A 
ATOM     19  C   UNL A   1      44.379  29.661  27.579  1.00  0.00     0.065 A 
ATOM     20  S   UNL A   1      45.652  28.624  27.156  1.00  0.00    -0.141 S 
ENDBRANCH   9  15
ENDBRANCH   5   8
ENDBRANCH   3   4
ENDBRANCH   2   3
ENDBRANCH   1   2
BRANCH   1  21
ATOM     21  C   UNL A   1      43.779  18.717  25.875  1.00  0.00     0.116 C 
BRANCH  21  22
ATOM     22  N   UNL A   1      42.347  18.699  25.622  1.00  0.00    -0.352 N 
ATOM     23  C   UNL A   1      41.379  19.599  25.993  1.00  0.00     0.251 C 
ATOM     24  H   UNL A   1      42.023  17.925  25.106  1.00  0.00     0.163 HD
ATOM     25  O   UNL A   1      40.192  19.322  25.824  1.00  0.00    -0.269 OA
BRANCH  23  26
ATOM     26  C   UNL A   1      41.748  20.888  26.621  1.00  0.00     0.039 A 
ATOM     27  C   UNL A   1      42.117  21.956  25.798  1.00  0.00     0.014 A 
ATOM     28  C   UNL A   1      41.747  21.045  28.009  1.00  0.00     0.014 A 
ATOM     29  C   UNL A   1      42.418  23.199  26.364  1.00  0.00     0.010 A 
ATOM     30  C   UNL A   1      41.976  22.303  28.567  1.00  0.00     0.010 A 
ATOM     31  C   UNL A   1      42.311  23.394  27.750  1.00  0.00    -0.014 A 
BRANCH  31  32
ATOM     32  C   UNL A   1      42.544  24.731  28.363  1.00  0.00     0.031 A 
ATOM     33  C   UNL A   1      43.884  25.069  28.961  1.00  0.00     0.074 A 
ATOM     34  C   UNL A   1      41.535  25.623  28.426  1.00  0.00     0.049 A 
ATOM     35  N   UNL A   1      44.251  26.145  29.610  1.00  0.00    -0.248 NA
ATOM     36  C   UNL A   1      44.943  24.056  28.831  1.00  0.00     0.031 C 
ATOM     37  C   UNL A   1      40.181  25.411  27.910  1.00  0.00     0.029 A 
ATOM     38  N   UNL A   1      41.490  26.887  28.962  1.00  0.00    -0.354 N 
ATOM     39  C   UNL A   1      45.580  25.940  29.961  1.00  0.00     0.074 A 
ATOM     40  C   UNL A   1      45.934  24.610  29.513  1.00  0.00     0.031 C 
ATOM     41  C   UNL A   1      39.446  26.513  28.134  1.00  0.00     0.029 A 
ATOM     42  C   UNL A   1      40.259  27.491  28.850  1.00  0.00     0.049 A 
ATOM     43  H   UNL A   1      42.266  27.320  29.386  1.00  0.00     0.167 HD
ATOM     44  C   UNL A   1      46.438  26.790  30.574  1.00  0.00     0.037 A 
ATOM     45  C   UNL A   1      39.831  28.690  29.288  1.00  0.00     0.037 A 
ATOM     46  C   UNL A   1      46.090  28.115  31.016  1.00  0.00     0.049 A 
ATOM     47  C   UNL A   1      40.790  29.591  30.020  1.00  0.00     0.074 A 
ATOM     48  C   UNL A   1      46.894  29.057  31.636  1.00  0.00     0.029 A 
ATOM     49  N   UNL A   1      44.833  28.688  30.884  1.00  0.00    -0.354 N 
ATOM     50  N   UNL A   1      42.056  29.400  30.301  1.00  0.00    -0.248 NA
ATOM     51  C   UNL A   1      40.261  30.879  30.491  1.00  0.00     0.031 C 
ATOM     52  C   UNL A   1      46.114  30.183  31.916  1.00  0.00     0.029 A 
ATOM     53  C   UNL A   1      44.838  29.965  31.422  1.00  0.00     0.049 A 
ATOM     54  H   UNL A   1      44.055  28.252  30.469  1.00  0.00     0.167 HD
ATOM     55  C   UNL A   1      42.483  30.558  30.942  1.00  0.00     0.074 A 
ATOM     56  C   UNL A   1      41.345  31.450  30.995  1.00  0.00     0.031 C 
ATOM     57  C   UNL A   1      43.707  30.855  31.442  1.00  0.00     0.037 A 
BRANCH  44  58
ATOM     58  C   UNL A   1      47.849  26.321  30.786  1.00  0.00     0.057 A 
ATOM     59  C   UNL A   1      48.237  25.681  31.970  1.00  0.00     0.134 A 
ATOM     60  C   UNL A   1      48.815  26.460  29.782  1.00  0.00     0.134 A 
ATOM     61  F   UNL A   1      47.364  25.525  32.977  1.00  0.00    -0.206 F 
ATOM     62  C   UNL A   1      49.539  25.215  32.157  1.00  0.00     0.040 A 
ATOM     63  C   UNL A   1      50.113  25.972  29.944  1.00  0.00     0.040 A 
ATOM     64  F   UNL A   1      48.510  27.056  28.619  1.00  0.00    -0.206 F 
ATOM     65  C   UNL A   1      50.479  25.351  31.137  1.00  0.00     0.006 A 
ENDBRANCH  44  58
BRANCH  45  66
ATOM     66  C   UNL A   1      38.430  29.128  29.053  1.00  0.00     0.057 A 
ATOM     67  C   UNL A   1      38.030  29.635  27.810  1.00  0.00     0.134 A 
ATOM     68  C   UNL A   1      37.473  29.108  30.075  1.00  0.00     0.134 A 
ATOM     69  F   UNL A   1      38.904  29.700  26.795  1.00  0.00    -0.206 F 
ATOM     70  C   UNL A   1      36.745  30.143  27.604  1.00  0.00     0.040 A 
ATOM     71  C   UNL A   1      36.175  29.582  29.874  1.00  0.00     0.040 A 
ATOM     72  F   UNL A   1      37.786  28.627  31.288  1.00  0.00    -0.206 F 
ATOM     73  C   UNL A   1      35.813  30.116  28.639  1.00  0.00     0.006 A 
ENDBRANCH  45  66
BRANCH  57  74
ATOM     74  C   UNL A   1      43.898  32.222  32.034  1.00  0.00     0.057 A 
ATOM     75  C   UNL A   1      43.701  32.479  33.396  1.00  0.00     0.134 A 
ATOM     76  C   UNL A   1      44.321  33.289  31.229  1.00  0.00     0.134 A 
ATOM     77  F   UNL A   1      43.282  31.506  34.219  1.00  0.00    -0.206 F 
ATOM     78  C   UNL A   1      43.891  33.755  33.932  1.00  0.00     0.040 A 
ATOM     79  C   UNL A   1      44.545  34.559  31.759  1.00  0.00     0.040 A 
ATOM     80  F   UNL A   1      44.538  33.109  29.917  1.00  0.00    -0.206 F 
ATOM     81  C   UNL A   1      44.322  34.797  33.113  1.00  0.00     0.006 A 
ENDBRANCH  57  74
ENDBRANCH  31  32
ENDBRANCH  23  26
ENDBRANCH  21  22
ENDBRANCH   1  21
TORSDOF 12
ENDMDL
MODEL 2
REMARK VINA RESULT:      -9.3      0.327      6.368
REMARK SMILES Cc1ccsc1[C@@H]1[NH2+][C@@H](C(=O)NCCCCNC(=O)c2ccc(-c3c4nc(c(-c5c(F)cccc5F)c5ccc([nH]5)c(-c5c(F)cccc5F)c5nc(c(-c6c(F)cccc6F)c6ccc3[nH]6)C=C5)C=C4)cc2)CS1
REMARK SMILES IDX 15 1 14 2 13 3 12 4 10 5 11 6 9 8 7 9 8 10 75 11 74 14 6 15
REMARK SMILES IDX 1 16 2 17 3 18 4 19 5 20 16 21 17 22 18 23 19 25 20 26 21 27
REMARK SMILES IDX 73 28 22 29 72 30 23 31 24 32 25 33 66 34 26 35 71 36 65 37
REMARK SMILES IDX 67 38 27 39 70 40 64 41 63 42 28 44 54 45 37 46 53 47 38 48
REMARK SMILES IDX 41 49 52 50 68 51 39 52 40 53 51 55 69 56 42 57 29 58 30 59
REMARK SMILES IDX 35 60 31 61 32 62 34 63 36 64 33 65 55 66 56 67 61 68 57 69
REMARK SMILES IDX 58 70 60 71 62 72 59 73 43 74 44 75 49 76 45 77 46 78 48 79
REMARK SMILES IDX 50 80 47 81
REMARK H PARENT 12 7 8 12 8 13 17 24 67 43 41 54
REMARK Flexibility Score: inf
ROOT
ATOM      1  C   UNL A   1      44.863  19.144  24.645  1.00  0.00     0.023 C 
ENDROOT
BRANCH   1   2
ATOM      2  C   UNL A   1      45.971  20.204  24.540  1.00  0.00     0.023 C 
BRANCH   2   3
ATOM      3  C   UNL A   1      45.515  21.652  24.748  1.00  0.00     0.116 C 
BRANCH   3   4
ATOM      4  N   UNL A   1      46.424  22.565  24.091  1.00  0.00    -0.351 N 
ATOM      5  C   UNL A   1      46.692  23.881  24.287  1.00  0.00     0.279 C 
ATOM      6  O   UNL A   1      47.535  24.361  23.525  1.00  0.00    -0.268 OA
ATOM      7  H   UNL A   1      46.946  22.155  23.365  1.00  0.00     0.163 HD
BRANCH   5   8
ATOM      8  C   UNL A   1      46.047  24.683  25.445  1.00  0.00     0.283 C 
ATOM      9  C   UNL A   1      45.339  26.974  24.969  1.00  0.00     0.284 C 
ATOM     10  N   UNL A   1      44.911  25.561  25.009  1.00  0.00    -0.320 N 
ATOM     11  S   UNL A   1      47.137  27.027  25.138  1.00  0.00    -0.087 SA
ATOM     12  H   UNL A   1      44.605  25.276  24.079  1.00  0.00     0.348 HD
ATOM     13  H   UNL A   1      44.145  25.466  25.676  1.00  0.00     0.348 HD
ATOM     14  C   UNL A   1      47.128  25.520  26.130  1.00  0.00     0.151 C 
BRANCH   9  15
ATOM     15  C   UNL A   1      44.606  27.860  25.984  1.00  0.00     0.075 A 
ATOM     16  C   UNL A   1      42.136  27.413  25.363  1.00  0.00     0.046 C 
ATOM     17  C   UNL A   1      43.234  28.107  26.100  1.00  0.00    -0.030 A 
ATOM     18  C   UNL A   1      42.966  29.199  26.998  1.00  0.00     0.015 A 
ATOM     19  C   UNL A   1      44.095  29.679  27.610  1.00  0.00     0.065 A 
ATOM     20  S   UNL A   1      45.464  28.777  27.179  1.00  0.00    -0.141 S 
ENDBRANCH   9  15
ENDBRANCH   5   8
ENDBRANCH   3   4
ENDBRANCH   2   3
ENDBRANCH   1   2
BRANCH   1  21
ATOM     21  C   UNL A   1      43.952  19.258  25.863  1.00  0.00     0.116 C 
BRANCH  21  22
ATOM     22  N   UNL A   1      42.548  19.078  25.529  1.00  0.00    -0.352 N 
ATOM     23  C   UNL A   1      41.462  19.852  25.854  1.00  0.00     0.251 C 
ATOM     24  H   UNL A   1      42.346  18.281  24.987  1.00  0.00     0.163 HD
ATOM     25  O   UNL A   1      40.328  19.442  25.614  1.00  0.00    -0.269 OA
BRANCH  23  26
ATOM     26  C   UNL A   1      41.642  21.165  26.516  1.00  0.00     0.039 A 
ATOM     27  C   UNL A   1      41.432  21.258  27.894  1.00  0.00     0.014 A 
ATOM     28  C   UNL A   1      41.999  22.302  25.786  1.00  0.00     0.014 A 
ATOM     29  C   UNL A   1      41.647  22.472  28.551  1.00  0.00     0.010 A 
ATOM     30  C   UNL A   1      42.283  23.494  26.453  1.00  0.00     0.010 A 
ATOM     31  C   UNL A   1      42.113  23.591  27.843  1.00  0.00    -0.014 A 
BRANCH  31  32
ATOM     32  C   UNL A   1      42.429  24.870  28.537  1.00  0.00     0.031 A 
ATOM     33  C   UNL A   1      41.388  25.950  28.651  1.00  0.00     0.074 A 
ATOM     34  C   UNL A   1      43.670  25.079  29.021  1.00  0.00     0.049 A 
ATOM     35  N   UNL A   1      41.499  27.158  29.145  1.00  0.00    -0.248 NA
ATOM     36  C   UNL A   1      40.050  25.639  28.124  1.00  0.00     0.031 C 
ATOM     37  C   UNL A   1      44.781  24.126  28.951  1.00  0.00     0.029 A 
ATOM     38  N   UNL A   1      44.211  26.168  29.661  1.00  0.00    -0.354 N 
ATOM     39  C   UNL A   1      40.251  27.747  28.990  1.00  0.00     0.074 A 
ATOM     40  C   UNL A   1      39.416  26.790  28.296  1.00  0.00     0.031 C 
ATOM     41  C   UNL A   1      45.860  24.663  29.543  1.00  0.00     0.029 A 
ATOM     42  C   UNL A   1      45.537  26.013  29.993  1.00  0.00     0.049 A 
ATOM     43  H   UNL A   1      43.697  26.983  29.862  1.00  0.00     0.167 HD
ATOM     44  C   UNL A   1      39.826  28.962  29.411  1.00  0.00     0.037 A 
ATOM     45  C   UNL A   1      46.396  26.867  30.579  1.00  0.00     0.037 A 
ATOM     46  C   UNL A   1      40.653  29.915  30.105  1.00  0.00     0.049 A 
ATOM     47  C   UNL A   1      45.913  28.235  30.984  1.00  0.00     0.074 A 
ATOM     48  C   UNL A   1      40.310  31.167  30.585  1.00  0.00     0.029 A 
ATOM     49  N   UNL A   1      41.989  29.718  30.422  1.00  0.00    -0.354 N 
ATOM     50  N   UNL A   1      44.716  28.758  30.872  1.00  0.00    -0.248 NA
ATOM     51  C   UNL A   1      46.902  29.131  31.602  1.00  0.00     0.031 C 
ATOM     52  C   UNL A   1      41.448  31.747  31.154  1.00  0.00     0.029 A 
ATOM     53  C   UNL A   1      42.487  30.833  31.079  1.00  0.00     0.049 A 
ATOM     54  H   UNL A   1      42.506  28.908  30.212  1.00  0.00     0.167 HD
ATOM     55  C   UNL A   1      44.799  30.023  31.443  1.00  0.00     0.074 A 
ATOM     56  C   UNL A   1      46.158  30.183  31.912  1.00  0.00     0.031 C 
ATOM     57  C   UNL A   1      43.835  30.968  31.567  1.00  0.00     0.037 A 
BRANCH  44  58
ATOM     58  C   UNL A   1      38.393  29.327  29.151  1.00  0.00     0.057 A 
ATOM     59  C   UNL A   1      37.442  29.338  30.179  1.00  0.00     0.134 A 
ATOM     60  C   UNL A   1      37.969  29.724  27.877  1.00  0.00     0.134 A 
ATOM     61  F   UNL A   1      37.780  28.958  31.422  1.00  0.00    -0.206 F 
ATOM     62  C   UNL A   1      36.117  29.708  29.947  1.00  0.00     0.040 A 
ATOM     63  C   UNL A   1      36.653  30.125  27.637  1.00  0.00     0.040 A 
ATOM     64  F   UNL A   1      38.828  29.746  26.847  1.00  0.00    -0.206 F 
ATOM     65  C   UNL A   1      35.721  30.113  28.674  1.00  0.00     0.006 A 
ENDBRANCH  44  58
BRANCH  45  66
ATOM     66  C   UNL A   1      47.807  26.471  30.831  1.00  0.00     0.057 A 
ATOM     67  C   UNL A   1      48.802  26.687  29.869  1.00  0.00     0.134 A 
ATOM     68  C   UNL A   1      48.185  25.815  32.009  1.00  0.00     0.134 A 
ATOM     69  F   UNL A   1      48.500  27.292  28.711  1.00  0.00    -0.206 F 
ATOM     70  C   UNL A   1      50.109  26.230  30.050  1.00  0.00     0.040 A 
ATOM     71  C   UNL A   1      49.496  25.382  32.218  1.00  0.00     0.040 A 
ATOM     72  F   UNL A   1      47.285  25.583  32.976  1.00  0.00    -0.206 F 
ATOM     73  C   UNL A   1      50.459  25.575  31.229  1.00  0.00     0.006 A 
ENDBRANCH  45  66
BRANCH  57  74
ATOM     74  C   UNL A   1      44.197  32.232  32.291  1.00  0.00     0.057 A 
ATOM     75  C   UNL A   1      44.050  32.366  33.677  1.00  0.00     0.134 A 
ATOM     76  C   UNL A   1      44.734  33.321  31.590  1.00  0.00     0.134 A 
ATOM     77  F   UNL A   1      43.529  31.368  34.406  1.00  0.00    -0.206 F 
ATOM     78  C   UNL A   1      44.400  33.547  34.337  1.00  0.00     0.040 A 
ATOM     79  C   UNL A   1      45.116  34.493  32.242  1.00  0.00     0.040 A 
ATOM     80  F   UNL A   1      44.910  33.256  30.261  1.00  0.00    -0.206 F 
ATOM     81  C   UNL A   1      44.942  34.611  33.618  1.00  0.00     0.006 A 
ENDBRANCH  57  74
ENDBRANCH  31  32
ENDBRANCH  23  26
ENDBRANCH  21  22
ENDBRANCH   1  21
TORSDOF 12
ENDMDL
MODEL 3
REMARK VINA RESULT:      -9.1      4.285      6.447
REMARK SMILES Cc1ccsc1[C@@H]1[NH2+][C@@H](C(=O)NCCCCNC(=O)c2ccc(-c3c4nc(c(-c5c(F)cccc5F)c5ccc([nH]5)c(-c5c(F)cccc5F)c5nc(c(-c6c(F)cccc6F)c6ccc3[nH]6)C=C5)C=C4)cc2)CS1
REMARK SMILES IDX 15 1 14 2 13 3 12 4 10 5 11 6 9 8 7 9 8 10 75 11 74 14 6 15
REMARK SMILES IDX 1 16 2 17 3 18 4 19 5 20 16 21 17 22 18 23 19 25 20 26 21 27
REMARK SMILES IDX 73 28 22 29 72 30 23 31 24 32 25 33 66 34 26 35 71 36 65 37
REMARK SMILES IDX 67 38 27 39 70 40 64 41 63 42 28 44 54 45 37 46 53 47 38 48
REMARK SMILES IDX 41 49 52 50 68 51 39 52 40 53 51 55 69 56 42 57 29 58 30 59
REMARK SMILES IDX 35 60 31 61 32 62 34 63 36 64 33 65 55 66 56 67 61 68 57 69
REMARK SMILES IDX 58 70 60 71 62 72 59 73 43 74 44 75 49 76 45 77 46 78 48 79
REMARK SMILES IDX 50 80 47 81
REMARK H PARENT 12 7 8 12 8 13 17 24 67 43 41 54
REMARK Flexibility Score: inf
ROOT
ATOM      1  C   UNL A   1      37.806  19.566  24.830  1.00  0.00     0.023 C 
ENDROOT
BRANCH   1   2
ATOM      2  C   UNL A   1      36.469  20.306  24.996  1.00  0.00     0.023 C 
BRANCH   2   3
ATOM      3  C   UNL A   1      36.556  21.668  25.692  1.00  0.00     0.116 C 
BRANCH   3   4
ATOM      4  N   UNL A   1      35.529  21.781  26.704  1.00  0.00    -0.351 N 
ATOM      5  C   UNL A   1      34.464  22.613  26.831  1.00  0.00     0.279 C 
ATOM      6  O   UNL A   1      33.784  22.440  27.845  1.00  0.00    -0.268 OA
ATOM      7  H   UNL A   1      35.619  21.134  27.439  1.00  0.00     0.163 HD
BRANCH   5   8
ATOM      8  C   UNL A   1      34.091  23.638  25.730  1.00  0.00     0.283 C 
ATOM      9  C   UNL A   1      31.973  24.833  25.977  1.00  0.00     0.284 C 
ATOM     10  N   UNL A   1      33.422  24.872  26.259  1.00  0.00    -0.320 N 
ATOM     11  S   UNL A   1      31.550  23.171  25.409  1.00  0.00    -0.087 SA
ATOM     12  H   UNL A   1      33.567  24.926  27.267  1.00  0.00     0.348 HD
ATOM     13  H   UNL A   1      33.826  25.689  25.801  1.00  0.00     0.348 HD
ATOM     14  C   UNL A   1      33.194  22.953  24.699  1.00  0.00     0.151 C 
BRANCH   9  15
ATOM     15  C   UNL A   1      31.510  25.939  25.020  1.00  0.00     0.075 A 
ATOM     16  C   UNL A   1      31.784  28.042  26.498  1.00  0.00     0.046 C 
ATOM     17  C   UNL A   1      31.356  27.306  25.272  1.00  0.00    -0.030 A 
ATOM     18  C   UNL A   1      30.647  27.965  24.207  1.00  0.00     0.015 A 
ATOM     19  C   UNL A   1      30.376  27.135  23.150  1.00  0.00     0.065 A 
ATOM     20  S   UNL A   1      31.036  25.592  23.388  1.00  0.00    -0.141 S 
ENDBRANCH   9  15
ENDBRANCH   5   8
ENDBRANCH   3   4
ENDBRANCH   2   3
ENDBRANCH   1   2
BRANCH   1  21
ATOM     21  C   UNL A   1      38.938  20.033  25.741  1.00  0.00     0.116 C 
BRANCH  21  22
ATOM     22  N   UNL A   1      40.023  19.068  25.821  1.00  0.00    -0.352 N 
ATOM     23  C   UNL A   1      41.363  19.271  26.037  1.00  0.00     0.251 C 
ATOM     24  H   UNL A   1      39.756  18.128  25.702  1.00  0.00     0.163 HD
ATOM     25  O   UNL A   1      42.150  18.334  25.905  1.00  0.00    -0.269 OA
BRANCH  23  26
ATOM     26  C   UNL A   1      41.875  20.612  26.399  1.00  0.00     0.039 A 
ATOM     27  C   UNL A   1      42.255  21.487  25.378  1.00  0.00     0.014 A 
ATOM     28  C   UNL A   1      41.997  21.005  27.735  1.00  0.00     0.014 A 
ATOM     29  C   UNL A   1      42.690  22.777  25.692  1.00  0.00     0.010 A 
ATOM     30  C   UNL A   1      42.362  22.315  28.043  1.00  0.00     0.010 A 
ATOM     31  C   UNL A   1      42.710  23.217  27.025  1.00  0.00    -0.014 A 
BRANCH  31  32
ATOM     32  C   UNL A   1      43.089  24.613  27.374  1.00  0.00     0.031 A 
ATOM     33  C   UNL A   1      44.533  25.039  27.344  1.00  0.00     0.074 A 
ATOM     34  C   UNL A   1      42.139  25.486  27.766  1.00  0.00     0.049 A 
ATOM     35  N   UNL A   1      45.065  26.183  27.692  1.00  0.00    -0.248 NA
ATOM     36  C   UNL A   1      45.508  24.040  26.880  1.00  0.00     0.031 C 
ATOM     37  C   UNL A   1      40.707  25.195  27.867  1.00  0.00     0.029 A 
ATOM     38  N   UNL A   1      42.237  26.797  28.165  1.00  0.00    -0.354 N 
ATOM     39  C   UNL A   1      46.432  26.043  27.487  1.00  0.00     0.074 A 
ATOM     40  C   UNL A   1      46.655  24.682  27.048  1.00  0.00     0.031 C 
ATOM     41  C   UNL A   1      40.061  26.298  28.277  1.00  0.00     0.029 A 
ATOM     42  C   UNL A   1      41.032  27.361  28.513  1.00  0.00     0.049 A 
ATOM     43  H   UNL A   1      43.090  27.287  28.198  1.00  0.00     0.167 HD
ATOM     44  C   UNL A   1      47.411  26.969  27.623  1.00  0.00     0.037 A 
ATOM     45  C   UNL A   1      40.745  28.589  28.984  1.00  0.00     0.037 A 
ATOM     46  C   UNL A   1      47.192  28.325  28.054  1.00  0.00     0.049 A 
ATOM     47  C   UNL A   1      41.862  29.580  29.182  1.00  0.00     0.074 A 
ATOM     48  C   UNL A   1      48.118  29.341  28.210  1.00  0.00     0.029 A 
ATOM     49  N   UNL A   1      45.956  28.854  28.397  1.00  0.00    -0.354 N 
ATOM     50  N   UNL A   1      43.143  29.446  28.938  1.00  0.00    -0.248 NA
ATOM     51  C   UNL A   1      41.490  30.898  29.717  1.00  0.00     0.031 C 
ATOM     52  C   UNL A   1      47.452  30.474  28.687  1.00  0.00     0.029 A 
ATOM     53  C   UNL A   1      46.100  30.180  28.776  1.00  0.00     0.049 A 
ATOM     54  H   UNL A   1      45.105  28.362  28.374  1.00  0.00     0.167 HD
ATOM     55  C   UNL A   1      43.720  30.671  29.249  1.00  0.00     0.074 A 
ATOM     56  C   UNL A   1      42.649  31.540  29.685  1.00  0.00     0.031 C 
ATOM     57  C   UNL A   1      45.022  31.043  29.180  1.00  0.00     0.037 A 
BRANCH  44  58
ATOM     58  C   UNL A   1      48.813  26.554  27.281  1.00  0.00     0.057 A 
ATOM     59  C   UNL A   1      49.673  26.014  28.246  1.00  0.00     0.134 A 
ATOM     60  C   UNL A   1      49.293  26.641  25.968  1.00  0.00     0.134 A 
ATOM     61  F   UNL A   1      49.280  25.911  29.525  1.00  0.00    -0.206 F 
ATOM     62  C   UNL A   1      50.965  25.597  27.925  1.00  0.00     0.040 A 
ATOM     63  C   UNL A   1      50.573  26.200  25.627  1.00  0.00     0.040 A 
ATOM     64  F   UNL A   1      48.520  27.141  24.991  1.00  0.00    -0.206 F 
ATOM     65  C   UNL A   1      51.415  25.681  26.608  1.00  0.00     0.006 A 
ENDBRANCH  44  58
BRANCH  45  66
ATOM     66  C   UNL A   1      39.344  28.972  29.304  1.00  0.00     0.057 A 
ATOM     67  C   UNL A   1      38.818  28.782  30.587  1.00  0.00     0.134 A 
ATOM     68  C   UNL A   1      38.481  29.478  28.325  1.00  0.00     0.134 A 
ATOM     69  F   UNL A   1      39.587  28.281  31.566  1.00  0.00    -0.206 F 
ATOM     70  C   UNL A   1      37.476  29.042  30.877  1.00  0.00     0.040 A 
ATOM     71  C   UNL A   1      37.146  29.774  28.607  1.00  0.00     0.040 A 
ATOM     72  F   UNL A   1      38.921  29.692  27.076  1.00  0.00    -0.206 F 
ATOM     73  C   UNL A   1      36.636  29.541  29.883  1.00  0.00     0.006 A 
ENDBRANCH  45  66
BRANCH  57  74
ATOM     74  C   UNL A   1      45.352  32.467  29.523  1.00  0.00     0.057 A 
ATOM     75  C   UNL A   1      45.734  32.854  30.814  1.00  0.00     0.134 A 
ATOM     76  C   UNL A   1      45.320  33.460  28.534  1.00  0.00     0.134 A 
ATOM     77  F   UNL A   1      45.771  31.956  31.810  1.00  0.00    -0.206 F 
ATOM     78  C   UNL A   1      46.046  34.181  31.116  1.00  0.00     0.040 A 
ATOM     79  C   UNL A   1      45.660  34.783  28.817  1.00  0.00     0.040 A 
ATOM     80  F   UNL A   1      44.972  33.156  27.275  1.00  0.00    -0.206 F 
ATOM     81  C   UNL A   1      46.017  35.148  30.112  1.00  0.00     0.006 A 
ENDBRANCH  57  74
ENDBRANCH  31  32
ENDBRANCH  23  26
ENDBRANCH  21  22
ENDBRANCH   1  21
TORSDOF 12
ENDMDL
