MODEL 1
REMARK VINA RESULT:     -13.2      0.000      0.000
REMARK SMILES CC1(C)Oc2ccc(NC(=O)[C@H]3CC=CC[C@@H]3C(=O)NCCCCNC(=O)c3ccc(-c4c5nc(c(-c6c(F)cccc6F)c6ccc([nH]6)c(-c6c(F)cccc6F)c6nc(c(-c7c(F)cccc7F)c7ccc4[nH]7)C=C6)C=C5)cc3)cc2NC1=O
REMARK SMILES IDX 22 1 21 2 20 3 18 4 19 5 17 7 12 8 13 9 14 10 16 11 15 12
REMARK SMILES IDX 10 13 9 14 11 16 8 17 1 18 2 19 3 20 4 21 85 22 5 23 84 24
REMARK SMILES IDX 86 25 6 26 83 27 7 29 82 30 23 31 24 32 25 33 26 34 27 36
REMARK SMILES IDX 28 37 29 38 81 39 30 40 80 41 31 42 32 43 33 44 74 45 34 46
REMARK SMILES IDX 79 47 73 48 75 49 35 50 78 51 72 52 71 53 36 55 62 56 45 57
REMARK SMILES IDX 61 58 46 59 49 60 60 61 76 62 47 63 48 64 59 66 77 67 50 68
REMARK SMILES IDX 37 69 38 70 43 71 39 72 40 73 42 74 44 75 41 76 63 77 64 78
REMARK SMILES IDX 69 79 65 80 66 81 68 82 70 83 67 84 51 85 52 86 57 87 53 88
REMARK SMILES IDX 54 89 56 90 58 91 55 92
REMARK H PARENT 20 6 9 15 84 28 25 35 75 54 49 65
REMARK Flexibility Score: inf
ROOT
ATOM      1  C   UNL A   1      31.838  27.526  26.143  1.00  0.00     0.023 C 
ENDROOT
BRANCH   1   2
ATOM      2  C   UNL A   1      30.702  26.535  26.377  1.00  0.00     0.116 C 
BRANCH   2   3
ATOM      3  N   UNL A   1      31.186  25.276  26.912  1.00  0.00    -0.356 N 
ATOM      4  C   UNL A   1      32.000  24.278  26.492  1.00  0.00     0.224 C 
ATOM      5  O   UNL A   1      32.091  23.345  27.303  1.00  0.00    -0.275 OA
ATOM      6  H   UNL A   1      30.830  25.102  27.814  1.00  0.00     0.163 HD
BRANCH   4   7
ATOM      7  C   UNL A   1      32.888  24.298  25.230  1.00  0.00     0.095 C 
ATOM      8  C   UNL A   1      32.259  23.848  23.899  1.00  0.00     0.095 C 
ATOM      9  C   UNL A   1      32.051  22.315  23.848  1.00  0.00     0.041 C 
ATOM     10  C   UNL A   1      33.041  21.492  24.615  1.00  0.00    -0.030 C 
ATOM     11  C   UNL A   1      34.194  23.506  25.500  1.00  0.00     0.041 C 
ATOM     12  C   UNL A   1      34.022  22.027  25.351  1.00  0.00    -0.030 C 
BRANCH   8  13
ATOM     13  C   UNL A   1      33.069  24.342  22.697  1.00  0.00     0.228 C 
ATOM     14  N   UNL A   1      32.888  25.570  22.120  1.00  0.00    -0.326 N 
ATOM     15  H   UNL A   1      33.375  25.648  21.268  1.00  0.00     0.169 HD
ATOM     16  O   UNL A   1      33.895  23.607  22.144  1.00  0.00    -0.274 OA
BRANCH  14  17
ATOM     17  C   UNL A   1      32.185  26.752  22.428  1.00  0.00     0.043 A 
ATOM     18  C   UNL A   1      27.869  31.254  23.661  1.00  0.00     0.067 C 
ATOM     19  C   UNL A   1      28.548  30.137  22.863  1.00  0.00     0.182 C 
ATOM     20  C   UNL A   1      28.420  30.444  21.362  1.00  0.00     0.067 C 
ATOM     21  O   UNL A   1      29.935  30.192  23.210  1.00  0.00    -0.476 OA
ATOM     22  C   UNL A   1      27.841  28.790  23.156  1.00  0.00     0.268 C 
ATOM     23  C   UNL A   1      30.619  29.039  22.949  1.00  0.00     0.144 A 
ATOM     24  N   UNL A   1      28.638  27.678  23.033  1.00  0.00    -0.319 N 
ATOM     25  O   UNL A   1      26.639  28.677  23.382  1.00  0.00    -0.270 OA
ATOM     26  C   UNL A   1      31.987  29.156  22.788  1.00  0.00     0.051 A 
ATOM     27  C   UNL A   1      30.019  27.786  22.858  1.00  0.00     0.086 A 
ATOM     28  H   UNL A   1      28.226  26.785  23.069  1.00  0.00     0.170 HD
ATOM     29  C   UNL A   1      32.749  28.020  22.505  1.00  0.00     0.030 A 
ATOM     30  C   UNL A   1      30.795  26.646  22.608  1.00  0.00     0.056 A 
ENDBRANCH  14  17
ENDBRANCH   8  13
ENDBRANCH   4   7
ENDBRANCH   2   3
ENDBRANCH   1   2
BRANCH   1  31
ATOM     31  C   UNL A   1      32.252  28.306  27.387  1.00  0.00     0.023 C 
BRANCH  31  32
ATOM     32  C   UNL A   1      33.620  28.972  27.306  1.00  0.00     0.116 C 
BRANCH  32  33
ATOM     33  N   UNL A   1      33.685  30.286  27.934  1.00  0.00    -0.352 N 
ATOM     34  C   UNL A   1      34.778  30.883  28.526  1.00  0.00     0.251 C 
ATOM     35  H   UNL A   1      32.849  30.807  27.938  1.00  0.00     0.163 HD
ATOM     36  O   UNL A   1      34.688  31.967  29.080  1.00  0.00    -0.269 OA
BRANCH  34  37
ATOM     37  C   UNL A   1      36.055  30.143  28.517  1.00  0.00     0.039 A 
ATOM     38  C   UNL A   1      36.470  29.466  29.665  1.00  0.00     0.014 A 
ATOM     39  C   UNL A   1      36.896  30.257  27.409  1.00  0.00     0.014 A 
ATOM     40  C   UNL A   1      37.795  29.069  29.776  1.00  0.00     0.010 A 
ATOM     41  C   UNL A   1      38.206  29.777  27.493  1.00  0.00     0.010 A 
ATOM     42  C   UNL A   1      38.683  29.239  28.698  1.00  0.00    -0.014 A 
BRANCH  42  43
ATOM     43  C   UNL A   1      40.111  28.876  28.876  1.00  0.00     0.031 A 
ATOM     44  C   UNL A   1      41.056  29.798  29.599  1.00  0.00     0.074 A 
ATOM     45  C   UNL A   1      40.536  27.672  28.449  1.00  0.00     0.049 A 
ATOM     46  N   UNL A   1      42.330  29.634  29.859  1.00  0.00    -0.248 NA
ATOM     47  C   UNL A   1      40.507  31.072  30.090  1.00  0.00     0.031 C 
ATOM     48  C   UNL A   1      39.708  26.686  27.752  1.00  0.00     0.029 A 
ATOM     49  N   UNL A   1      41.756  27.061  28.568  1.00  0.00    -0.354 N 
ATOM     50  C   UNL A   1      42.739  30.789  30.514  1.00  0.00     0.074 A 
ATOM     51  C   UNL A   1      41.583  31.656  30.600  1.00  0.00     0.031 C 
ATOM     52  C   UNL A   1      40.426  25.569  27.560  1.00  0.00     0.029 A 
ATOM     53  C   UNL A   1      41.778  25.785  28.062  1.00  0.00     0.049 A 
ATOM     54  H   UNL A   1      42.540  27.495  28.976  1.00  0.00     0.167 HD
ATOM     55  C   UNL A   1      43.963  31.097  31.004  1.00  0.00     0.037 A 
ATOM     56  C   UNL A   1      42.781  24.890  27.999  1.00  0.00     0.037 A 
ATOM     57  C   UNL A   1      45.105  30.220  30.950  1.00  0.00     0.049 A 
ATOM     58  C   UNL A   1      44.130  25.264  28.533  1.00  0.00     0.074 A 
ATOM     59  C   UNL A   1      46.383  30.434  31.438  1.00  0.00     0.029 A 
ATOM     60  N   UNL A   1      45.101  28.957  30.379  1.00  0.00    -0.354 N 
ATOM     61  N   UNL A   1      44.503  26.367  29.133  1.00  0.00    -0.248 NA
ATOM     62  C   UNL A   1      45.202  24.274  28.364  1.00  0.00     0.031 C 
ATOM     63  C   UNL A   1      47.161  29.308  31.136  1.00  0.00     0.029 A 
ATOM     64  C   UNL A   1      46.359  28.384  30.488  1.00  0.00     0.049 A 
ATOM     65  H   UNL A   1      44.321  28.530  29.957  1.00  0.00     0.167 HD
ATOM     66  C   UNL A   1      45.853  26.206  29.414  1.00  0.00     0.074 A 
ATOM     67  C   UNL A   1      46.225  24.887  28.942  1.00  0.00     0.031 C 
ATOM     68  C   UNL A   1      46.709  27.076  30.001  1.00  0.00     0.037 A 
BRANCH  55  69
ATOM     69  C   UNL A   1      44.140  32.450  31.629  1.00  0.00     0.057 A 
ATOM     70  C   UNL A   1      44.480  33.557  30.841  1.00  0.00     0.134 A 
ATOM     71  C   UNL A   1      44.010  32.652  33.008  1.00  0.00     0.134 A 
ATOM     72  F   UNL A   1      44.625  33.431  29.513  1.00  0.00    -0.206 F 
ATOM     73  C   UNL A   1      44.686  34.818  31.405  1.00  0.00     0.040 A 
ATOM     74  C   UNL A   1      44.194  33.911  33.581  1.00  0.00     0.040 A 
ATOM     75  F   UNL A   1      43.670  31.635  33.814  1.00  0.00    -0.206 F 
ATOM     76  C   UNL A   1      44.539  34.998  32.778  1.00  0.00     0.006 A 
ENDBRANCH  55  69
BRANCH  56  77
ATOM     77  C   UNL A   1      42.540  23.560  27.393  1.00  0.00     0.057 A 
ATOM     78  C   UNL A   1      42.175  22.458  28.176  1.00  0.00     0.134 A 
ATOM     79  C   UNL A   1      42.685  23.357  26.017  1.00  0.00     0.134 A 
ATOM     80  F   UNL A   1      42.027  22.590  29.503  1.00  0.00    -0.206 F 
ATOM     81  C   UNL A   1      41.978  21.197  27.614  1.00  0.00     0.040 A 
ATOM     82  C   UNL A   1      42.469  22.106  25.438  1.00  0.00     0.040 A 
ATOM     83  F   UNL A   1      43.017  24.380  25.215  1.00  0.00    -0.206 F 
ATOM     84  C   UNL A   1      42.121  21.020  26.240  1.00  0.00     0.006 A 
ENDBRANCH  56  77
BRANCH  68  85
ATOM     85  C   UNL A   1      48.125  26.616  30.163  1.00  0.00     0.057 A 
ATOM     86  C   UNL A   1      48.523  25.904  31.301  1.00  0.00     0.134 A 
ATOM     87  C   UNL A   1      49.095  26.881  29.188  1.00  0.00     0.134 A 
ATOM     88  F   UNL A   1      47.640  25.621  32.270  1.00  0.00    -0.206 F 
ATOM     89  C   UNL A   1      49.838  25.468  31.461  1.00  0.00     0.040 A 
ATOM     90  C   UNL A   1      50.409  26.434  29.329  1.00  0.00     0.040 A 
ATOM     91  F   UNL A   1      48.769  27.545  28.069  1.00  0.00    -0.206 F 
ATOM     92  C   UNL A   1      50.783  25.727  30.471  1.00  0.00     0.006 A 
ENDBRANCH  68  85
ENDBRANCH  42  43
ENDBRANCH  34  37
ENDBRANCH  32  33
ENDBRANCH  31  32
ENDBRANCH   1  31
TORSDOF 13
ENDMDL
MODEL 2
REMARK VINA RESULT:     -13.2      2.362      3.576
REMARK SMILES CC1(C)Oc2ccc(NC(=O)[C@H]3CC=CC[C@@H]3C(=O)NCCCCNC(=O)c3ccc(-c4c5nc(c(-c6c(F)cccc6F)c6ccc([nH]6)c(-c6c(F)cccc6F)c6nc(c(-c7c(F)cccc7F)c7ccc4[nH]7)C=C6)C=C5)cc3)cc2NC1=O
REMARK SMILES IDX 22 1 21 2 20 3 18 4 19 5 17 7 12 8 13 9 14 10 16 11 15 12
REMARK SMILES IDX 10 13 9 14 11 16 8 17 1 18 2 19 3 20 4 21 85 22 5 23 84 24
REMARK SMILES IDX 86 25 6 26 83 27 7 29 82 30 23 31 24 32 25 33 26 34 27 36
REMARK SMILES IDX 28 37 29 38 81 39 30 40 80 41 31 42 32 43 33 44 74 45 34 46
REMARK SMILES IDX 79 47 73 48 75 49 35 50 78 51 72 52 71 53 36 55 62 56 45 57
REMARK SMILES IDX 61 58 46 59 49 60 60 61 76 62 47 63 48 64 59 66 77 67 50 68
REMARK SMILES IDX 37 69 38 70 43 71 39 72 40 73 42 74 44 75 41 76 63 77 64 78
REMARK SMILES IDX 69 79 65 80 66 81 68 82 70 83 67 84 51 85 52 86 57 87 53 88
REMARK SMILES IDX 54 89 56 90 58 91 55 92
REMARK H PARENT 20 6 9 15 84 28 25 35 75 54 49 65
REMARK Flexibility Score: inf
ROOT
ATOM      1  C   UNL A   1      32.269  28.587  26.907  1.00  0.00     0.023 C 
ENDROOT
BRANCH   1   2
ATOM      2  C   UNL A   1      31.131  27.628  26.576  1.00  0.00     0.116 C 
BRANCH   2   3
ATOM      3  N   UNL A   1      31.466  26.257  26.911  1.00  0.00    -0.356 N 
ATOM      4  C   UNL A   1      32.102  25.225  26.305  1.00  0.00     0.224 C 
ATOM      5  O   UNL A   1      32.113  24.189  26.985  1.00  0.00    -0.275 OA
ATOM      6  H   UNL A   1      31.149  26.012  27.810  1.00  0.00     0.163 HD
BRANCH   4   7
ATOM      7  C   UNL A   1      32.900  25.296  24.985  1.00  0.00     0.095 C 
ATOM      8  C   UNL A   1      32.726  24.148  23.976  1.00  0.00     0.095 C 
ATOM      9  C   UNL A   1      33.431  22.852  24.447  1.00  0.00     0.041 C 
ATOM     10  C   UNL A   1      34.660  23.041  25.281  1.00  0.00    -0.030 C 
ATOM     11  C   UNL A   1      34.404  25.511  25.299  1.00  0.00     0.041 C 
ATOM     12  C   UNL A   1      35.114  24.243  25.655  1.00  0.00    -0.030 C 
BRANCH   8  13
ATOM     13  C   UNL A   1      33.186  24.556  22.573  1.00  0.00     0.228 C 
ATOM     14  N   UNL A   1      32.776  25.703  21.949  1.00  0.00    -0.326 N 
ATOM     15  H   UNL A   1      33.040  25.717  21.001  1.00  0.00     0.169 HD
ATOM     16  O   UNL A   1      33.915  23.813  21.905  1.00  0.00    -0.274 OA
BRANCH  14  17
ATOM     17  C   UNL A   1      32.073  26.869  22.311  1.00  0.00     0.043 A 
ATOM     18  C   UNL A   1      27.757  31.314  23.740  1.00  0.00     0.067 C 
ATOM     19  C   UNL A   1      28.439  30.235  22.892  1.00  0.00     0.182 C 
ATOM     20  C   UNL A   1      28.321  30.617  21.407  1.00  0.00     0.067 C 
ATOM     21  O   UNL A   1      29.824  30.271  23.249  1.00  0.00    -0.476 OA
ATOM     22  C   UNL A   1      27.728  28.877  23.113  1.00  0.00     0.268 C 
ATOM     23  C   UNL A   1      30.508  29.130  22.935  1.00  0.00     0.144 A 
ATOM     24  N   UNL A   1      28.524  27.771  22.940  1.00  0.00    -0.319 N 
ATOM     25  O   UNL A   1      26.524  28.756  23.326  1.00  0.00    -0.270 OA
ATOM     26  C   UNL A   1      31.877  29.253  22.789  1.00  0.00     0.051 A 
ATOM     27  C   UNL A   1      29.906  27.885  22.779  1.00  0.00     0.086 A 
ATOM     28  H   UNL A   1      28.111  26.878  22.930  1.00  0.00     0.170 HD
ATOM     29  C   UNL A   1      32.639  28.132  22.454  1.00  0.00     0.030 A 
ATOM     30  C   UNL A   1      30.682  26.757  22.477  1.00  0.00     0.056 A 
ENDBRANCH  14  17
ENDBRANCH   8  13
ENDBRANCH   4   7
ENDBRANCH   2   3
ENDBRANCH   1   2
BRANCH   1  31
ATOM     31  C   UNL A   1      31.969  30.048  26.584  1.00  0.00     0.023 C 
BRANCH  31  32
ATOM     32  C   UNL A   1      32.904  31.059  27.235  1.00  0.00     0.116 C 
BRANCH  32  33
ATOM     33  N   UNL A   1      32.360  32.408  27.322  1.00  0.00    -0.352 N 
ATOM     34  C   UNL A   1      32.922  33.504  27.943  1.00  0.00     0.251 C 
ATOM     35  H   UNL A   1      31.489  32.554  26.887  1.00  0.00     0.163 HD
ATOM     36  O   UNL A   1      32.332  34.571  28.003  1.00  0.00    -0.269 OA
BRANCH  34  37
ATOM     37  C   UNL A   1      34.239  33.332  28.584  1.00  0.00     0.039 A 
ATOM     38  C   UNL A   1      35.398  33.680  27.889  1.00  0.00     0.014 A 
ATOM     39  C   UNL A   1      34.312  32.686  29.819  1.00  0.00     0.014 A 
ATOM     40  C   UNL A   1      36.624  33.211  28.338  1.00  0.00     0.010 A 
ATOM     41  C   UNL A   1      35.558  32.290  30.312  1.00  0.00     0.010 A 
ATOM     42  C   UNL A   1      36.715  32.493  29.543  1.00  0.00    -0.014 A 
BRANCH  42  43
ATOM     43  C   UNL A   1      38.029  31.937  29.955  1.00  0.00     0.031 A 
ATOM     44  C   UNL A   1      38.845  32.605  31.029  1.00  0.00     0.074 A 
ATOM     45  C   UNL A   1      38.448  30.780  29.410  1.00  0.00     0.049 A 
ATOM     46  N   UNL A   1      40.005  32.248  31.525  1.00  0.00    -0.248 NA
ATOM     47  C   UNL A   1      38.296  33.835  31.623  1.00  0.00     0.031 C 
ATOM     48  C   UNL A   1      37.734  30.031  28.373  1.00  0.00     0.029 A 
ATOM     49  N   UNL A   1      39.553  30.016  29.673  1.00  0.00    -0.354 N 
ATOM     50  C   UNL A   1      40.336  33.220  32.461  1.00  0.00     0.074 A 
ATOM     51  C   UNL A   1      39.264  34.192  32.457  1.00  0.00     0.031 C 
ATOM     52  C   UNL A   1      38.387  28.885  28.133  1.00  0.00     0.029 A 
ATOM     53  C   UNL A   1      39.595  28.850  28.949  1.00  0.00     0.049 A 
ATOM     54  H   UNL A   1      40.250  30.278  30.317  1.00  0.00     0.167 HD
ATOM     55  C   UNL A   1      41.431  33.293  33.256  1.00  0.00     0.037 A 
ATOM     56  C   UNL A   1      40.511  27.865  28.936  1.00  0.00     0.037 A 
ATOM     57  C   UNL A   1      42.481  32.307  33.286  1.00  0.00     0.049 A 
ATOM     58  C   UNL A   1      41.721  27.980  29.814  1.00  0.00     0.074 A 
ATOM     59  C   UNL A   1      43.620  32.281  34.072  1.00  0.00     0.029 A 
ATOM     60  N   UNL A   1      42.514  31.168  32.497  1.00  0.00    -0.354 N 
ATOM     61  N   UNL A   1      42.026  28.914  30.680  1.00  0.00    -0.248 NA
ATOM     62  C   UNL A   1      42.722  26.912  29.696  1.00  0.00     0.031 C 
ATOM     63  C   UNL A   1      44.357  31.138  33.738  1.00  0.00     0.029 A 
ATOM     64  C   UNL A   1      43.661  30.438  32.766  1.00  0.00     0.049 A 
ATOM     65  H   UNL A   1      41.825  30.913  31.841  1.00  0.00     0.167 HD
ATOM     66  C   UNL A   1      43.255  28.548  31.212  1.00  0.00     0.074 A 
ATOM     67  C   UNL A   1      43.624  27.292  30.590  1.00  0.00     0.031 C 
ATOM     68  C   UNL A   1      44.014  29.198  32.127  1.00  0.00     0.037 A 
BRANCH  55  69
ATOM     69  C   UNL A   1      41.559  34.490  34.151  1.00  0.00     0.057 A 
ATOM     70  C   UNL A   1      40.998  34.481  35.434  1.00  0.00     0.134 A 
ATOM     71  C   UNL A   1      42.204  35.660  33.735  1.00  0.00     0.134 A 
ATOM     72  F   UNL A   1      40.362  33.392  35.893  1.00  0.00    -0.206 F 
ATOM     73  C   UNL A   1      41.072  35.596  36.271  1.00  0.00     0.040 A 
ATOM     74  C   UNL A   1      42.302  36.775  34.570  1.00  0.00     0.040 A 
ATOM     75  F   UNL A   1      42.776  35.727  32.523  1.00  0.00    -0.206 F 
ATOM     76  C   UNL A   1      41.729  36.746  35.841  1.00  0.00     0.006 A 
ENDBRANCH  55  69
BRANCH  56  77
ATOM     77  C   UNL A   1      40.318  26.694  28.051  1.00  0.00     0.057 A 
ATOM     78  C   UNL A   1      40.910  26.633  26.784  1.00  0.00     0.134 A 
ATOM     79  C   UNL A   1      39.522  25.614  28.447  1.00  0.00     0.134 A 
ATOM     80  F   UNL A   1      41.678  27.642  26.347  1.00  0.00    -0.206 F 
ATOM     81  C   UNL A   1      40.705  25.546  25.934  1.00  0.00     0.040 A 
ATOM     82  C   UNL A   1      39.327  24.510  27.617  1.00  0.00     0.040 A 
ATOM     83  F   UNL A   1      38.943  25.610  29.657  1.00  0.00    -0.206 F 
ATOM     84  C   UNL A   1      39.915  24.478  26.353  1.00  0.00     0.006 A 
ENDBRANCH  56  77
BRANCH  68  85
ATOM     85  C   UNL A   1      45.311  28.551  32.503  1.00  0.00     0.057 A 
ATOM     86  C   UNL A   1      45.372  27.616  33.543  1.00  0.00     0.134 A 
ATOM     87  C   UNL A   1      46.501  28.859  31.832  1.00  0.00     0.134 A 
ATOM     88  F   UNL A   1      44.267  27.283  34.224  1.00  0.00    -0.206 F 
ATOM     89  C   UNL A   1      46.574  27.005  33.900  1.00  0.00     0.040 A 
ATOM     90  C   UNL A   1      47.706  28.240  32.168  1.00  0.00     0.040 A 
ATOM     91  F   UNL A   1      46.501  29.735  30.816  1.00  0.00    -0.206 F 
ATOM     92  C   UNL A   1      47.744  27.312  33.207  1.00  0.00     0.006 A 
ENDBRANCH  68  85
ENDBRANCH  42  43
ENDBRANCH  34  37
ENDBRANCH  32  33
ENDBRANCH  31  32
ENDBRANCH   1  31
TORSDOF 13
ENDMDL
MODEL 3
REMARK VINA RESULT:     -13.1      3.061      4.127
REMARK SMILES CC1(C)Oc2ccc(NC(=O)[C@H]3CC=CC[C@@H]3C(=O)NCCCCNC(=O)c3ccc(-c4c5nc(c(-c6c(F)cccc6F)c6ccc([nH]6)c(-c6c(F)cccc6F)c6nc(c(-c7c(F)cccc7F)c7ccc4[nH]7)C=C6)C=C5)cc3)cc2NC1=O
REMARK SMILES IDX 22 1 21 2 20 3 18 4 19 5 17 7 12 8 13 9 14 10 16 11 15 12
REMARK SMILES IDX 10 13 9 14 11 16 8 17 1 18 2 19 3 20 4 21 85 22 5 23 84 24
REMARK SMILES IDX 86 25 6 26 83 27 7 29 82 30 23 31 24 32 25 33 26 34 27 36
REMARK SMILES IDX 28 37 29 38 81 39 30 40 80 41 31 42 32 43 33 44 74 45 34 46
REMARK SMILES IDX 79 47 73 48 75 49 35 50 78 51 72 52 71 53 36 55 62 56 45 57
REMARK SMILES IDX 61 58 46 59 49 60 60 61 76 62 47 63 48 64 59 66 77 67 50 68
REMARK SMILES IDX 37 69 38 70 43 71 39 72 40 73 42 74 44 75 41 76 63 77 64 78
REMARK SMILES IDX 69 79 65 80 66 81 68 82 70 83 67 84 51 85 52 86 57 87 53 88
REMARK SMILES IDX 54 89 56 90 58 91 55 92
REMARK H PARENT 20 6 9 15 84 28 25 35 75 54 49 65
REMARK Flexibility Score: inf
ROOT
ATOM      1  C   UNL A   1      32.004  28.122  26.921  1.00  0.00     0.023 C 
ENDROOT
BRANCH   1   2
ATOM      2  C   UNL A   1      31.015  27.059  26.454  1.00  0.00     0.116 C 
BRANCH   2   3
ATOM      3  N   UNL A   1      31.412  25.730  26.877  1.00  0.00    -0.356 N 
ATOM      4  C   UNL A   1      32.126  24.704  26.351  1.00  0.00     0.224 C 
ATOM      5  O   UNL A   1      32.169  23.709  27.088  1.00  0.00    -0.275 OA
ATOM      6  H   UNL A   1      31.077  25.517  27.777  1.00  0.00     0.163 HD
BRANCH   4   7
ATOM      7  C   UNL A   1      32.967  24.749  25.057  1.00  0.00     0.095 C 
ATOM      8  C   UNL A   1      32.631  23.740  23.945  1.00  0.00     0.095 C 
ATOM      9  C   UNL A   1      33.088  22.306  24.309  1.00  0.00     0.041 C 
ATOM     10  C   UNL A   1      34.304  22.205  25.178  1.00  0.00    -0.030 C 
ATOM     11  C   UNL A   1      34.474  24.672  25.414  1.00  0.00     0.041 C 
ATOM     12  C   UNL A   1      34.944  23.274  25.666  1.00  0.00    -0.030 C 
BRANCH   8  13
ATOM     13  C   UNL A   1      33.199  24.181  22.593  1.00  0.00     0.228 C 
ATOM     14  N   UNL A   1      32.925  25.393  22.020  1.00  0.00    -0.326 N 
ATOM     15  H   UNL A   1      33.240  25.435  21.088  1.00  0.00     0.169 HD
ATOM     16  O   UNL A   1      33.894  23.413  21.917  1.00  0.00    -0.274 OA
BRANCH  14  17
ATOM     17  C   UNL A   1      32.310  26.597  22.417  1.00  0.00     0.043 A 
ATOM     18  C   UNL A   1      28.336  31.342  23.870  1.00  0.00     0.067 C 
ATOM     19  C   UNL A   1      28.974  30.259  22.994  1.00  0.00     0.182 C 
ATOM     20  C   UNL A   1      29.000  30.745  21.536  1.00  0.00     0.067 C 
ATOM     21  O   UNL A   1      30.327  30.135  23.444  1.00  0.00    -0.476 OA
ATOM     22  C   UNL A   1      28.126  28.966  23.071  1.00  0.00     0.268 C 
ATOM     23  C   UNL A   1      30.923  28.956  23.095  1.00  0.00     0.144 A 
ATOM     24  N   UNL A   1      28.825  27.800  22.873  1.00  0.00    -0.319 N 
ATOM     25  O   UNL A   1      26.903  28.950  23.195  1.00  0.00    -0.270 OA
ATOM     26  C   UNL A   1      32.304  28.953  23.048  1.00  0.00     0.051 A 
ATOM     27  C   UNL A   1      30.220  27.788  22.812  1.00  0.00     0.086 A 
ATOM     28  H   UNL A   1      28.332  26.955  22.772  1.00  0.00     0.170 HD
ATOM     29  C   UNL A   1      32.980  27.786  22.686  1.00  0.00     0.030 A 
ATOM     30  C   UNL A   1      30.907  26.612  22.483  1.00  0.00     0.056 A 
ENDBRANCH  14  17
ENDBRANCH   8  13
ENDBRANCH   4   7
ENDBRANCH   2   3
ENDBRANCH   1   2
BRANCH   1  31
ATOM     31  C   UNL A   1      31.448  29.543  26.904  1.00  0.00     0.023 C 
BRANCH  31  32
ATOM     32  C   UNL A   1      32.388  30.598  26.332  1.00  0.00     0.116 C 
BRANCH  32  33
ATOM     33  N   UNL A   1      32.154  31.945  26.836  1.00  0.00    -0.352 N 
ATOM     34  C   UNL A   1      33.013  32.727  27.580  1.00  0.00     0.251 C 
ATOM     35  H   UNL A   1      31.279  32.343  26.622  1.00  0.00     0.163 HD
ATOM     36  O   UNL A   1      32.673  33.821  28.001  1.00  0.00    -0.269 OA
BRANCH  34  37
ATOM     37  C   UNL A   1      34.344  32.175  27.900  1.00  0.00     0.039 A 
ATOM     38  C   UNL A   1      34.478  30.816  28.189  1.00  0.00     0.014 A 
ATOM     39  C   UNL A   1      35.421  33.049  28.054  1.00  0.00     0.014 A 
ATOM     40  C   UNL A   1      35.632  30.366  28.813  1.00  0.00     0.010 A 
ATOM     41  C   UNL A   1      36.614  32.574  28.603  1.00  0.00     0.010 A 
ATOM     42  C   UNL A   1      36.705  31.245  29.045  1.00  0.00    -0.014 A 
BRANCH  42  43
ATOM     43  C   UNL A   1      37.895  30.752  29.785  1.00  0.00     0.031 A 
ATOM     44  C   UNL A   1      38.100  31.102  31.235  1.00  0.00     0.074 A 
ATOM     45  C   UNL A   1      38.751  29.921  29.163  1.00  0.00     0.049 A 
ATOM     46  N   UNL A   1      39.071  30.745  32.040  1.00  0.00    -0.248 NA
ATOM     47  C   UNL A   1      37.090  31.967  31.866  1.00  0.00     0.031 C 
ATOM     48  C   UNL A   1      38.647  29.495  27.766  1.00  0.00     0.029 A 
ATOM     49  N   UNL A   1      39.855  29.260  29.632  1.00  0.00    -0.354 N 
ATOM     50  C   UNL A   1      38.807  31.364  33.255  1.00  0.00     0.074 A 
ATOM     51  C   UNL A   1      37.592  32.132  33.082  1.00  0.00     0.031 C 
ATOM     52  C   UNL A   1      39.609  28.597  27.509  1.00  0.00     0.029 A 
ATOM     53  C   UNL A   1      40.434  28.434  28.700  1.00  0.00     0.049 A 
ATOM     54  H   UNL A   1      40.201  29.368  30.548  1.00  0.00     0.167 HD
ATOM     55  C   UNL A   1      39.509  31.293  34.411  1.00  0.00     0.037 A 
ATOM     56  C   UNL A   1      41.516  27.640  28.792  1.00  0.00     0.037 A 
ATOM     57  C   UNL A   1      40.698  30.501  34.594  1.00  0.00     0.049 A 
ATOM     58  C   UNL A   1      42.283  27.595  30.078  1.00  0.00     0.074 A 
ATOM     59  C   UNL A   1      41.468  30.348  35.734  1.00  0.00     0.029 A 
ATOM     60  N   UNL A   1      41.283  29.722  33.609  1.00  0.00    -0.354 N 
ATOM     61  N   UNL A   1      42.029  28.199  31.212  1.00  0.00    -0.248 NA
ATOM     62  C   UNL A   1      43.499  26.771  30.090  1.00  0.00     0.031 C 
ATOM     63  C   UNL A   1      42.537  29.496  35.429  1.00  0.00     0.029 A 
ATOM     64  C   UNL A   1      42.414  29.096  34.110  1.00  0.00     0.049 A 
ATOM     65  H   UNL A   1      40.947  29.626  32.689  1.00  0.00     0.167 HD
ATOM     66  C   UNL A   1      43.053  27.831  32.074  1.00  0.00     0.074 A 
ATOM     67  C   UNL A   1      43.915  26.927  31.339  1.00  0.00     0.031 C 
ATOM     68  C   UNL A   1      43.264  28.212  33.357  1.00  0.00     0.037 A 
BRANCH  55  69
ATOM     69  C   UNL A   1      39.018  32.110  35.571  1.00  0.00     0.057 A 
ATOM     70  C   UNL A   1      39.405  33.450  35.710  1.00  0.00     0.134 A 
ATOM     71  C   UNL A   1      38.196  31.567  36.565  1.00  0.00     0.134 A 
ATOM     72  F   UNL A   1      40.196  34.030  34.795  1.00  0.00    -0.206 F 
ATOM     73  C   UNL A   1      38.993  34.219  36.800  1.00  0.00     0.040 A 
ATOM     74  C   UNL A   1      37.761  32.332  37.649  1.00  0.00     0.040 A 
ATOM     75  F   UNL A   1      37.778  30.295  36.481  1.00  0.00    -0.206 F 
ATOM     76  C   UNL A   1      38.164  33.661  37.771  1.00  0.00     0.006 A 
ENDBRANCH  55  69
BRANCH  56  77
ATOM     77  C   UNL A   1      41.937  26.836  27.621  1.00  0.00     0.057 A 
ATOM     78  C   UNL A   1      42.754  27.378  26.621  1.00  0.00     0.134 A 
ATOM     79  C   UNL A   1      41.520  25.510  27.470  1.00  0.00     0.134 A 
ATOM     80  F   UNL A   1      43.180  28.647  26.709  1.00  0.00    -0.206 F 
ATOM     81  C   UNL A   1      43.128  26.634  25.502  1.00  0.00     0.040 A 
ATOM     82  C   UNL A   1      41.905  24.747  26.367  1.00  0.00     0.040 A 
ATOM     83  F   UNL A   1      40.751  24.933  28.405  1.00  0.00    -0.206 F 
ATOM     84  C   UNL A   1      42.706  25.312  25.376  1.00  0.00     0.006 A 
ENDBRANCH  56  77
BRANCH  68  85
ATOM     85  C   UNL A   1      44.474  27.645  34.033  1.00  0.00     0.057 A 
ATOM     86  C   UNL A   1      45.695  28.330  34.011  1.00  0.00     0.134 A 
ATOM     87  C   UNL A   1      44.427  26.417  34.705  1.00  0.00     0.134 A 
ATOM     88  F   UNL A   1      45.803  29.509  33.382  1.00  0.00    -0.206 F 
ATOM     89  C   UNL A   1      46.828  27.814  34.640  1.00  0.00     0.040 A 
ATOM     90  C   UNL A   1      45.549  25.900  35.353  1.00  0.00     0.040 A 
ATOM     91  F   UNL A   1      43.281  25.724  34.774  1.00  0.00    -0.206 F 
ATOM     92  C   UNL A   1      46.755  26.599  35.318  1.00  0.00     0.006 A 
ENDBRANCH  68  85
ENDBRANCH  42  43
ENDBRANCH  34  37
ENDBRANCH  32  33
ENDBRANCH  31  32
ENDBRANCH   1  31
TORSDOF 13
ENDMDL
