MODEL 1
REMARK VINA RESULT:     -10.7      0.000      0.000
REMARK SMILES CCCSc1nc(=O)cc(CC(=O)NCCCCNC(=O)c2ccc(-c3c4nc(c(-c5c(F)cccc5F)c5ccc([nH]5)c(-c5c(F)cccc5F)c5nc(c(-c6c(F)cccc6F)c6ccc3[nH]6)C=C5)C=C4)cc2)[nH]1
REMARK SMILES IDX 15 1 14 2 12 3 13 4 11 6 10 7 5 8 6 9 76 10 7 11 8 13 9 14
REMARK SMILES IDX 4 15 3 16 2 17 1 18 16 19 17 20 18 21 19 22 20 23 21 25
REMARK SMILES IDX 22 26 23 27 75 28 24 29 74 30 25 31 26 32 27 33 68 34 28 35
REMARK SMILES IDX 73 36 67 37 69 38 29 39 72 40 66 41 65 42 30 44 56 45 39 46
REMARK SMILES IDX 55 47 40 48 43 49 54 50 70 51 41 52 42 53 53 55 71 56 44 57
REMARK SMILES IDX 31 58 32 59 37 60 33 61 34 62 36 63 38 64 35 65 57 66 58 67
REMARK SMILES IDX 63 68 59 69 60 70 62 71 64 72 61 73 45 74 46 75 51 76 47 77
REMARK SMILES IDX 48 78 50 79 52 80 49 81
REMARK H PARENT 14 5 76 12 19 24 69 43 43 54
REMARK Flexibility Score: inf
ROOT
ATOM      1  C   UNL A   1      35.877  22.414  26.078  1.00  0.00     0.116 C 
ENDROOT
BRANCH   1   2
ATOM      2  N   UNL A   1      34.978  22.272  27.209  1.00  0.00    -0.356 N 
ATOM      3  C   UNL A   1      33.637  22.527  27.283  1.00  0.00     0.225 C 
ATOM      4  O   UNL A   1      33.060  22.363  28.358  1.00  0.00    -0.275 OA
ATOM      5  H   UNL A   1      35.393  21.946  28.040  1.00  0.00     0.163 HD
BRANCH   3   6
ATOM      6  C   UNL A   1      32.886  23.018  26.048  1.00  0.00     0.154 C 
BRANCH   6   7
ATOM      7  C   UNL A   1      32.545  21.871  25.134  1.00  0.00     0.032 A 
ATOM      8  C   UNL A   1      32.487  19.516  24.808  1.00  0.00     0.169 A 
ATOM      9  N   UNL A   1      32.345  19.589  23.532  1.00  0.00    -0.185 NA
ATOM     10  N   UNL A   1      32.550  20.593  25.639  1.00  0.00    -0.337 N 
ATOM     11  C   UNL A   1      32.175  20.828  22.955  1.00  0.00     0.273 A 
ATOM     12  H   UNL A   1      32.600  20.454  26.613  1.00  0.00     0.168 HD
ATOM     13  O   UNL A   1      31.944  20.987  21.766  1.00  0.00    -0.267 OA
ATOM     14  C   UNL A   1      32.334  22.033  23.818  1.00  0.00     0.095 A 
BRANCH   8  15
ATOM     15  S   UNL A   1      32.635  17.973  25.611  1.00  0.00    -0.088 SA
BRANCH  15  16
ATOM     16  C   UNL A   1      33.412  16.940  24.329  1.00  0.00     0.078 C 
BRANCH  16  17
ATOM     17  C   UNL A   1      34.938  16.869  24.419  1.00  0.00     0.008 C 
ATOM     18  C   UNL A   1      35.473  15.816  25.377  1.00  0.00     0.005 C 
ENDBRANCH  16  17
ENDBRANCH  15  16
ENDBRANCH   8  15
ENDBRANCH   6   7
ENDBRANCH   3   6
ENDBRANCH   1   2
BRANCH   1  19
ATOM     19  C   UNL A   1      36.145  21.087  25.365  1.00  0.00     0.023 C 
BRANCH  19  20
ATOM     20  C   UNL A   1      37.552  20.928  24.790  1.00  0.00     0.023 C 
BRANCH  20  21
ATOM     21  C   UNL A   1      38.676  20.915  25.815  1.00  0.00     0.116 C 
BRANCH  21  22
ATOM     22  N   UNL A   1      39.599  19.799  25.663  1.00  0.00    -0.352 N 
ATOM     23  C   UNL A   1      40.942  19.754  25.964  1.00  0.00     0.251 C 
ATOM     24  H   UNL A   1      39.213  18.971  25.298  1.00  0.00     0.163 HD
ATOM     25  O   UNL A   1      41.608  18.760  25.699  1.00  0.00    -0.269 OA
BRANCH  23  26
ATOM     26  C   UNL A   1      41.584  20.945  26.562  1.00  0.00     0.039 A 
ATOM     27  C   UNL A   1      41.591  21.123  27.946  1.00  0.00     0.014 A 
ATOM     28  C   UNL A   1      42.105  21.932  25.722  1.00  0.00     0.014 A 
ATOM     29  C   UNL A   1      41.931  22.362  28.475  1.00  0.00     0.010 A 
ATOM     30  C   UNL A   1      42.536  23.145  26.266  1.00  0.00     0.010 A 
ATOM     31  C   UNL A   1      42.392  23.394  27.641  1.00  0.00    -0.014 A 
BRANCH  31  32
ATOM     32  C   UNL A   1      42.680  24.729  28.226  1.00  0.00     0.031 A 
ATOM     33  C   UNL A   1      44.088  25.123  28.591  1.00  0.00     0.074 A 
ATOM     34  C   UNL A   1      41.679  25.618  28.366  1.00  0.00     0.049 A 
ATOM     35  N   UNL A   1      44.528  26.252  29.091  1.00  0.00    -0.248 NA
ATOM     36  C   UNL A   1      45.142  24.120  28.370  1.00  0.00     0.031 C 
ATOM     37  C   UNL A   1      40.274  25.366  28.033  1.00  0.00     0.029 A 
ATOM     38  N   UNL A   1      41.690  26.920  28.798  1.00  0.00    -0.354 N 
ATOM     39  C   UNL A   1      45.898  26.088  29.261  1.00  0.00     0.074 A 
ATOM     40  C   UNL A   1      46.214  24.740  28.842  1.00  0.00     0.031 C 
ATOM     41  C   UNL A   1      39.570  26.491  28.225  1.00  0.00     0.029 A 
ATOM     42  C   UNL A   1      40.457  27.521  28.754  1.00  0.00     0.049 A 
ATOM     43  H   UNL A   1      42.503  27.377  29.110  1.00  0.00     0.167 HD
ATOM     44  C   UNL A   1      46.811  26.982  29.712  1.00  0.00     0.037 A 
ATOM     45  C   UNL A   1      40.076  28.760  29.117  1.00  0.00     0.037 A 
ATOM     46  C   UNL A   1      46.502  28.330  30.113  1.00  0.00     0.049 A 
ATOM     47  C   UNL A   1      41.100  29.709  29.667  1.00  0.00     0.074 A 
ATOM     48  C   UNL A   1      47.362  29.317  30.563  1.00  0.00     0.029 A 
ATOM     49  N   UNL A   1      45.229  28.881  30.112  1.00  0.00    -0.354 N 
ATOM     50  N   UNL A   1      42.392  29.542  29.812  1.00  0.00    -0.248 NA
ATOM     51  C   UNL A   1      40.608  31.019  30.116  1.00  0.00     0.031 C 
ATOM     52  C   UNL A   1      46.604  30.452  30.877  1.00  0.00     0.029 A 
ATOM     53  C   UNL A   1      45.277  30.187  30.577  1.00  0.00     0.049 A 
ATOM     54  H   UNL A   1      44.411  28.415  29.825  1.00  0.00     0.167 HD
ATOM     55  C   UNL A   1      42.869  30.728  30.352  1.00  0.00     0.074 A 
ATOM     56  C   UNL A   1      41.731  31.614  30.486  1.00  0.00     0.031 C 
ATOM     57  C   UNL A   1      44.135  31.055  30.710  1.00  0.00     0.037 A 
BRANCH  44  58
ATOM     58  C   UNL A   1      48.238  26.519  29.815  1.00  0.00     0.057 A 
ATOM     59  C   UNL A   1      48.692  25.857  30.962  1.00  0.00     0.134 A 
ATOM     60  C   UNL A   1      49.169  26.751  28.793  1.00  0.00     0.134 A 
ATOM     61  F   UNL A   1      47.857  25.610  31.982  1.00  0.00    -0.206 F 
ATOM     62  C   UNL A   1      50.019  25.440  31.089  1.00  0.00     0.040 A 
ATOM     63  C   UNL A   1      50.491  26.316  28.898  1.00  0.00     0.040 A 
ATOM     64  F   UNL A   1      48.796  27.370  27.663  1.00  0.00    -0.206 F 
ATOM     65  C   UNL A   1      50.921  25.663  30.051  1.00  0.00     0.006 A 
ENDBRANCH  44  58
BRANCH  45  66
ATOM     66  C   UNL A   1      38.656  29.170  28.988  1.00  0.00     0.057 A 
ATOM     67  C   UNL A   1      38.131  29.605  27.765  1.00  0.00     0.134 A 
ATOM     68  C   UNL A   1      37.787  29.118  30.082  1.00  0.00     0.134 A 
ATOM     69  F   UNL A   1      38.916  29.682  26.680  1.00  0.00    -0.206 F 
ATOM     70  C   UNL A   1      36.795  29.983  27.636  1.00  0.00     0.040 A 
ATOM     71  C   UNL A   1      36.440  29.465  29.962  1.00  0.00     0.040 A 
ATOM     72  F   UNL A   1      38.227  28.690  31.275  1.00  0.00    -0.206 F 
ATOM     73  C   UNL A   1      35.942  29.904  28.737  1.00  0.00     0.006 A 
ENDBRANCH  45  66
BRANCH  57  74
ATOM     74  C   UNL A   1      44.350  32.434  31.257  1.00  0.00     0.057 A 
ATOM     75  C   UNL A   1      44.277  32.676  32.634  1.00  0.00     0.134 A 
ATOM     76  C   UNL A   1      44.627  33.524  30.422  1.00  0.00     0.134 A 
ATOM     77  F   UNL A   1      44.008  31.677  33.488  1.00  0.00    -0.206 F 
ATOM     78  C   UNL A   1      44.476  33.952  33.162  1.00  0.00     0.040 A 
ATOM     79  C   UNL A   1      44.856  34.801  30.941  1.00  0.00     0.040 A 
ATOM     80  F   UNL A   1      44.729  33.356  29.095  1.00  0.00    -0.206 F 
ATOM     81  C   UNL A   1      44.776  35.017  32.315  1.00  0.00     0.006 A 
ENDBRANCH  57  74
ENDBRANCH  31  32
ENDBRANCH  23  26
ENDBRANCH  21  22
ENDBRANCH  20  21
ENDBRANCH  19  20
ENDBRANCH   1  19
TORSDOF 15
ENDMDL
MODEL 2
REMARK VINA RESULT:     -10.5      1.912      3.331
REMARK SMILES CCCSc1nc(=O)cc(CC(=O)NCCCCNC(=O)c2ccc(-c3c4nc(c(-c5c(F)cccc5F)c5ccc([nH]5)c(-c5c(F)cccc5F)c5nc(c(-c6c(F)cccc6F)c6ccc3[nH]6)C=C5)C=C4)cc2)[nH]1
REMARK SMILES IDX 15 1 14 2 12 3 13 4 11 6 10 7 5 8 6 9 76 10 7 11 8 13 9 14
REMARK SMILES IDX 4 15 3 16 2 17 1 18 16 19 17 20 18 21 19 22 20 23 21 25
REMARK SMILES IDX 22 26 23 27 75 28 24 29 74 30 25 31 26 32 27 33 68 34 28 35
REMARK SMILES IDX 73 36 67 37 69 38 29 39 72 40 66 41 65 42 30 44 56 45 39 46
REMARK SMILES IDX 55 47 40 48 43 49 54 50 70 51 41 52 42 53 53 55 71 56 44 57
REMARK SMILES IDX 31 58 32 59 37 60 33 61 34 62 36 63 38 64 35 65 57 66 58 67
REMARK SMILES IDX 63 68 59 69 60 70 62 71 64 72 61 73 45 74 46 75 51 76 47 77
REMARK SMILES IDX 48 78 50 79 52 80 49 81
REMARK H PARENT 14 5 76 12 19 24 69 43 43 54
REMARK Flexibility Score: inf
ROOT
ATOM      1  C   UNL A   1      35.344  22.114  24.229  1.00  0.00     0.116 C 
ENDROOT
BRANCH   1   2
ATOM      2  N   UNL A   1      34.856  23.064  23.245  1.00  0.00    -0.356 N 
ATOM      3  C   UNL A   1      33.576  23.279  22.814  1.00  0.00     0.225 C 
ATOM      4  O   UNL A   1      33.379  24.126  21.942  1.00  0.00    -0.275 OA
ATOM      5  H   UNL A   1      35.543  23.633  22.831  1.00  0.00     0.163 HD
BRANCH   3   6
ATOM      6  C   UNL A   1      32.427  22.467  23.404  1.00  0.00     0.154 C 
BRANCH   6   7
ATOM      7  C   UNL A   1      31.695  23.256  24.457  1.00  0.00     0.032 A 
ATOM      8  C   UNL A   1      31.276  25.380  25.441  1.00  0.00     0.169 A 
ATOM      9  N   UNL A   1      30.759  24.899  26.516  1.00  0.00    -0.185 NA
ATOM     10  N   UNL A   1      31.712  24.629  24.393  1.00  0.00    -0.337 N 
ATOM     11  C   UNL A   1      30.560  23.539  26.603  1.00  0.00     0.273 A 
ATOM     12  H   UNL A   1      32.042  25.074  23.579  1.00  0.00     0.168 HD
ATOM     13  O   UNL A   1      29.994  23.003  27.545  1.00  0.00    -0.267 OA
ATOM     14  C   UNL A   1      31.110  22.677  25.518  1.00  0.00     0.095 A 
BRANCH   8  15
ATOM     15  S   UNL A   1      31.489  27.100  25.237  1.00  0.00    -0.088 SA
BRANCH  15  16
ATOM     16  C   UNL A   1      31.633  27.683  26.956  1.00  0.00     0.078 C 
BRANCH  16  17
ATOM     17  C   UNL A   1      31.806  29.197  27.094  1.00  0.00     0.008 C 
ATOM     18  C   UNL A   1      33.174  29.722  26.689  1.00  0.00     0.005 C 
ENDBRANCH  16  17
ENDBRANCH  15  16
ENDBRANCH   8  15
ENDBRANCH   6   7
ENDBRANCH   3   6
ENDBRANCH   1   2
BRANCH   1  19
ATOM     19  C   UNL A   1      36.872  22.032  24.265  1.00  0.00     0.023 C 
BRANCH  19  20
ATOM     20  C   UNL A   1      37.441  20.793  24.954  1.00  0.00     0.023 C 
BRANCH  20  21
ATOM     21  C   UNL A   1      38.766  21.000  25.673  1.00  0.00     0.116 C 
BRANCH  21  22
ATOM     22  N   UNL A   1      39.657  19.850  25.609  1.00  0.00    -0.352 N 
ATOM     23  C   UNL A   1      40.981  19.774  25.981  1.00  0.00     0.251 C 
ATOM     24  H   UNL A   1      39.263  19.021  25.254  1.00  0.00     0.163 HD
ATOM     25  O   UNL A   1      41.626  18.749  25.786  1.00  0.00    -0.269 OA
BRANCH  23  26
ATOM     26  C   UNL A   1      41.632  20.965  26.567  1.00  0.00     0.039 A 
ATOM     27  C   UNL A   1      41.638  21.156  27.950  1.00  0.00     0.014 A 
ATOM     28  C   UNL A   1      42.162  21.940  25.719  1.00  0.00     0.014 A 
ATOM     29  C   UNL A   1      41.988  22.397  28.468  1.00  0.00     0.010 A 
ATOM     30  C   UNL A   1      42.602  23.155  26.253  1.00  0.00     0.010 A 
ATOM     31  C   UNL A   1      42.458  23.417  27.625  1.00  0.00    -0.014 A 
BRANCH  31  32
ATOM     32  C   UNL A   1      42.756  24.756  28.198  1.00  0.00     0.031 A 
ATOM     33  C   UNL A   1      44.172  25.159  28.518  1.00  0.00     0.074 A 
ATOM     34  C   UNL A   1      41.754  25.639  28.365  1.00  0.00     0.049 A 
ATOM     35  N   UNL A   1      44.620  26.292  29.003  1.00  0.00    -0.248 NA
ATOM     36  C   UNL A   1      45.224  24.161  28.268  1.00  0.00     0.031 C 
ATOM     37  C   UNL A   1      40.342  25.379  28.075  1.00  0.00     0.029 A 
ATOM     38  N   UNL A   1      41.771  26.942  28.794  1.00  0.00    -0.354 N 
ATOM     39  C   UNL A   1      45.996  26.136  29.131  1.00  0.00     0.074 A 
ATOM     40  C   UNL A   1      46.306  24.788  28.706  1.00  0.00     0.031 C 
ATOM     41  C   UNL A   1      39.637  26.500  28.286  1.00  0.00     0.029 A 
ATOM     42  C   UNL A   1      40.534  27.536  28.786  1.00  0.00     0.049 A 
ATOM     43  H   UNL A   1      42.591  27.405  29.080  1.00  0.00     0.167 HD
ATOM     44  C   UNL A   1      46.917  27.035  29.552  1.00  0.00     0.037 A 
ATOM     45  C   UNL A   1      40.157  28.774  29.157  1.00  0.00     0.037 A 
ATOM     46  C   UNL A   1      46.612  28.383  29.960  1.00  0.00     0.049 A 
ATOM     47  C   UNL A   1      41.192  29.731  29.674  1.00  0.00     0.074 A 
ATOM     48  C   UNL A   1      47.480  29.376  30.381  1.00  0.00     0.029 A 
ATOM     49  N   UNL A   1      45.337  28.927  29.996  1.00  0.00    -0.354 N 
ATOM     50  N   UNL A   1      42.488  29.571  29.780  1.00  0.00    -0.248 NA
ATOM     51  C   UNL A   1      40.706  31.039  30.134  1.00  0.00     0.031 C 
ATOM     52  C   UNL A   1      46.725  30.507  30.714  1.00  0.00     0.029 A 
ATOM     53  C   UNL A   1      45.392  30.234  30.456  1.00  0.00     0.049 A 
ATOM     54  H   UNL A   1      44.514  28.455  29.734  1.00  0.00     0.167 HD
ATOM     55  C   UNL A   1      42.975  30.761  30.302  1.00  0.00     0.074 A 
ATOM     56  C   UNL A   1      41.836  31.641  30.469  1.00  0.00     0.031 C 
ATOM     57  C   UNL A   1      44.249  31.096  30.621  1.00  0.00     0.037 A 
BRANCH  44  58
ATOM     58  C   UNL A   1      48.349  26.582  29.613  1.00  0.00     0.057 A 
ATOM     59  C   UNL A   1      48.841  25.924  30.747  1.00  0.00     0.134 A 
ATOM     60  C   UNL A   1      49.247  26.817  28.563  1.00  0.00     0.134 A 
ATOM     61  F   UNL A   1      48.038  25.674  31.792  1.00  0.00    -0.206 F 
ATOM     62  C   UNL A   1      50.173  25.515  30.835  1.00  0.00     0.040 A 
ATOM     63  C   UNL A   1      50.575  26.390  28.629  1.00  0.00     0.040 A 
ATOM     64  F   UNL A   1      48.837  27.432  27.444  1.00  0.00    -0.206 F 
ATOM     65  C   UNL A   1      51.043  25.741  29.770  1.00  0.00     0.006 A 
ENDBRANCH  44  58
BRANCH  45  66
ATOM     66  C   UNL A   1      38.732  29.175  29.070  1.00  0.00     0.057 A 
ATOM     67  C   UNL A   1      38.166  29.603  27.863  1.00  0.00     0.134 A 
ATOM     68  C   UNL A   1      37.897  29.124  30.191  1.00  0.00     0.134 A 
ATOM     69  F   UNL A   1      38.917  29.679  26.754  1.00  0.00    -0.206 F 
ATOM     70  C   UNL A   1      36.825  29.972  27.773  1.00  0.00     0.040 A 
ATOM     71  C   UNL A   1      36.545  29.463  30.111  1.00  0.00     0.040 A 
ATOM     72  F   UNL A   1      38.375  28.703  31.371  1.00  0.00    -0.206 F 
ATOM     73  C   UNL A   1      36.007  29.894  28.900  1.00  0.00     0.006 A 
ENDBRANCH  45  66
BRANCH  57  74
ATOM     74  C   UNL A   1      44.472  32.478  31.158  1.00  0.00     0.057 A 
ATOM     75  C   UNL A   1      44.443  32.722  32.537  1.00  0.00     0.134 A 
ATOM     76  C   UNL A   1      44.716  33.568  30.312  1.00  0.00     0.134 A 
ATOM     77  F   UNL A   1      44.208  31.723  33.401  1.00  0.00    -0.206 F 
ATOM     78  C   UNL A   1      44.650  34.001  33.055  1.00  0.00     0.040 A 
ATOM     79  C   UNL A   1      44.952  34.847  30.821  1.00  0.00     0.040 A 
ATOM     80  F   UNL A   1      44.776  33.397  28.983  1.00  0.00    -0.206 F 
ATOM     81  C   UNL A   1      44.915  35.066  32.196  1.00  0.00     0.006 A 
ENDBRANCH  57  74
ENDBRANCH  31  32
ENDBRANCH  23  26
ENDBRANCH  21  22
ENDBRANCH  20  21
ENDBRANCH  19  20
ENDBRANCH   1  19
TORSDOF 15
ENDMDL
MODEL 3
REMARK VINA RESULT:     -10.4      0.436      6.448
REMARK SMILES CCCSc1nc(=O)cc(CC(=O)NCCCCNC(=O)c2ccc(-c3c4nc(c(-c5c(F)cccc5F)c5ccc([nH]5)c(-c5c(F)cccc5F)c5nc(c(-c6c(F)cccc6F)c6ccc3[nH]6)C=C5)C=C4)cc2)[nH]1
REMARK SMILES IDX 15 1 14 2 12 3 13 4 11 6 10 7 5 8 6 9 76 10 7 11 8 13 9 14
REMARK SMILES IDX 4 15 3 16 2 17 1 18 16 19 17 20 18 21 19 22 20 23 21 25
REMARK SMILES IDX 22 26 23 27 75 28 24 29 74 30 25 31 26 32 27 33 68 34 28 35
REMARK SMILES IDX 73 36 67 37 69 38 29 39 72 40 66 41 65 42 30 44 56 45 39 46
REMARK SMILES IDX 55 47 40 48 43 49 54 50 70 51 41 52 42 53 53 55 71 56 44 57
REMARK SMILES IDX 31 58 32 59 37 60 33 61 34 62 36 63 38 64 35 65 57 66 58 67
REMARK SMILES IDX 63 68 59 69 60 70 62 71 64 72 61 73 45 74 46 75 51 76 47 77
REMARK SMILES IDX 48 78 50 79 52 80 49 81
REMARK H PARENT 14 5 76 12 19 24 69 43 43 54
REMARK Flexibility Score: inf
ROOT
ATOM      1  C   UNL A   1      35.719  22.540  26.024  1.00  0.00     0.116 C 
ENDROOT
BRANCH   1   2
ATOM      2  N   UNL A   1      34.842  22.410  27.174  1.00  0.00    -0.356 N 
ATOM      3  C   UNL A   1      33.498  22.641  27.265  1.00  0.00     0.225 C 
ATOM      4  O   UNL A   1      32.943  22.494  28.354  1.00  0.00    -0.275 OA
ATOM      5  H   UNL A   1      35.278  22.114  28.006  1.00  0.00     0.163 HD
BRANCH   3   6
ATOM      6  C   UNL A   1      32.716  23.085  26.031  1.00  0.00     0.154 C 
BRANCH   6   7
ATOM      7  C   UNL A   1      32.433  21.916  25.124  1.00  0.00     0.032 A 
ATOM      8  C   UNL A   1      32.450  19.556  24.830  1.00  0.00     0.169 A 
ATOM      9  N   UNL A   1      32.343  19.608  23.550  1.00  0.00    -0.185 NA
ATOM     10  N   UNL A   1      32.459  20.645  25.648  1.00  0.00    -0.337 N 
ATOM     11  C   UNL A   1      32.155  20.834  22.951  1.00  0.00     0.273 A 
ATOM     12  H   UNL A   1      32.485  20.521  26.624  1.00  0.00     0.168 HD
ATOM     13  O   UNL A   1      31.954  20.970  21.753  1.00  0.00    -0.267 OA
ATOM     14  C   UNL A   1      32.255  22.054  23.801  1.00  0.00     0.095 A 
BRANCH   8  15
ATOM     15  S   UNL A   1      32.617  18.029  25.658  1.00  0.00    -0.088 SA
BRANCH  15  16
ATOM     16  C   UNL A   1      33.683  17.085  24.524  1.00  0.00     0.078 C 
BRANCH  16  17
ATOM     17  C   UNL A   1      33.973  15.653  24.979  1.00  0.00     0.008 C 
ATOM     18  C   UNL A   1      32.760  14.885  25.481  1.00  0.00     0.005 C 
ENDBRANCH  16  17
ENDBRANCH  15  16
ENDBRANCH   8  15
ENDBRANCH   6   7
ENDBRANCH   3   6
ENDBRANCH   1   2
BRANCH   1  19
ATOM     19  C   UNL A   1      36.098  21.190  25.413  1.00  0.00     0.023 C 
BRANCH  19  20
ATOM     20  C   UNL A   1      37.477  21.135  24.757  1.00  0.00     0.023 C 
BRANCH  20  21
ATOM     21  C   UNL A   1      38.657  21.182  25.716  1.00  0.00     0.116 C 
BRANCH  21  22
ATOM     22  N   UNL A   1      39.500  19.996  25.671  1.00  0.00    -0.352 N 
ATOM     23  C   UNL A   1      40.826  19.877  26.027  1.00  0.00     0.251 C 
ATOM     24  H   UNL A   1      39.068  19.175  25.345  1.00  0.00     0.163 HD
ATOM     25  O   UNL A   1      41.426  18.822  25.851  1.00  0.00    -0.269 OA
BRANCH  23  26
ATOM     26  C   UNL A   1      41.532  21.056  26.572  1.00  0.00     0.039 A 
ATOM     27  C   UNL A   1      41.530  21.307  27.945  1.00  0.00     0.014 A 
ATOM     28  C   UNL A   1      42.126  21.962  25.690  1.00  0.00     0.014 A 
ATOM     29  C   UNL A   1      41.939  22.549  28.413  1.00  0.00     0.010 A 
ATOM     30  C   UNL A   1      42.624  23.175  26.178  1.00  0.00     0.010 A 
ATOM     31  C   UNL A   1      42.475  23.505  27.535  1.00  0.00    -0.014 A 
BRANCH  31  32
ATOM     32  C   UNL A   1      42.838  24.850  28.054  1.00  0.00     0.031 A 
ATOM     33  C   UNL A   1      41.777  25.894  28.292  1.00  0.00     0.074 A 
ATOM     34  C   UNL A   1      44.118  25.108  28.379  1.00  0.00     0.049 A 
ATOM     35  N   UNL A   1      41.907  27.112  28.760  1.00  0.00    -0.248 NA
ATOM     36  C   UNL A   1      40.392  25.529  27.958  1.00  0.00     0.031 C 
ATOM     37  C   UNL A   1      45.235  24.176  28.214  1.00  0.00     0.029 A 
ATOM     38  N   UNL A   1      44.693  26.221  28.939  1.00  0.00    -0.354 N 
ATOM     39  C   UNL A   1      40.629  27.660  28.758  1.00  0.00     0.074 A 
ATOM     40  C   UNL A   1      39.743  26.656  28.212  1.00  0.00     0.031 C 
ATOM     41  C   UNL A   1      46.350  24.735  28.708  1.00  0.00     0.029 A 
ATOM     42  C   UNL A   1      46.040  26.085  29.165  1.00  0.00     0.049 A 
ATOM     43  H   UNL A   1      44.187  27.037  29.157  1.00  0.00     0.167 HD
ATOM     44  C   UNL A   1      40.229  28.883  29.184  1.00  0.00     0.037 A 
ATOM     45  C   UNL A   1      46.933  26.958  29.668  1.00  0.00     0.037 A 
ATOM     46  C   UNL A   1      41.107  29.878  29.743  1.00  0.00     0.049 A 
ATOM     47  C   UNL A   1      46.470  28.326  30.077  1.00  0.00     0.074 A 
ATOM     48  C   UNL A   1      40.792  31.138  30.224  1.00  0.00     0.029 A 
ATOM     49  N   UNL A   1      42.477  29.724  29.898  1.00  0.00    -0.354 N 
ATOM     50  N   UNL A   1      45.258  28.824  30.079  1.00  0.00    -0.248 NA
ATOM     51  C   UNL A   1      47.506  29.257  30.546  1.00  0.00     0.031 C 
ATOM     52  C   UNL A   1      41.977  31.763  30.628  1.00  0.00     0.029 A 
ATOM     53  C   UNL A   1      43.025  30.875  30.443  1.00  0.00     0.049 A 
ATOM     54  H   UNL A   1      42.986  28.917  29.656  1.00  0.00     0.167 HD
ATOM     55  C   UNL A   1      45.383  30.119  30.563  1.00  0.00     0.074 A 
ATOM     56  C   UNL A   1      46.784  30.320  30.866  1.00  0.00     0.031 C 
ATOM     57  C   UNL A   1      44.423  31.062  30.736  1.00  0.00     0.037 A 
BRANCH  44  58
ATOM     58  C   UNL A   1      38.771  29.221  29.041  1.00  0.00     0.057 A 
ATOM     59  C   UNL A   1      37.911  29.146  30.143  1.00  0.00     0.134 A 
ATOM     60  C   UNL A   1      38.213  29.596  27.811  1.00  0.00     0.134 A 
ATOM     61  F   UNL A   1      38.377  28.787  31.348  1.00  0.00    -0.206 F 
ATOM     62  C   UNL A   1      36.549  29.433  30.029  1.00  0.00     0.040 A 
ATOM     63  C   UNL A   1      36.858  29.909  27.690  1.00  0.00     0.040 A 
ATOM     64  F   UNL A   1      38.985  29.698  26.718  1.00  0.00    -0.206 F 
ATOM     65  C   UNL A   1      36.021  29.824  28.800  1.00  0.00     0.006 A 
ENDBRANCH  44  58
BRANCH  45  66
ATOM     66  C   UNL A   1      48.359  26.572  29.795  1.00  0.00     0.057 A 
ATOM     67  C   UNL A   1      48.829  25.874  30.915  1.00  0.00     0.134 A 
ATOM     68  C   UNL A   1      49.283  26.877  28.790  1.00  0.00     0.134 A 
ATOM     69  F   UNL A   1      47.992  25.558  31.915  1.00  0.00    -0.206 F 
ATOM     70  C   UNL A   1      50.167  25.501  31.036  1.00  0.00     0.040 A 
ATOM     71  C   UNL A   1      50.620  26.484  28.884  1.00  0.00     0.040 A 
ATOM     72  F   UNL A   1      48.889  27.525  27.685  1.00  0.00    -0.206 F 
ATOM     73  C   UNL A   1      51.065  25.798  30.012  1.00  0.00     0.006 A 
ENDBRANCH  45  66
BRANCH  57  74
ATOM     74  C   UNL A   1      44.863  32.380  31.300  1.00  0.00     0.057 A 
ATOM     75  C   UNL A   1      45.247  33.427  30.452  1.00  0.00     0.134 A 
ATOM     76  C   UNL A   1      44.908  32.614  32.680  1.00  0.00     0.134 A 
ATOM     77  F   UNL A   1      45.233  33.266  29.121  1.00  0.00    -0.206 F 
ATOM     78  C   UNL A   1      45.657  34.661  30.958  1.00  0.00     0.040 A 
ATOM     79  C   UNL A   1      45.290  33.854  33.197  1.00  0.00     0.040 A 
ATOM     80  F   UNL A   1      44.535  31.659  33.544  1.00  0.00    -0.206 F 
ATOM     81  C   UNL A   1      45.669  34.880  32.334  1.00  0.00     0.006 A 
ENDBRANCH  57  74
ENDBRANCH  31  32
ENDBRANCH  23  26
ENDBRANCH  21  22
ENDBRANCH  20  21
ENDBRANCH  19  20
ENDBRANCH   1  19
TORSDOF 15
ENDMDL
