MODEL 1
REMARK VINA RESULT:     -11.6      0.000      0.000
REMARK SMILES COc1ccc(CNC(=O)[C@H]2CC(C)=C(C)C[C@@H]2C(=O)NCCCCNC(=O)c2ccc(-c3c4nc(c(-c5c(F)cccc5F)c5ccc([nH]5)c(-c5c(F)cccc5F)c5nc(c(-c6c(F)cccc6F)c6ccc3[nH]6)C=C5)C=C4)cc2)cc1OC
REMARK SMILES IDX 22 1 21 2 19 3 20 4 18 6 11 7 12 8 13 9 17 10 14 11 15 12
REMARK SMILES IDX 16 13 9 14 8 15 10 17 7 18 6 19 3 20 4 21 84 22 5 23 83 24
REMARK SMILES IDX 2 25 1 26 85 27 86 28 23 29 24 30 25 31 26 32 27 33 28 35
REMARK SMILES IDX 29 36 30 37 82 38 31 39 81 40 32 41 33 42 34 43 75 44 35 45
REMARK SMILES IDX 80 46 74 47 76 48 36 49 79 50 73 51 72 52 37 54 63 55 46 56
REMARK SMILES IDX 62 57 47 58 50 59 61 60 77 61 48 62 49 63 60 65 78 66 51 67
REMARK SMILES IDX 38 68 39 69 44 70 40 71 41 72 43 73 45 74 42 75 64 76 65 77
REMARK SMILES IDX 70 78 66 79 67 80 69 81 71 82 68 83 52 84 53 85 58 86 54 87
REMARK SMILES IDX 55 88 57 89 59 90 56 91
REMARK H PARENT 21 5 8 16 26 34 76 53 50 64
REMARK Flexibility Score: inf
ROOT
ATOM      1  C   UNL A   1      31.217  26.032  26.262  1.00  0.00     0.116 C 
ENDROOT
BRANCH   1   2
ATOM      2  N   UNL A   1      31.678  24.809  26.882  1.00  0.00    -0.356 N 
ATOM      3  C   UNL A   1      32.631  23.919  26.494  1.00  0.00     0.224 C 
ATOM      4  O   UNL A   1      32.793  22.934  27.221  1.00  0.00    -0.275 OA
ATOM      5  H   UNL A   1      31.225  24.583  27.726  1.00  0.00     0.163 HD
BRANCH   3   6
ATOM      6  C   UNL A   1      33.441  24.080  25.203  1.00  0.00     0.095 C 
ATOM      7  C   UNL A   1      33.299  22.851  24.263  1.00  0.00     0.095 C 
ATOM      8  C   UNL A   1      34.637  22.248  23.818  1.00  0.00     0.045 C 
ATOM      9  C   UNL A   1      35.906  22.571  24.546  1.00  0.00    -0.074 C 
ATOM     10  C   UNL A   1      34.856  24.593  25.538  1.00  0.00     0.045 C 
ATOM     11  C   UNL A   1      37.011  21.572  24.299  1.00  0.00     0.039 C 
ATOM     12  C   UNL A   1      36.018  23.663  25.317  1.00  0.00    -0.074 C 
ATOM     13  C   UNL A   1      37.315  24.063  25.969  1.00  0.00     0.039 C 
BRANCH   7  14
ATOM     14  C   UNL A   1      32.334  23.135  23.087  1.00  0.00     0.224 C 
ATOM     15  N   UNL A   1      32.582  24.099  22.153  1.00  0.00    -0.352 N 
ATOM     16  H   UNL A   1      32.156  23.938  21.279  1.00  0.00     0.163 HD
ATOM     17  O   UNL A   1      31.362  22.410  22.857  1.00  0.00    -0.275 OA
BRANCH  15  18
ATOM     18  C   UNL A   1      33.360  25.316  22.218  1.00  0.00     0.151 C 
BRANCH  18  19
ATOM     19  C   UNL A   1      32.569  26.582  22.358  1.00  0.00    -0.025 A 
ATOM     20  C   UNL A   1      31.032  28.848  22.996  1.00  0.00     0.160 A 
ATOM     21  C   UNL A   1      32.419  28.956  22.812  1.00  0.00     0.051 A 
ATOM     22  C   UNL A   1      30.398  27.611  22.841  1.00  0.00     0.161 A 
ATOM     23  C   UNL A   1      33.186  27.828  22.508  1.00  0.00     0.009 A 
ATOM     24  C   UNL A   1      31.178  26.494  22.525  1.00  0.00     0.056 A 
BRANCH  20  25
ATOM     25  O   UNL A   1      30.314  29.989  23.238  1.00  0.00    -0.493 OA
ATOM     26  C   UNL A   1      29.549  30.388  22.100  1.00  0.00     0.278 C 
ENDBRANCH  20  25
BRANCH  22  27
ATOM     27  O   UNL A   1      29.070  27.306  22.961  1.00  0.00    -0.493 OA
ATOM     28  C   UNL A   1      28.683  26.360  23.944  1.00  0.00     0.278 C 
ENDBRANCH  22  27
ENDBRANCH  18  19
ENDBRANCH  15  18
ENDBRANCH   7  14
ENDBRANCH   3   6
ENDBRANCH   1   2
BRANCH   1  29
ATOM     29  C   UNL A   1      32.347  27.020  26.009  1.00  0.00     0.023 C 
BRANCH  29  30
ATOM     30  C   UNL A   1      32.372  28.210  26.966  1.00  0.00     0.023 C 
BRANCH  30  31
ATOM     31  C   UNL A   1      33.757  28.763  27.280  1.00  0.00     0.116 C 
BRANCH  31  32
ATOM     32  N   UNL A   1      33.735  30.099  27.860  1.00  0.00    -0.352 N 
ATOM     33  C   UNL A   1      34.749  30.766  28.505  1.00  0.00     0.251 C 
ATOM     34  H   UNL A   1      32.884  30.587  27.778  1.00  0.00     0.163 HD
ATOM     35  O   UNL A   1      34.549  31.858  29.026  1.00  0.00    -0.269 OA
BRANCH  33  36
ATOM     36  C   UNL A   1      36.078  30.130  28.599  1.00  0.00     0.039 A 
ATOM     37  C   UNL A   1      36.943  30.207  27.506  1.00  0.00     0.014 A 
ATOM     38  C   UNL A   1      36.486  29.518  29.787  1.00  0.00     0.014 A 
ATOM     39  C   UNL A   1      38.251  29.736  27.631  1.00  0.00     0.010 A 
ATOM     40  C   UNL A   1      37.809  29.117  29.934  1.00  0.00     0.010 A 
ATOM     41  C   UNL A   1      38.706  29.226  28.859  1.00  0.00    -0.014 A 
BRANCH  41  42
ATOM     42  C   UNL A   1      40.118  28.808  29.044  1.00  0.00     0.031 A 
ATOM     43  C   UNL A   1      41.118  29.773  29.616  1.00  0.00     0.074 A 
ATOM     44  C   UNL A   1      40.513  27.588  28.631  1.00  0.00     0.049 A 
ATOM     45  N   UNL A   1      42.408  29.623  29.783  1.00  0.00    -0.248 NA
ATOM     46  C   UNL A   1      40.608  31.090  30.027  1.00  0.00     0.031 C 
ATOM     47  C   UNL A   1      39.648  26.582  28.012  1.00  0.00     0.029 A 
ATOM     48  N   UNL A   1      41.748  26.992  28.659  1.00  0.00    -0.354 N 
ATOM     49  C   UNL A   1      42.862  30.828  30.303  1.00  0.00     0.074 A 
ATOM     50  C   UNL A   1      41.722  31.717  30.372  1.00  0.00     0.031 C 
ATOM     51  C   UNL A   1      40.375  25.485  27.741  1.00  0.00     0.029 A 
ATOM     52  C   UNL A   1      41.761  25.724  28.132  1.00  0.00     0.049 A 
ATOM     53  H   UNL A   1      42.551  27.432  29.023  1.00  0.00     0.167 HD
ATOM     54  C   UNL A   1      44.110  31.157  30.711  1.00  0.00     0.037 A 
ATOM     55  C   UNL A   1      42.777  24.854  27.977  1.00  0.00     0.037 A 
ATOM     56  C   UNL A   1      45.237  30.265  30.666  1.00  0.00     0.049 A 
ATOM     57  C   UNL A   1      44.154  25.244  28.436  1.00  0.00     0.074 A 
ATOM     58  C   UNL A   1      46.529  30.484  31.110  1.00  0.00     0.029 A 
ATOM     59  N   UNL A   1      45.205  28.978  30.147  1.00  0.00    -0.354 N 
ATOM     60  N   UNL A   1      44.556  26.362  28.989  1.00  0.00    -0.248 NA
ATOM     61  C   UNL A   1      45.219  24.247  28.256  1.00  0.00     0.031 C 
ATOM     62  C   UNL A   1      47.289  29.344  30.823  1.00  0.00     0.029 A 
ATOM     63  C   UNL A   1      46.458  28.399  30.242  1.00  0.00     0.049 A 
ATOM     64  H   UNL A   1      44.408  28.543  29.765  1.00  0.00     0.167 HD
ATOM     65  C   UNL A   1      45.909  26.195  29.248  1.00  0.00     0.074 A 
ATOM     66  C   UNL A   1      46.258  24.861  28.804  1.00  0.00     0.031 C 
ATOM     67  C   UNL A   1      46.786  27.066  29.804  1.00  0.00     0.037 A 
BRANCH  54  68
ATOM     68  C   UNL A   1      44.317  32.543  31.249  1.00  0.00     0.057 A 
ATOM     69  C   UNL A   1      44.219  32.823  32.618  1.00  0.00     0.134 A 
ATOM     70  C   UNL A   1      44.642  33.603  30.394  1.00  0.00     0.134 A 
ATOM     71  F   UNL A   1      43.896  31.855  33.489  1.00  0.00    -0.206 F 
ATOM     72  C   UNL A   1      44.411  34.113  33.115  1.00  0.00     0.040 A 
ATOM     73  C   UNL A   1      44.864  34.892  30.883  1.00  0.00     0.040 A 
ATOM     74  F   UNL A   1      44.757  33.403  29.073  1.00  0.00    -0.206 F 
ATOM     75  C   UNL A   1      44.741  35.152  32.246  1.00  0.00     0.006 A 
ENDBRANCH  54  68
BRANCH  55  76
ATOM     76  C   UNL A   1      42.528  23.516  27.383  1.00  0.00     0.057 A 
ATOM     77  C   UNL A   1      42.171  22.427  28.187  1.00  0.00     0.134 A 
ATOM     78  C   UNL A   1      42.652  23.290  26.008  1.00  0.00     0.134 A 
ATOM     79  F   UNL A   1      42.056  22.577  29.514  1.00  0.00    -0.206 F 
ATOM     80  C   UNL A   1      41.966  21.156  27.648  1.00  0.00     0.040 A 
ATOM     81  C   UNL A   1      42.426  22.030  25.451  1.00  0.00     0.040 A 
ATOM     82  F   UNL A   1      42.983  24.294  25.182  1.00  0.00    -0.206 F 
ATOM     83  C   UNL A   1      42.090  20.956  26.275  1.00  0.00     0.006 A 
ENDBRANCH  55  76
BRANCH  67  84
ATOM     84  C   UNL A   1      48.196  26.592  29.997  1.00  0.00     0.057 A 
ATOM     85  C   UNL A   1      48.594  25.910  31.153  1.00  0.00     0.134 A 
ATOM     86  C   UNL A   1      49.156  26.788  28.996  1.00  0.00     0.134 A 
ATOM     87  F   UNL A   1      47.725  25.703  32.154  1.00  0.00    -0.206 F 
ATOM     88  C   UNL A   1      49.904  25.457  31.316  1.00  0.00     0.040 A 
ATOM     89  C   UNL A   1      50.462  26.318  29.136  1.00  0.00     0.040 A 
ATOM     90  F   UNL A   1      48.836  27.428  27.861  1.00  0.00    -0.206 F 
ATOM     91  C   UNL A   1      50.840  25.655  30.302  1.00  0.00     0.006 A 
ENDBRANCH  67  84
ENDBRANCH  41  42
ENDBRANCH  33  36
ENDBRANCH  31  32
ENDBRANCH  30  31
ENDBRANCH  29  30
ENDBRANCH   1  29
TORSDOF 16
ENDMDL
MODEL 2
REMARK VINA RESULT:     -11.5      2.711      7.883
REMARK SMILES COc1ccc(CNC(=O)[C@H]2CC(C)=C(C)C[C@@H]2C(=O)NCCCCNC(=O)c2ccc(-c3c4nc(c(-c5c(F)cccc5F)c5ccc([nH]5)c(-c5c(F)cccc5F)c5nc(c(-c6c(F)cccc6F)c6ccc3[nH]6)C=C5)C=C4)cc2)cc1OC
REMARK SMILES IDX 22 1 21 2 19 3 20 4 18 6 11 7 12 8 13 9 17 10 14 11 15 12
REMARK SMILES IDX 16 13 9 14 8 15 10 17 7 18 6 19 3 20 4 21 84 22 5 23 83 24
REMARK SMILES IDX 2 25 1 26 85 27 86 28 23 29 24 30 25 31 26 32 27 33 28 35
REMARK SMILES IDX 29 36 30 37 82 38 31 39 81 40 32 41 33 42 34 43 75 44 35 45
REMARK SMILES IDX 80 46 74 47 76 48 36 49 79 50 73 51 72 52 37 54 63 55 46 56
REMARK SMILES IDX 62 57 47 58 50 59 61 60 77 61 48 62 49 63 60 65 78 66 51 67
REMARK SMILES IDX 38 68 39 69 44 70 40 71 41 72 43 73 45 74 42 75 64 76 65 77
REMARK SMILES IDX 70 78 66 79 67 80 69 81 71 82 68 83 52 84 53 85 58 86 54 87
REMARK SMILES IDX 55 88 57 89 59 90 56 91
REMARK H PARENT 21 5 8 16 26 34 76 53 50 64
REMARK Flexibility Score: inf
ROOT
ATOM      1  C   UNL A   1      31.581  28.377  25.755  1.00  0.00     0.116 C 
ENDROOT
BRANCH   1   2
ATOM      2  N   UNL A   1      31.064  27.095  26.179  1.00  0.00    -0.356 N 
ATOM      3  C   UNL A   1      30.407  26.126  25.485  1.00  0.00     0.224 C 
ATOM      4  O   UNL A   1      30.054  25.132  26.126  1.00  0.00    -0.275 OA
ATOM      5  H   UNL A   1      31.211  26.888  27.130  1.00  0.00     0.163 HD
BRANCH   3   6
ATOM      6  C   UNL A   1      30.065  26.258  23.996  1.00  0.00     0.095 C 
ATOM      7  C   UNL A   1      31.159  27.029  23.208  1.00  0.00     0.095 C 
ATOM      8  C   UNL A   1      30.623  28.208  22.386  1.00  0.00     0.045 C 
ATOM      9  C   UNL A   1      29.263  28.777  22.655  1.00  0.00    -0.074 C 
ATOM     10  C   UNL A   1      28.595  26.696  23.838  1.00  0.00     0.045 C 
ATOM     11  C   UNL A   1      29.078  30.174  22.113  1.00  0.00     0.039 C 
ATOM     12  C   UNL A   1      28.319  28.073  23.299  1.00  0.00    -0.074 C 
ATOM     13  C   UNL A   1      26.915  28.583  23.483  1.00  0.00     0.039 C 
BRANCH   7  14
ATOM     14  C   UNL A   1      32.061  26.074  22.390  1.00  0.00     0.224 C 
ATOM     15  N   UNL A   1      32.968  25.240  22.979  1.00  0.00    -0.352 N 
ATOM     16  H   UNL A   1      33.182  24.437  22.452  1.00  0.00     0.163 HD
ATOM     17  O   UNL A   1      31.909  25.920  21.175  1.00  0.00    -0.275 OA
BRANCH  15  18
ATOM     18  C   UNL A   1      33.669  25.328  24.241  1.00  0.00     0.151 C 
BRANCH  18  19
ATOM     19  C   UNL A   1      34.390  24.084  24.667  1.00  0.00    -0.025 A 
ATOM     20  C   UNL A   1      35.786  21.678  25.079  1.00  0.00     0.160 A 
ATOM     21  C   UNL A   1      36.408  22.914  25.314  1.00  0.00     0.051 A 
ATOM     22  C   UNL A   1      34.453  21.634  24.656  1.00  0.00     0.161 A 
ATOM     23  C   UNL A   1      35.720  24.110  25.097  1.00  0.00     0.009 A 
ATOM     24  C   UNL A   1      33.774  22.841  24.455  1.00  0.00     0.056 A 
BRANCH  20  25
ATOM     25  O   UNL A   1      36.480  20.532  25.358  1.00  0.00    -0.493 OA
ATOM     26  C   UNL A   1      37.851  20.631  24.970  1.00  0.00     0.278 C 
ENDBRANCH  20  25
BRANCH  22  27
ATOM     27  O   UNL A   1      33.672  20.543  24.392  1.00  0.00    -0.493 OA
ATOM     28  C   UNL A   1      32.293  20.608  24.719  1.00  0.00     0.278 C 
ENDBRANCH  22  27
ENDBRANCH  18  19
ENDBRANCH  15  18
ENDBRANCH   7  14
ENDBRANCH   3   6
ENDBRANCH   1   2
BRANCH   1  29
ATOM     29  C   UNL A   1      31.840  29.317  26.924  1.00  0.00     0.023 C 
BRANCH  29  30
ATOM     30  C   UNL A   1      31.771  30.801  26.568  1.00  0.00     0.023 C 
BRANCH  30  31
ATOM     31  C   UNL A   1      32.883  31.663  27.155  1.00  0.00     0.116 C 
BRANCH  31  32
ATOM     32  N   UNL A   1      32.460  33.017  27.482  1.00  0.00    -0.352 N 
ATOM     33  C   UNL A   1      33.108  33.949  28.259  1.00  0.00     0.251 C 
ATOM     34  H   UNL A   1      31.600  33.303  27.098  1.00  0.00     0.163 HD
ATOM     35  O   UNL A   1      32.578  35.023  28.523  1.00  0.00    -0.269 OA
BRANCH  33  36
ATOM     36  C   UNL A   1      34.439  33.622  28.807  1.00  0.00     0.039 A 
ATOM     37  C   UNL A   1      34.520  32.966  30.037  1.00  0.00     0.014 A 
ATOM     38  C   UNL A   1      35.595  33.906  28.075  1.00  0.00     0.014 A 
ATOM     39  C   UNL A   1      35.762  32.526  30.499  1.00  0.00     0.010 A 
ATOM     40  C   UNL A   1      36.818  33.402  28.500  1.00  0.00     0.010 A 
ATOM     41  C   UNL A   1      36.913  32.702  29.714  1.00  0.00    -0.014 A 
BRANCH  41  42
ATOM     42  C   UNL A   1      38.227  32.159  30.139  1.00  0.00     0.031 A 
ATOM     43  C   UNL A   1      38.703  30.839  29.602  1.00  0.00     0.074 A 
ATOM     44  C   UNL A   1      38.955  32.817  31.062  1.00  0.00     0.049 A 
ATOM     45  N   UNL A   1      39.780  30.162  29.910  1.00  0.00    -0.248 NA
ATOM     46  C   UNL A   1      37.840  30.177  28.611  1.00  0.00     0.031 C 
ATOM     47  C   UNL A   1      38.577  34.080  31.698  1.00  0.00     0.029 A 
ATOM     48  N   UNL A   1      40.163  32.507  31.635  1.00  0.00    -0.354 N 
ATOM     49  C   UNL A   1      39.716  28.993  29.162  1.00  0.00     0.074 A 
ATOM     50  C   UNL A   1      38.469  29.026  28.429  1.00  0.00     0.031 C 
ATOM     51  C   UNL A   1      39.543  34.448  32.555  1.00  0.00     0.029 A 
ATOM     52  C   UNL A   1      40.590  33.431  32.556  1.00  0.00     0.049 A 
ATOM     53  H   UNL A   1      40.675  31.697  31.406  1.00  0.00     0.167 HD
ATOM     54  C   UNL A   1      40.625  27.994  29.074  1.00  0.00     0.037 A 
ATOM     55  C   UNL A   1      41.700  33.453  33.319  1.00  0.00     0.037 A 
ATOM     56  C   UNL A   1      41.877  27.974  29.782  1.00  0.00     0.049 A 
ATOM     57  C   UNL A   1      42.693  32.331  33.204  1.00  0.00     0.074 A 
ATOM     58  C   UNL A   1      42.892  27.036  29.715  1.00  0.00     0.029 A 
ATOM     59  N   UNL A   1      42.285  28.942  30.689  1.00  0.00    -0.354 N 
ATOM     60  N   UNL A   1      42.652  31.265  32.442  1.00  0.00    -0.248 NA
ATOM     61  C   UNL A   1      43.892  32.418  34.051  1.00  0.00     0.031 C 
ATOM     62  C   UNL A   1      43.898  27.416  30.611  1.00  0.00     0.029 A 
ATOM     63  C   UNL A   1      43.528  28.613  31.202  1.00  0.00     0.049 A 
ATOM     64  H   UNL A   1      41.766  29.742  30.933  1.00  0.00     0.167 HD
ATOM     65  C   UNL A   1      43.827  30.571  32.694  1.00  0.00     0.074 A 
ATOM     66  C   UNL A   1      44.567  31.343  33.671  1.00  0.00     0.031 C 
ATOM     67  C   UNL A   1      44.256  29.398  32.167  1.00  0.00     0.037 A 
BRANCH  54  68
ATOM     68  C   UNL A   1      40.298  26.842  28.168  1.00  0.00     0.057 A 
ATOM     69  C   UNL A   1      40.832  26.746  26.876  1.00  0.00     0.134 A 
ATOM     70  C   UNL A   1      39.463  25.805  28.601  1.00  0.00     0.134 A 
ATOM     71  F   UNL A   1      41.628  27.714  26.396  1.00  0.00    -0.206 F 
ATOM     72  C   UNL A   1      40.525  25.675  26.037  1.00  0.00     0.040 A 
ATOM     73  C   UNL A   1      39.171  24.714  27.781  1.00  0.00     0.040 A 
ATOM     74  F   UNL A   1      38.922  25.832  29.828  1.00  0.00    -0.206 F 
ATOM     75  C   UNL A   1      39.696  24.650  26.492  1.00  0.00     0.006 A 
ENDBRANCH  54  68
BRANCH  55  76
ATOM     76  C   UNL A   1      41.946  34.589  34.243  1.00  0.00     0.057 A 
ATOM     77  C   UNL A   1      41.555  34.522  35.586  1.00  0.00     0.134 A 
ATOM     78  C   UNL A   1      42.563  35.768  33.808  1.00  0.00     0.134 A 
ATOM     79  F   UNL A   1      40.943  33.425  36.056  1.00  0.00    -0.206 F 
ATOM     80  C   UNL A   1      41.750  35.593  36.459  1.00  0.00     0.040 A 
ATOM     81  C   UNL A   1      42.786  36.838  34.676  1.00  0.00     0.040 A 
ATOM     82  F   UNL A   1      42.968  35.892  32.536  1.00  0.00    -0.206 F 
ATOM     83  C   UNL A   1      42.371  36.755  36.005  1.00  0.00     0.006 A 
ENDBRANCH  55  76
BRANCH  67  84
ATOM     84  C   UNL A   1      45.601  28.899  32.604  1.00  0.00     0.057 A 
ATOM     85  C   UNL A   1      45.749  28.031  33.691  1.00  0.00     0.134 A 
ATOM     86  C   UNL A   1      46.757  29.263  31.902  1.00  0.00     0.134 A 
ATOM     87  F   UNL A   1      44.682  27.655  34.413  1.00  0.00    -0.206 F 
ATOM     88  C   UNL A   1      47.003  27.557  34.079  1.00  0.00     0.040 A 
ATOM     89  C   UNL A   1      48.014  28.777  32.264  1.00  0.00     0.040 A 
ATOM     90  F   UNL A   1      46.682  30.086  30.846  1.00  0.00    -0.206 F 
ATOM     91  C   UNL A   1      48.139  27.925  33.360  1.00  0.00     0.006 A 
ENDBRANCH  67  84
ENDBRANCH  41  42
ENDBRANCH  33  36
ENDBRANCH  31  32
ENDBRANCH  30  31
ENDBRANCH  29  30
ENDBRANCH   1  29
TORSDOF 16
ENDMDL
MODEL 3
REMARK VINA RESULT:     -11.5      2.177      4.083
REMARK SMILES COc1ccc(CNC(=O)[C@H]2CC(C)=C(C)C[C@@H]2C(=O)NCCCCNC(=O)c2ccc(-c3c4nc(c(-c5c(F)cccc5F)c5ccc([nH]5)c(-c5c(F)cccc5F)c5nc(c(-c6c(F)cccc6F)c6ccc3[nH]6)C=C5)C=C4)cc2)cc1OC
REMARK SMILES IDX 22 1 21 2 19 3 20 4 18 6 11 7 12 8 13 9 17 10 14 11 15 12
REMARK SMILES IDX 16 13 9 14 8 15 10 17 7 18 6 19 3 20 4 21 84 22 5 23 83 24
REMARK SMILES IDX 2 25 1 26 85 27 86 28 23 29 24 30 25 31 26 32 27 33 28 35
REMARK SMILES IDX 29 36 30 37 82 38 31 39 81 40 32 41 33 42 34 43 75 44 35 45
REMARK SMILES IDX 80 46 74 47 76 48 36 49 79 50 73 51 72 52 37 54 63 55 46 56
REMARK SMILES IDX 62 57 47 58 50 59 61 60 77 61 48 62 49 63 60 65 78 66 51 67
REMARK SMILES IDX 38 68 39 69 44 70 40 71 41 72 43 73 45 74 42 75 64 76 65 77
REMARK SMILES IDX 70 78 66 79 67 80 69 81 71 82 68 83 52 84 53 85 58 86 54 87
REMARK SMILES IDX 55 88 57 89 59 90 56 91
REMARK H PARENT 21 5 8 16 26 34 76 53 50 64
REMARK Flexibility Score: inf
ROOT
ATOM      1  C   UNL A   1      32.333  26.231  25.993  1.00  0.00     0.116 C 
ENDROOT
BRANCH   1   2
ATOM      2  N   UNL A   1      31.518  25.093  25.628  1.00  0.00    -0.356 N 
ATOM      3  C   UNL A   1      31.038  24.693  24.419  1.00  0.00     0.224 C 
ATOM      4  O   UNL A   1      30.334  23.679  24.415  1.00  0.00    -0.275 OA
ATOM      5  H   UNL A   1      31.268  24.511  26.381  1.00  0.00     0.163 HD
BRANCH   3   6
ATOM      6  C   UNL A   1      31.301  25.468  23.123  1.00  0.00     0.095 C 
ATOM      7  C   UNL A   1      32.800  25.441  22.715  1.00  0.00     0.095 C 
ATOM      8  C   UNL A   1      33.403  26.828  22.463  1.00  0.00     0.045 C 
ATOM      9  C   UNL A   1      32.718  28.066  22.957  1.00  0.00    -0.074 C 
ATOM     10  C   UNL A   1      30.575  26.827  23.175  1.00  0.00     0.045 C 
ATOM     11  C   UNL A   1      33.632  29.265  23.046  1.00  0.00     0.039 C 
ATOM     12  C   UNL A   1      31.411  28.075  23.259  1.00  0.00    -0.074 C 
ATOM     13  C   UNL A   1      30.680  29.332  23.653  1.00  0.00     0.039 C 
BRANCH   7  14
ATOM     14  C   UNL A   1      33.067  24.440  21.566  1.00  0.00     0.224 C 
ATOM     15  N   UNL A   1      33.016  23.088  21.747  1.00  0.00    -0.352 N 
ATOM     16  H   UNL A   1      32.805  22.577  20.932  1.00  0.00     0.163 HD
ATOM     17  O   UNL A   1      33.204  24.815  20.398  1.00  0.00    -0.275 OA
BRANCH  15  18
ATOM     18  C   UNL A   1      33.215  22.272  22.924  1.00  0.00     0.151 C 
BRANCH  18  19
ATOM     19  C   UNL A   1      34.294  22.738  23.857  1.00  0.00    -0.025 A 
ATOM     20  C   UNL A   1      36.333  23.234  25.728  1.00  0.00     0.160 A 
ATOM     21  C   UNL A   1      36.617  23.207  24.354  1.00  0.00     0.051 A 
ATOM     22  C   UNL A   1      35.024  23.035  26.177  1.00  0.00     0.161 A 
ATOM     23  C   UNL A   1      35.607  22.947  23.424  1.00  0.00     0.009 A 
ATOM     24  C   UNL A   1      34.021  22.788  25.232  1.00  0.00     0.056 A 
BRANCH  20  25
ATOM     25  O   UNL A   1      37.342  23.548  26.599  1.00  0.00    -0.493 OA
ATOM     26  C   UNL A   1      38.625  23.209  26.071  1.00  0.00     0.278 C 
ENDBRANCH  20  25
BRANCH  22  27
ATOM     27  O   UNL A   1      34.545  23.041  27.458  1.00  0.00    -0.493 OA
ATOM     28  C   UNL A   1      33.296  22.418  27.713  1.00  0.00     0.278 C 
ENDBRANCH  22  27
ENDBRANCH  18  19
ENDBRANCH  15  18
ENDBRANCH   7  14
ENDBRANCH   3   6
ENDBRANCH   1   2
BRANCH   1  29
ATOM     29  C   UNL A   1      31.533  27.321  26.691  1.00  0.00     0.023 C 
BRANCH  29  30
ATOM     30  C   UNL A   1      32.372  28.273  27.541  1.00  0.00     0.023 C 
BRANCH  30  31
ATOM     31  C   UNL A   1      33.417  29.078  26.777  1.00  0.00     0.116 C 
BRANCH  31  32
ATOM     32  N   UNL A   1      33.460  30.484  27.153  1.00  0.00    -0.352 N 
ATOM     33  C   UNL A   1      34.431  31.147  27.867  1.00  0.00     0.251 C 
ATOM     34  H   UNL A   1      32.697  31.031  26.858  1.00  0.00     0.163 HD
ATOM     35  O   UNL A   1      34.281  32.321  28.189  1.00  0.00    -0.269 OA
BRANCH  33  36
ATOM     36  C   UNL A   1      35.644  30.413  28.278  1.00  0.00     0.039 A 
ATOM     37  C   UNL A   1      36.785  30.491  27.478  1.00  0.00     0.014 A 
ATOM     38  C   UNL A   1      35.668  29.706  29.483  1.00  0.00     0.014 A 
ATOM     39  C   UNL A   1      37.978  29.921  27.926  1.00  0.00     0.010 A 
ATOM     40  C   UNL A   1      36.872  29.204  29.961  1.00  0.00     0.010 A 
ATOM     41  C   UNL A   1      38.041  29.310  29.189  1.00  0.00    -0.014 A 
BRANCH  41  42
ATOM     42  C   UNL A   1      39.319  28.782  29.728  1.00  0.00     0.031 A 
ATOM     43  C   UNL A   1      39.947  29.421  30.934  1.00  0.00     0.074 A 
ATOM     44  C   UNL A   1      39.948  27.777  29.089  1.00  0.00     0.049 A 
ATOM     45  N   UNL A   1      41.094  29.156  31.506  1.00  0.00    -0.248 NA
ATOM     46  C   UNL A   1      39.203  30.524  31.562  1.00  0.00     0.031 C 
ATOM     47  C   UNL A   1      39.467  27.109  27.878  1.00  0.00     0.029 A 
ATOM     48  N   UNL A   1      41.137  27.149  29.363  1.00  0.00    -0.354 N 
ATOM     49  C   UNL A   1      41.213  30.066  32.549  1.00  0.00     0.074 A 
ATOM     50  C   UNL A   1      40.051  30.925  32.497  1.00  0.00     0.031 C 
ATOM     51  C   UNL A   1      40.340  26.151  27.528  1.00  0.00     0.029 A 
ATOM     52  C   UNL A   1      41.458  26.160  28.466  1.00  0.00     0.049 A 
ATOM     53  H   UNL A   1      41.706  27.386  30.132  1.00  0.00     0.167 HD
ATOM     54  C   UNL A   1      42.189  30.161  33.481  1.00  0.00     0.037 A 
ATOM     55  C   UNL A   1      42.536  25.355  28.405  1.00  0.00     0.037 A 
ATOM     56  C   UNL A   1      43.332  29.289  33.548  1.00  0.00     0.049 A 
ATOM     57  C   UNL A   1      43.608  25.482  29.452  1.00  0.00     0.074 A 
ATOM     58  C   UNL A   1      44.346  29.266  34.489  1.00  0.00     0.029 A 
ATOM     59  N   UNL A   1      43.610  28.282  32.635  1.00  0.00    -0.354 N 
ATOM     60  N   UNL A   1      43.674  26.301  30.472  1.00  0.00    -0.248 NA
ATOM     61  C   UNL A   1      44.752  24.565  29.341  1.00  0.00     0.031 C 
ATOM     62  C   UNL A   1      45.260  28.271  34.123  1.00  0.00     0.029 A 
ATOM     63  C   UNL A   1      44.790  27.645  32.980  1.00  0.00     0.049 A 
ATOM     64  H   UNL A   1      43.052  28.056  31.856  1.00  0.00     0.167 HD
ATOM     65  C   UNL A   1      44.848  25.982  31.141  1.00  0.00     0.074 A 
ATOM     66  C   UNL A   1      45.456  24.885  30.417  1.00  0.00     0.031 C 
ATOM     67  C   UNL A   1      45.377  26.547  32.254  1.00  0.00     0.037 A 
BRANCH  54  68
ATOM     68  C   UNL A   1      42.056  31.244  34.512  1.00  0.00     0.057 A 
ATOM     69  C   UNL A   1      41.391  31.028  35.726  1.00  0.00     0.134 A 
ATOM     70  C   UNL A   1      42.620  32.508  34.299  1.00  0.00     0.134 A 
ATOM     71  F   UNL A   1      40.816  29.844  35.985  1.00  0.00    -0.206 F 
ATOM     72  C   UNL A   1      41.268  32.038  36.681  1.00  0.00     0.040 A 
ATOM     73  C   UNL A   1      42.529  33.517  35.259  1.00  0.00     0.040 A 
ATOM     74  F   UNL A   1      43.276  32.780  33.161  1.00  0.00    -0.206 F 
ATOM     75  C   UNL A   1      41.844  33.287  36.451  1.00  0.00     0.006 A 
ENDBRANCH  54  68
BRANCH  55  76
ATOM     76  C   UNL A   1      42.646  24.338  27.329  1.00  0.00     0.057 A 
ATOM     77  C   UNL A   1      42.175  23.034  27.519  1.00  0.00     0.134 A 
ATOM     78  C   UNL A   1      43.233  24.639  26.094  1.00  0.00     0.134 A 
ATOM     79  F   UNL A   1      41.619  22.682  28.688  1.00  0.00    -0.206 F 
ATOM     80  C   UNL A   1      42.300  22.059  26.530  1.00  0.00     0.040 A 
ATOM     81  C   UNL A   1      43.344  23.680  25.086  1.00  0.00     0.040 A 
ATOM     82  F   UNL A   1      43.697  25.872  25.846  1.00  0.00    -0.206 F 
ATOM     83  C   UNL A   1      42.884  22.382  25.306  1.00  0.00     0.006 A 
ENDBRANCH  55  76
BRANCH  67  84
ATOM     84  C   UNL A   1      46.655  25.964  32.779  1.00  0.00     0.057 A 
ATOM     85  C   UNL A   1      46.663  24.923  33.713  1.00  0.00     0.134 A 
ATOM     86  C   UNL A   1      47.892  26.427  32.312  1.00  0.00     0.134 A 
ATOM     87  F   UNL A   1      45.512  24.444  34.209  1.00  0.00    -0.206 F 
ATOM     88  C   UNL A   1      47.858  24.375  34.182  1.00  0.00     0.040 A 
ATOM     89  C   UNL A   1      49.093  25.871  32.754  1.00  0.00     0.040 A 
ATOM     90  F   UNL A   1      47.953  27.418  31.410  1.00  0.00    -0.206 F 
ATOM     91  C   UNL A   1      49.077  24.844  33.696  1.00  0.00     0.006 A 
ENDBRANCH  67  84
ENDBRANCH  41  42
ENDBRANCH  33  36
ENDBRANCH  31  32
ENDBRANCH  30  31
ENDBRANCH  29  30
ENDBRANCH   1  29
TORSDOF 16
ENDMDL
