MODEL 1
REMARK VINA RESULT:     -12.6      0.000      0.000
REMARK SMILES CC1=C(C#N)C(=O)N(C)C(=O)/C1=C\Nc1ccc(C(=O)NCCCCNC(=O)c2ccc(-c3c4nc(c(-c5c(F)cccc5F)c5ccc([nH]5)c(-c5c(F)cccc5F)c5nc(c(-c6c(F)cccc6F)c6ccc3[nH]6)C=C5)C=C4)cc2)c(O)c1
REMARK SMILES IDX 23 1 22 2 21 3 19 4 20 5 18 7 15 8 16 9 85 10 17 11 83 12
REMARK SMILES IDX 14 13 13 15 1 16 2 17 3 18 12 19 6 20 10 21 7 22 8 23 11 24
REMARK SMILES IDX 9 25 4 26 5 27 84 28 24 30 25 31 26 32 27 33 28 35 29 36
REMARK SMILES IDX 30 37 82 38 31 39 81 40 32 41 33 42 34 43 75 44 35 45 80 46
REMARK SMILES IDX 74 47 76 48 36 49 79 50 73 51 72 52 37 54 63 55 46 56 62 57
REMARK SMILES IDX 47 58 50 59 61 60 77 61 48 62 49 63 60 65 78 66 51 67 38 68
REMARK SMILES IDX 39 69 44 70 40 71 41 72 43 73 45 74 42 75 64 76 65 77 70 78
REMARK SMILES IDX 66 79 67 80 69 81 71 82 68 83 52 84 53 85 58 86 54 87 55 88
REMARK SMILES IDX 57 89 59 90 56 91
REMARK H PARENT 21 6 14 14 84 29 26 34 76 53 50 64
REMARK Flexibility Score: inf
ROOT
ATOM      1  C   UNL A   1      31.893  30.444  26.842  1.00  0.00     0.023 C 
ENDROOT
BRANCH   1   2
ATOM      2  C   UNL A   1      31.985  29.795  25.465  1.00  0.00     0.116 C 
BRANCH   2   3
ATOM      3  N   UNL A   1      30.874  30.109  24.578  1.00  0.00    -0.352 N 
ATOM      4  C   UNL A   1      30.409  29.417  23.484  1.00  0.00     0.255 C 
ATOM      5  O   UNL A   1      29.461  29.865  22.845  1.00  0.00    -0.269 OA
ATOM      6  H   UNL A   1      30.385  30.936  24.793  1.00  0.00     0.163 HD
BRANCH   4   7
ATOM      7  C   UNL A   1      31.066  28.169  23.035  1.00  0.00     0.081 A 
ATOM      8  C   UNL A   1      32.551  25.870  22.350  1.00  0.00     0.042 A 
ATOM      9  C   UNL A   1      33.081  27.148  22.148  1.00  0.00     0.027 A 
ATOM     10  C   UNL A   1      31.241  25.765  22.837  1.00  0.00     0.073 A 
ATOM     11  C   UNL A   1      32.347  28.290  22.487  1.00  0.00     0.020 A 
ATOM     12  C   UNL A   1      30.490  26.901  23.134  1.00  0.00     0.130 A 
BRANCH   8  13
ATOM     13  N   UNL A   1      33.273  24.689  22.139  1.00  0.00    -0.361 N 
ATOM     14  H   UNL A   1      34.181  24.812  21.781  1.00  0.00     0.166 HD
BRANCH  13  15
ATOM     15  C   UNL A   1      32.904  23.384  22.354  1.00  0.00     0.097 C 
ATOM     16  C   UNL A   1      32.040  20.581  22.362  1.00  0.00     0.047 C 
ATOM     17  C   UNL A   1      32.685  21.233  23.568  1.00  0.00    -0.013 C 
ATOM     18  C   UNL A   1      32.885  20.572  24.723  1.00  0.00     0.121 C 
ATOM     19  C   UNL A   1      33.104  22.631  23.457  1.00  0.00     0.060 C 
ATOM     20  C   UNL A   1      33.495  21.213  25.913  1.00  0.00     0.271 C 
ATOM     21  C   UNL A   1      33.803  23.290  24.624  1.00  0.00     0.262 C 
ATOM     22  O   UNL A   1      33.629  20.574  26.955  1.00  0.00    -0.268 OA
ATOM     23  N   UNL A   1      33.898  22.532  25.782  1.00  0.00    -0.277 N 
ATOM     24  O   UNL A   1      34.259  24.431  24.535  1.00  0.00    -0.269 OA
ATOM     25  C   UNL A   1      34.498  23.143  26.957  1.00  0.00     0.157 C 
BRANCH  18  26
ATOM     26  C   UNL A   1      32.470  19.118  24.885  1.00  0.00     0.105 C 
ATOM     27  N   UNL A   1      32.126  17.912  25.019  1.00  0.00    -0.192 NA
ENDBRANCH  18  26
ENDBRANCH  13  15
ENDBRANCH   8  13
BRANCH  12  28
ATOM     28  O   UNL A   1      29.191  26.679  23.496  1.00  0.00    -0.507 OA
ATOM     29  H   UNL A   1      28.627  26.181  22.938  1.00  0.00     0.293 HD
ENDBRANCH  12  28
ENDBRANCH   4   7
ENDBRANCH   2   3
ENDBRANCH   1   2
BRANCH   1  30
ATOM     30  C   UNL A   1      31.673  31.956  26.863  1.00  0.00     0.023 C 
BRANCH  30  31
ATOM     31  C   UNL A   1      32.849  32.802  27.344  1.00  0.00     0.116 C 
BRANCH  31  32
ATOM     32  N   UNL A   1      32.482  34.160  27.712  1.00  0.00    -0.352 N 
ATOM     33  C   UNL A   1      33.030  35.011  28.644  1.00  0.00     0.251 C 
ATOM     34  H   UNL A   1      31.717  34.531  27.214  1.00  0.00     0.163 HD
ATOM     35  O   UNL A   1      32.500  36.095  28.870  1.00  0.00    -0.269 OA
BRANCH  33  36
ATOM     36  C   UNL A   1      34.229  34.609  29.413  1.00  0.00     0.039 A 
ATOM     37  C   UNL A   1      34.062  34.131  30.716  1.00  0.00     0.014 A 
ATOM     38  C   UNL A   1      35.506  34.679  28.854  1.00  0.00     0.014 A 
ATOM     39  C   UNL A   1      35.160  33.626  31.416  1.00  0.00     0.010 A 
ATOM     40  C   UNL A   1      36.582  34.091  29.515  1.00  0.00     0.010 A 
ATOM     41  C   UNL A   1      36.419  33.548  30.798  1.00  0.00    -0.014 A 
BRANCH  41  42
ATOM     42  C   UNL A   1      37.563  32.871  31.461  1.00  0.00     0.031 A 
ATOM     43  C   UNL A   1      38.224  31.681  30.822  1.00  0.00     0.074 A 
ATOM     44  C   UNL A   1      37.947  33.267  32.690  1.00  0.00     0.049 A 
ATOM     45  N   UNL A   1      39.181  30.917  31.286  1.00  0.00    -0.248 NA
ATOM     46  C   UNL A   1      37.717  31.275  29.503  1.00  0.00     0.031 C 
ATOM     47  C   UNL A   1      37.339  34.358  33.455  1.00  0.00     0.029 A 
ATOM     48  N   UNL A   1      38.927  32.785  33.523  1.00  0.00    -0.354 N 
ATOM     49  C   UNL A   1      39.374  29.930  30.328  1.00  0.00     0.074 A 
ATOM     50  C   UNL A   1      38.397  30.159  29.286  1.00  0.00     0.031 C 
ATOM     51  C   UNL A   1      37.970  34.474  34.634  1.00  0.00     0.029 A 
ATOM     52  C   UNL A   1      39.000  33.444  34.726  1.00  0.00     0.049 A 
ATOM     53  H   UNL A   1      39.521  32.039  33.280  1.00  0.00     0.167 HD
ATOM     54  C   UNL A   1      40.294  28.936  30.309  1.00  0.00     0.037 A 
ATOM     55  C   UNL A   1      39.797  33.237  35.791  1.00  0.00     0.037 A 
ATOM     56  C   UNL A   1      41.279  28.724  31.337  1.00  0.00     0.049 A 
ATOM     57  C   UNL A   1      40.825  32.144  35.743  1.00  0.00     0.074 A 
ATOM     58  C   UNL A   1      42.314  27.807  31.364  1.00  0.00     0.029 A 
ATOM     59  N   UNL A   1      41.344  29.435  32.527  1.00  0.00    -0.354 N 
ATOM     60  N   UNL A   1      41.062  31.278  34.787  1.00  0.00    -0.248 NA
ATOM     61  C   UNL A   1      41.700  32.003  36.914  1.00  0.00     0.031 C 
ATOM     62  C   UNL A   1      42.972  27.925  32.593  1.00  0.00     0.029 A 
ATOM     63  C   UNL A   1      42.380  28.952  33.312  1.00  0.00     0.049 A 
ATOM     64  H   UNL A   1      40.742  30.173  32.778  1.00  0.00     0.167 HD
ATOM     65  C   UNL A   1      42.122  30.499  35.234  1.00  0.00     0.074 A 
ATOM     66  C   UNL A   1      42.492  31.007  36.539  1.00  0.00     0.031 C 
ATOM     67  C   UNL A   1      42.731  29.456  34.617  1.00  0.00     0.037 A 
BRANCH  54  68
ATOM     68  C   UNL A   1      40.265  27.997  29.136  1.00  0.00     0.057 A 
ATOM     69  C   UNL A   1      40.987  28.253  27.962  1.00  0.00     0.134 A 
ATOM     70  C   UNL A   1      39.503  26.823  29.179  1.00  0.00     0.134 A 
ATOM     71  F   UNL A   1      41.730  29.364  27.848  1.00  0.00    -0.206 F 
ATOM     72  C   UNL A   1      40.918  27.397  26.860  1.00  0.00     0.040 A 
ATOM     73  C   UNL A   1      39.450  25.945  28.096  1.00  0.00     0.040 A 
ATOM     74  F   UNL A   1      38.793  26.511  30.275  1.00  0.00    -0.206 F 
ATOM     75  C   UNL A   1      40.150  26.237  26.927  1.00  0.00     0.006 A 
ENDBRANCH  54  68
BRANCH  55  76
ATOM     76  C   UNL A   1      39.659  34.109  36.985  1.00  0.00     0.057 A 
ATOM     77  C   UNL A   1      38.859  33.731  38.068  1.00  0.00     0.134 A 
ATOM     78  C   UNL A   1      40.357  35.319  37.087  1.00  0.00     0.134 A 
ATOM     79  F   UNL A   1      38.155  32.591  38.021  1.00  0.00    -0.206 F 
ATOM     80  C   UNL A   1      38.753  34.526  39.211  1.00  0.00     0.040 A 
ATOM     81  C   UNL A   1      40.278  36.113  38.232  1.00  0.00     0.040 A 
ATOM     82  F   UNL A   1      41.148  35.731  36.086  1.00  0.00    -0.206 F 
ATOM     83  C   UNL A   1      39.471  35.717  39.297  1.00  0.00     0.006 A 
ENDBRANCH  55  76
BRANCH  67  84
ATOM     84  C   UNL A   1      43.869  28.799  35.342  1.00  0.00     0.057 A 
ATOM     85  C   UNL A   1      45.190  29.245  35.200  1.00  0.00     0.134 A 
ATOM     86  C   UNL A   1      43.638  27.734  36.221  1.00  0.00     0.134 A 
ATOM     87  F   UNL A   1      45.481  30.253  34.364  1.00  0.00    -0.206 F 
ATOM     88  C   UNL A   1      46.241  28.642  35.892  1.00  0.00     0.040 A 
ATOM     89  C   UNL A   1      44.678  27.140  36.939  1.00  0.00     0.040 A 
ATOM     90  F   UNL A   1      42.396  27.262  36.408  1.00  0.00    -0.206 F 
ATOM     91  C   UNL A   1      45.985  27.591  36.771  1.00  0.00     0.006 A 
ENDBRANCH  67  84
ENDBRANCH  41  42
ENDBRANCH  33  36
ENDBRANCH  31  32
ENDBRANCH  30  31
ENDBRANCH   1  30
TORSDOF 15
ENDMDL
MODEL 2
REMARK VINA RESULT:     -12.5      1.303      6.253
REMARK SMILES CC1=C(C#N)C(=O)N(C)C(=O)/C1=C\Nc1ccc(C(=O)NCCCCNC(=O)c2ccc(-c3c4nc(c(-c5c(F)cccc5F)c5ccc([nH]5)c(-c5c(F)cccc5F)c5nc(c(-c6c(F)cccc6F)c6ccc3[nH]6)C=C5)C=C4)cc2)c(O)c1
REMARK SMILES IDX 23 1 22 2 21 3 19 4 20 5 18 7 15 8 16 9 85 10 17 11 83 12
REMARK SMILES IDX 14 13 13 15 1 16 2 17 3 18 12 19 6 20 10 21 7 22 8 23 11 24
REMARK SMILES IDX 9 25 4 26 5 27 84 28 24 30 25 31 26 32 27 33 28 35 29 36
REMARK SMILES IDX 30 37 82 38 31 39 81 40 32 41 33 42 34 43 75 44 35 45 80 46
REMARK SMILES IDX 74 47 76 48 36 49 79 50 73 51 72 52 37 54 63 55 46 56 62 57
REMARK SMILES IDX 47 58 50 59 61 60 77 61 48 62 49 63 60 65 78 66 51 67 38 68
REMARK SMILES IDX 39 69 44 70 40 71 41 72 43 73 45 74 42 75 64 76 65 77 70 78
REMARK SMILES IDX 66 79 67 80 69 81 71 82 68 83 52 84 53 85 58 86 54 87 55 88
REMARK SMILES IDX 57 89 59 90 56 91
REMARK H PARENT 21 6 14 14 84 29 26 34 76 53 50 64
REMARK Flexibility Score: inf
ROOT
ATOM      1  C   UNL A   1      31.575  30.471  26.476  1.00  0.00     0.023 C 
ENDROOT
BRANCH   1   2
ATOM      2  C   UNL A   1      32.007  29.980  25.099  1.00  0.00     0.116 C 
BRANCH   2   3
ATOM      3  N   UNL A   1      30.906  29.703  24.187  1.00  0.00    -0.352 N 
ATOM      4  C   UNL A   1      30.402  28.494  23.770  1.00  0.00     0.255 C 
ATOM      5  O   UNL A   1      29.472  28.472  22.969  1.00  0.00    -0.269 OA
ATOM      6  H   UNL A   1      30.459  30.498  23.815  1.00  0.00     0.163 HD
BRANCH   4   7
ATOM      7  C   UNL A   1      30.996  27.219  24.232  1.00  0.00     0.081 A 
ATOM      8  C   UNL A   1      32.304  24.955  25.293  1.00  0.00     0.042 A 
ATOM      9  C   UNL A   1      33.036  25.991  24.704  1.00  0.00     0.027 A 
ATOM     10  C   UNL A   1      30.904  25.043  25.282  1.00  0.00     0.073 A 
ATOM     11  C   UNL A   1      32.391  27.115  24.177  1.00  0.00     0.020 A 
ATOM     12  C   UNL A   1      30.256  26.140  24.718  1.00  0.00     0.130 A 
BRANCH   8  13
ATOM     13  N   UNL A   1      32.891  23.860  25.938  1.00  0.00    -0.361 N 
ATOM     14  H   UNL A   1      33.400  24.077  26.752  1.00  0.00     0.166 HD
BRANCH  13  15
ATOM     15  C   UNL A   1      32.864  22.528  25.606  1.00  0.00     0.097 C 
ATOM     16  C   UNL A   1      32.357  19.747  24.822  1.00  0.00     0.047 C 
ATOM     17  C   UNL A   1      33.758  20.298  24.996  1.00  0.00    -0.013 C 
ATOM     18  C   UNL A   1      34.856  19.539  24.820  1.00  0.00     0.121 C 
ATOM     19  C   UNL A   1      33.907  21.705  25.367  1.00  0.00     0.060 C 
ATOM     20  C   UNL A   1      36.228  20.068  25.011  1.00  0.00     0.271 C 
ATOM     21  C   UNL A   1      35.293  22.296  25.491  1.00  0.00     0.262 C 
ATOM     22  O   UNL A   1      37.198  19.326  24.866  1.00  0.00    -0.268 OA
ATOM     23  N   UNL A   1      36.347  21.407  25.347  1.00  0.00    -0.277 N 
ATOM     24  O   UNL A   1      35.459  23.498  25.702  1.00  0.00    -0.269 OA
ATOM     25  C   UNL A   1      37.700  21.908  25.527  1.00  0.00     0.157 C 
BRANCH  18  26
ATOM     26  C   UNL A   1      34.751  18.073  24.431  1.00  0.00     0.105 C 
ATOM     27  N   UNL A   1      34.665  16.857  24.109  1.00  0.00    -0.192 NA
ENDBRANCH  18  26
ENDBRANCH  13  15
ENDBRANCH   8  13
BRANCH  12  28
ATOM     28  O   UNL A   1      28.893  26.065  24.665  1.00  0.00    -0.507 OA
ATOM     29  H   UNL A   1      28.477  25.545  24.006  1.00  0.00     0.293 HD
ENDBRANCH  12  28
ENDBRANCH   4   7
ENDBRANCH   2   3
ENDBRANCH   1   2
BRANCH   1  30
ATOM     30  C   UNL A   1      31.434  31.984  26.641  1.00  0.00     0.023 C 
BRANCH  30  31
ATOM     31  C   UNL A   1      32.619  32.707  27.274  1.00  0.00     0.116 C 
BRANCH  31  32
ATOM     32  N   UNL A   1      32.337  34.086  27.639  1.00  0.00    -0.352 N 
ATOM     33  C   UNL A   1      32.959  34.914  28.545  1.00  0.00     0.251 C 
ATOM     34  H   UNL A   1      31.578  34.493  27.161  1.00  0.00     0.163 HD
ATOM     35  O   UNL A   1      32.495  36.028  28.776  1.00  0.00    -0.269 OA
BRANCH  33  36
ATOM     36  C   UNL A   1      34.158  34.455  29.280  1.00  0.00     0.039 A 
ATOM     37  C   UNL A   1      33.990  33.865  30.536  1.00  0.00     0.014 A 
ATOM     38  C   UNL A   1      35.436  34.583  28.735  1.00  0.00     0.014 A 
ATOM     39  C   UNL A   1      35.090  33.308  31.193  1.00  0.00     0.010 A 
ATOM     40  C   UNL A   1      36.514  33.947  29.346  1.00  0.00     0.010 A 
ATOM     41  C   UNL A   1      36.351  33.293  30.576  1.00  0.00    -0.014 A 
BRANCH  41  42
ATOM     42  C   UNL A   1      37.498  32.568  31.182  1.00  0.00     0.031 A 
ATOM     43  C   UNL A   1      38.107  33.040  32.473  1.00  0.00     0.074 A 
ATOM     44  C   UNL A   1      38.057  31.538  30.518  1.00  0.00     0.049 A 
ATOM     45  N   UNL A   1      39.156  32.583  33.110  1.00  0.00    -0.248 NA
ATOM     46  C   UNL A   1      37.474  34.203  33.114  1.00  0.00     0.031 C 
ATOM     47  C   UNL A   1      37.612  31.027  29.220  1.00  0.00     0.029 A 
ATOM     48  N   UNL A   1      39.134  30.746  30.834  1.00  0.00    -0.354 N 
ATOM     49  C   UNL A   1      39.321  33.414  34.210  1.00  0.00     0.074 A 
ATOM     50  C   UNL A   1      38.299  34.435  34.123  1.00  0.00     0.031 C 
ATOM     51  C   UNL A   1      38.396  29.999  28.859  1.00  0.00     0.029 A 
ATOM     52  C   UNL A   1      39.421  29.801  29.879  1.00  0.00     0.049 A 
ATOM     53  H   UNL A   1      39.651  30.847  31.665  1.00  0.00     0.167 HD
ATOM     54  C   UNL A   1      40.227  33.323  35.213  1.00  0.00     0.037 A 
ATOM     55  C   UNL A   1      40.406  28.885  29.821  1.00  0.00     0.037 A 
ATOM     56  C   UNL A   1      41.227  32.292  35.309  1.00  0.00     0.049 A 
ATOM     57  C   UNL A   1      41.388  28.785  30.952  1.00  0.00     0.074 A 
ATOM     58  C   UNL A   1      42.128  32.057  36.333  1.00  0.00     0.029 A 
ATOM     59  N   UNL A   1      41.466  31.330  34.338  1.00  0.00    -0.354 N 
ATOM     60  N   UNL A   1      41.473  29.516  32.037  1.00  0.00    -0.248 NA
ATOM     61  C   UNL A   1      42.406  27.730  30.857  1.00  0.00     0.031 C 
ATOM     62  C   UNL A   1      42.948  30.987  35.957  1.00  0.00     0.029 A 
ATOM     63  C   UNL A   1      42.524  30.521  34.723  1.00  0.00     0.049 A 
ATOM     64  H   UNL A   1      40.960  31.237  33.499  1.00  0.00     0.167 HD
ATOM     65  C   UNL A   1      42.542  29.003  32.760  1.00  0.00     0.074 A 
ATOM     66  C   UNL A   1      43.063  27.886  31.998  1.00  0.00     0.031 C 
ATOM     67  C   UNL A   1      43.045  29.421  33.948  1.00  0.00     0.037 A 
BRANCH  54  68
ATOM     68  C   UNL A   1      40.177  34.379  36.281  1.00  0.00     0.057 A 
ATOM     69  C   UNL A   1      39.342  34.262  37.402  1.00  0.00     0.134 A 
ATOM     70  C   UNL A   1      40.972  35.528  36.188  1.00  0.00     0.134 A 
ATOM     71  F   UNL A   1      38.546  33.192  37.550  1.00  0.00    -0.206 F 
ATOM     72  C   UNL A   1      39.269  35.270  38.366  1.00  0.00     0.040 A 
ATOM     73  C   UNL A   1      40.930  36.527  37.161  1.00  0.00     0.040 A 
ATOM     74  F   UNL A   1      41.800  35.700  35.146  1.00  0.00    -0.206 F 
ATOM     75  C   UNL A   1      40.067  36.405  38.249  1.00  0.00     0.006 A 
ENDBRANCH  54  68
BRANCH  55  76
ATOM     76  C   UNL A   1      40.488  27.975  28.651  1.00  0.00     0.057 A 
ATOM     77  C   UNL A   1      39.792  26.762  28.629  1.00  0.00     0.134 A 
ATOM     78  C   UNL A   1      41.229  28.316  27.514  1.00  0.00     0.134 A 
ATOM     79  F   UNL A   1      39.078  26.374  29.696  1.00  0.00    -0.206 F 
ATOM     80  C   UNL A   1      39.832  25.916  27.519  1.00  0.00     0.040 A 
ATOM     81  C   UNL A   1      41.261  27.492  26.388  1.00  0.00     0.040 A 
ATOM     82  F   UNL A   1      41.909  29.471  27.470  1.00  0.00    -0.206 F 
ATOM     83  C   UNL A   1      40.563  26.286  26.390  1.00  0.00     0.006 A 
ENDBRANCH  55  76
BRANCH  67  84
ATOM     84  C   UNL A   1      44.214  28.661  34.504  1.00  0.00     0.057 A 
ATOM     85  C   UNL A   1      44.043  27.529  35.311  1.00  0.00     0.134 A 
ATOM     86  C   UNL A   1      45.526  29.044  34.198  1.00  0.00     0.134 A 
ATOM     87  F   UNL A   1      42.813  27.117  35.652  1.00  0.00    -0.206 F 
ATOM     88  C   UNL A   1      45.135  26.816  35.808  1.00  0.00     0.040 A 
ATOM     89  C   UNL A   1      46.626  28.323  34.668  1.00  0.00     0.040 A 
ATOM     90  F   UNL A   1      45.761  30.115  33.424  1.00  0.00    -0.206 F 
ATOM     91  C   UNL A   1      46.432  27.209  35.480  1.00  0.00     0.006 A 
ENDBRANCH  67  84
ENDBRANCH  41  42
ENDBRANCH  33  36
ENDBRANCH  31  32
ENDBRANCH  30  31
ENDBRANCH   1  30
TORSDOF 15
ENDMDL
MODEL 3
REMARK VINA RESULT:     -12.4      0.806      6.153
REMARK SMILES CC1=C(C#N)C(=O)N(C)C(=O)/C1=C\Nc1ccc(C(=O)NCCCCNC(=O)c2ccc(-c3c4nc(c(-c5c(F)cccc5F)c5ccc([nH]5)c(-c5c(F)cccc5F)c5nc(c(-c6c(F)cccc6F)c6ccc3[nH]6)C=C5)C=C4)cc2)c(O)c1
REMARK SMILES IDX 23 1 22 2 21 3 19 4 20 5 18 7 15 8 16 9 85 10 17 11 83 12
REMARK SMILES IDX 14 13 13 15 1 16 2 17 3 18 12 19 6 20 10 21 7 22 8 23 11 24
REMARK SMILES IDX 9 25 4 26 5 27 84 28 24 30 25 31 26 32 27 33 28 35 29 36
REMARK SMILES IDX 30 37 82 38 31 39 81 40 32 41 33 42 34 43 75 44 35 45 80 46
REMARK SMILES IDX 74 47 76 48 36 49 79 50 73 51 72 52 37 54 63 55 46 56 62 57
REMARK SMILES IDX 47 58 50 59 61 60 77 61 48 62 49 63 60 65 78 66 51 67 38 68
REMARK SMILES IDX 39 69 44 70 40 71 41 72 43 73 45 74 42 75 64 76 65 77 70 78
REMARK SMILES IDX 66 79 67 80 69 81 71 82 68 83 52 84 53 85 58 86 54 87 55 88
REMARK SMILES IDX 57 89 59 90 56 91
REMARK H PARENT 21 6 14 14 84 29 26 34 76 53 50 64
REMARK Flexibility Score: inf
ROOT
ATOM      1  C   UNL A   1      31.520  30.540  26.668  1.00  0.00     0.023 C 
ENDROOT
BRANCH   1   2
ATOM      2  C   UNL A   1      31.922  29.905  25.341  1.00  0.00     0.116 C 
BRANCH   2   3
ATOM      3  N   UNL A   1      30.947  30.074  24.274  1.00  0.00    -0.352 N 
ATOM      4  C   UNL A   1      30.665  29.250  23.209  1.00  0.00     0.255 C 
ATOM      5  O   UNL A   1      29.812  29.587  22.395  1.00  0.00    -0.269 OA
ATOM      6  H   UNL A   1      30.412  30.900  24.321  1.00  0.00     0.163 HD
BRANCH   4   7
ATOM      7  C   UNL A   1      31.412  27.988  23.004  1.00  0.00     0.081 A 
ATOM      8  C   UNL A   1      32.610  25.498  22.434  1.00  0.00     0.042 A 
ATOM      9  C   UNL A   1      31.313  25.564  22.953  1.00  0.00     0.027 A 
ATOM     10  C   UNL A   1      33.319  26.697  22.268  1.00  0.00     0.073 A 
ATOM     11  C   UNL A   1      30.716  26.797  23.237  1.00  0.00     0.020 A 
ATOM     12  C   UNL A   1      32.744  27.924  22.592  1.00  0.00     0.130 A 
BRANCH   8  13
ATOM     13  N   UNL A   1      33.222  24.308  22.023  1.00  0.00    -0.361 N 
ATOM     14  H   UNL A   1      34.015  24.421  21.451  1.00  0.00     0.166 HD
BRANCH  13  15
ATOM     15  C   UNL A   1      32.884  23.006  22.298  1.00  0.00     0.097 C 
ATOM     16  C   UNL A   1      32.090  20.185  22.433  1.00  0.00     0.047 C 
ATOM     17  C   UNL A   1      32.702  20.912  23.613  1.00  0.00    -0.013 C 
ATOM     18  C   UNL A   1      32.901  20.314  24.803  1.00  0.00     0.121 C 
ATOM     19  C   UNL A   1      33.086  22.314  23.440  1.00  0.00     0.060 C 
ATOM     20  C   UNL A   1      33.478  21.028  25.967  1.00  0.00     0.271 C 
ATOM     21  C   UNL A   1      33.751  23.047  24.581  1.00  0.00     0.262 C 
ATOM     22  O   UNL A   1      33.613  20.444  27.041  1.00  0.00    -0.268 OA
ATOM     23  N   UNL A   1      33.849  22.349  25.776  1.00  0.00    -0.277 N 
ATOM     24  O   UNL A   1      34.180  24.194  24.443  1.00  0.00    -0.269 OA
ATOM     25  C   UNL A   1      34.417  23.032  26.928  1.00  0.00     0.157 C 
BRANCH  18  26
ATOM     26  C   UNL A   1      32.521  18.860  25.030  1.00  0.00     0.105 C 
ATOM     27  N   UNL A   1      32.205  17.653  25.219  1.00  0.00    -0.192 NA
ENDBRANCH  18  26
ENDBRANCH  13  15
ENDBRANCH   8  13
BRANCH  12  28
ATOM     28  O   UNL A   1      33.565  29.012  22.494  1.00  0.00    -0.507 OA
ATOM     29  H   UNL A   1      34.286  29.004  21.895  1.00  0.00     0.293 HD
ENDBRANCH  12  28
ENDBRANCH   4   7
ENDBRANCH   2   3
ENDBRANCH   1   2
BRANCH   1  30
ATOM     30  C   UNL A   1      31.430  32.065  26.688  1.00  0.00     0.023 C 
BRANCH  30  31
ATOM     31  C   UNL A   1      32.647  32.805  27.234  1.00  0.00     0.116 C 
BRANCH  31  32
ATOM     32  N   UNL A   1      32.371  34.178  27.626  1.00  0.00    -0.352 N 
ATOM     33  C   UNL A   1      32.999  34.987  28.545  1.00  0.00     0.251 C 
ATOM     34  H   UNL A   1      31.611  34.596  27.160  1.00  0.00     0.163 HD
ATOM     35  O   UNL A   1      32.540  36.097  28.799  1.00  0.00    -0.269 OA
BRANCH  33  36
ATOM     36  C   UNL A   1      34.200  34.511  29.266  1.00  0.00     0.039 A 
ATOM     37  C   UNL A   1      34.041  33.938  30.531  1.00  0.00     0.014 A 
ATOM     38  C   UNL A   1      35.472  34.604  28.698  1.00  0.00     0.014 A 
ATOM     39  C   UNL A   1      35.140  33.366  31.177  1.00  0.00     0.010 A 
ATOM     40  C   UNL A   1      36.546  33.953  29.299  1.00  0.00     0.010 A 
ATOM     41  C   UNL A   1      36.390  33.317  30.539  1.00  0.00    -0.014 A 
BRANCH  41  42
ATOM     42  C   UNL A   1      37.531  32.574  31.135  1.00  0.00     0.031 A 
ATOM     43  C   UNL A   1      38.171  33.048  32.410  1.00  0.00     0.074 A 
ATOM     44  C   UNL A   1      38.057  31.525  30.474  1.00  0.00     0.049 A 
ATOM     45  N   UNL A   1      39.221  32.576  33.035  1.00  0.00    -0.248 NA
ATOM     46  C   UNL A   1      37.573  34.231  33.047  1.00  0.00     0.031 C 
ATOM     47  C   UNL A   1      37.579  31.008  29.190  1.00  0.00     0.029 A 
ATOM     48  N   UNL A   1      39.122  30.714  30.781  1.00  0.00    -0.354 N 
ATOM     49  C   UNL A   1      39.422  33.416  34.123  1.00  0.00     0.074 A 
ATOM     50  C   UNL A   1      38.421  34.458  34.040  1.00  0.00     0.031 C 
ATOM     51  C   UNL A   1      38.335  29.960  28.828  1.00  0.00     0.029 A 
ATOM     52  C   UNL A   1      39.373  29.752  29.833  1.00  0.00     0.049 A 
ATOM     53  H   UNL A   1      39.654  30.813  31.603  1.00  0.00     0.167 HD
ATOM     54  C   UNL A   1      40.342  33.317  35.112  1.00  0.00     0.037 A 
ATOM     55  C   UNL A   1      40.336  28.814  29.770  1.00  0.00     0.037 A 
ATOM     56  C   UNL A   1      41.322  32.266  35.203  1.00  0.00     0.049 A 
ATOM     57  C   UNL A   1      41.335  28.706  30.886  1.00  0.00     0.074 A 
ATOM     58  C   UNL A   1      42.234  32.023  36.215  1.00  0.00     0.029 A 
ATOM     59  N   UNL A   1      41.523  31.288  34.239  1.00  0.00    -0.354 N 
ATOM     60  N   UNL A   1      41.454  29.448  31.961  1.00  0.00    -0.248 NA
ATOM     61  C   UNL A   1      42.329  27.629  30.786  1.00  0.00     0.031 C 
ATOM     62  C   UNL A   1      43.025  30.931  35.838  1.00  0.00     0.029 A 
ATOM     63  C   UNL A   1      42.571  30.461  34.616  1.00  0.00     0.049 A 
ATOM     64  H   UNL A   1      41.002  31.196  33.410  1.00  0.00     0.167 HD
ATOM     65  C   UNL A   1      42.523  28.920  32.672  1.00  0.00     0.074 A 
ATOM     66  C   UNL A   1      43.008  27.784  31.915  1.00  0.00     0.031 C 
ATOM     67  C   UNL A   1      43.055  29.341  33.847  1.00  0.00     0.037 A 
BRANCH  54  68
ATOM     68  C   UNL A   1      40.332  34.385  36.168  1.00  0.00     0.057 A 
ATOM     69  C   UNL A   1      39.484  34.321  37.283  1.00  0.00     0.134 A 
ATOM     70  C   UNL A   1      41.180  35.496  36.069  1.00  0.00     0.134 A 
ATOM     71  F   UNL A   1      38.638  33.290  37.435  1.00  0.00    -0.206 F 
ATOM     72  C   UNL A   1      39.450  35.341  38.235  1.00  0.00     0.040 A 
ATOM     73  C   UNL A   1      41.177  36.506  37.031  1.00  0.00     0.040 A 
ATOM     74  F   UNL A   1      42.024  35.618  35.032  1.00  0.00    -0.206 F 
ATOM     75  C   UNL A   1      40.300  36.436  38.112  1.00  0.00     0.006 A 
ENDBRANCH  54  68
BRANCH  55  76
ATOM     76  C   UNL A   1      40.379  27.889  28.610  1.00  0.00     0.057 A 
ATOM     77  C   UNL A   1      41.103  28.210  27.456  1.00  0.00     0.134 A 
ATOM     78  C   UNL A   1      39.733  26.648  28.644  1.00  0.00     0.134 A 
ATOM     79  F   UNL A   1      41.729  29.392  27.359  1.00  0.00    -0.206 F 
ATOM     80  C   UNL A   1      41.180  27.331  26.374  1.00  0.00     0.040 A 
ATOM     81  C   UNL A   1      39.820  25.749  27.579  1.00  0.00     0.040 A 
ATOM     82  F   UNL A   1      39.033  26.278  29.726  1.00  0.00    -0.206 F 
ATOM     83  C   UNL A   1      40.544  26.092  26.439  1.00  0.00     0.006 A 
ENDBRANCH  55  76
BRANCH  67  84
ATOM     84  C   UNL A   1      44.217  28.563  34.392  1.00  0.00     0.057 A 
ATOM     85  C   UNL A   1      45.542  28.923  34.113  1.00  0.00     0.134 A 
ATOM     86  C   UNL A   1      44.009  27.464  35.236  1.00  0.00     0.134 A 
ATOM     87  F   UNL A   1      45.809  29.957  33.301  1.00  0.00    -0.206 F 
ATOM     88  C   UNL A   1      46.618  28.206  34.640  1.00  0.00     0.040 A 
ATOM     89  C   UNL A   1      45.078  26.756  35.789  1.00  0.00     0.040 A 
ATOM     90  F   UNL A   1      42.766  27.070  35.549  1.00  0.00    -0.206 F 
ATOM     91  C   UNL A   1      46.387  27.124  35.487  1.00  0.00     0.006 A 
ENDBRANCH  67  84
ENDBRANCH  41  42
ENDBRANCH  33  36
ENDBRANCH  31  32
ENDBRANCH  30  31
ENDBRANCH   1  30
TORSDOF 15
ENDMDL
