MODEL 1
REMARK VINA RESULT:     -12.2      0.000      0.000
REMARK SMILES Cc1c(Br)c(C)c2c(c1Br)O[C@H](C(F)(F)F)C(C(=O)NCCCCNC(=O)c1ccc(-c3c4nc(c(-c5c(F)cccc5F)c5ccc([nH]5)c(-c5c(F)cccc5F)c5nc(c(-c6c(F)cccc6F)c6ccc3[nH]6)C=C5)C=C4)cc1)=C2
REMARK SMILES IDX 23 1 22 2 21 3 20 4 18 5 19 6 17 8 1 9 2 10 3 11 9 12 4 13
REMARK SMILES IDX 5 14 8 15 10 16 6 17 7 18 11 19 82 20 12 21 13 22 14 23
REMARK SMILES IDX 15 24 16 25 24 26 25 27 26 28 27 30 28 31 29 32 81 33 30 34
REMARK SMILES IDX 80 35 31 36 32 37 33 38 74 39 34 40 79 41 73 42 75 43 35 44
REMARK SMILES IDX 78 45 72 46 71 47 36 49 62 50 45 51 61 52 46 53 49 54 60 55
REMARK SMILES IDX 76 56 47 57 48 58 59 60 77 61 50 62 37 63 38 64 43 65 39 66
REMARK SMILES IDX 40 67 42 68 44 69 41 70 63 71 64 72 69 73 65 74 66 75 68 76
REMARK SMILES IDX 70 77 67 78 51 79 52 80 57 81 53 82 54 83 56 84 58 85 55 86
REMARK H PARENT 20 7 25 29 75 48 49 59
REMARK Flexibility Score: inf
ROOT
ATOM      1  C   UNL A   1      33.587  28.920  25.701  1.00  0.00     0.023 C 
ENDROOT
BRANCH   1   2
ATOM      2  C   UNL A   1      33.793  27.604  24.945  1.00  0.00     0.023 C 
BRANCH   2   3
ATOM      3  C   UNL A   1      32.513  27.005  24.370  1.00  0.00     0.116 C 
BRANCH   3   4
ATOM      4  N   UNL A   1      31.670  26.435  25.405  1.00  0.00    -0.352 N 
ATOM      5  C   UNL A   1      31.492  25.219  25.973  1.00  0.00     0.251 C 
ATOM      6  O   UNL A   1      30.617  25.171  26.843  1.00  0.00    -0.270 OA
ATOM      7  H   UNL A   1      31.072  27.111  25.799  1.00  0.00     0.163 HD
BRANCH   5   8
ATOM      8  C   UNL A   1      32.260  23.986  25.631  1.00  0.00     0.067 C 
ATOM      9  C   UNL A   1      36.773  19.272  24.822  1.00  0.00     0.047 C 
ATOM     10  C   UNL A   1      35.942  20.506  25.086  1.00  0.00    -0.019 A 
ATOM     11  C   UNL A   1      36.574  21.717  25.476  1.00  0.00     0.025 A 
ATOM     12  C   UNL A   1      34.540  20.501  24.970  1.00  0.00     0.064 A 
ATOM     13  Br  UNL A   1      38.484  21.727  25.689  1.00  0.00    -0.050 Br
ATOM     14  C   UNL A   1      35.833  22.900  25.732  1.00  0.00    -0.026 A 
ATOM     15  C   UNL A   1      33.795  21.661  25.237  1.00  0.00     0.142 A 
ATOM     16  Br  UNL A   1      33.579  18.929  24.442  1.00  0.00    -0.046 Br
ATOM     17  C   UNL A   1      36.494  24.199  26.138  1.00  0.00     0.046 C 
ATOM     18  C   UNL A   1      34.422  22.850  25.631  1.00  0.00     0.022 A 
ATOM     19  O   UNL A   1      32.427  21.570  25.156  1.00  0.00    -0.474 OA
ATOM     20  C   UNL A   1      33.563  23.993  25.972  1.00  0.00     0.026 C 
ATOM     21  C   UNL A   1      31.695  22.797  24.920  1.00  0.00     0.314 C 
BRANCH  21  22
ATOM     22  C   UNL A   1      31.523  23.029  23.407  1.00  0.00     0.429 C 
ATOM     23  F   UNL A   1      31.689  21.868  22.727  1.00  0.00    -0.167 F 
ATOM     24  F   UNL A   1      30.285  23.482  23.095  1.00  0.00    -0.167 F 
ATOM     25  F   UNL A   1      32.406  23.923  22.911  1.00  0.00    -0.167 F 
ENDBRANCH  21  22
ENDBRANCH   5   8
ENDBRANCH   3   4
ENDBRANCH   2   3
ENDBRANCH   1   2
BRANCH   1  26
ATOM     26  C   UNL A   1      33.817  28.853  27.211  1.00  0.00     0.116 C 
BRANCH  26  27
ATOM     27  N   UNL A   1      33.799  30.149  27.874  1.00  0.00    -0.352 N 
ATOM     28  C   UNL A   1      34.837  30.768  28.530  1.00  0.00     0.251 C 
ATOM     29  H   UNL A   1      32.946  30.638  27.850  1.00  0.00     0.163 HD
ATOM     30  O   UNL A   1      34.679  31.843  29.097  1.00  0.00    -0.269 OA
BRANCH  28  31
ATOM     31  C   UNL A   1      36.137  30.078  28.582  1.00  0.00     0.039 A 
ATOM     32  C   UNL A   1      36.998  30.192  27.490  1.00  0.00     0.014 A 
ATOM     33  C   UNL A   1      36.538  29.425  29.751  1.00  0.00     0.014 A 
ATOM     34  C   UNL A   1      38.305  29.722  27.602  1.00  0.00     0.010 A 
ATOM     35  C   UNL A   1      37.858  29.007  29.880  1.00  0.00     0.010 A 
ATOM     36  C   UNL A   1      38.754  29.168  28.812  1.00  0.00    -0.014 A 
BRANCH  36  37
ATOM     37  C   UNL A   1      40.174  28.784  28.986  1.00  0.00     0.031 A 
ATOM     38  C   UNL A   1      41.141  29.741  29.616  1.00  0.00     0.074 A 
ATOM     39  C   UNL A   1      40.598  27.592  28.526  1.00  0.00     0.049 A 
ATOM     40  N   UNL A   1      42.422  29.594  29.831  1.00  0.00    -0.248 NA
ATOM     41  C   UNL A   1      40.603  31.043  30.039  1.00  0.00     0.031 C 
ATOM     42  C   UNL A   1      39.761  26.599  27.848  1.00  0.00     0.029 A 
ATOM     43  N   UNL A   1      41.840  27.011  28.560  1.00  0.00    -0.354 N 
ATOM     44  C   UNL A   1      42.845  30.784  30.405  1.00  0.00     0.074 A 
ATOM     45  C   UNL A   1      41.696  31.661  30.462  1.00  0.00     0.031 C 
ATOM     46  C   UNL A   1      40.504  25.517  27.564  1.00  0.00     0.029 A 
ATOM     47  C   UNL A   1      41.873  25.750  28.016  1.00  0.00     0.049 A 
ATOM     48  H   UNL A   1      42.633  27.456  28.938  1.00  0.00     0.167 HD
ATOM     49  C   UNL A   1      44.075  31.106  30.868  1.00  0.00     0.037 A 
ATOM     50  C   UNL A   1      42.891  24.876  27.908  1.00  0.00     0.037 A 
ATOM     51  C   UNL A   1      45.207  30.221  30.841  1.00  0.00     0.049 A 
ATOM     52  C   UNL A   1      44.244  25.254  28.438  1.00  0.00     0.074 A 
ATOM     53  C   UNL A   1      46.479  30.434  31.342  1.00  0.00     0.029 A 
ATOM     54  N   UNL A   1      45.200  28.952  30.285  1.00  0.00    -0.354 N 
ATOM     55  N   UNL A   1      44.616  26.361  29.032  1.00  0.00    -0.248 NA
ATOM     56  C   UNL A   1      45.319  24.262  28.282  1.00  0.00     0.031 C 
ATOM     57  C   UNL A   1      47.250  29.299  31.069  1.00  0.00     0.029 A 
ATOM     58  C   UNL A   1      46.450  28.372  30.421  1.00  0.00     0.049 A 
ATOM     59  H   UNL A   1      44.423  28.525  29.858  1.00  0.00     0.167 HD
ATOM     60  C   UNL A   1      45.959  26.194  29.338  1.00  0.00     0.074 A 
ATOM     61  C   UNL A   1      46.337  24.877  28.871  1.00  0.00     0.031 C 
ATOM     62  C   UNL A   1      46.802  27.057  29.954  1.00  0.00     0.037 A 
BRANCH  49  63
ATOM     63  C   UNL A   1      44.247  32.468  31.464  1.00  0.00     0.057 A 
ATOM     64  C   UNL A   1      44.031  32.700  32.828  1.00  0.00     0.134 A 
ATOM     65  C   UNL A   1      44.658  33.550  30.678  1.00  0.00     0.134 A 
ATOM     66  F   UNL A   1      43.621  31.705  33.629  1.00  0.00    -0.206 F 
ATOM     67  C   UNL A   1      44.197  33.967  33.387  1.00  0.00     0.040 A 
ATOM     68  C   UNL A   1      44.847  34.819  31.228  1.00  0.00     0.040 A 
ATOM     69  F   UNL A   1      44.883  33.393  29.365  1.00  0.00    -0.206 F 
ATOM     70  C   UNL A   1      44.613  35.030  32.587  1.00  0.00     0.006 A 
ENDBRANCH  49  63
BRANCH  50  71
ATOM     71  C   UNL A   1      42.653  23.538  27.318  1.00  0.00     0.057 A 
ATOM     72  C   UNL A   1      42.838  23.319  25.949  1.00  0.00     0.134 A 
ATOM     73  C   UNL A   1      42.256  22.449  28.101  1.00  0.00     0.134 A 
ATOM     74  F   UNL A   1      43.203  24.330  25.148  1.00  0.00    -0.206 F 
ATOM     75  C   UNL A   1      42.627  22.064  25.375  1.00  0.00     0.040 A 
ATOM     76  C   UNL A   1      42.056  21.185  27.544  1.00  0.00     0.040 A 
ATOM     77  F   UNL A   1      42.071  22.596  29.421  1.00  0.00    -0.206 F 
ATOM     78  C   UNL A   1      42.240  20.991  26.175  1.00  0.00     0.006 A 
ENDBRANCH  50  71
BRANCH  62  79
ATOM     79  C   UNL A   1      48.212  26.605  30.171  1.00  0.00     0.057 A 
ATOM     80  C   UNL A   1      48.573  25.859  31.299  1.00  0.00     0.134 A 
ATOM     81  C   UNL A   1      49.196  26.847  29.205  1.00  0.00     0.134 A 
ATOM     82  F   UNL A   1      47.675  25.605  32.262  1.00  0.00    -0.206 F 
ATOM     83  C   UNL A   1      49.870  25.369  31.459  1.00  0.00     0.040 A 
ATOM     84  C   UNL A   1      50.492  26.349  29.347  1.00  0.00     0.040 A 
ATOM     85  F   UNL A   1      48.907  27.550  28.100  1.00  0.00    -0.206 F 
ATOM     86  C   UNL A   1      50.830  25.607  30.477  1.00  0.00     0.006 A 
ENDBRANCH  62  79
ENDBRANCH  36  37
ENDBRANCH  28  31
ENDBRANCH  26  27
ENDBRANCH   1  26
TORSDOF 12
ENDMDL
MODEL 2
REMARK VINA RESULT:     -12.0      2.621      7.513
REMARK SMILES Cc1c(Br)c(C)c2c(c1Br)O[C@H](C(F)(F)F)C(C(=O)NCCCCNC(=O)c1ccc(-c3c4nc(c(-c5c(F)cccc5F)c5ccc([nH]5)c(-c5c(F)cccc5F)c5nc(c(-c6c(F)cccc6F)c6ccc3[nH]6)C=C5)C=C4)cc1)=C2
REMARK SMILES IDX 23 1 22 2 21 3 20 4 18 5 19 6 17 8 1 9 2 10 3 11 9 12 4 13
REMARK SMILES IDX 5 14 8 15 10 16 6 17 7 18 11 19 82 20 12 21 13 22 14 23
REMARK SMILES IDX 15 24 16 25 24 26 25 27 26 28 27 30 28 31 29 32 81 33 30 34
REMARK SMILES IDX 80 35 31 36 32 37 33 38 74 39 34 40 79 41 73 42 75 43 35 44
REMARK SMILES IDX 78 45 72 46 71 47 36 49 62 50 45 51 61 52 46 53 49 54 60 55
REMARK SMILES IDX 76 56 47 57 48 58 59 60 77 61 50 62 37 63 38 64 43 65 39 66
REMARK SMILES IDX 40 67 42 68 44 69 41 70 63 71 64 72 69 73 65 74 66 75 68 76
REMARK SMILES IDX 70 77 67 78 51 79 52 80 57 81 53 82 54 83 56 84 58 85 55 86
REMARK H PARENT 20 7 25 29 75 48 49 59
REMARK Flexibility Score: inf
ROOT
ATOM      1  C   UNL A   1      37.740  20.812  24.764  1.00  0.00     0.023 C 
ENDROOT
BRANCH   1   2
ATOM      2  C   UNL A   1      37.007  22.139  24.549  1.00  0.00     0.023 C 
BRANCH   2   3
ATOM      3  C   UNL A   1      36.985  23.048  25.776  1.00  0.00     0.116 C 
BRANCH   3   4
ATOM      4  N   UNL A   1      35.858  22.758  26.644  1.00  0.00    -0.352 N 
ATOM      5  C   UNL A   1      34.553  23.110  26.714  1.00  0.00     0.251 C 
ATOM      6  O   UNL A   1      33.932  22.629  27.668  1.00  0.00    -0.270 OA
ATOM      7  H   UNL A   1      36.108  22.143  27.370  1.00  0.00     0.163 HD
BRANCH   5   8
ATOM      8  C   UNL A   1      33.846  24.002  25.749  1.00  0.00     0.067 C 
ATOM      9  C   UNL A   1      31.051  29.000  22.515  1.00  0.00     0.047 C 
ATOM     10  C   UNL A   1      31.708  28.023  23.463  1.00  0.00    -0.019 A 
ATOM     11  C   UNL A   1      31.966  28.402  24.807  1.00  0.00     0.025 A 
ATOM     12  C   UNL A   1      32.093  26.732  23.055  1.00  0.00     0.064 A 
ATOM     13  Br  UNL A   1      31.493  30.180  25.365  1.00  0.00    -0.050 Br
ATOM     14  C   UNL A   1      32.579  27.516  25.730  1.00  0.00    -0.026 A 
ATOM     15  C   UNL A   1      32.715  25.853  23.957  1.00  0.00     0.142 A 
ATOM     16  Br  UNL A   1      31.788  26.107  21.270  1.00  0.00    -0.046 Br
ATOM     17  C   UNL A   1      32.849  27.903  27.168  1.00  0.00     0.046 C 
ATOM     18  C   UNL A   1      32.977  26.235  25.278  1.00  0.00     0.022 A 
ATOM     19  O   UNL A   1      33.112  24.629  23.477  1.00  0.00    -0.474 OA
ATOM     20  C   UNL A   1      33.706  25.286  26.132  1.00  0.00     0.026 C 
ATOM     21  C   UNL A   1      33.268  23.559  24.442  1.00  0.00     0.314 C 
BRANCH  21  22
ATOM     22  C   UNL A   1      31.942  22.792  24.601  1.00  0.00     0.429 C 
ATOM     23  F   UNL A   1      31.151  22.980  23.516  1.00  0.00    -0.167 F 
ATOM     24  F   UNL A   1      32.133  21.456  24.710  1.00  0.00    -0.167 F 
ATOM     25  F   UNL A   1      31.242  23.180  25.689  1.00  0.00    -0.167 F 
ENDBRANCH  21  22
ENDBRANCH   5   8
ENDBRANCH   3   4
ENDBRANCH   2   3
ENDBRANCH   1   2
BRANCH   1  26
ATOM     26  C   UNL A   1      38.898  20.856  25.761  1.00  0.00     0.116 C 
BRANCH  26  27
ATOM     27  N   UNL A   1      39.816  19.730  25.657  1.00  0.00    -0.352 N 
ATOM     28  C   UNL A   1      41.141  19.693  26.021  1.00  0.00     0.251 C 
ATOM     29  H   UNL A   1      39.444  18.899  25.283  1.00  0.00     0.163 HD
ATOM     30  O   UNL A   1      41.825  18.694  25.832  1.00  0.00    -0.269 OA
BRANCH  28  31
ATOM     31  C   UNL A   1      41.739  20.912  26.595  1.00  0.00     0.039 A 
ATOM     32  C   UNL A   1      42.263  21.871  25.727  1.00  0.00     0.014 A 
ATOM     33  C   UNL A   1      41.670  21.146  27.971  1.00  0.00     0.014 A 
ATOM     34  C   UNL A   1      42.643  23.111  26.233  1.00  0.00     0.010 A 
ATOM     35  C   UNL A   1      41.998  22.403  28.465  1.00  0.00     0.010 A 
ATOM     36  C   UNL A   1      42.470  23.399  27.598  1.00  0.00    -0.014 A 
BRANCH  36  37
ATOM     37  C   UNL A   1      42.748  24.756  28.124  1.00  0.00     0.031 A 
ATOM     38  C   UNL A   1      44.146  25.146  28.498  1.00  0.00     0.074 A 
ATOM     39  C   UNL A   1      41.727  25.613  28.314  1.00  0.00     0.049 A 
ATOM     40  N   UNL A   1      44.580  26.275  28.996  1.00  0.00    -0.248 NA
ATOM     41  C   UNL A   1      45.191  24.128  28.311  1.00  0.00     0.031 C 
ATOM     42  C   UNL A   1      40.317  25.327  28.036  1.00  0.00     0.029 A 
ATOM     43  N   UNL A   1      41.718  26.902  28.783  1.00  0.00    -0.354 N 
ATOM     44  C   UNL A   1      45.942  26.101  29.189  1.00  0.00     0.074 A 
ATOM     45  C   UNL A   1      46.257  24.744  28.799  1.00  0.00     0.031 C 
ATOM     46  C   UNL A   1      39.585  26.420  28.305  1.00  0.00     0.029 A 
ATOM     47  C   UNL A   1      40.469  27.474  28.796  1.00  0.00     0.049 A 
ATOM     48  H   UNL A   1      42.529  27.372  29.082  1.00  0.00     0.167 HD
ATOM     49  C   UNL A   1      46.854  27.001  29.624  1.00  0.00     0.037 A 
ATOM     50  C   UNL A   1      40.084  28.713  29.152  1.00  0.00     0.037 A 
ATOM     51  C   UNL A   1      46.544  28.359  29.978  1.00  0.00     0.049 A 
ATOM     52  C   UNL A   1      41.116  29.697  29.624  1.00  0.00     0.074 A 
ATOM     53  C   UNL A   1      47.408  29.365  30.371  1.00  0.00     0.029 A 
ATOM     54  N   UNL A   1      45.269  28.902  29.975  1.00  0.00    -0.354 N 
ATOM     55  N   UNL A   1      42.411  29.537  29.746  1.00  0.00    -0.248 NA
ATOM     56  C   UNL A   1      40.635  31.032  30.009  1.00  0.00     0.031 C 
ATOM     57  C   UNL A   1      46.652  30.514  30.629  1.00  0.00     0.029 A 
ATOM     58  C   UNL A   1      45.321  30.227  30.372  1.00  0.00     0.049 A 
ATOM     59  H   UNL A   1      44.449  28.418  29.728  1.00  0.00     0.167 HD
ATOM     60  C   UNL A   1      42.902  30.752  30.201  1.00  0.00     0.074 A 
ATOM     61  C   UNL A   1      41.768  31.643  30.328  1.00  0.00     0.031 C 
ATOM     62  C   UNL A   1      44.180  31.098  30.486  1.00  0.00     0.037 A 
BRANCH  49  63
ATOM     63  C   UNL A   1      48.276  26.545  29.718  1.00  0.00     0.057 A 
ATOM     64  C   UNL A   1      49.174  26.733  28.660  1.00  0.00     0.134 A 
ATOM     65  C   UNL A   1      48.761  25.938  30.882  1.00  0.00     0.134 A 
ATOM     66  F   UNL A   1      48.762  27.294  27.513  1.00  0.00    -0.206 F 
ATOM     67  C   UNL A   1      50.501  26.314  28.747  1.00  0.00     0.040 A 
ATOM     68  C   UNL A   1      50.092  25.533  30.990  1.00  0.00     0.040 A 
ATOM     69  F   UNL A   1      47.951  25.732  31.931  1.00  0.00    -0.206 F 
ATOM     70  C   UNL A   1      50.965  25.717  29.919  1.00  0.00     0.006 A 
ENDBRANCH  49  63
BRANCH  50  71
ATOM     71  C   UNL A   1      38.662  29.108  29.025  1.00  0.00     0.057 A 
ATOM     72  C   UNL A   1      38.147  29.529  27.794  1.00  0.00     0.134 A 
ATOM     73  C   UNL A   1      37.785  29.060  30.113  1.00  0.00     0.134 A 
ATOM     74  F   UNL A   1      38.946  29.609  26.721  1.00  0.00    -0.206 F 
ATOM     75  C   UNL A   1      36.807  29.897  27.651  1.00  0.00     0.040 A 
ATOM     76  C   UNL A   1      36.440  29.410  29.982  1.00  0.00     0.040 A 
ATOM     77  F   UNL A   1      38.219  28.657  31.316  1.00  0.00    -0.206 F 
ATOM     78  C   UNL A   1      35.949  29.834  28.747  1.00  0.00     0.006 A 
ENDBRANCH  50  71
BRANCH  62  79
ATOM     79  C   UNL A   1      44.428  32.499  30.951  1.00  0.00     0.057 A 
ATOM     80  C   UNL A   1      44.638  33.542  30.043  1.00  0.00     0.134 A 
ATOM     81  C   UNL A   1      44.373  32.818  32.312  1.00  0.00     0.134 A 
ATOM     82  F   UNL A   1      44.710  33.294  28.727  1.00  0.00    -0.206 F 
ATOM     83  C   UNL A   1      44.787  34.860  30.475  1.00  0.00     0.040 A 
ATOM     84  C   UNL A   1      44.506  34.134  32.756  1.00  0.00     0.040 A 
ATOM     85  F   UNL A   1      44.168  31.860  33.229  1.00  0.00    -0.206 F 
ATOM     86  C   UNL A   1      44.712  35.159  31.835  1.00  0.00     0.006 A 
ENDBRANCH  62  79
ENDBRANCH  36  37
ENDBRANCH  28  31
ENDBRANCH  26  27
ENDBRANCH   1  26
TORSDOF 12
ENDMDL
MODEL 3
REMARK VINA RESULT:     -11.9      0.570      6.155
REMARK SMILES Cc1c(Br)c(C)c2c(c1Br)O[C@H](C(F)(F)F)C(C(=O)NCCCCNC(=O)c1ccc(-c3c4nc(c(-c5c(F)cccc5F)c5ccc([nH]5)c(-c5c(F)cccc5F)c5nc(c(-c6c(F)cccc6F)c6ccc3[nH]6)C=C5)C=C4)cc1)=C2
REMARK SMILES IDX 23 1 22 2 21 3 20 4 18 5 19 6 17 8 1 9 2 10 3 11 9 12 4 13
REMARK SMILES IDX 5 14 8 15 10 16 6 17 7 18 11 19 82 20 12 21 13 22 14 23
REMARK SMILES IDX 15 24 16 25 24 26 25 27 26 28 27 30 28 31 29 32 81 33 30 34
REMARK SMILES IDX 80 35 31 36 32 37 33 38 74 39 34 40 79 41 73 42 75 43 35 44
REMARK SMILES IDX 78 45 72 46 71 47 36 49 62 50 45 51 61 52 46 53 49 54 60 55
REMARK SMILES IDX 76 56 47 57 48 58 59 60 77 61 50 62 37 63 38 64 43 65 39 66
REMARK SMILES IDX 40 67 42 68 44 69 41 70 63 71 64 72 69 73 65 74 66 75 68 76
REMARK SMILES IDX 70 77 67 78 51 79 52 80 57 81 53 82 54 83 56 84 58 85 55 86
REMARK H PARENT 20 7 25 29 75 48 49 59
REMARK Flexibility Score: inf
ROOT
ATOM      1  C   UNL A   1      33.589  29.025  25.760  1.00  0.00     0.023 C 
ENDROOT
BRANCH   1   2
ATOM      2  C   UNL A   1      33.941  27.913  24.767  1.00  0.00     0.023 C 
BRANCH   2   3
ATOM      3  C   UNL A   1      32.736  27.130  24.251  1.00  0.00     0.116 C 
BRANCH   3   4
ATOM      4  N   UNL A   1      31.900  26.648  25.335  1.00  0.00    -0.352 N 
ATOM      5  C   UNL A   1      31.664  25.462  25.943  1.00  0.00     0.251 C 
ATOM      6  O   UNL A   1      30.824  25.497  26.849  1.00  0.00    -0.270 OA
ATOM      7  H   UNL A   1      31.367  27.373  25.733  1.00  0.00     0.163 HD
BRANCH   5   8
ATOM      8  C   UNL A   1      32.330  24.170  25.606  1.00  0.00     0.067 C 
ATOM      9  C   UNL A   1      36.464  19.124  24.773  1.00  0.00     0.047 C 
ATOM     10  C   UNL A   1      35.732  20.420  25.034  1.00  0.00    -0.019 A 
ATOM     11  C   UNL A   1      36.462  21.589  25.383  1.00  0.00     0.025 A 
ATOM     12  C   UNL A   1      34.331  20.515  24.955  1.00  0.00     0.064 A 
ATOM     13  Br  UNL A   1      38.373  21.463  25.544  1.00  0.00    -0.050 Br
ATOM     14  C   UNL A   1      35.815  22.827  25.634  1.00  0.00    -0.026 A 
ATOM     15  C   UNL A   1      33.680  21.732  25.219  1.00  0.00     0.142 A 
ATOM     16  Br  UNL A   1      33.244  19.009  24.486  1.00  0.00    -0.046 Br
ATOM     17  C   UNL A   1      36.581  24.081  25.995  1.00  0.00     0.046 C 
ATOM     18  C   UNL A   1      34.402  22.878  25.572  1.00  0.00     0.022 A 
ATOM     19  O   UNL A   1      32.308  21.739  25.176  1.00  0.00    -0.474 OA
ATOM     20  C   UNL A   1      33.639  24.088  25.912  1.00  0.00     0.026 C 
ATOM     21  C   UNL A   1      31.660  23.012  24.935  1.00  0.00     0.314 C 
BRANCH  21  22
ATOM     22  C   UNL A   1      31.463  23.228  23.423  1.00  0.00     0.429 C 
ATOM     23  F   UNL A   1      32.400  24.080  22.938  1.00  0.00    -0.167 F 
ATOM     24  F   UNL A   1      31.590  22.078  22.720  1.00  0.00    -0.167 F 
ATOM     25  F   UNL A   1      30.250  23.742  23.122  1.00  0.00    -0.167 F 
ENDBRANCH  21  22
ENDBRANCH   5   8
ENDBRANCH   3   4
ENDBRANCH   2   3
ENDBRANCH   1   2
BRANCH   1  26
ATOM     26  C   UNL A   1      34.153  28.850  27.169  1.00  0.00     0.116 C 
BRANCH  26  27
ATOM     27  N   UNL A   1      34.080  30.048  27.993  1.00  0.00    -0.352 N 
ATOM     28  C   UNL A   1      35.084  30.611  28.746  1.00  0.00     0.251 C 
ATOM     29  H   UNL A   1      33.211  30.509  28.014  1.00  0.00     0.163 HD
ATOM     30  O   UNL A   1      34.879  31.597  29.443  1.00  0.00    -0.269 OA
BRANCH  28  31
ATOM     31  C   UNL A   1      36.406  29.960  28.738  1.00  0.00     0.039 A 
ATOM     32  C   UNL A   1      37.197  30.069  27.593  1.00  0.00     0.014 A 
ATOM     33  C   UNL A   1      36.896  29.352  29.897  1.00  0.00     0.014 A 
ATOM     34  C   UNL A   1      38.521  29.642  27.638  1.00  0.00     0.010 A 
ATOM     35  C   UNL A   1      38.233  28.977  29.957  1.00  0.00     0.010 A 
ATOM     36  C   UNL A   1      39.059  29.135  28.834  1.00  0.00    -0.014 A 
BRANCH  36  37
ATOM     37  C   UNL A   1      40.498  28.798  28.932  1.00  0.00     0.031 A 
ATOM     38  C   UNL A   1      40.983  27.442  28.519  1.00  0.00     0.074 A 
ATOM     39  C   UNL A   1      41.355  29.701  29.444  1.00  0.00     0.049 A 
ATOM     40  N   UNL A   1      42.197  26.956  28.554  1.00  0.00    -0.248 NA
ATOM     41  C   UNL A   1      39.970  26.498  28.023  1.00  0.00     0.031 C 
ATOM     42  C   UNL A   1      40.990  31.036  29.929  1.00  0.00     0.029 A 
ATOM     43  N   UNL A   1      42.711  29.636  29.641  1.00  0.00    -0.354 N 
ATOM     44  C   UNL A   1      42.093  25.652  28.095  1.00  0.00     0.074 A 
ATOM     45  C   UNL A   1      40.692  25.403  27.831  1.00  0.00     0.031 C 
ATOM     46  C   UNL A   1      42.100  31.675  30.332  1.00  0.00     0.029 A 
ATOM     47  C   UNL A   1      43.248  30.790  30.158  1.00  0.00     0.049 A 
ATOM     48  H   UNL A   1      43.247  28.838  29.433  1.00  0.00     0.167 HD
ATOM     49  C   UNL A   1      43.080  24.750  27.885  1.00  0.00     0.037 A 
ATOM     50  C   UNL A   1      44.526  31.101  30.447  1.00  0.00     0.037 A 
ATOM     51  C   UNL A   1      44.475  25.010  28.116  1.00  0.00     0.049 A 
ATOM     52  C   UNL A   1      45.604  30.087  30.196  1.00  0.00     0.074 A 
ATOM     53  C   UNL A   1      45.556  24.181  27.875  1.00  0.00     0.029 A 
ATOM     54  N   UNL A   1      44.980  26.190  28.636  1.00  0.00    -0.354 N 
ATOM     55  N   UNL A   1      45.498  28.876  29.706  1.00  0.00    -0.248 NA
ATOM     56  C   UNL A   1      46.979  30.480  30.539  1.00  0.00     0.031 C 
ATOM     57  C   UNL A   1      46.717  24.854  28.272  1.00  0.00     0.029 A 
ATOM     58  C   UNL A   1      46.358  26.109  28.736  1.00  0.00     0.049 A 
ATOM     59  H   UNL A   1      44.440  26.971  28.897  1.00  0.00     0.167 HD
ATOM     60  C   UNL A   1      46.789  28.370  29.663  1.00  0.00     0.074 A 
ATOM     61  C   UNL A   1      47.664  29.406  30.171  1.00  0.00     0.031 C 
ATOM     62  C   UNL A   1      47.210  27.155  29.238  1.00  0.00     0.037 A 
BRANCH  49  63
ATOM     63  C   UNL A   1      42.681  23.407  27.359  1.00  0.00     0.057 A 
ATOM     64  C   UNL A   1      42.730  23.117  25.990  1.00  0.00     0.134 A 
ATOM     65  C   UNL A   1      42.270  22.388  28.225  1.00  0.00     0.134 A 
ATOM     66  F   UNL A   1      43.101  24.058  25.109  1.00  0.00    -0.206 F 
ATOM     67  C   UNL A   1      42.365  21.864  25.497  1.00  0.00     0.040 A 
ATOM     68  C   UNL A   1      41.921  21.125  27.747  1.00  0.00     0.040 A 
ATOM     69  F   UNL A   1      42.203  22.603  29.548  1.00  0.00    -0.206 F 
ATOM     70  C   UNL A   1      41.964  20.861  26.379  1.00  0.00     0.006 A 
ENDBRANCH  49  63
BRANCH  50  71
ATOM     71  C   UNL A   1      44.858  32.452  30.954  1.00  0.00     0.057 A 
ATOM     72  C   UNL A   1      45.124  33.501  30.068  1.00  0.00     0.134 A 
ATOM     73  C   UNL A   1      44.901  32.733  32.324  1.00  0.00     0.134 A 
ATOM     74  F   UNL A   1      45.111  33.285  28.745  1.00  0.00    -0.206 F 
ATOM     75  C   UNL A   1      45.431  34.784  30.525  1.00  0.00     0.040 A 
ATOM     76  C   UNL A   1      45.192  34.015  32.796  1.00  0.00     0.040 A 
ATOM     77  F   UNL A   1      44.647  31.770  33.221  1.00  0.00    -0.206 F 
ATOM     78  C   UNL A   1      45.461  35.044  31.895  1.00  0.00     0.006 A 
ENDBRANCH  50  71
BRANCH  62  79
ATOM     79  C   UNL A   1      48.680  26.878  29.291  1.00  0.00     0.057 A 
ATOM     80  C   UNL A   1      49.254  26.186  30.362  1.00  0.00     0.134 A 
ATOM     81  C   UNL A   1      49.512  27.236  28.223  1.00  0.00     0.134 A 
ATOM     82  F   UNL A   1      48.508  25.827  31.417  1.00  0.00    -0.206 F 
ATOM     83  C   UNL A   1      50.611  25.858  30.371  1.00  0.00     0.040 A 
ATOM     84  C   UNL A   1      50.867  26.901  28.213  1.00  0.00     0.040 A 
ATOM     85  F   UNL A   1      49.016  27.896  27.165  1.00  0.00    -0.206 F 
ATOM     86  C   UNL A   1      51.418  26.208  29.289  1.00  0.00     0.006 A 
ENDBRANCH  62  79
ENDBRANCH  36  37
ENDBRANCH  28  31
ENDBRANCH  26  27
ENDBRANCH   1  26
TORSDOF 12
ENDMDL
