MODEL 1
REMARK VINA RESULT:     -12.8      0.000      0.000
REMARK SMILES C[N@@H+]1CCN(C(=O)c2cc(-n3cccn3)ccc2Cl)C[C@H]1C(=O)NCCCCNC(=O)c1ccc(-c2c3nc(c(-c4c(F)cccc4F)c4ccc([nH]4)c(-c4c(F)cccc4F)c4nc(c(-c5c(F)cccc5F)c5ccc2[nH]5)C=C4)C=C3)cc1
REMARK SMILES IDX 26 1 25 2 24 3 22 4 23 5 21 7 1 8 2 9 3 10 4 12 20 13 5 14
REMARK SMILES IDX 6 15 7 16 8 17 9 18 18 19 10 20 17 21 19 22 16 23 11 24
REMARK SMILES IDX 12 25 15 26 13 27 14 28 27 29 28 30 29 31 30 32 31 34 32 35
REMARK SMILES IDX 33 36 85 37 34 38 84 39 35 40 36 41 37 42 78 43 38 44 83 45
REMARK SMILES IDX 77 46 79 47 39 48 82 49 76 50 75 51 40 53 66 54 49 55 65 56
REMARK SMILES IDX 50 57 53 58 64 59 80 60 51 61 52 62 63 64 81 65 54 66 41 67
REMARK SMILES IDX 42 68 47 69 43 70 44 71 46 72 48 73 45 74 67 75 68 76 73 77
REMARK SMILES IDX 69 78 70 79 72 80 74 81 71 82 55 83 56 84 61 85 57 86 58 87
REMARK SMILES IDX 60 88 62 89 59 90
REMARK H PARENT 24 6 2 11 29 33 79 52 53 63
REMARK Flexibility Score: inf
ROOT
ATOM      1  C   UNL A   1      36.371  20.468  25.074  1.00  0.00     0.023 C 
ENDROOT
BRANCH   1   2
ATOM      2  C   UNL A   1      36.347  21.879  25.660  1.00  0.00     0.116 C 
BRANCH   2   3
ATOM      3  N   UNL A   1      35.459  21.995  26.804  1.00  0.00    -0.351 N 
ATOM      4  C   UNL A   1      34.205  22.530  26.881  1.00  0.00     0.280 C 
ATOM      5  O   UNL A   1      33.648  22.534  27.984  1.00  0.00    -0.268 OA
ATOM      6  H   UNL A   1      35.813  21.633  27.649  1.00  0.00     0.163 HD
BRANCH   4   7
ATOM      7  C   UNL A   1      33.477  23.052  25.632  1.00  0.00     0.293 C 
ATOM      8  C   UNL A   1      32.171  21.014  25.291  1.00  0.00     0.333 C 
ATOM      9  N   UNL A   1      32.109  22.466  25.490  1.00  0.00    -0.324 N 
ATOM     10  C   UNL A   1      31.422  23.100  24.340  1.00  0.00     0.284 C 
ATOM     11  H   UNL A   1      31.588  22.646  26.349  1.00  0.00     0.348 HD
ATOM     12  C   UNL A   1      31.372  24.635  24.446  1.00  0.00     0.181 C 
ATOM     13  C   UNL A   1      33.498  24.597  25.694  1.00  0.00     0.195 C 
ATOM     14  N   UNL A   1      32.703  25.216  24.630  1.00  0.00    -0.326 N 
BRANCH  14  15
ATOM     15  C   UNL A   1      33.016  26.406  23.987  1.00  0.00     0.255 C 
ATOM     16  O   UNL A   1      33.829  26.492  23.070  1.00  0.00    -0.269 OA
BRANCH  15  17
ATOM     17  C   UNL A   1      32.329  27.648  24.396  1.00  0.00     0.060 A 
ATOM     18  C   UNL A   1      31.249  28.083  23.610  1.00  0.00     0.043 A 
ATOM     19  C   UNL A   1      32.788  28.431  25.463  1.00  0.00     0.053 A 
ATOM     20  C   UNL A   1      30.649  29.318  23.888  1.00  0.00     0.065 A 
ATOM     21  C   UNL A   1      32.125  29.617  25.785  1.00  0.00     0.023 A 
ATOM     22  Cl  UNL A   1      34.178  28.019  26.403  1.00  0.00    -0.083 Cl
ATOM     23  C   UNL A   1      31.071  30.072  24.992  1.00  0.00     0.030 A 
BRANCH  20  24
ATOM     24  N   UNL A   1      29.647  29.830  23.027  1.00  0.00    -0.241 N 
ATOM     25  C   UNL A   1      28.383  30.244  23.390  1.00  0.00     0.115 A 
ATOM     26  N   UNL A   1      29.859  29.984  21.699  1.00  0.00    -0.177 NA
ATOM     27  C   UNL A   1      27.743  30.637  22.241  1.00  0.00     0.042 A 
ATOM     28  C   UNL A   1      28.688  30.419  21.226  1.00  0.00     0.135 A 
ENDBRANCH  20  24
ENDBRANCH  15  17
ENDBRANCH  14  15
ENDBRANCH   4   7
ENDBRANCH   2   3
ENDBRANCH   1   2
BRANCH   1  29
ATOM     29  C   UNL A   1      37.752  19.939  24.673  1.00  0.00     0.023 C 
BRANCH  29  30
ATOM     30  C   UNL A   1      38.864  20.268  25.659  1.00  0.00     0.116 C 
BRANCH  30  31
ATOM     31  N   UNL A   1      39.872  19.216  25.758  1.00  0.00    -0.352 N 
ATOM     32  C   UNL A   1      41.229  19.362  25.991  1.00  0.00     0.251 C 
ATOM     33  H   UNL A   1      39.548  18.293  25.646  1.00  0.00     0.163 HD
ATOM     34  O   UNL A   1      42.021  18.480  25.712  1.00  0.00    -0.269 OA
BRANCH  32  35
ATOM     35  C   UNL A   1      41.698  20.622  26.597  1.00  0.00     0.039 A 
ATOM     36  C   UNL A   1      42.322  21.608  25.828  1.00  0.00     0.014 A 
ATOM     37  C   UNL A   1      41.462  20.814  27.955  1.00  0.00     0.014 A 
ATOM     38  C   UNL A   1      42.630  22.830  26.422  1.00  0.00     0.010 A 
ATOM     39  C   UNL A   1      41.635  22.059  28.500  1.00  0.00     0.010 A 
ATOM     40  C   UNL A   1      42.268  23.055  27.757  1.00  0.00    -0.014 A 
BRANCH  40  41
ATOM     41  C   UNL A   1      42.427  24.372  28.371  1.00  0.00     0.031 A 
ATOM     42  C   UNL A   1      41.307  25.327  28.118  1.00  0.00     0.074 A 
ATOM     43  C   UNL A   1      43.360  24.594  29.325  1.00  0.00     0.049 A 
ATOM     44  N   UNL A   1      41.358  26.499  27.572  1.00  0.00    -0.248 NA
ATOM     45  C   UNL A   1      39.935  24.876  28.413  1.00  0.00     0.031 C 
ATOM     46  C   UNL A   1      44.303  23.628  29.904  1.00  0.00     0.029 A 
ATOM     47  N   UNL A   1      43.572  25.701  30.087  1.00  0.00    -0.354 N 
ATOM     48  C   UNL A   1      40.063  27.017  27.642  1.00  0.00     0.074 A 
ATOM     49  C   UNL A   1      39.211  25.914  27.993  1.00  0.00     0.031 C 
ATOM     50  C   UNL A   1      44.783  24.106  31.072  1.00  0.00     0.029 A 
ATOM     51  C   UNL A   1      44.326  25.472  31.233  1.00  0.00     0.049 A 
ATOM     52  H   UNL A   1      43.221  26.589  29.846  1.00  0.00     0.167 HD
ATOM     53  C   UNL A   1      39.842  28.362  27.656  1.00  0.00     0.037 A 
ATOM     54  C   UNL A   1      44.524  26.331  32.262  1.00  0.00     0.037 A 
ATOM     55  C   UNL A   1      40.997  29.075  27.168  1.00  0.00     0.049 A 
ATOM     56  C   UNL A   1      44.175  27.689  31.778  1.00  0.00     0.074 A 
ATOM     57  C   UNL A   1      41.720  29.083  25.991  1.00  0.00     0.029 A 
ATOM     58  N   UNL A   1      41.797  29.700  28.093  1.00  0.00    -0.354 N 
ATOM     59  N   UNL A   1      44.857  28.337  30.877  1.00  0.00    -0.248 NA
ATOM     60  C   UNL A   1      42.805  28.137  31.969  1.00  0.00     0.031 C 
ATOM     61  C   UNL A   1      43.078  29.250  26.395  1.00  0.00     0.029 A 
ATOM     62  C   UNL A   1      43.095  29.402  27.782  1.00  0.00     0.049 A 
ATOM     63  H   UNL A   1      41.492  30.260  28.844  1.00  0.00     0.167 HD
ATOM     64  C   UNL A   1      43.898  28.961  30.093  1.00  0.00     0.074 A 
ATOM     65  C   UNL A   1      42.662  28.882  30.869  1.00  0.00     0.031 C 
ATOM     66  C   UNL A   1      44.130  29.218  28.771  1.00  0.00     0.037 A 
BRANCH  53  67
ATOM     67  C   UNL A   1      38.783  29.055  28.500  1.00  0.00     0.057 A 
ATOM     68  C   UNL A   1      38.732  28.775  29.881  1.00  0.00     0.134 A 
ATOM     69  C   UNL A   1      37.639  29.703  27.990  1.00  0.00     0.134 A 
ATOM     70  F   UNL A   1      39.764  28.188  30.506  1.00  0.00    -0.206 F 
ATOM     71  C   UNL A   1      37.583  28.986  30.653  1.00  0.00     0.040 A 
ATOM     72  C   UNL A   1      36.504  29.962  28.766  1.00  0.00     0.040 A 
ATOM     73  F   UNL A   1      37.506  30.041  26.705  1.00  0.00    -0.206 F 
ATOM     74  C   UNL A   1      36.454  29.562  30.090  1.00  0.00     0.006 A 
ENDBRANCH  53  67
BRANCH  54  75
ATOM     75  C   UNL A   1      44.716  26.030  33.698  1.00  0.00     0.057 A 
ATOM     76  C   UNL A   1      43.640  25.635  34.506  1.00  0.00     0.134 A 
ATOM     77  C   UNL A   1      45.998  25.855  34.250  1.00  0.00     0.134 A 
ATOM     78  F   UNL A   1      42.381  25.727  34.055  1.00  0.00    -0.206 F 
ATOM     79  C   UNL A   1      43.828  25.075  35.777  1.00  0.00     0.040 A 
ATOM     80  C   UNL A   1      46.199  25.304  35.520  1.00  0.00     0.040 A 
ATOM     81  F   UNL A   1      47.101  26.129  33.539  1.00  0.00    -0.206 F 
ATOM     82  C   UNL A   1      45.112  24.897  36.283  1.00  0.00     0.006 A 
ENDBRANCH  54  75
BRANCH  66  83
ATOM     83  C   UNL A   1      45.532  29.054  28.254  1.00  0.00     0.057 A 
ATOM     84  C   UNL A   1      46.537  30.025  28.376  1.00  0.00     0.134 A 
ATOM     85  C   UNL A   1      45.918  27.805  27.758  1.00  0.00     0.134 A 
ATOM     86  F   UNL A   1      46.289  31.217  28.930  1.00  0.00    -0.206 F 
ATOM     87  C   UNL A   1      47.856  29.775  27.984  1.00  0.00     0.040 A 
ATOM     88  C   UNL A   1      47.238  27.531  27.394  1.00  0.00     0.040 A 
ATOM     89  F   UNL A   1      45.022  26.808  27.666  1.00  0.00    -0.206 F 
ATOM     90  C   UNL A   1      48.211  28.522  27.498  1.00  0.00     0.006 A 
ENDBRANCH  66  83
ENDBRANCH  40  41
ENDBRANCH  32  35
ENDBRANCH  30  31
ENDBRANCH  29  30
ENDBRANCH   1  29
TORSDOF 14
ENDMDL
MODEL 2
REMARK VINA RESULT:     -12.8      3.704      9.262
REMARK SMILES C[N@@H+]1CCN(C(=O)c2cc(-n3cccn3)ccc2Cl)C[C@H]1C(=O)NCCCCNC(=O)c1ccc(-c2c3nc(c(-c4c(F)cccc4F)c4ccc([nH]4)c(-c4c(F)cccc4F)c4nc(c(-c5c(F)cccc5F)c5ccc2[nH]5)C=C4)C=C3)cc1
REMARK SMILES IDX 26 1 25 2 24 3 22 4 23 5 21 7 1 8 2 9 3 10 4 12 20 13 5 14
REMARK SMILES IDX 6 15 7 16 8 17 9 18 18 19 10 20 17 21 19 22 16 23 11 24
REMARK SMILES IDX 12 25 15 26 13 27 14 28 27 29 28 30 29 31 30 32 31 34 32 35
REMARK SMILES IDX 33 36 85 37 34 38 84 39 35 40 36 41 37 42 78 43 38 44 83 45
REMARK SMILES IDX 77 46 79 47 39 48 82 49 76 50 75 51 40 53 66 54 49 55 65 56
REMARK SMILES IDX 50 57 53 58 64 59 80 60 51 61 52 62 63 64 81 65 54 66 41 67
REMARK SMILES IDX 42 68 47 69 43 70 44 71 46 72 48 73 45 74 67 75 68 76 73 77
REMARK SMILES IDX 69 78 70 79 72 80 74 81 71 82 55 83 56 84 61 85 57 86 58 87
REMARK SMILES IDX 60 88 62 89 59 90
REMARK H PARENT 24 6 2 11 29 33 79 52 53 63
REMARK Flexibility Score: inf
ROOT
ATOM      1  C   UNL A   1      31.574  30.222  26.075  1.00  0.00     0.023 C 
ENDROOT
BRANCH   1   2
ATOM      2  C   UNL A   1      32.996  29.688  26.241  1.00  0.00     0.116 C 
BRANCH   2   3
ATOM      3  N   UNL A   1      33.662  29.463  24.969  1.00  0.00    -0.351 N 
ATOM      4  C   UNL A   1      33.663  28.354  24.172  1.00  0.00     0.280 C 
ATOM      5  O   UNL A   1      34.331  28.394  23.134  1.00  0.00    -0.268 OA
ATOM      6  H   UNL A   1      34.190  30.223  24.633  1.00  0.00     0.163 HD
BRANCH   4   7
ATOM      7  C   UNL A   1      32.814  27.119  24.514  1.00  0.00     0.293 C 
ATOM      8  C   UNL A   1      30.863  27.855  23.238  1.00  0.00     0.333 C 
ATOM      9  N   UNL A   1      31.846  26.782  23.426  1.00  0.00    -0.324 N 
ATOM     10  C   UNL A   1      31.149  25.519  23.765  1.00  0.00     0.284 C 
ATOM     11  H   UNL A   1      32.363  26.671  22.553  1.00  0.00     0.348 HD
ATOM     12  C   UNL A   1      32.121  24.356  24.039  1.00  0.00     0.181 C 
ATOM     13  C   UNL A   1      33.787  25.972  24.870  1.00  0.00     0.195 C 
ATOM     14  N   UNL A   1      33.101  24.693  25.072  1.00  0.00    -0.326 N 
BRANCH  14  15
ATOM     15  C   UNL A   1      33.474  23.721  25.992  1.00  0.00     0.255 C 
ATOM     16  O   UNL A   1      33.133  23.733  27.171  1.00  0.00    -0.269 OA
BRANCH  15  17
ATOM     17  C   UNL A   1      34.311  22.589  25.544  1.00  0.00     0.060 A 
ATOM     18  C   UNL A   1      33.666  21.370  25.278  1.00  0.00     0.043 A 
ATOM     19  C   UNL A   1      35.708  22.679  25.483  1.00  0.00     0.053 A 
ATOM     20  C   UNL A   1      34.434  20.238  24.971  1.00  0.00     0.065 A 
ATOM     21  C   UNL A   1      36.456  21.567  25.089  1.00  0.00     0.023 A 
ATOM     22  Cl  UNL A   1      36.578  24.111  25.905  1.00  0.00    -0.083 Cl
ATOM     23  C   UNL A   1      35.826  20.344  24.852  1.00  0.00     0.030 A 
BRANCH  20  24
ATOM     24  N   UNL A   1      33.809  18.975  24.828  1.00  0.00    -0.241 N 
ATOM     25  C   UNL A   1      34.336  17.861  24.210  1.00  0.00     0.115 A 
ATOM     26  N   UNL A   1      32.575  18.729  25.328  1.00  0.00    -0.177 NA
ATOM     27  C   UNL A   1      33.383  16.875  24.278  1.00  0.00     0.042 A 
ATOM     28  C   UNL A   1      32.305  17.478  24.944  1.00  0.00     0.135 A 
ENDBRANCH  20  24
ENDBRANCH  15  17
ENDBRANCH  14  15
ENDBRANCH   4   7
ENDBRANCH   2   3
ENDBRANCH   1   2
BRANCH   1  29
ATOM     29  C   UNL A   1      31.374  31.700  26.424  1.00  0.00     0.023 C 
BRANCH  29  30
ATOM     30  C   UNL A   1      32.512  32.319  27.224  1.00  0.00     0.116 C 
BRANCH  30  31
ATOM     31  N   UNL A   1      32.306  33.735  27.513  1.00  0.00    -0.352 N 
ATOM     32  C   UNL A   1      32.980  34.519  28.435  1.00  0.00     0.251 C 
ATOM     33  H   UNL A   1      31.604  34.186  26.991  1.00  0.00     0.163 HD
ATOM     34  O   UNL A   1      32.511  35.566  28.842  1.00  0.00    -0.269 OA
BRANCH  32  35
ATOM     35  C   UNL A   1      34.294  34.053  28.912  1.00  0.00     0.039 A 
ATOM     36  C   UNL A   1      34.413  33.280  30.070  1.00  0.00     0.014 A 
ATOM     37  C   UNL A   1      35.412  34.375  28.148  1.00  0.00     0.014 A 
ATOM     38  C   UNL A   1      35.660  32.760  30.408  1.00  0.00     0.010 A 
ATOM     39  C   UNL A   1      36.605  33.751  28.401  1.00  0.00     0.010 A 
ATOM     40  C   UNL A   1      36.751  32.985  29.557  1.00  0.00    -0.014 A 
BRANCH  40  41
ATOM     41  C   UNL A   1      38.037  32.328  29.786  1.00  0.00     0.031 A 
ATOM     42  C   UNL A   1      38.107  30.904  29.343  1.00  0.00     0.074 A 
ATOM     43  C   UNL A   1      39.143  33.041  30.097  1.00  0.00     0.049 A 
ATOM     44  N   UNL A   1      38.392  29.856  30.045  1.00  0.00    -0.248 NA
ATOM     45  C   UNL A   1      37.703  30.591  27.960  1.00  0.00     0.031 C 
ATOM     46  C   UNL A   1      39.270  34.498  30.227  1.00  0.00     0.029 A 
ATOM     47  N   UNL A   1      40.433  32.624  30.223  1.00  0.00    -0.354 N 
ATOM     48  C   UNL A   1      38.406  28.781  29.154  1.00  0.00     0.074 A 
ATOM     49  C   UNL A   1      37.799  29.262  27.942  1.00  0.00     0.031 C 
ATOM     50  C   UNL A   1      40.570  34.851  30.150  1.00  0.00     0.029 A 
ATOM     51  C   UNL A   1      41.375  33.645  30.145  1.00  0.00     0.049 A 
ATOM     52  H   UNL A   1      40.678  31.680  30.358  1.00  0.00     0.167 HD
ATOM     53  C   UNL A   1      39.148  27.666  29.405  1.00  0.00     0.037 A 
ATOM     54  C   UNL A   1      42.719  33.507  30.042  1.00  0.00     0.037 A 
ATOM     55  C   UNL A   1      39.501  27.592  30.802  1.00  0.00     0.049 A 
ATOM     56  C   UNL A   1      43.054  32.123  30.456  1.00  0.00     0.074 A 
ATOM     57  C   UNL A   1      38.798  27.541  31.990  1.00  0.00     0.029 A 
ATOM     58  N   UNL A   1      40.787  27.920  31.152  1.00  0.00    -0.354 N 
ATOM     59  N   UNL A   1      42.928  31.678  31.675  1.00  0.00    -0.248 NA
ATOM     60  C   UNL A   1      43.100  31.104  29.419  1.00  0.00     0.031 C 
ATOM     61  C   UNL A   1      39.566  28.322  32.905  1.00  0.00     0.029 A 
ATOM     62  C   UNL A   1      40.719  28.742  32.243  1.00  0.00     0.049 A 
ATOM     63  H   UNL A   1      41.610  27.620  30.699  1.00  0.00     0.167 HD
ATOM     64  C   UNL A   1      42.440  30.388  31.528  1.00  0.00     0.074 A 
ATOM     65  C   UNL A   1      42.658  30.057  30.121  1.00  0.00     0.031 C 
ATOM     66  C   UNL A   1      41.642  29.826  32.484  1.00  0.00     0.037 A 
BRANCH  53  67
ATOM     67  C   UNL A   1      39.919  26.885  28.352  1.00  0.00     0.057 A 
ATOM     68  C   UNL A   1      40.768  27.592  27.476  1.00  0.00     0.134 A 
ATOM     69  C   UNL A   1      39.627  25.566  27.948  1.00  0.00     0.134 A 
ATOM     70  F   UNL A   1      41.154  28.848  27.750  1.00  0.00    -0.206 F 
ATOM     71  C   UNL A   1      41.169  27.082  26.235  1.00  0.00     0.040 A 
ATOM     72  C   UNL A   1      40.063  25.030  26.732  1.00  0.00     0.040 A 
ATOM     73  F   UNL A   1      38.835  24.749  28.648  1.00  0.00    -0.206 F 
ATOM     74  C   UNL A   1      40.797  25.803  25.849  1.00  0.00     0.006 A 
ENDBRANCH  53  67
BRANCH  54  75
ATOM     75  C   UNL A   1      43.690  34.380  29.346  1.00  0.00     0.057 A 
ATOM     76  C   UNL A   1      43.900  34.274  27.963  1.00  0.00     0.134 A 
ATOM     77  C   UNL A   1      44.233  35.520  29.966  1.00  0.00     0.134 A 
ATOM     78  F   UNL A   1      43.388  33.244  27.275  1.00  0.00    -0.206 F 
ATOM     79  C   UNL A   1      44.586  35.256  27.236  1.00  0.00     0.040 A 
ATOM     80  C   UNL A   1      44.927  36.503  29.253  1.00  0.00     0.040 A 
ATOM     81  F   UNL A   1      44.032  35.761  31.270  1.00  0.00    -0.206 F 
ATOM     82  C   UNL A   1      45.092  36.382  27.879  1.00  0.00     0.006 A 
ENDBRANCH  54  75
BRANCH  66  83
ATOM     83  C   UNL A   1      41.523  30.528  33.808  1.00  0.00     0.057 A 
ATOM     84  C   UNL A   1      40.556  31.500  34.102  1.00  0.00     0.134 A 
ATOM     85  C   UNL A   1      42.318  30.087  34.871  1.00  0.00     0.134 A 
ATOM     86  F   UNL A   1      39.684  31.916  33.177  1.00  0.00    -0.206 F 
ATOM     87  C   UNL A   1      40.414  32.036  35.386  1.00  0.00     0.040 A 
ATOM     88  C   UNL A   1      42.164  30.588  36.165  1.00  0.00     0.040 A 
ATOM     89  F   UNL A   1      43.227  29.117  34.677  1.00  0.00    -0.206 F 
ATOM     90  C   UNL A   1      41.215  31.573  36.424  1.00  0.00     0.006 A 
ENDBRANCH  66  83
ENDBRANCH  40  41
ENDBRANCH  32  35
ENDBRANCH  30  31
ENDBRANCH  29  30
ENDBRANCH   1  29
TORSDOF 14
ENDMDL
MODEL 3
REMARK VINA RESULT:     -12.3      2.489      8.076
REMARK SMILES C[N@@H+]1CCN(C(=O)c2cc(-n3cccn3)ccc2Cl)C[C@H]1C(=O)NCCCCNC(=O)c1ccc(-c2c3nc(c(-c4c(F)cccc4F)c4ccc([nH]4)c(-c4c(F)cccc4F)c4nc(c(-c5c(F)cccc5F)c5ccc2[nH]5)C=C4)C=C3)cc1
REMARK SMILES IDX 26 1 25 2 24 3 22 4 23 5 21 7 1 8 2 9 3 10 4 12 20 13 5 14
REMARK SMILES IDX 6 15 7 16 8 17 9 18 18 19 10 20 17 21 19 22 16 23 11 24
REMARK SMILES IDX 12 25 15 26 13 27 14 28 27 29 28 30 29 31 30 32 31 34 32 35
REMARK SMILES IDX 33 36 85 37 34 38 84 39 35 40 36 41 37 42 78 43 38 44 83 45
REMARK SMILES IDX 77 46 79 47 39 48 82 49 76 50 75 51 40 53 66 54 49 55 65 56
REMARK SMILES IDX 50 57 53 58 64 59 80 60 51 61 52 62 63 64 81 65 54 66 41 67
REMARK SMILES IDX 42 68 47 69 43 70 44 71 46 72 48 73 45 74 67 75 68 76 73 77
REMARK SMILES IDX 69 78 70 79 72 80 74 81 71 82 55 83 56 84 61 85 57 86 58 87
REMARK SMILES IDX 60 88 62 89 59 90
REMARK H PARENT 24 6 2 11 29 33 79 52 53 63
REMARK Flexibility Score: inf
ROOT
ATOM      1  C   UNL A   1      32.627  29.914  27.043  1.00  0.00     0.023 C 
ENDROOT
BRANCH   1   2
ATOM      2  C   UNL A   1      32.036  29.700  25.651  1.00  0.00     0.116 C 
BRANCH   2   3
ATOM      3  N   UNL A   1      33.056  29.581  24.622  1.00  0.00    -0.351 N 
ATOM      4  C   UNL A   1      33.435  28.487  23.897  1.00  0.00     0.280 C 
ATOM      5  O   UNL A   1      34.353  28.629  23.083  1.00  0.00    -0.268 OA
ATOM      6  H   UNL A   1      33.545  30.411  24.418  1.00  0.00     0.163 HD
BRANCH   4   7
ATOM      7  C   UNL A   1      32.707  27.140  24.034  1.00  0.00     0.293 C 
ATOM      8  C   UNL A   1      31.043  27.634  22.312  1.00  0.00     0.333 C 
ATOM      9  N   UNL A   1      32.088  26.701  22.746  1.00  0.00    -0.324 N 
ATOM     10  C   UNL A   1      31.511  25.347  22.918  1.00  0.00     0.284 C 
ATOM     11  H   UNL A   1      32.813  26.681  22.027  1.00  0.00     0.348 HD
ATOM     12  C   UNL A   1      32.537  24.321  23.434  1.00  0.00     0.181 C 
ATOM     13  C   UNL A   1      33.712  26.128  24.629  1.00  0.00     0.195 C 
ATOM     14  N   UNL A   1      33.180  24.763  24.671  1.00  0.00    -0.326 N 
BRANCH  14  15
ATOM     15  C   UNL A   1      33.448  23.831  25.665  1.00  0.00     0.255 C 
ATOM     16  O   UNL A   1      33.006  23.906  26.808  1.00  0.00    -0.269 OA
BRANCH  15  17
ATOM     17  C   UNL A   1      34.292  22.661  25.346  1.00  0.00     0.060 A 
ATOM     18  C   UNL A   1      33.646  21.437  25.108  1.00  0.00     0.043 A 
ATOM     19  C   UNL A   1      35.692  22.727  25.378  1.00  0.00     0.053 A 
ATOM     20  C   UNL A   1      34.411  20.278  24.925  1.00  0.00     0.065 A 
ATOM     21  C   UNL A   1      36.444  21.582  25.105  1.00  0.00     0.023 A 
ATOM     22  Cl  UNL A   1      36.557  24.169  25.773  1.00  0.00    -0.083 Cl
ATOM     23  C   UNL A   1      35.810  20.357  24.898  1.00  0.00     0.030 A 
BRANCH  20  24
ATOM     24  N   UNL A   1      33.774  19.017  24.814  1.00  0.00    -0.241 N 
ATOM     25  C   UNL A   1      34.286  17.886  24.216  1.00  0.00     0.115 A 
ATOM     26  N   UNL A   1      32.542  18.793  25.330  1.00  0.00    -0.177 NA
ATOM     27  C   UNL A   1      33.326  16.910  24.312  1.00  0.00     0.042 A 
ATOM     28  C   UNL A   1      32.259  17.537  24.976  1.00  0.00     0.135 A 
ENDBRANCH  20  24
ENDBRANCH  15  17
ENDBRANCH  14  15
ENDBRANCH   4   7
ENDBRANCH   2   3
ENDBRANCH   1   2
BRANCH   1  29
ATOM     29  C   UNL A   1      33.164  31.321  27.328  1.00  0.00     0.023 C 
BRANCH  29  30
ATOM     30  C   UNL A   1      34.544  31.351  27.970  1.00  0.00     0.116 C 
BRANCH  30  31
ATOM     31  N   UNL A   1      34.552  31.991  29.282  1.00  0.00    -0.352 N 
ATOM     32  C   UNL A   1      35.373  31.705  30.360  1.00  0.00     0.251 C 
ATOM     33  H   UNL A   1      33.895  32.713  29.415  1.00  0.00     0.163 HD
ATOM     34  O   UNL A   1      35.075  32.040  31.492  1.00  0.00    -0.269 OA
BRANCH  32  35
ATOM     35  C   UNL A   1      36.630  30.982  30.101  1.00  0.00     0.039 A 
ATOM     36  C   UNL A   1      37.823  31.666  29.851  1.00  0.00     0.014 A 
ATOM     37  C   UNL A   1      36.599  29.591  30.153  1.00  0.00     0.014 A 
ATOM     38  C   UNL A   1      39.006  30.939  29.739  1.00  0.00     0.010 A 
ATOM     39  C   UNL A   1      37.777  28.891  30.183  1.00  0.00     0.010 A 
ATOM     40  C   UNL A   1      38.978  29.550  29.924  1.00  0.00    -0.014 A 
BRANCH  40  41
ATOM     41  C   UNL A   1      40.213  28.769  29.973  1.00  0.00     0.031 A 
ATOM     42  C   UNL A   1      40.798  28.598  31.337  1.00  0.00     0.074 A 
ATOM     43  C   UNL A   1      40.616  28.026  28.918  1.00  0.00     0.049 A 
ATOM     44  N   UNL A   1      41.976  28.931  31.754  1.00  0.00    -0.248 NA
ATOM     45  C   UNL A   1      39.920  28.085  32.404  1.00  0.00     0.031 C 
ATOM     46  C   UNL A   1      39.935  27.847  27.629  1.00  0.00     0.029 A 
ATOM     47  N   UNL A   1      41.654  27.151  28.823  1.00  0.00    -0.354 N 
ATOM     48  C   UNL A   1      42.061  28.485  33.075  1.00  0.00     0.074 A 
ATOM     49  C   UNL A   1      40.721  28.148  33.468  1.00  0.00     0.031 C 
ATOM     50  C   UNL A   1      40.420  26.752  27.007  1.00  0.00     0.029 A 
ATOM     51  C   UNL A   1      41.557  26.259  27.760  1.00  0.00     0.049 A 
ATOM     52  H   UNL A   1      42.411  27.150  29.453  1.00  0.00     0.167 HD
ATOM     53  C   UNL A   1      43.265  28.190  33.642  1.00  0.00     0.037 A 
ATOM     54  C   UNL A   1      42.330  25.169  27.538  1.00  0.00     0.037 A 
ATOM     55  C   UNL A   1      44.343  28.794  32.897  1.00  0.00     0.049 A 
ATOM     56  C   UNL A   1      43.554  25.321  28.360  1.00  0.00     0.074 A 
ATOM     57  C   UNL A   1      44.688  30.084  32.543  1.00  0.00     0.029 A 
ATOM     58  N   UNL A   1      45.089  27.978  32.084  1.00  0.00    -0.354 N 
ATOM     59  N   UNL A   1      44.467  26.226  28.144  1.00  0.00    -0.248 NA
ATOM     60  C   UNL A   1      43.539  24.754  29.699  1.00  0.00     0.031 C 
ATOM     61  C   UNL A   1      45.224  29.971  31.225  1.00  0.00     0.029 A 
ATOM     62  C   UNL A   1      45.237  28.618  30.884  1.00  0.00     0.049 A 
ATOM     63  H   UNL A   1      45.452  27.093  32.320  1.00  0.00     0.167 HD
ATOM     64  C   UNL A   1      44.839  26.657  29.409  1.00  0.00     0.074 A 
ATOM     65  C   UNL A   1      44.308  25.649  30.325  1.00  0.00     0.031 C 
ATOM     66  C   UNL A   1      45.284  27.932  29.614  1.00  0.00     0.037 A 
BRANCH  53  67
ATOM     67  C   UNL A   1      43.513  27.024  34.587  1.00  0.00     0.057 A 
ATOM     68  C   UNL A   1      43.825  27.304  35.934  1.00  0.00     0.134 A 
ATOM     69  C   UNL A   1      43.782  25.700  34.186  1.00  0.00     0.134 A 
ATOM     70  F   UNL A   1      43.593  28.516  36.460  1.00  0.00    -0.206 F 
ATOM     71  C   UNL A   1      44.485  26.388  36.763  1.00  0.00     0.040 A 
ATOM     72  C   UNL A   1      44.397  24.763  35.023  1.00  0.00     0.040 A 
ATOM     73  F   UNL A   1      43.557  25.255  32.946  1.00  0.00    -0.206 F 
ATOM     74  C   UNL A   1      44.793  25.117  36.300  1.00  0.00     0.006 A 
ENDBRANCH  53  67
BRANCH  54  75
ATOM     75  C   UNL A   1      41.962  23.886  26.898  1.00  0.00     0.057 A 
ATOM     76  C   UNL A   1      42.874  23.192  26.088  1.00  0.00     0.134 A 
ATOM     77  C   UNL A   1      40.812  23.173  27.282  1.00  0.00     0.134 A 
ATOM     78  F   UNL A   1      44.018  23.773  25.702  1.00  0.00    -0.206 F 
ATOM     79  C   UNL A   1      42.667  21.860  25.706  1.00  0.00     0.040 A 
ATOM     80  C   UNL A   1      40.590  21.846  26.900  1.00  0.00     0.040 A 
ATOM     81  F   UNL A   1      39.910  23.712  28.115  1.00  0.00    -0.206 F 
ATOM     82  C   UNL A   1      41.527  21.178  26.122  1.00  0.00     0.006 A 
ENDBRANCH  54  75
BRANCH  66  83
ATOM     83  C   UNL A   1      45.610  28.770  28.410  1.00  0.00     0.057 A 
ATOM     84  C   UNL A   1      44.700  29.627  27.773  1.00  0.00     0.134 A 
ATOM     85  C   UNL A   1      46.939  28.829  27.978  1.00  0.00     0.134 A 
ATOM     86  F   UNL A   1      43.428  29.715  28.179  1.00  0.00    -0.206 F 
ATOM     87  C   UNL A   1      45.088  30.473  26.730  1.00  0.00     0.040 A 
ATOM     88  C   UNL A   1      47.346  29.693  26.960  1.00  0.00     0.040 A 
ATOM     89  F   UNL A   1      47.878  28.079  28.579  1.00  0.00    -0.206 F 
ATOM     90  C   UNL A   1      46.417  30.513  26.326  1.00  0.00     0.006 A 
ENDBRANCH  66  83
ENDBRANCH  40  41
ENDBRANCH  32  35
ENDBRANCH  30  31
ENDBRANCH  29  30
ENDBRANCH   1  29
TORSDOF 14
ENDMDL
