MODEL 1
REMARK VINA RESULT:     -13.2      0.000      0.000
REMARK SMILES O=C(NCCCCNC(=O)c1nnn(-c2ccc(C(F)(F)F)cc2)c1-c1cccc(Cl)c1)c1ccc(-c2c3nc(c(-c4c(F)cccc4F)c4ccc([nH]4)c(-c4c(F)cccc4F)c4nc(c(-c5c(F)cccc5F)c5ccc2[nH]5)C=C4)C=C3)cc1
REMARK SMILES IDX 5 1 4 2 3 3 1 4 2 5 33 7 34 8 86 9 35 10 85 11 36 12 37 13
REMARK SMILES IDX 38 14 79 15 39 16 84 17 78 18 80 19 40 20 83 21 77 22 76 23
REMARK SMILES IDX 41 25 67 26 50 27 66 28 51 29 54 30 65 31 81 32 52 33 53 34
REMARK SMILES IDX 64 36 82 37 55 38 42 39 43 40 48 41 44 42 45 43 47 44 49 45
REMARK SMILES IDX 46 46 68 47 69 48 74 49 70 50 71 51 73 52 75 53 72 54 56 55
REMARK SMILES IDX 57 56 62 57 58 58 59 59 61 60 63 61 60 62 6 63 7 64 8 65
REMARK SMILES IDX 9 66 10 68 11 69 12 70 25 71 13 72 14 73 26 74 27 75 32 76
REMARK SMILES IDX 28 77 30 78 29 79 31 80 15 81 16 82 24 83 17 84 23 85 18 86
REMARK SMILES IDX 19 87 20 88 21 89 22 90
REMARK H PARENT 3 6 80 24 54 35 8 67
REMARK Flexibility Score: inf
ROOT
ATOM      1  C   UNL A   1      37.031  21.856  24.352  1.00  0.00     0.023 C 
ENDROOT
BRANCH   1   2
ATOM      2  C   UNL A   1      37.739  22.187  25.669  1.00  0.00     0.116 C 
BRANCH   2   3
ATOM      3  N   UNL A   1      39.115  21.739  25.759  1.00  0.00    -0.352 N 
ATOM      4  O   UNL A   1      41.221  21.436  26.342  1.00  0.00    -0.269 OA
ATOM      5  C   UNL A   1      40.254  22.205  26.359  1.00  0.00     0.251 C 
ATOM      6  H   UNL A   1      39.265  20.895  25.274  1.00  0.00     0.163 HD
BRANCH   5   7
ATOM      7  C   UNL A   1      40.428  23.552  26.976  1.00  0.00     0.039 A 
ATOM      8  C   UNL A   1      41.428  23.909  27.878  1.00  0.00     0.014 A 
ATOM      9  C   UNL A   1      39.482  24.535  26.616  1.00  0.00     0.014 A 
ATOM     10  C   UNL A   1      41.450  25.183  28.447  1.00  0.00     0.010 A 
ATOM     11  C   UNL A   1      39.510  25.818  27.167  1.00  0.00     0.010 A 
ATOM     12  C   UNL A   1      40.489  26.140  28.102  1.00  0.00    -0.014 A 
BRANCH  12  13
ATOM     13  C   UNL A   1      40.650  27.487  28.652  1.00  0.00     0.031 A 
ATOM     14  C   UNL A   1      41.849  28.241  28.185  1.00  0.00     0.074 A 
ATOM     15  C   UNL A   1      39.771  28.135  29.441  1.00  0.00     0.049 A 
ATOM     16  N   UNL A   1      42.857  28.654  28.885  1.00  0.00    -0.248 NA
ATOM     17  C   UNL A   1      41.948  28.543  26.751  1.00  0.00     0.031 C 
ATOM     18  C   UNL A   1      38.395  27.767  29.768  1.00  0.00     0.029 A 
ATOM     19  N   UNL A   1      39.932  29.343  30.064  1.00  0.00    -0.354 N 
ATOM     20  C   UNL A   1      43.649  29.405  28.019  1.00  0.00     0.074 A 
ATOM     21  C   UNL A   1      43.093  29.228  26.701  1.00  0.00     0.031 C 
ATOM     22  C   UNL A   1      37.788  28.817  30.371  1.00  0.00     0.029 A 
ATOM     23  C   UNL A   1      38.765  29.873  30.590  1.00  0.00     0.049 A 
ATOM     24  H   UNL A   1      40.803  29.796  30.134  1.00  0.00     0.167 HD
ATOM     25  C   UNL A   1      44.617  30.253  28.468  1.00  0.00     0.037 A 
ATOM     26  C   UNL A   1      38.602  31.106  31.129  1.00  0.00     0.037 A 
ATOM     27  C   UNL A   1      44.975  29.993  29.835  1.00  0.00     0.049 A 
ATOM     28  C   UNL A   1      39.933  31.632  31.513  1.00  0.00     0.074 A 
ATOM     29  C   UNL A   1      45.467  28.905  30.531  1.00  0.00     0.029 A 
ATOM     30  N   UNL A   1      44.576  30.887  30.796  1.00  0.00    -0.354 N 
ATOM     31  N   UNL A   1      40.630  31.217  32.530  1.00  0.00    -0.248 NA
ATOM     32  C   UNL A   1      40.660  32.446  30.550  1.00  0.00     0.031 C 
ATOM     33  C   UNL A   1      44.882  28.998  31.829  1.00  0.00     0.029 A 
ATOM     34  C   UNL A   1      44.091  30.146  31.840  1.00  0.00     0.049 A 
ATOM     35  H   UNL A   1      44.628  31.869  30.744  1.00  0.00     0.167 HD
ATOM     36  C   UNL A   1      41.950  31.346  32.128  1.00  0.00     0.074 A 
ATOM     37  C   UNL A   1      41.907  32.228  30.969  1.00  0.00     0.031 C 
ATOM     38  C   UNL A   1      42.915  30.503  32.596  1.00  0.00     0.037 A 
BRANCH  25  39
ATOM     39  C   UNL A   1      45.037  31.521  27.770  1.00  0.00     0.057 A 
ATOM     40  C   UNL A   1      46.317  31.608  27.190  1.00  0.00     0.134 A 
ATOM     41  C   UNL A   1      44.354  32.747  27.904  1.00  0.00     0.134 A 
ATOM     42  F   UNL A   1      47.076  30.514  27.033  1.00  0.00    -0.206 F 
ATOM     43  C   UNL A   1      46.897  32.829  26.828  1.00  0.00     0.040 A 
ATOM     44  C   UNL A   1      44.904  33.966  27.498  1.00  0.00     0.040 A 
ATOM     45  F   UNL A   1      43.169  32.833  28.521  1.00  0.00    -0.206 F 
ATOM     46  C   UNL A   1      46.191  34.015  26.986  1.00  0.00     0.006 A 
ENDBRANCH  25  39
BRANCH  26  47
ATOM     47  C   UNL A   1      37.395  31.959  31.184  1.00  0.00     0.057 A 
ATOM     48  C   UNL A   1      36.992  32.725  30.079  1.00  0.00     0.134 A 
ATOM     49  C   UNL A   1      36.461  31.835  32.225  1.00  0.00     0.134 A 
ATOM     50  F   UNL A   1      37.799  32.870  29.018  1.00  0.00    -0.206 F 
ATOM     51  C   UNL A   1      35.724  33.310  30.003  1.00  0.00     0.040 A 
ATOM     52  C   UNL A   1      35.194  32.424  32.165  1.00  0.00     0.040 A 
ATOM     53  F   UNL A   1      36.711  31.065  33.293  1.00  0.00    -0.206 F 
ATOM     54  C   UNL A   1      34.815  33.152  31.045  1.00  0.00     0.006 A 
ENDBRANCH  26  47
BRANCH  38  55
ATOM     55  C   UNL A   1      42.605  29.674  33.809  1.00  0.00     0.057 A 
ATOM     56  C   UNL A   1      41.905  28.460  33.775  1.00  0.00     0.134 A 
ATOM     57  C   UNL A   1      43.147  30.061  35.042  1.00  0.00     0.134 A 
ATOM     58  F   UNL A   1      41.447  27.952  32.622  1.00  0.00    -0.206 F 
ATOM     59  C   UNL A   1      41.700  27.699  34.930  1.00  0.00     0.040 A 
ATOM     60  C   UNL A   1      42.983  29.290  36.194  1.00  0.00     0.040 A 
ATOM     61  F   UNL A   1      43.882  31.180  35.137  1.00  0.00    -0.206 F 
ATOM     62  C   UNL A   1      42.244  28.111  36.143  1.00  0.00     0.006 A 
ENDBRANCH  38  55
ENDBRANCH  12  13
ENDBRANCH   5   7
ENDBRANCH   2   3
ENDBRANCH   1   2
BRANCH   1  63
ATOM     63  C   UNL A   1      36.586  23.052  23.508  1.00  0.00     0.023 C 
BRANCH  63  64
ATOM     64  C   UNL A   1      35.117  23.435  23.622  1.00  0.00     0.116 C 
BRANCH  64  65
ATOM     65  N   UNL A   1      34.584  23.292  24.963  1.00  0.00    -0.351 N 
ATOM     66  C   UNL A   1      33.379  23.749  25.464  1.00  0.00     0.274 C 
ATOM     67  H   UNL A   1      35.154  22.805  25.600  1.00  0.00     0.163 HD
ATOM     68  O   UNL A   1      33.116  23.550  26.641  1.00  0.00    -0.267 OA
BRANCH  66  69
ATOM     69  C   UNL A   1      32.466  24.451  24.571  1.00  0.00     0.178 A 
ATOM     70  N   UNL A   1      31.813  23.806  23.553  1.00  0.00    -0.124 NA
ATOM     71  C   UNL A   1      32.050  25.775  24.621  1.00  0.00     0.108 A 
ATOM     72  N   UNL A   1      30.944  24.650  23.017  1.00  0.00    -0.061 NA
ATOM     73  N   UNL A   1      31.140  25.867  23.571  1.00  0.00    -0.212 N 
BRANCH  71  74
ATOM     74  C   UNL A   1      32.272  26.799  25.641  1.00  0.00     0.004 A 
ATOM     75  C   UNL A   1      31.239  27.117  26.541  1.00  0.00     0.010 A 
ATOM     76  C   UNL A   1      33.511  27.432  25.772  1.00  0.00     0.031 A 
ATOM     77  C   UNL A   1      31.437  28.052  27.556  1.00  0.00     0.002 A 
ATOM     78  C   UNL A   1      33.700  28.374  26.785  1.00  0.00     0.041 A 
ATOM     79  C   UNL A   1      32.671  28.683  27.676  1.00  0.00     0.020 A 
ATOM     80  Cl  UNL A   1      35.220  29.162  26.941  1.00  0.00    -0.084 Cl
ENDBRANCH  71  74
BRANCH  73  81
ATOM     81  C   UNL A   1      30.386  26.996  23.167  1.00  0.00     0.067 A 
ATOM     82  C   UNL A   1      29.041  27.091  23.536  1.00  0.00     0.029 A 
ATOM     83  C   UNL A   1      31.009  28.054  22.494  1.00  0.00     0.029 A 
ATOM     84  C   UNL A   1      28.357  28.293  23.330  1.00  0.00     0.015 A 
ATOM     85  C   UNL A   1      30.312  29.239  22.265  1.00  0.00     0.015 A 
ATOM     86  C   UNL A   1      28.992  29.384  22.711  1.00  0.00     0.056 A 
BRANCH  86  87
ATOM     87  C   UNL A   1      28.272  30.704  22.575  1.00  0.00     0.416 C 
ATOM     88  F   UNL A   1      29.101  31.774  22.702  1.00  0.00    -0.166 F 
ATOM     89  F   UNL A   1      27.670  30.835  21.359  1.00  0.00    -0.166 F 
ATOM     90  F   UNL A   1      27.284  30.882  23.497  1.00  0.00    -0.166 F 
ENDBRANCH  86  87
ENDBRANCH  73  81
ENDBRANCH  66  69
ENDBRANCH  64  65
ENDBRANCH  63  64
ENDBRANCH   1  63
TORSDOF 14
ENDMDL
MODEL 2
REMARK VINA RESULT:     -13.2      3.934      8.289
REMARK SMILES O=C(NCCCCNC(=O)c1nnn(-c2ccc(C(F)(F)F)cc2)c1-c1cccc(Cl)c1)c1ccc(-c2c3nc(c(-c4c(F)cccc4F)c4ccc([nH]4)c(-c4c(F)cccc4F)c4nc(c(-c5c(F)cccc5F)c5ccc2[nH]5)C=C4)C=C3)cc1
REMARK SMILES IDX 5 1 4 2 3 3 1 4 2 5 33 7 34 8 86 9 35 10 85 11 36 12 37 13
REMARK SMILES IDX 38 14 79 15 39 16 84 17 78 18 80 19 40 20 83 21 77 22 76 23
REMARK SMILES IDX 41 25 67 26 50 27 66 28 51 29 54 30 65 31 81 32 52 33 53 34
REMARK SMILES IDX 64 36 82 37 55 38 42 39 43 40 48 41 44 42 45 43 47 44 49 45
REMARK SMILES IDX 46 46 68 47 69 48 74 49 70 50 71 51 73 52 75 53 72 54 56 55
REMARK SMILES IDX 57 56 62 57 58 58 59 59 61 60 63 61 60 62 6 63 7 64 8 65
REMARK SMILES IDX 9 66 10 68 11 69 12 70 25 71 13 72 14 73 26 74 27 75 32 76
REMARK SMILES IDX 28 77 30 78 29 79 31 80 15 81 16 82 24 83 17 84 23 85 18 86
REMARK SMILES IDX 19 87 20 88 21 89 22 90
REMARK H PARENT 3 6 80 24 54 35 8 67
REMARK Flexibility Score: inf
ROOT
ATOM      1  C   UNL A   1      32.188  29.484  26.778  1.00  0.00     0.023 C 
ENDROOT
BRANCH   1   2
ATOM      2  C   UNL A   1      33.460  30.336  26.717  1.00  0.00     0.116 C 
BRANCH   2   3
ATOM      3  N   UNL A   1      33.565  31.359  27.739  1.00  0.00    -0.352 N 
ATOM      4  O   UNL A   1      34.300  32.843  29.198  1.00  0.00    -0.269 OA
ATOM      5  C   UNL A   1      34.562  31.820  28.558  1.00  0.00     0.251 C 
ATOM      6  H   UNL A   1      32.717  31.840  27.877  1.00  0.00     0.163 HD
BRANCH   5   7
ATOM      7  C   UNL A   1      35.891  31.174  28.764  1.00  0.00     0.039 A 
ATOM      8  C   UNL A   1      37.085  31.841  29.032  1.00  0.00     0.014 A 
ATOM      9  C   UNL A   1      35.929  29.767  28.662  1.00  0.00     0.014 A 
ATOM     10  C   UNL A   1      38.284  31.135  29.136  1.00  0.00     0.010 A 
ATOM     11  C   UNL A   1      37.123  29.054  28.784  1.00  0.00     0.010 A 
ATOM     12  C   UNL A   1      38.312  29.742  29.005  1.00  0.00    -0.014 A 
BRANCH  12  13
ATOM     13  C   UNL A   1      39.588  29.067  29.244  1.00  0.00     0.031 A 
ATOM     14  C   UNL A   1      40.007  28.953  30.671  1.00  0.00     0.074 A 
ATOM     15  C   UNL A   1      40.351  28.454  28.317  1.00  0.00     0.049 A 
ATOM     16  N   UNL A   1      41.042  29.478  31.246  1.00  0.00    -0.248 NA
ATOM     17  C   UNL A   1      39.144  28.182  31.575  1.00  0.00     0.031 C 
ATOM     18  C   UNL A   1      40.018  28.131  26.932  1.00  0.00     0.029 A 
ATOM     19  N   UNL A   1      41.597  27.912  28.478  1.00  0.00    -0.354 N 
ATOM     20  C   UNL A   1      41.056  28.983  32.548  1.00  0.00     0.074 A 
ATOM     21  C   UNL A   1      39.818  28.265  32.724  1.00  0.00     0.031 C 
ATOM     22  C   UNL A   1      40.956  27.289  26.437  1.00  0.00     0.029 A 
ATOM     23  C   UNL A   1      42.016  27.121  27.421  1.00  0.00     0.049 A 
ATOM     24  H   UNL A   1      42.149  28.070  29.278  1.00  0.00     0.167 HD
ATOM     25  C   UNL A   1      42.158  29.061  33.345  1.00  0.00     0.037 A 
ATOM     26  C   UNL A   1      43.132  26.354  27.370  1.00  0.00     0.037 A 
ATOM     27  C   UNL A   1      43.114  30.017  32.858  1.00  0.00     0.049 A 
ATOM     28  C   UNL A   1      44.082  26.834  28.401  1.00  0.00     0.074 A 
ATOM     29  C   UNL A   1      43.096  31.370  32.582  1.00  0.00     0.029 A 
ATOM     30  N   UNL A   1      44.278  29.549  32.302  1.00  0.00    -0.354 N 
ATOM     31  N   UNL A   1      44.768  27.937  28.321  1.00  0.00    -0.248 NA
ATOM     32  C   UNL A   1      44.044  26.218  29.719  1.00  0.00     0.031 C 
ATOM     33  C   UNL A   1      43.975  31.535  31.471  1.00  0.00     0.029 A 
ATOM     34  C   UNL A   1      44.483  30.274  31.159  1.00  0.00     0.049 A 
ATOM     35  H   UNL A   1      44.853  28.832  32.656  1.00  0.00     0.167 HD
ATOM     36  C   UNL A   1      44.883  28.374  29.630  1.00  0.00     0.074 A 
ATOM     37  C   UNL A   1      44.544  27.216  30.448  1.00  0.00     0.031 C 
ATOM     38  C   UNL A   1      44.966  29.704  29.925  1.00  0.00     0.037 A 
BRANCH  25  39
ATOM     39  C   UNL A   1      42.518  28.058  34.411  1.00  0.00     0.057 A 
ATOM     40  C   UNL A   1      43.000  26.788  34.040  1.00  0.00     0.134 A 
ATOM     41  C   UNL A   1      42.134  28.184  35.761  1.00  0.00     0.134 A 
ATOM     42  F   UNL A   1      43.373  26.536  32.777  1.00  0.00    -0.206 F 
ATOM     43  C   UNL A   1      43.038  25.709  34.931  1.00  0.00     0.040 A 
ATOM     44  C   UNL A   1      42.216  27.126  36.671  1.00  0.00     0.040 A 
ATOM     45  F   UNL A   1      41.571  29.302  36.236  1.00  0.00    -0.206 F 
ATOM     46  C   UNL A   1      42.641  25.875  36.251  1.00  0.00     0.006 A 
ENDBRANCH  25  39
BRANCH  26  47
ATOM     47  C   UNL A   1      43.386  25.108  26.615  1.00  0.00     0.057 A 
ATOM     48  C   UNL A   1      42.559  23.983  26.765  1.00  0.00     0.134 A 
ATOM     49  C   UNL A   1      44.277  25.080  25.531  1.00  0.00     0.134 A 
ATOM     50  F   UNL A   1      41.647  23.931  27.746  1.00  0.00    -0.206 F 
ATOM     51  C   UNL A   1      42.600  22.906  25.873  1.00  0.00     0.040 A 
ATOM     52  C   UNL A   1      44.335  24.005  24.638  1.00  0.00     0.040 A 
ATOM     53  F   UNL A   1      45.059  26.132  25.250  1.00  0.00    -0.206 F 
ATOM     54  C   UNL A   1      43.484  22.919  24.798  1.00  0.00     0.006 A 
ENDBRANCH  26  47
BRANCH  38  55
ATOM     55  C   UNL A   1      45.288  30.658  28.812  1.00  0.00     0.057 A 
ATOM     56  C   UNL A   1      46.589  31.050  28.463  1.00  0.00     0.134 A 
ATOM     57  C   UNL A   1      44.248  31.099  27.983  1.00  0.00     0.134 A 
ATOM     58  F   UNL A   1      47.657  30.588  29.127  1.00  0.00    -0.206 F 
ATOM     59  C   UNL A   1      46.834  31.894  27.376  1.00  0.00     0.040 A 
ATOM     60  C   UNL A   1      44.484  31.910  26.872  1.00  0.00     0.040 A 
ATOM     61  F   UNL A   1      42.985  30.713  28.220  1.00  0.00    -0.206 F 
ATOM     62  C   UNL A   1      45.780  32.323  26.574  1.00  0.00     0.006 A 
ENDBRANCH  38  55
ENDBRANCH  12  13
ENDBRANCH   5   7
ENDBRANCH   2   3
ENDBRANCH   1   2
BRANCH   1  63
ATOM     63  C   UNL A   1      32.335  28.101  27.416  1.00  0.00     0.023 C 
BRANCH  63  64
ATOM     64  C   UNL A   1      32.360  26.925  26.451  1.00  0.00     0.116 C 
BRANCH  64  65
ATOM     65  N   UNL A   1      32.918  27.252  25.153  1.00  0.00    -0.351 N 
ATOM     66  C   UNL A   1      33.012  26.452  24.029  1.00  0.00     0.274 C 
ATOM     67  H   UNL A   1      33.277  28.162  25.060  1.00  0.00     0.163 HD
ATOM     68  O   UNL A   1      33.544  26.904  23.026  1.00  0.00    -0.267 OA
BRANCH  66  69
ATOM     69  C   UNL A   1      32.472  25.100  24.081  1.00  0.00     0.178 A 
ATOM     70  N   UNL A   1      31.139  24.846  23.881  1.00  0.00    -0.124 NA
ATOM     71  C   UNL A   1      33.151  23.899  24.244  1.00  0.00     0.108 A 
ATOM     72  N   UNL A   1      30.970  23.533  23.831  1.00  0.00    -0.061 NA
ATOM     73  N   UNL A   1      32.144  22.943  24.149  1.00  0.00    -0.212 N 
BRANCH  71  74
ATOM     74  C   UNL A   1      34.586  23.619  24.260  1.00  0.00     0.004 A 
ATOM     75  C   UNL A   1      35.191  23.029  23.135  1.00  0.00     0.010 A 
ATOM     76  C   UNL A   1      35.379  23.973  25.355  1.00  0.00     0.031 A 
ATOM     77  C   UNL A   1      36.564  22.796  23.101  1.00  0.00     0.002 A 
ATOM     78  C   UNL A   1      36.754  23.729  25.317  1.00  0.00     0.041 A 
ATOM     79  C   UNL A   1      37.347  23.146  24.197  1.00  0.00     0.020 A 
ATOM     80  Cl  UNL A   1      37.730  24.154  26.668  1.00  0.00    -0.084 Cl
ENDBRANCH  71  74
BRANCH  73  81
ATOM     81  C   UNL A   1      32.269  21.534  24.224  1.00  0.00     0.067 A 
ATOM     82  C   UNL A   1      32.103  20.768  23.066  1.00  0.00     0.029 A 
ATOM     83  C   UNL A   1      32.658  20.925  25.422  1.00  0.00     0.029 A 
ATOM     84  C   UNL A   1      32.438  19.410  23.089  1.00  0.00     0.015 A 
ATOM     85  C   UNL A   1      32.962  19.565  25.446  1.00  0.00     0.015 A 
ATOM     86  C   UNL A   1      32.890  18.801  24.273  1.00  0.00     0.056 A 
BRANCH  86  87
ATOM     87  C   UNL A   1      33.333  17.358  24.263  1.00  0.00     0.416 C 
ATOM     88  F   UNL A   1      33.513  16.869  23.007  1.00  0.00    -0.166 F 
ATOM     89  F   UNL A   1      34.520  17.184  24.910  1.00  0.00    -0.166 F 
ATOM     90  F   UNL A   1      32.453  16.515  24.873  1.00  0.00    -0.166 F 
ENDBRANCH  86  87
ENDBRANCH  73  81
ENDBRANCH  66  69
ENDBRANCH  64  65
ENDBRANCH  63  64
ENDBRANCH   1  63
TORSDOF 14
ENDMDL
MODEL 3
REMARK VINA RESULT:     -12.6      3.042      4.710
REMARK SMILES O=C(NCCCCNC(=O)c1nnn(-c2ccc(C(F)(F)F)cc2)c1-c1cccc(Cl)c1)c1ccc(-c2c3nc(c(-c4c(F)cccc4F)c4ccc([nH]4)c(-c4c(F)cccc4F)c4nc(c(-c5c(F)cccc5F)c5ccc2[nH]5)C=C4)C=C3)cc1
REMARK SMILES IDX 5 1 4 2 3 3 1 4 2 5 33 7 34 8 86 9 35 10 85 11 36 12 37 13
REMARK SMILES IDX 38 14 79 15 39 16 84 17 78 18 80 19 40 20 83 21 77 22 76 23
REMARK SMILES IDX 41 25 67 26 50 27 66 28 51 29 54 30 65 31 81 32 52 33 53 34
REMARK SMILES IDX 64 36 82 37 55 38 42 39 43 40 48 41 44 42 45 43 47 44 49 45
REMARK SMILES IDX 46 46 68 47 69 48 74 49 70 50 71 51 73 52 75 53 72 54 56 55
REMARK SMILES IDX 57 56 62 57 58 58 59 59 61 60 63 61 60 62 6 63 7 64 8 65
REMARK SMILES IDX 9 66 10 68 11 69 12 70 25 71 13 72 14 73 26 74 27 75 32 76
REMARK SMILES IDX 28 77 30 78 29 79 31 80 15 81 16 82 24 83 17 84 23 85 18 86
REMARK SMILES IDX 19 87 20 88 21 89 22 90
REMARK H PARENT 3 6 80 24 54 35 8 67
REMARK Flexibility Score: inf
ROOT
ATOM      1  C   UNL A   1      41.545  19.253  25.971  1.00  0.00     0.023 C 
ENDROOT
BRANCH   1   2
ATOM      2  C   UNL A   1      43.000  18.854  26.231  1.00  0.00     0.116 C 
BRANCH   2   3
ATOM      3  N   UNL A   1      43.953  19.315  25.239  1.00  0.00    -0.352 N 
ATOM      4  O   UNL A   1      45.483  20.444  24.121  1.00  0.00    -0.269 OA
ATOM      5  C   UNL A   1      44.601  20.494  24.985  1.00  0.00     0.251 C 
ATOM      6  H   UNL A   1      44.191  18.610  24.595  1.00  0.00     0.163 HD
BRANCH   5   7
ATOM      7  C   UNL A   1      44.304  21.810  25.622  1.00  0.00     0.039 A 
ATOM      8  C   UNL A   1      44.964  22.344  26.726  1.00  0.00     0.014 A 
ATOM      9  C   UNL A   1      43.252  22.559  25.055  1.00  0.00     0.014 A 
ATOM     10  C   UNL A   1      44.551  23.556  27.283  1.00  0.00     0.010 A 
ATOM     11  C   UNL A   1      42.847  23.782  25.595  1.00  0.00     0.010 A 
ATOM     12  C   UNL A   1      43.488  24.276  26.726  1.00  0.00    -0.014 A 
BRANCH  12  13
ATOM     13  C   UNL A   1      43.194  25.592  27.295  1.00  0.00     0.031 A 
ATOM     14  C   UNL A   1      44.176  26.671  26.983  1.00  0.00     0.074 A 
ATOM     15  C   UNL A   1      42.080  25.937  27.971  1.00  0.00     0.049 A 
ATOM     16  N   UNL A   1      44.934  27.324  27.803  1.00  0.00    -0.248 NA
ATOM     17  C   UNL A   1      44.354  27.042  25.573  1.00  0.00     0.031 C 
ATOM     18  C   UNL A   1      40.837  25.184  28.123  1.00  0.00     0.029 A 
ATOM     19  N   UNL A   1      41.816  27.117  28.612  1.00  0.00    -0.354 N 
ATOM     20  C   UNL A   1      45.578  28.300  27.045  1.00  0.00     0.074 A 
ATOM     21  C   UNL A   1      45.255  28.023  25.667  1.00  0.00     0.031 C 
ATOM     22  C   UNL A   1      39.890  25.998  28.648  1.00  0.00     0.029 A 
ATOM     23  C   UNL A   1      40.493  27.277  28.989  1.00  0.00     0.049 A 
ATOM     24  H   UNL A   1      42.508  27.794  28.790  1.00  0.00     0.167 HD
ATOM     25  C   UNL A   1      46.204  29.368  27.612  1.00  0.00     0.037 A 
ATOM     26  C   UNL A   1      39.924  28.393  29.507  1.00  0.00     0.037 A 
ATOM     27  C   UNL A   1      46.458  29.168  29.013  1.00  0.00     0.049 A 
ATOM     28  C   UNL A   1      40.995  29.258  30.055  1.00  0.00     0.074 A 
ATOM     29  C   UNL A   1      47.152  28.238  29.762  1.00  0.00     0.029 A 
ATOM     30  N   UNL A   1      45.710  29.878  29.918  1.00  0.00    -0.354 N 
ATOM     31  N   UNL A   1      41.657  29.018  31.150  1.00  0.00    -0.248 NA
ATOM     32  C   UNL A   1      41.571  30.279  29.191  1.00  0.00     0.031 C 
ATOM     33  C   UNL A   1      46.415  28.114  30.977  1.00  0.00     0.029 A 
ATOM     34  C   UNL A   1      45.335  28.991  30.893  1.00  0.00     0.049 A 
ATOM     35  H   UNL A   1      45.487  30.836  29.876  1.00  0.00     0.167 HD
ATOM     36  C   UNL A   1      42.923  29.528  30.915  1.00  0.00     0.074 A 
ATOM     37  C   UNL A   1      42.769  30.406  29.761  1.00  0.00     0.031 C 
ATOM     38  C   UNL A   1      44.025  28.974  31.497  1.00  0.00     0.037 A 
BRANCH  25  39
ATOM     39  C   UNL A   1      46.326  30.729  26.975  1.00  0.00     0.057 A 
ATOM     40  C   UNL A   1      47.575  31.378  26.950  1.00  0.00     0.134 A 
ATOM     41  C   UNL A   1      45.221  31.541  26.655  1.00  0.00     0.134 A 
ATOM     42  F   UNL A   1      48.700  30.718  27.261  1.00  0.00    -0.206 F 
ATOM     43  C   UNL A   1      47.706  32.747  26.688  1.00  0.00     0.040 A 
ATOM     44  C   UNL A   1      45.345  32.897  26.341  1.00  0.00     0.040 A 
ATOM     45  F   UNL A   1      43.963  31.086  26.728  1.00  0.00    -0.206 F 
ATOM     46  C   UNL A   1      46.587  33.513  26.386  1.00  0.00     0.006 A 
ENDBRANCH  25  39
BRANCH  26  47
ATOM     47  C   UNL A   1      38.527  28.869  29.414  1.00  0.00     0.057 A 
ATOM     48  C   UNL A   1      37.702  28.934  30.548  1.00  0.00     0.134 A 
ATOM     49  C   UNL A   1      38.054  29.525  28.267  1.00  0.00     0.134 A 
ATOM     50  F   UNL A   1      38.084  28.372  31.704  1.00  0.00    -0.206 F 
ATOM     51  C   UNL A   1      36.490  29.633  30.546  1.00  0.00     0.040 A 
ATOM     52  C   UNL A   1      36.840  30.218  28.249  1.00  0.00     0.040 A 
ATOM     53  F   UNL A   1      38.795  29.591  27.151  1.00  0.00    -0.206 F 
ATOM     54  C   UNL A   1      36.060  30.287  29.396  1.00  0.00     0.006 A 
ENDBRANCH  26  47
BRANCH  38  55
ATOM     55  C   UNL A   1      43.822  28.047  32.661  1.00  0.00     0.057 A 
ATOM     56  C   UNL A   1      43.705  26.654  32.546  1.00  0.00     0.134 A 
ATOM     57  C   UNL A   1      43.873  28.576  33.957  1.00  0.00     0.134 A 
ATOM     58  F   UNL A   1      43.760  26.046  31.353  1.00  0.00    -0.206 F 
ATOM     59  C   UNL A   1      43.579  25.834  33.671  1.00  0.00     0.040 A 
ATOM     60  C   UNL A   1      43.790  27.763  35.089  1.00  0.00     0.040 A 
ATOM     61  F   UNL A   1      44.047  29.893  34.144  1.00  0.00    -0.206 F 
ATOM     62  C   UNL A   1      43.626  26.387  34.947  1.00  0.00     0.006 A 
ENDBRANCH  38  55
ENDBRANCH  12  13
ENDBRANCH   5   7
ENDBRANCH   2   3
ENDBRANCH   1   2
BRANCH   1  63
ATOM     63  C   UNL A   1      41.016  20.438  26.783  1.00  0.00     0.023 C 
BRANCH  63  64
ATOM     64  C   UNL A   1      39.813  21.161  26.195  1.00  0.00     0.116 C 
BRANCH  64  65
ATOM     65  N   UNL A   1      38.946  20.302  25.412  1.00  0.00    -0.351 N 
ATOM     66  C   UNL A   1      37.630  20.511  25.044  1.00  0.00     0.274 C 
ATOM     67  H   UNL A   1      39.348  19.460  25.100  1.00  0.00     0.163 HD
ATOM     68  O   UNL A   1      37.055  19.649  24.396  1.00  0.00    -0.267 OA
BRANCH  66  69
ATOM     69  C   UNL A   1      36.977  21.752  25.441  1.00  0.00     0.178 A 
ATOM     70  N   UNL A   1      37.695  22.870  25.780  1.00  0.00    -0.124 NA
ATOM     71  C   UNL A   1      35.620  22.047  25.471  1.00  0.00     0.108 A 
ATOM     72  N   UNL A   1      36.846  23.875  25.941  1.00  0.00    -0.061 NA
ATOM     73  N   UNL A   1      35.590  23.382  25.863  1.00  0.00    -0.212 N 
BRANCH  71  74
ATOM     74  C   UNL A   1      34.474  21.281  24.984  1.00  0.00     0.004 A 
ATOM     75  C   UNL A   1      33.768  21.732  23.853  1.00  0.00     0.010 A 
ATOM     76  C   UNL A   1      34.098  20.080  25.591  1.00  0.00     0.031 A 
ATOM     77  C   UNL A   1      32.703  20.997  23.336  1.00  0.00     0.002 A 
ATOM     78  C   UNL A   1      33.024  19.353  25.071  1.00  0.00     0.041 A 
ATOM     79  C   UNL A   1      32.330  19.804  23.948  1.00  0.00     0.020 A 
ATOM     80  Cl  UNL A   1      32.552  17.880  25.823  1.00  0.00    -0.084 Cl
ENDBRANCH  71  74
BRANCH  73  81
ATOM     81  C   UNL A   1      34.456  24.213  26.040  1.00  0.00     0.067 A 
ATOM     82  C   UNL A   1      34.419  25.466  25.419  1.00  0.00     0.029 A 
ATOM     83  C   UNL A   1      33.342  23.743  26.745  1.00  0.00     0.029 A 
ATOM     84  C   UNL A   1      33.223  26.191  25.411  1.00  0.00     0.015 A 
ATOM     85  C   UNL A   1      32.162  24.485  26.758  1.00  0.00     0.015 A 
ATOM     86  C   UNL A   1      32.079  25.698  26.062  1.00  0.00     0.056 A 
BRANCH  86  87
ATOM     87  C   UNL A   1      30.771  26.447  25.971  1.00  0.00     0.416 C 
ATOM     88  F   UNL A   1      30.700  27.493  26.837  1.00  0.00    -0.166 F 
ATOM     89  F   UNL A   1      30.568  26.971  24.729  1.00  0.00    -0.166 F 
ATOM     90  F   UNL A   1      29.681  25.671  26.227  1.00  0.00    -0.166 F 
ENDBRANCH  86  87
ENDBRANCH  73  81
ENDBRANCH  66  69
ENDBRANCH  64  65
ENDBRANCH  63  64
ENDBRANCH   1  63
TORSDOF 14
ENDMDL
