MODEL 1
REMARK VINA RESULT:     -11.5      0.000      0.000
REMARK SMILES CCOc1cc(N2CCOCC2)ccc1[C@H]([NH3+])C(=O)NCCCCNC(=O)c1ccc(-c2c3nc(c(-c4c(F)cccc4F)c4ccc([nH]4)c(-c4c(F)cccc4F)c4nc(c(-c5c(F)cccc5F)c5ccc2[nH]5)C=C4)C=C3)cc1
REMARK SMILES IDX 22 1 21 2 20 3 18 4 19 5 16 7 15 8 4 9 5 10 6 11 14 12 13 13
REMARK SMILES IDX 3 14 2 15 1 16 7 17 8 18 12 19 9 20 11 21 10 22 17 23 23 27
REMARK SMILES IDX 24 28 25 29 26 30 27 32 28 33 29 34 81 35 30 36 80 37 31 38
REMARK SMILES IDX 32 39 33 40 74 41 34 42 79 43 73 44 75 45 35 46 78 47 72 48
REMARK SMILES IDX 71 49 36 51 62 52 45 53 61 54 46 55 49 56 60 57 76 58 47 59
REMARK SMILES IDX 48 60 59 62 77 63 50 64 37 65 38 66 43 67 39 68 40 69 42 70
REMARK SMILES IDX 44 71 41 72 63 73 64 74 69 75 65 76 66 77 68 78 70 79 67 80
REMARK SMILES IDX 51 81 52 82 57 83 53 84 54 85 56 86 58 87 55 88
REMARK H PARENT 20 6 17 24 17 25 17 26 25 31 75 50 49 61
REMARK Flexibility Score: inf
ROOT
ATOM      1  C   UNL A   1      31.833  28.332  27.374  1.00  0.00     0.023 C 
ENDROOT
BRANCH   1   2
ATOM      2  C   UNL A   1      32.099  26.982  26.717  1.00  0.00     0.116 C 
BRANCH   2   3
ATOM      3  N   UNL A   1      31.027  26.025  26.891  1.00  0.00    -0.351 N 
ATOM      4  C   UNL A   1      30.456  25.164  25.990  1.00  0.00     0.283 C 
ATOM      5  O   UNL A   1      29.710  24.294  26.456  1.00  0.00    -0.268 OA
ATOM      6  H   UNL A   1      30.648  25.987  27.800  1.00  0.00     0.163 HD
BRANCH   4   7
ATOM      7  C   UNL A   1      30.666  25.304  24.452  1.00  0.00     0.306 C 
BRANCH   7   8
ATOM      8  C   UNL A   1      30.095  26.591  23.867  1.00  0.00     0.061 A 
ATOM      9  C   UNL A   1      30.834  27.666  23.330  1.00  0.00     0.131 A 
ATOM     10  C   UNL A   1      30.175  28.802  22.816  1.00  0.00     0.072 A 
ATOM     11  C   UNL A   1      28.774  28.917  22.875  1.00  0.00     0.040 A 
ATOM     12  C   UNL A   1      28.694  26.700  23.875  1.00  0.00     0.016 A 
ATOM     13  C   UNL A   1      28.054  27.840  23.395  1.00  0.00     0.027 A 
BRANCH   9  14
ATOM     14  O   UNL A   1      32.198  27.654  23.479  1.00  0.00    -0.493 OA
BRANCH  14  15
ATOM     15  C   UNL A   1      32.973  27.555  22.279  1.00  0.00     0.226 C 
ATOM     16  C   UNL A   1      34.107  28.576  22.377  1.00  0.00     0.049 C 
ENDBRANCH  14  15
ENDBRANCH   9  14
BRANCH  11  17
ATOM     17  N   UNL A   1      28.111  30.072  22.523  1.00  0.00    -0.367 N 
ATOM     18  C   UNL A   1      27.993  30.465  21.111  1.00  0.00     0.145 C 
ATOM     19  C   UNL A   1      27.666  31.068  23.499  1.00  0.00     0.145 C 
ATOM     20  C   UNL A   1      28.595  31.861  20.890  1.00  0.00     0.181 C 
ATOM     21  C   UNL A   1      28.281  32.442  23.155  1.00  0.00     0.181 C 
ATOM     22  O   UNL A   1      28.025  32.825  21.790  1.00  0.00    -0.378 OA
ENDBRANCH  11  17
ENDBRANCH   7   8
BRANCH   7  23
ATOM     23  N   UNL A   1      30.276  24.036  23.817  1.00  0.00    -0.343 N 
ATOM     24  H   UNL A   1      30.876  23.286  24.160  1.00  0.00     0.345 HD
ATOM     25  H   UNL A   1      30.377  24.116  22.805  1.00  0.00     0.345 HD
ATOM     26  H   UNL A   1      29.304  23.826  24.046  1.00  0.00     0.345 HD
ENDBRANCH   7  23
ENDBRANCH   4   7
ENDBRANCH   2   3
ENDBRANCH   1   2
BRANCH   1  27
ATOM     27  C   UNL A   1      31.404  29.448  26.425  1.00  0.00     0.023 C 
BRANCH  27  28
ATOM     28  C   UNL A   1      32.509  30.408  26.001  1.00  0.00     0.116 C 
BRANCH  28  29
ATOM     29  N   UNL A   1      32.305  31.767  26.478  1.00  0.00    -0.352 N 
ATOM     30  C   UNL A   1      33.049  32.494  27.376  1.00  0.00     0.251 C 
ATOM     31  H   UNL A   1      31.522  32.232  26.104  1.00  0.00     0.163 HD
ATOM     32  O   UNL A   1      32.646  33.592  27.754  1.00  0.00    -0.269 OA
BRANCH  30  33
ATOM     33  C   UNL A   1      34.313  31.948  27.920  1.00  0.00     0.039 A 
ATOM     34  C   UNL A   1      35.381  32.821  28.137  1.00  0.00     0.014 A 
ATOM     35  C   UNL A   1      34.451  30.590  28.222  1.00  0.00     0.014 A 
ATOM     36  C   UNL A   1      36.556  32.348  28.724  1.00  0.00     0.010 A 
ATOM     37  C   UNL A   1      35.593  30.135  28.882  1.00  0.00     0.010 A 
ATOM     38  C   UNL A   1      36.658  31.010  29.143  1.00  0.00    -0.014 A 
BRANCH  38  39
ATOM     39  C   UNL A   1      37.858  30.536  29.880  1.00  0.00     0.031 A 
ATOM     40  C   UNL A   1      38.104  30.953  31.305  1.00  0.00     0.074 A 
ATOM     41  C   UNL A   1      38.753  29.752  29.247  1.00  0.00     0.049 A 
ATOM     42  N   UNL A   1      39.087  30.617  32.104  1.00  0.00    -0.248 NA
ATOM     43  C   UNL A   1      37.137  31.883  31.905  1.00  0.00     0.031 C 
ATOM     44  C   UNL A   1      38.663  29.328  27.847  1.00  0.00     0.029 A 
ATOM     45  N   UNL A   1      39.911  29.168  29.695  1.00  0.00    -0.354 N 
ATOM     46  C   UNL A   1      38.856  31.295  33.295  1.00  0.00     0.074 A 
ATOM     47  C   UNL A   1      37.676  32.106  33.094  1.00  0.00     0.031 C 
ATOM     48  C   UNL A   1      39.695  28.518  27.565  1.00  0.00     0.029 A 
ATOM     49  C   UNL A   1      40.541  28.396  28.747  1.00  0.00     0.049 A 
ATOM     50  H   UNL A   1      40.258  29.289  30.608  1.00  0.00     0.167 HD
ATOM     51  C   UNL A   1      39.551  31.229  34.456  1.00  0.00     0.037 A 
ATOM     52  C   UNL A   1      41.672  27.671  28.822  1.00  0.00     0.037 A 
ATOM     53  C   UNL A   1      40.721  30.413  34.656  1.00  0.00     0.049 A 
ATOM     54  C   UNL A   1      42.430  27.626  30.119  1.00  0.00     0.074 A 
ATOM     55  C   UNL A   1      41.457  30.230  35.815  1.00  0.00     0.029 A 
ATOM     56  N   UNL A   1      41.334  29.652  33.672  1.00  0.00    -0.354 N 
ATOM     57  N   UNL A   1      42.149  28.201  31.263  1.00  0.00    -0.248 NA
ATOM     58  C   UNL A   1      43.660  26.822  30.138  1.00  0.00     0.031 C 
ATOM     59  C   UNL A   1      42.548  29.406  35.516  1.00  0.00     0.029 A 
ATOM     60  C   UNL A   1      42.457  29.024  34.187  1.00  0.00     0.049 A 
ATOM     61  H   UNL A   1      41.018  29.569  32.742  1.00  0.00     0.167 HD
ATOM     62  C   UNL A   1      43.151  27.809  32.142  1.00  0.00     0.074 A 
ATOM     63  C   UNL A   1      44.031  26.926  31.405  1.00  0.00     0.031 C 
ATOM     64  C   UNL A   1      43.330  28.152  33.442  1.00  0.00     0.037 A 
BRANCH  51  65
ATOM     65  C   UNL A   1      39.064  32.066  35.606  1.00  0.00     0.057 A 
ATOM     66  C   UNL A   1      38.221  31.545  36.598  1.00  0.00     0.134 A 
ATOM     67  C   UNL A   1      39.479  33.396  35.750  1.00  0.00     0.134 A 
ATOM     68  F   UNL A   1      37.777  30.281  36.517  1.00  0.00    -0.206 F 
ATOM     69  C   UNL A   1      37.787  32.322  37.673  1.00  0.00     0.040 A 
ATOM     70  C   UNL A   1      39.076  34.175  36.836  1.00  0.00     0.040 A 
ATOM     71  F   UNL A   1      40.292  33.959  34.842  1.00  0.00    -0.206 F 
ATOM     72  C   UNL A   1      38.221  33.640  37.798  1.00  0.00     0.006 A 
ENDBRANCH  51  65
BRANCH  52  73
ATOM     73  C   UNL A   1      42.149  26.906  27.640  1.00  0.00     0.057 A 
ATOM     74  C   UNL A   1      41.814  25.557  27.469  1.00  0.00     0.134 A 
ATOM     75  C   UNL A   1      42.963  27.495  26.665  1.00  0.00     0.134 A 
ATOM     76  F   UNL A   1      41.054  24.930  28.377  1.00  0.00    -0.206 F 
ATOM     77  C   UNL A   1      42.292  24.816  26.387  1.00  0.00     0.040 A 
ATOM     78  C   UNL A   1      43.424  26.776  25.562  1.00  0.00     0.040 A 
ATOM     79  F   UNL A   1      43.313  28.787  26.766  1.00  0.00    -0.206 F 
ATOM     80  C   UNL A   1      43.096  25.428  25.426  1.00  0.00     0.006 A 
ENDBRANCH  52  73
BRANCH  64  81
ATOM     81  C   UNL A   1      44.509  27.548  34.152  1.00  0.00     0.057 A 
ATOM     82  C   UNL A   1      45.754  28.191  34.202  1.00  0.00     0.134 A 
ATOM     83  C   UNL A   1      44.396  26.311  34.799  1.00  0.00     0.134 A 
ATOM     84  F   UNL A   1      45.934  29.372  33.592  1.00  0.00    -0.206 F 
ATOM     85  C   UNL A   1      46.851  27.607  34.836  1.00  0.00     0.040 A 
ATOM     86  C   UNL A   1      45.478  25.734  35.465  1.00  0.00     0.040 A 
ATOM     87  F   UNL A   1      43.230  25.646  34.800  1.00  0.00    -0.206 F 
ATOM     88  C   UNL A   1      46.713  26.377  35.476  1.00  0.00     0.006 A 
ENDBRANCH  64  81
ENDBRANCH  38  39
ENDBRANCH  30  33
ENDBRANCH  28  29
ENDBRANCH  27  28
ENDBRANCH   1  27
TORSDOF 16
ENDMDL
MODEL 2
REMARK VINA RESULT:     -11.2      2.476      7.577
REMARK SMILES CCOc1cc(N2CCOCC2)ccc1[C@H]([NH3+])C(=O)NCCCCNC(=O)c1ccc(-c2c3nc(c(-c4c(F)cccc4F)c4ccc([nH]4)c(-c4c(F)cccc4F)c4nc(c(-c5c(F)cccc5F)c5ccc2[nH]5)C=C4)C=C3)cc1
REMARK SMILES IDX 22 1 21 2 20 3 18 4 19 5 16 7 15 8 4 9 5 10 6 11 14 12 13 13
REMARK SMILES IDX 3 14 2 15 1 16 7 17 8 18 12 19 9 20 11 21 10 22 17 23 23 27
REMARK SMILES IDX 24 28 25 29 26 30 27 32 28 33 29 34 81 35 30 36 80 37 31 38
REMARK SMILES IDX 32 39 33 40 74 41 34 42 79 43 73 44 75 45 35 46 78 47 72 48
REMARK SMILES IDX 71 49 36 51 62 52 45 53 61 54 46 55 49 56 60 57 76 58 47 59
REMARK SMILES IDX 48 60 59 62 77 63 50 64 37 65 38 66 43 67 39 68 40 69 42 70
REMARK SMILES IDX 44 71 41 72 63 73 64 74 69 75 65 76 66 77 68 78 70 79 67 80
REMARK SMILES IDX 51 81 52 82 57 83 53 84 54 85 56 86 58 87 55 88
REMARK H PARENT 20 6 17 24 17 25 17 26 25 31 75 50 49 61
REMARK Flexibility Score: inf
ROOT
ATOM      1  C   UNL A   1      31.586  30.606  25.838  1.00  0.00     0.023 C 
ENDROOT
BRANCH   1   2
ATOM      2  C   UNL A   1      32.888  29.835  26.018  1.00  0.00     0.116 C 
BRANCH   2   3
ATOM      3  N   UNL A   1      33.639  29.659  24.793  1.00  0.00    -0.351 N 
ATOM      4  C   UNL A   1      33.452  28.776  23.761  1.00  0.00     0.283 C 
ATOM      5  O   UNL A   1      34.100  28.989  22.730  1.00  0.00    -0.268 OA
ATOM      6  H   UNL A   1      34.405  30.270  24.684  1.00  0.00     0.163 HD
BRANCH   4   7
ATOM      7  C   UNL A   1      32.531  27.525  23.889  1.00  0.00     0.306 C 
BRANCH   7   8
ATOM      8  C   UNL A   1      33.282  26.238  24.211  1.00  0.00     0.061 A 
ATOM      9  C   UNL A   1      33.936  25.397  23.287  1.00  0.00     0.131 A 
ATOM     10  C   UNL A   1      34.599  24.231  23.723  1.00  0.00     0.072 A 
ATOM     11  C   UNL A   1      34.577  23.848  25.077  1.00  0.00     0.040 A 
ATOM     12  C   UNL A   1      33.310  25.867  25.566  1.00  0.00     0.016 A 
ATOM     13  C   UNL A   1      33.939  24.697  25.983  1.00  0.00     0.027 A 
BRANCH   9  14
ATOM     14  O   UNL A   1      33.764  25.647  21.949  1.00  0.00    -0.493 OA
BRANCH  14  15
ATOM     15  C   UNL A   1      33.026  24.672  21.203  1.00  0.00     0.226 C 
ATOM     16  C   UNL A   1      32.532  25.347  19.924  1.00  0.00     0.049 C 
ENDBRANCH  14  15
ENDBRANCH   9  14
BRANCH  11  17
ATOM     17  N   UNL A   1      35.081  22.643  25.513  1.00  0.00    -0.367 N 
ATOM     18  C   UNL A   1      36.530  22.457  25.686  1.00  0.00     0.145 C 
ATOM     19  C   UNL A   1      34.267  21.433  25.636  1.00  0.00     0.145 C 
ATOM     20  C   UNL A   1      37.028  21.285  24.828  1.00  0.00     0.181 C 
ATOM     21  C   UNL A   1      34.883  20.303  24.782  1.00  0.00     0.181 C 
ATOM     22  O   UNL A   1      36.274  20.090  25.088  1.00  0.00    -0.378 OA
ENDBRANCH  11  17
ENDBRANCH   7   8
BRANCH   7  23
ATOM     23  N   UNL A   1      31.615  27.509  22.738  1.00  0.00    -0.343 N 
ATOM     24  H   UNL A   1      31.358  26.546  22.522  1.00  0.00     0.345 HD
ATOM     25  H   UNL A   1      32.075  27.928  21.930  1.00  0.00     0.345 HD
ATOM     26  H   UNL A   1      30.775  28.043  22.965  1.00  0.00     0.345 HD
ENDBRANCH   7  23
ENDBRANCH   4   7
ENDBRANCH   2   3
ENDBRANCH   1   2
BRANCH   1  27
ATOM     27  C   UNL A   1      31.397  31.798  26.772  1.00  0.00     0.023 C 
BRANCH  27  28
ATOM     28  C   UNL A   1      32.677  32.515  27.187  1.00  0.00     0.116 C 
BRANCH  28  29
ATOM     29  N   UNL A   1      32.466  33.907  27.547  1.00  0.00    -0.352 N 
ATOM     30  C   UNL A   1      33.122  34.673  28.481  1.00  0.00     0.251 C 
ATOM     31  H   UNL A   1      31.752  34.368  27.050  1.00  0.00     0.163 HD
ATOM     32  O   UNL A   1      32.715  35.806  28.735  1.00  0.00    -0.269 OA
BRANCH  30  33
ATOM     33  C   UNL A   1      34.289  34.130  29.211  1.00  0.00     0.039 A 
ATOM     34  C   UNL A   1      34.066  33.368  30.360  1.00  0.00     0.014 A 
ATOM     35  C   UNL A   1      35.596  34.359  28.770  1.00  0.00     0.014 A 
ATOM     36  C   UNL A   1      35.144  32.777  31.022  1.00  0.00     0.010 A 
ATOM     37  C   UNL A   1      36.663  33.702  29.383  1.00  0.00     0.010 A 
ATOM     38  C   UNL A   1      36.449  32.902  30.515  1.00  0.00    -0.014 A 
BRANCH  38  39
ATOM     39  C   UNL A   1      37.579  32.170  31.145  1.00  0.00     0.031 A 
ATOM     40  C   UNL A   1      38.284  31.059  30.416  1.00  0.00     0.074 A 
ATOM     41  C   UNL A   1      37.949  32.488  32.402  1.00  0.00     0.049 A 
ATOM     42  N   UNL A   1      39.301  30.331  30.807  1.00  0.00    -0.248 NA
ATOM     43  C   UNL A   1      37.770  30.703  29.085  1.00  0.00     0.031 C 
ATOM     44  C   UNL A   1      37.306  33.504  33.241  1.00  0.00     0.029 A 
ATOM     45  N   UNL A   1      38.956  31.996  33.193  1.00  0.00    -0.354 N 
ATOM     46  C   UNL A   1      39.544  29.433  29.775  1.00  0.00     0.074 A 
ATOM     47  C   UNL A   1      38.532  29.667  28.768  1.00  0.00     0.031 C 
ATOM     48  C   UNL A   1      37.961  33.589  34.409  1.00  0.00     0.029 A 
ATOM     49  C   UNL A   1      39.043  32.610  34.420  1.00  0.00     0.049 A 
ATOM     50  H   UNL A   1      39.560  31.272  32.909  1.00  0.00     0.167 HD
ATOM     51  C   UNL A   1      40.533  28.513  29.667  1.00  0.00     0.037 A 
ATOM     52  C   UNL A   1      39.897  32.408  35.440  1.00  0.00     0.037 A 
ATOM     53  C   UNL A   1      41.544  28.289  30.668  1.00  0.00     0.049 A 
ATOM     54  C   UNL A   1      40.978  31.373  35.297  1.00  0.00     0.074 A 
ATOM     55  C   UNL A   1      42.626  27.425  30.621  1.00  0.00     0.029 A 
ATOM     56  N   UNL A   1      41.595  28.923  31.900  1.00  0.00    -0.354 N 
ATOM     57  N   UNL A   1      41.250  30.594  34.279  1.00  0.00    -0.248 NA
ATOM     58  C   UNL A   1      41.877  31.195  36.446  1.00  0.00     0.031 C 
ATOM     59  C   UNL A   1      43.295  27.494  31.849  1.00  0.00     0.029 A 
ATOM     60  C   UNL A   1      42.668  28.447  32.636  1.00  0.00     0.049 A 
ATOM     61  H   UNL A   1      40.961  29.612  32.207  1.00  0.00     0.167 HD
ATOM     62  C   UNL A   1      42.364  29.853  34.653  1.00  0.00     0.074 A 
ATOM     63  C   UNL A   1      42.732  30.296  35.982  1.00  0.00     0.031 C 
ATOM     64  C   UNL A   1      43.021  28.890  33.961  1.00  0.00     0.037 A 
BRANCH  51  65
ATOM     65  C   UNL A   1      40.570  27.677  28.419  1.00  0.00     0.057 A 
ATOM     66  C   UNL A   1      41.297  28.067  27.285  1.00  0.00     0.134 A 
ATOM     67  C   UNL A   1      39.910  26.442  28.364  1.00  0.00     0.134 A 
ATOM     68  F   UNL A   1      41.945  29.243  27.265  1.00  0.00    -0.206 F 
ATOM     69  C   UNL A   1      41.342  27.277  26.136  1.00  0.00     0.040 A 
ATOM     70  C   UNL A   1      39.972  25.628  27.231  1.00  0.00     0.040 A 
ATOM     71  F   UNL A   1      39.201  26.001  29.415  1.00  0.00    -0.206 F 
ATOM     72  C   UNL A   1      40.684  26.049  26.110  1.00  0.00     0.006 A 
ENDBRANCH  51  65
BRANCH  52  73
ATOM     73  C   UNL A   1      39.785  33.219  36.681  1.00  0.00     0.057 A 
ATOM     74  C   UNL A   1      38.898  32.858  37.703  1.00  0.00     0.134 A 
ATOM     75  C   UNL A   1      40.545  34.379  36.869  1.00  0.00     0.134 A 
ATOM     76  F   UNL A   1      38.128  31.768  37.574  1.00  0.00    -0.206 F 
ATOM     77  C   UNL A   1      38.751  33.635  38.853  1.00  0.00     0.040 A 
ATOM     78  C   UNL A   1      40.431  35.150  38.027  1.00  0.00     0.040 A 
ATOM     79  F   UNL A   1      41.420  34.775  35.932  1.00  0.00    -0.206 F 
ATOM     80  C   UNL A   1      39.524  34.783  39.019  1.00  0.00     0.006 A 
ENDBRANCH  52  73
BRANCH  64  81
ATOM     81  C   UNL A   1      44.220  28.271  34.623  1.00  0.00     0.057 A 
ATOM     82  C   UNL A   1      45.504  28.818  34.496  1.00  0.00     0.134 A 
ATOM     83  C   UNL A   1      44.087  27.115  35.404  1.00  0.00     0.134 A 
ATOM     84  F   UNL A   1      45.704  29.917  33.752  1.00  0.00    -0.206 F 
ATOM     85  C   UNL A   1      46.615  28.218  35.088  1.00  0.00     0.040 A 
ATOM     86  C   UNL A   1      45.187  26.525  36.029  1.00  0.00     0.040 A 
ATOM     87  F   UNL A   1      42.885  26.544  35.578  1.00  0.00    -0.206 F 
ATOM     88  C   UNL A   1      46.457  27.070  35.863  1.00  0.00     0.006 A 
ENDBRANCH  64  81
ENDBRANCH  38  39
ENDBRANCH  30  33
ENDBRANCH  28  29
ENDBRANCH  27  28
ENDBRANCH   1  27
TORSDOF 16
ENDMDL
MODEL 3
REMARK VINA RESULT:     -11.2      4.352      6.674
REMARK SMILES CCOc1cc(N2CCOCC2)ccc1[C@H]([NH3+])C(=O)NCCCCNC(=O)c1ccc(-c2c3nc(c(-c4c(F)cccc4F)c4ccc([nH]4)c(-c4c(F)cccc4F)c4nc(c(-c5c(F)cccc5F)c5ccc2[nH]5)C=C4)C=C3)cc1
REMARK SMILES IDX 22 1 21 2 20 3 18 4 19 5 16 7 15 8 4 9 5 10 6 11 14 12 13 13
REMARK SMILES IDX 3 14 2 15 1 16 7 17 8 18 12 19 9 20 11 21 10 22 17 23 23 27
REMARK SMILES IDX 24 28 25 29 26 30 27 32 28 33 29 34 81 35 30 36 80 37 31 38
REMARK SMILES IDX 32 39 33 40 74 41 34 42 79 43 73 44 75 45 35 46 78 47 72 48
REMARK SMILES IDX 71 49 36 51 62 52 45 53 61 54 46 55 49 56 60 57 76 58 47 59
REMARK SMILES IDX 48 60 59 62 77 63 50 64 37 65 38 66 43 67 39 68 40 69 42 70
REMARK SMILES IDX 44 71 41 72 63 73 64 74 69 75 65 76 66 77 68 78 70 79 67 80
REMARK SMILES IDX 51 81 52 82 57 83 53 84 54 85 56 86 58 87 55 88
REMARK H PARENT 20 6 17 24 17 25 17 26 25 31 75 50 49 61
REMARK Flexibility Score: inf
ROOT
ATOM      1  C   UNL A   1      32.246  27.141  25.645  1.00  0.00     0.023 C 
ENDROOT
BRANCH   1   2
ATOM      2  C   UNL A   1      31.098  26.137  25.620  1.00  0.00     0.116 C 
BRANCH   2   3
ATOM      3  N   UNL A   1      31.249  25.051  26.564  1.00  0.00    -0.351 N 
ATOM      4  C   UNL A   1      32.139  24.008  26.576  1.00  0.00     0.283 C 
ATOM      5  O   UNL A   1      32.198  23.347  27.619  1.00  0.00    -0.268 OA
ATOM      6  H   UNL A   1      30.612  25.062  27.316  1.00  0.00     0.163 HD
BRANCH   4   7
ATOM      7  C   UNL A   1      32.986  23.618  25.327  1.00  0.00     0.306 C 
BRANCH   7   8
ATOM      8  C   UNL A   1      33.240  22.120  25.198  1.00  0.00     0.061 A 
ATOM      9  C   UNL A   1      34.406  21.432  25.593  1.00  0.00     0.131 A 
ATOM     10  C   UNL A   1      34.509  20.037  25.418  1.00  0.00     0.072 A 
ATOM     11  C   UNL A   1      33.479  19.306  24.797  1.00  0.00     0.040 A 
ATOM     12  C   UNL A   1      32.201  21.369  24.623  1.00  0.00     0.016 A 
ATOM     13  C   UNL A   1      32.324  19.996  24.424  1.00  0.00     0.027 A 
BRANCH   9  14
ATOM     14  O   UNL A   1      35.493  22.171  25.987  1.00  0.00    -0.493 OA
BRANCH  14  15
ATOM     15  C   UNL A   1      36.691  22.009  25.220  1.00  0.00     0.226 C 
ATOM     16  C   UNL A   1      37.739  22.962  25.793  1.00  0.00     0.049 C 
ENDBRANCH  14  15
ENDBRANCH   9  14
BRANCH  11  17
ATOM     17  N   UNL A   1      33.609  17.973  24.474  1.00  0.00    -0.367 N 
ATOM     18  C   UNL A   1      32.448  17.072  24.538  1.00  0.00     0.145 C 
ATOM     19  C   UNL A   1      34.902  17.327  24.249  1.00  0.00     0.145 C 
ATOM     20  C   UNL A   1      32.730  15.900  25.490  1.00  0.00     0.181 C 
ATOM     21  C   UNL A   1      35.062  16.133  25.214  1.00  0.00     0.181 C 
ATOM     22  O   UNL A   1      33.948  15.223  25.140  1.00  0.00    -0.378 OA
ENDBRANCH  11  17
ENDBRANCH   7   8
BRANCH   7  23
ATOM     23  N   UNL A   1      34.151  24.514  25.263  1.00  0.00    -0.343 N 
ATOM     24  H   UNL A   1      34.683  24.442  26.131  1.00  0.00     0.345 HD
ATOM     25  H   UNL A   1      33.835  25.475  25.136  1.00  0.00     0.345 HD
ATOM     26  H   UNL A   1      34.744  24.245  24.477  1.00  0.00     0.345 HD
ENDBRANCH   7  23
ENDBRANCH   4   7
ENDBRANCH   2   3
ENDBRANCH   1   2
BRANCH   1  27
ATOM     27  C   UNL A   1      32.228  28.126  26.811  1.00  0.00     0.023 C 
BRANCH  27  28
ATOM     28  C   UNL A   1      33.596  28.614  27.277  1.00  0.00     0.116 C 
BRANCH  28  29
ATOM     29  N   UNL A   1      33.583  29.986  27.756  1.00  0.00    -0.352 N 
ATOM     30  C   UNL A   1      34.584  30.701  28.370  1.00  0.00     0.251 C 
ATOM     31  H   UNL A   1      32.738  30.473  27.622  1.00  0.00     0.163 HD
ATOM     32  O   UNL A   1      34.344  31.820  28.822  1.00  0.00    -0.269 OA
BRANCH  30  33
ATOM     33  C   UNL A   1      35.936  30.120  28.524  1.00  0.00     0.039 A 
ATOM     34  C   UNL A   1      36.819  30.184  27.444  1.00  0.00     0.014 A 
ATOM     35  C   UNL A   1      36.341  29.522  29.721  1.00  0.00     0.014 A 
ATOM     36  C   UNL A   1      38.127  29.716  27.588  1.00  0.00     0.010 A 
ATOM     37  C   UNL A   1      37.669  29.130  29.890  1.00  0.00     0.010 A 
ATOM     38  C   UNL A   1      38.578  29.225  28.826  1.00  0.00    -0.014 A 
BRANCH  38  39
ATOM     39  C   UNL A   1      40.003  28.845  29.015  1.00  0.00     0.031 A 
ATOM     40  C   UNL A   1      40.980  29.798  29.648  1.00  0.00     0.074 A 
ATOM     41  C   UNL A   1      40.426  27.642  28.580  1.00  0.00     0.049 A 
ATOM     42  N   UNL A   1      42.252  29.622  29.910  1.00  0.00    -0.248 NA
ATOM     43  C   UNL A   1      40.471  31.128  30.016  1.00  0.00     0.031 C 
ATOM     44  C   UNL A   1      39.593  26.651  27.893  1.00  0.00     0.029 A 
ATOM     45  N   UNL A   1      41.659  27.044  28.651  1.00  0.00    -0.354 N 
ATOM     46  C   UNL A   1      42.693  30.816  30.468  1.00  0.00     0.074 A 
ATOM     47  C   UNL A   1      41.569  31.727  30.453  1.00  0.00     0.031 C 
ATOM     48  C   UNL A   1      40.326  25.554  27.648  1.00  0.00     0.029 A 
ATOM     49  C   UNL A   1      41.688  25.775  28.120  1.00  0.00     0.049 A 
ATOM     50  H   UNL A   1      42.448  27.480  29.046  1.00  0.00     0.167 HD
ATOM     51  C   UNL A   1      43.915  31.117  30.968  1.00  0.00     0.037 A 
ATOM     52  C   UNL A   1      42.697  24.891  28.025  1.00  0.00     0.037 A 
ATOM     53  C   UNL A   1      45.030  30.204  30.990  1.00  0.00     0.049 A 
ATOM     54  C   UNL A   1      44.047  25.256  28.578  1.00  0.00     0.074 A 
ATOM     55  C   UNL A   1      46.289  30.394  31.534  1.00  0.00     0.029 A 
ATOM     56  N   UNL A   1      45.024  28.932  30.436  1.00  0.00    -0.354 N 
ATOM     57  N   UNL A   1      44.424  26.355  29.184  1.00  0.00    -0.248 NA
ATOM     58  C   UNL A   1      45.110  24.251  28.441  1.00  0.00     0.031 C 
ATOM     59  C   UNL A   1      47.062  29.261  31.256  1.00  0.00     0.029 A 
ATOM     60  C   UNL A   1      46.267  28.340  30.595  1.00  0.00     0.049 A 
ATOM     61  H   UNL A   1      44.250  28.512  29.995  1.00  0.00     0.167 HD
ATOM     62  C   UNL A   1      45.759  26.165  29.521  1.00  0.00     0.074 A 
ATOM     63  C   UNL A   1      46.116  24.834  29.076  1.00  0.00     0.031 C 
ATOM     64  C   UNL A   1      46.613  27.016  30.141  1.00  0.00     0.037 A 
BRANCH  51  65
ATOM     65  C   UNL A   1      44.115  32.495  31.534  1.00  0.00     0.057 A 
ATOM     66  C   UNL A   1      43.916  32.774  32.894  1.00  0.00     0.134 A 
ATOM     67  C   UNL A   1      44.556  33.546  30.720  1.00  0.00     0.134 A 
ATOM     68  F   UNL A   1      43.484  31.816  33.728  1.00  0.00    -0.206 F 
ATOM     69  C   UNL A   1      44.120  34.052  33.416  1.00  0.00     0.040 A 
ATOM     70  C   UNL A   1      44.793  34.822  31.237  1.00  0.00     0.040 A 
ATOM     71  F   UNL A   1      44.774  33.350  29.411  1.00  0.00    -0.206 F 
ATOM     72  C   UNL A   1      44.568  35.079  32.588  1.00  0.00     0.006 A 
ENDBRANCH  51  65
BRANCH  52  73
ATOM     73  C   UNL A   1      42.470  23.561  27.403  1.00  0.00     0.057 A 
ATOM     74  C   UNL A   1      42.610  23.375  26.021  1.00  0.00     0.134 A 
ATOM     75  C   UNL A   1      42.090  22.450  28.165  1.00  0.00     0.134 A 
ATOM     76  F   UNL A   1      42.953  24.404  25.234  1.00  0.00    -0.206 F 
ATOM     77  C   UNL A   1      42.356  22.142  25.419  1.00  0.00     0.040 A 
ATOM     78  C   UNL A   1      41.862  21.203  27.580  1.00  0.00     0.040 A 
ATOM     79  F   UNL A   1      41.946  22.559  29.495  1.00  0.00    -0.206 F 
ATOM     80  C   UNL A   1      41.985  21.050  26.201  1.00  0.00     0.006 A 
ENDBRANCH  52  73
BRANCH  64  81
ATOM     81  C   UNL A   1      48.009  26.519  30.393  1.00  0.00     0.057 A 
ATOM     82  C   UNL A   1      49.031  26.667  29.446  1.00  0.00     0.134 A 
ATOM     83  C   UNL A   1      48.336  25.892  31.602  1.00  0.00     0.134 A 
ATOM     84  F   UNL A   1      48.783  27.247  28.262  1.00  0.00    -0.206 F 
ATOM     85  C   UNL A   1      50.316  26.174  29.677  1.00  0.00     0.040 A 
ATOM     86  C   UNL A   1      49.626  25.425  31.857  1.00  0.00     0.040 A 
ATOM     87  F   UNL A   1      47.408  25.727  32.558  1.00  0.00    -0.206 F 
ATOM     88  C   UNL A   1      50.618  25.555  30.889  1.00  0.00     0.006 A 
ENDBRANCH  64  81
ENDBRANCH  38  39
ENDBRANCH  30  33
ENDBRANCH  28  29
ENDBRANCH  27  28
ENDBRANCH   1  27
TORSDOF 16
ENDMDL
