MODEL 1
REMARK VINA RESULT:     -13.5      0.000      0.000
REMARK SMILES Cc1ccnc(C(=O)c2[nH]c3cc(Cl)c(F)cc3c2CC(=O)NCCCCNC(=O)c2ccc(-c3c4nc(c(-c5c(F)cccc5F)c5ccc([nH]5)c(-c5c(F)cccc5F)c5nc(c(-c6c(F)cccc6F)c6ccc3[nH]6)C=C5)C=C4)cc2)c1
REMARK SMILES IDX 25 1 24 2 23 3 21 4 22 5 20 7 19 8 9 9 10 10 11 11 18 13
REMARK SMILES IDX 12 14 17 15 13 16 15 17 14 18 16 19 7 20 8 21 6 22 1 23 2 24
REMARK SMILES IDX 3 25 85 26 4 27 5 28 26 29 27 30 28 31 29 32 30 34 31 35
REMARK SMILES IDX 32 36 84 37 33 38 83 39 34 40 35 41 36 42 77 43 37 44 82 45
REMARK SMILES IDX 76 46 78 47 38 48 81 49 75 50 74 51 39 53 65 54 48 55 64 56
REMARK SMILES IDX 49 57 52 58 63 59 79 60 50 61 51 62 62 64 80 65 53 66 40 67
REMARK SMILES IDX 41 68 46 69 42 70 43 71 45 72 47 73 44 74 66 75 67 76 72 77
REMARK SMILES IDX 68 78 69 79 71 80 73 81 70 82 54 83 55 84 60 85 56 86 57 87
REMARK SMILES IDX 59 88 61 89 58 90
REMARK H PARENT 23 6 10 12 28 33 78 52 52 63
REMARK Flexibility Score: inf
ROOT
ATOM      1  C   UNL A   1      31.613  28.457  27.398  1.00  0.00     0.023 C 
ENDROOT
BRANCH   1   2
ATOM      2  C   UNL A   1      32.071  27.266  26.534  1.00  0.00     0.116 C 
BRANCH   2   3
ATOM      3  N   UNL A   1      31.410  25.997  26.773  1.00  0.00    -0.356 N 
ATOM      4  C   UNL A   1      31.803  24.712  26.531  1.00  0.00     0.224 C 
ATOM      5  O   UNL A   1      31.105  23.815  27.015  1.00  0.00    -0.275 OA
ATOM      6  H   UNL A   1      30.519  26.077  27.185  1.00  0.00     0.163 HD
BRANCH   4   7
ATOM      7  C   UNL A   1      33.057  24.366  25.757  1.00  0.00     0.138 C 
BRANCH   7   8
ATOM      8  C   UNL A   1      32.852  23.646  24.459  1.00  0.00    -0.002 A 
ATOM      9  C   UNL A   1      32.772  24.158  23.163  1.00  0.00     0.093 A 
ATOM     10  N   UNL A   1      32.431  23.095  22.345  1.00  0.00    -0.351 N 
ATOM     11  C   UNL A   1      32.437  21.907  23.031  1.00  0.00     0.048 A 
ATOM     12  H   UNL A   1      32.211  23.180  21.390  1.00  0.00     0.167 HD
ATOM     13  C   UNL A   1      32.620  22.224  24.372  1.00  0.00     0.007 A 
ATOM     14  C   UNL A   1      32.274  20.588  22.578  1.00  0.00     0.050 A 
ATOM     15  C   UNL A   1      32.589  21.176  25.320  1.00  0.00     0.051 A 
ATOM     16  C   UNL A   1      32.326  19.564  23.531  1.00  0.00     0.078 A 
ATOM     17  C   UNL A   1      32.475  19.857  24.881  1.00  0.00     0.142 A 
ATOM     18  Cl  UNL A   1      32.213  17.925  23.009  1.00  0.00    -0.081 Cl
ATOM     19  F   UNL A   1      32.541  18.877  25.795  1.00  0.00    -0.205 F 
BRANCH   9  20
ATOM     20  C   UNL A   1      32.844  25.506  22.591  1.00  0.00     0.227 C 
ATOM     21  O   UNL A   1      33.810  25.805  21.889  1.00  0.00    -0.285 OA
BRANCH  20  22
ATOM     22  C   UNL A   1      31.837  26.584  22.928  1.00  0.00     0.113 A 
ATOM     23  C   UNL A   1      28.155  27.110  23.747  1.00  0.00     0.044 C 
ATOM     24  C   UNL A   1      29.619  27.340  23.521  1.00  0.00    -0.047 A 
ATOM     25  C   UNL A   1      30.095  28.645  23.475  1.00  0.00     0.023 A 
ATOM     26  C   UNL A   1      30.532  26.295  23.314  1.00  0.00     0.036 A 
ATOM     27  C   UNL A   1      31.429  28.850  23.173  1.00  0.00     0.112 A 
ATOM     28  N   UNL A   1      32.302  27.859  22.887  1.00  0.00    -0.253 NA
ENDBRANCH  20  22
ENDBRANCH   9  20
ENDBRANCH   7   8
ENDBRANCH   4   7
ENDBRANCH   2   3
ENDBRANCH   1   2
BRANCH   1  29
ATOM     29  C   UNL A   1      31.916  29.880  26.898  1.00  0.00     0.023 C 
BRANCH  29  30
ATOM     30  C   UNL A   1      33.393  30.245  26.863  1.00  0.00     0.116 C 
BRANCH  30  31
ATOM     31  N   UNL A   1      33.741  31.207  27.883  1.00  0.00    -0.352 N 
ATOM     32  C   UNL A   1      34.887  31.550  28.533  1.00  0.00     0.251 C 
ATOM     33  H   UNL A   1      32.967  31.741  28.177  1.00  0.00     0.163 HD
ATOM     34  O   UNL A   1      34.790  32.514  29.305  1.00  0.00    -0.269 OA
BRANCH  32  35
ATOM     35  C   UNL A   1      36.178  30.815  28.473  1.00  0.00     0.039 A 
ATOM     36  C   UNL A   1      36.374  29.493  28.074  1.00  0.00     0.014 A 
ATOM     37  C   UNL A   1      37.290  31.542  28.934  1.00  0.00     0.014 A 
ATOM     38  C   UNL A   1      37.583  28.856  28.358  1.00  0.00     0.010 A 
ATOM     39  C   UNL A   1      38.515  30.934  29.147  1.00  0.00     0.010 A 
ATOM     40  C   UNL A   1      38.622  29.564  28.982  1.00  0.00    -0.014 A 
BRANCH  40  41
ATOM     41  C   UNL A   1      39.910  28.918  29.241  1.00  0.00     0.031 A 
ATOM     42  C   UNL A   1      40.185  28.875  30.705  1.00  0.00     0.074 A 
ATOM     43  C   UNL A   1      40.687  28.350  28.281  1.00  0.00     0.049 A 
ATOM     44  N   UNL A   1      41.068  29.571  31.340  1.00  0.00    -0.248 NA
ATOM     45  C   UNL A   1      39.225  28.196  31.597  1.00  0.00     0.031 C 
ATOM     46  C   UNL A   1      40.411  28.211  26.845  1.00  0.00     0.029 A 
ATOM     47  N   UNL A   1      41.908  27.726  28.394  1.00  0.00    -0.354 N 
ATOM     48  C   UNL A   1      40.948  29.210  32.680  1.00  0.00     0.074 A 
ATOM     49  C   UNL A   1      39.690  28.529  32.805  1.00  0.00     0.031 C 
ATOM     50  C   UNL A   1      41.299  27.358  26.273  1.00  0.00     0.029 A 
ATOM     51  C   UNL A   1      42.309  27.000  27.251  1.00  0.00     0.049 A 
ATOM     52  H   UNL A   1      42.459  27.781  29.207  1.00  0.00     0.167 HD
ATOM     53  C   UNL A   1      42.040  29.252  33.492  1.00  0.00     0.037 A 
ATOM     54  C   UNL A   1      43.418  26.211  27.127  1.00  0.00     0.037 A 
ATOM     55  C   UNL A   1      43.070  30.066  32.892  1.00  0.00     0.049 A 
ATOM     56  C   UNL A   1      44.355  26.655  28.178  1.00  0.00     0.074 A 
ATOM     57  C   UNL A   1      43.244  31.405  32.618  1.00  0.00     0.029 A 
ATOM     58  N   UNL A   1      43.910  29.376  32.062  1.00  0.00    -0.354 N 
ATOM     59  N   UNL A   1      44.935  27.821  28.169  1.00  0.00    -0.248 NA
ATOM     60  C   UNL A   1      44.258  25.994  29.465  1.00  0.00     0.031 C 
ATOM     61  C   UNL A   1      43.950  31.450  31.377  1.00  0.00     0.029 A 
ATOM     62  C   UNL A   1      44.278  30.148  30.998  1.00  0.00     0.049 A 
ATOM     63  H   UNL A   1      44.208  28.450  32.211  1.00  0.00     0.167 HD
ATOM     64  C   UNL A   1      44.852  28.247  29.483  1.00  0.00     0.074 A 
ATOM     65  C   UNL A   1      44.509  27.043  30.249  1.00  0.00     0.031 C 
ATOM     66  C   UNL A   1      44.764  29.581  29.761  1.00  0.00     0.037 A 
BRANCH  53  67
ATOM     67  C   UNL A   1      42.371  28.176  34.507  1.00  0.00     0.057 A 
ATOM     68  C   UNL A   1      42.747  26.898  34.053  1.00  0.00     0.134 A 
ATOM     69  C   UNL A   1      42.044  28.243  35.878  1.00  0.00     0.134 A 
ATOM     70  F   UNL A   1      43.042  26.686  32.762  1.00  0.00    -0.206 F 
ATOM     71  C   UNL A   1      42.756  25.773  34.889  1.00  0.00     0.040 A 
ATOM     72  C   UNL A   1      42.094  27.137  36.731  1.00  0.00     0.040 A 
ATOM     73  F   UNL A   1      41.561  29.352  36.450  1.00  0.00    -0.206 F 
ATOM     74  C   UNL A   1      42.429  25.889  36.234  1.00  0.00     0.006 A 
ENDBRANCH  53  67
BRANCH  54  75
ATOM     75  C   UNL A   1      43.644  24.889  26.468  1.00  0.00     0.057 A 
ATOM     76  C   UNL A   1      42.788  23.791  26.702  1.00  0.00     0.134 A 
ATOM     77  C   UNL A   1      44.453  24.787  25.327  1.00  0.00     0.134 A 
ATOM     78  F   UNL A   1      41.938  23.798  27.740  1.00  0.00    -0.206 F 
ATOM     79  C   UNL A   1      42.708  22.690  25.831  1.00  0.00     0.040 A 
ATOM     80  C   UNL A   1      44.381  23.695  24.447  1.00  0.00     0.040 A 
ATOM     81  F   UNL A   1      45.262  25.795  24.974  1.00  0.00    -0.206 F 
ATOM     82  C   UNL A   1      43.493  22.650  24.685  1.00  0.00     0.006 A 
ENDBRANCH  54  75
BRANCH  66  83
ATOM     83  C   UNL A   1      45.073  30.546  28.648  1.00  0.00     0.057 A 
ATOM     84  C   UNL A   1      46.362  30.884  28.203  1.00  0.00     0.134 A 
ATOM     85  C   UNL A   1      43.999  31.041  27.903  1.00  0.00     0.134 A 
ATOM     86  F   UNL A   1      47.455  30.398  28.807  1.00  0.00    -0.206 F 
ATOM     87  C   UNL A   1      46.565  31.694  27.077  1.00  0.00     0.040 A 
ATOM     88  C   UNL A   1      44.186  31.823  26.762  1.00  0.00     0.040 A 
ATOM     89  F   UNL A   1      42.741  30.722  28.245  1.00  0.00    -0.206 F 
ATOM     90  C   UNL A   1      45.473  32.157  26.348  1.00  0.00     0.006 A 
ENDBRANCH  66  83
ENDBRANCH  40  41
ENDBRANCH  32  35
ENDBRANCH  30  31
ENDBRANCH  29  30
ENDBRANCH   1  29
TORSDOF 14
ENDMDL
MODEL 2
REMARK VINA RESULT:     -13.2      1.925      5.993
REMARK SMILES Cc1ccnc(C(=O)c2[nH]c3cc(Cl)c(F)cc3c2CC(=O)NCCCCNC(=O)c2ccc(-c3c4nc(c(-c5c(F)cccc5F)c5ccc([nH]5)c(-c5c(F)cccc5F)c5nc(c(-c6c(F)cccc6F)c6ccc3[nH]6)C=C5)C=C4)cc2)c1
REMARK SMILES IDX 25 1 24 2 23 3 21 4 22 5 20 7 19 8 9 9 10 10 11 11 18 13
REMARK SMILES IDX 12 14 17 15 13 16 15 17 14 18 16 19 7 20 8 21 6 22 1 23 2 24
REMARK SMILES IDX 3 25 85 26 4 27 5 28 26 29 27 30 28 31 29 32 30 34 31 35
REMARK SMILES IDX 32 36 84 37 33 38 83 39 34 40 35 41 36 42 77 43 37 44 82 45
REMARK SMILES IDX 76 46 78 47 38 48 81 49 75 50 74 51 39 53 65 54 48 55 64 56
REMARK SMILES IDX 49 57 52 58 63 59 79 60 50 61 51 62 62 64 80 65 53 66 40 67
REMARK SMILES IDX 41 68 46 69 42 70 43 71 45 72 47 73 44 74 66 75 67 76 72 77
REMARK SMILES IDX 68 78 69 79 71 80 73 81 70 82 54 83 55 84 60 85 56 86 57 87
REMARK SMILES IDX 59 88 61 89 58 90
REMARK H PARENT 23 6 10 12 28 33 78 52 52 63
REMARK Flexibility Score: inf
ROOT
ATOM      1  C   UNL A   1      32.677  27.934  27.195  1.00  0.00     0.023 C 
ENDROOT
BRANCH   1   2
ATOM      2  C   UNL A   1      31.493  27.386  26.376  1.00  0.00     0.116 C 
BRANCH   2   3
ATOM      3  N   UNL A   1      30.974  26.090  26.769  1.00  0.00    -0.356 N 
ATOM      4  C   UNL A   1      31.482  24.831  26.626  1.00  0.00     0.224 C 
ATOM      5  O   UNL A   1      30.902  23.923  27.231  1.00  0.00    -0.275 OA
ATOM      6  H   UNL A   1      30.099  26.124  27.220  1.00  0.00     0.163 HD
BRANCH   4   7
ATOM      7  C   UNL A   1      32.728  24.532  25.820  1.00  0.00     0.138 C 
BRANCH   7   8
ATOM      8  C   UNL A   1      32.516  23.810  24.524  1.00  0.00    -0.002 A 
ATOM      9  C   UNL A   1      32.291  24.328  23.246  1.00  0.00     0.093 A 
ATOM     10  N   UNL A   1      32.014  23.244  22.432  1.00  0.00    -0.351 N 
ATOM     11  C   UNL A   1      32.199  22.055  23.091  1.00  0.00     0.048 A 
ATOM     12  H   UNL A   1      31.721  23.316  21.495  1.00  0.00     0.167 HD
ATOM     13  C   UNL A   1      32.437  22.373  24.423  1.00  0.00     0.007 A 
ATOM     14  C   UNL A   1      32.152  20.732  22.622  1.00  0.00     0.050 A 
ATOM     15  C   UNL A   1      32.587  21.315  25.349  1.00  0.00     0.051 A 
ATOM     16  C   UNL A   1      32.382  19.707  23.549  1.00  0.00     0.078 A 
ATOM     17  C   UNL A   1      32.590  19.998  24.891  1.00  0.00     0.142 A 
ATOM     18  Cl  UNL A   1      32.415  18.074  23.001  1.00  0.00    -0.081 Cl
ATOM     19  F   UNL A   1      32.826  19.020  25.778  1.00  0.00    -0.205 F 
BRANCH   9  20
ATOM     20  C   UNL A   1      32.174  25.683  22.699  1.00  0.00     0.227 C 
ATOM     21  O   UNL A   1      33.153  26.192  22.154  1.00  0.00    -0.285 OA
BRANCH  20  22
ATOM     22  C   UNL A   1      30.932  26.527  22.885  1.00  0.00     0.113 A 
ATOM     23  C   UNL A   1      29.557  30.028  22.288  1.00  0.00     0.044 C 
ATOM     24  C   UNL A   1      29.675  28.577  22.649  1.00  0.00    -0.047 A 
ATOM     25  C   UNL A   1      28.629  27.969  23.334  1.00  0.00     0.023 A 
ATOM     26  C   UNL A   1      30.813  27.810  22.361  1.00  0.00     0.036 A 
ATOM     27  C   UNL A   1      28.786  26.657  23.744  1.00  0.00     0.112 A 
ATOM     28  N   UNL A   1      29.908  25.932  23.551  1.00  0.00    -0.253 NA
ENDBRANCH  20  22
ENDBRANCH   9  20
ENDBRANCH   7   8
ENDBRANCH   4   7
ENDBRANCH   2   3
ENDBRANCH   1   2
BRANCH   1  29
ATOM     29  C   UNL A   1      33.517  29.074  26.592  1.00  0.00     0.023 C 
BRANCH  29  30
ATOM     30  C   UNL A   1      34.988  29.058  26.977  1.00  0.00     0.116 C 
BRANCH  30  31
ATOM     31  N   UNL A   1      35.216  29.621  28.287  1.00  0.00    -0.352 N 
ATOM     32  C   UNL A   1      36.292  29.737  29.113  1.00  0.00     0.251 C 
ATOM     33  H   UNL A   1      34.400  30.015  28.674  1.00  0.00     0.163 HD
ATOM     34  O   UNL A   1      36.095  30.381  30.152  1.00  0.00    -0.269 OA
BRANCH  32  35
ATOM     35  C   UNL A   1      37.612  29.079  28.923  1.00  0.00     0.039 A 
ATOM     36  C   UNL A   1      38.187  28.099  29.731  1.00  0.00     0.014 A 
ATOM     37  C   UNL A   1      38.359  29.568  27.836  1.00  0.00     0.014 A 
ATOM     38  C   UNL A   1      39.544  27.803  29.600  1.00  0.00     0.010 A 
ATOM     39  C   UNL A   1      39.686  29.218  27.655  1.00  0.00     0.010 A 
ATOM     40  C   UNL A   1      40.312  28.438  28.612  1.00  0.00    -0.014 A 
BRANCH  40  41
ATOM     41  C   UNL A   1      41.725  28.098  28.437  1.00  0.00     0.031 A 
ATOM     42  C   UNL A   1      41.862  26.792  27.732  1.00  0.00     0.074 A 
ATOM     43  C   UNL A   1      42.756  28.915  28.780  1.00  0.00     0.049 A 
ATOM     44  N   UNL A   1      42.262  25.679  28.251  1.00  0.00    -0.248 NA
ATOM     45  C   UNL A   1      41.257  26.629  26.397  1.00  0.00     0.031 C 
ATOM     46  C   UNL A   1      42.701  30.277  29.329  1.00  0.00     0.029 A 
ATOM     47  N   UNL A   1      44.112  28.710  28.675  1.00  0.00    -0.354 N 
ATOM     48  C   UNL A   1      42.210  24.738  27.226  1.00  0.00     0.074 A 
ATOM     49  C   UNL A   1      41.408  25.318  26.186  1.00  0.00     0.031 C 
ATOM     50  C   UNL A   1      43.928  30.854  29.288  1.00  0.00     0.029 A 
ATOM     51  C   UNL A   1      44.901  29.868  28.858  1.00  0.00     0.049 A 
ATOM     52  H   UNL A   1      44.503  27.827  28.487  1.00  0.00     0.167 HD
ATOM     53  C   UNL A   1      43.083  23.694  27.222  1.00  0.00     0.037 A 
ATOM     54  C   UNL A   1      46.256  29.969  28.709  1.00  0.00     0.037 A 
ATOM     55  C   UNL A   1      43.663  23.530  28.533  1.00  0.00     0.049 A 
ATOM     56  C   UNL A   1      46.785  28.596  28.834  1.00  0.00     0.074 A 
ATOM     57  C   UNL A   1      43.217  23.129  29.774  1.00  0.00     0.029 A 
ATOM     58  N   UNL A   1      44.795  24.270  28.736  1.00  0.00    -0.354 N 
ATOM     59  N   UNL A   1      46.754  27.920  29.946  1.00  0.00    -0.248 NA
ATOM     60  C   UNL A   1      46.897  27.823  27.613  1.00  0.00     0.031 C 
ATOM     61  C   UNL A   1      43.924  23.941  30.712  1.00  0.00     0.029 A 
ATOM     62  C   UNL A   1      44.851  24.723  30.023  1.00  0.00     0.049 A 
ATOM     63  H   UNL A   1      45.476  24.452  28.049  1.00  0.00     0.167 HD
ATOM     64  C   UNL A   1      46.371  26.649  29.555  1.00  0.00     0.074 A 
ATOM     65  C   UNL A   1      46.563  26.628  28.101  1.00  0.00     0.031 C 
ATOM     66  C   UNL A   1      45.649  25.864  30.408  1.00  0.00     0.037 A 
BRANCH  53  67
ATOM     67  C   UNL A   1      43.788  23.197  25.975  1.00  0.00     0.057 A 
ATOM     68  C   UNL A   1      43.822  21.815  25.711  1.00  0.00     0.134 A 
ATOM     69  C   UNL A   1      44.681  23.968  25.201  1.00  0.00     0.134 A 
ATOM     70  F   UNL A   1      43.054  20.964  26.407  1.00  0.00    -0.206 F 
ATOM     71  C   UNL A   1      44.704  21.245  24.782  1.00  0.00     0.040 A 
ATOM     72  C   UNL A   1      45.533  23.416  24.239  1.00  0.00     0.040 A 
ATOM     73  F   UNL A   1      44.859  25.279  25.398  1.00  0.00    -0.206 F 
ATOM     74  C   UNL A   1      45.565  22.046  24.042  1.00  0.00     0.006 A 
ENDBRANCH  53  67
BRANCH  54  75
ATOM     75  C   UNL A   1      47.126  31.029  28.116  1.00  0.00     0.057 A 
ATOM     76  C   UNL A   1      46.780  31.681  26.911  1.00  0.00     0.134 A 
ATOM     77  C   UNL A   1      48.093  31.681  28.894  1.00  0.00     0.134 A 
ATOM     78  F   UNL A   1      45.835  31.170  26.108  1.00  0.00    -0.206 F 
ATOM     79  C   UNL A   1      47.323  32.922  26.535  1.00  0.00     0.040 A 
ATOM     80  C   UNL A   1      48.641  32.922  28.532  1.00  0.00     0.040 A 
ATOM     81  F   UNL A   1      48.456  31.184  30.084  1.00  0.00    -0.206 F 
ATOM     82  C   UNL A   1      48.244  33.558  27.360  1.00  0.00     0.006 A 
ENDBRANCH  54  75
BRANCH  66  83
ATOM     83  C   UNL A   1      45.567  26.293  31.849  1.00  0.00     0.057 A 
ATOM     84  C   UNL A   1      44.476  26.951  32.438  1.00  0.00     0.134 A 
ATOM     85  C   UNL A   1      46.595  25.884  32.705  1.00  0.00     0.134 A 
ATOM     86  F   UNL A   1      43.410  27.316  31.713  1.00  0.00    -0.206 F 
ATOM     87  C   UNL A   1      44.424  27.204  33.816  1.00  0.00     0.040 A 
ATOM     88  C   UNL A   1      46.541  26.102  34.082  1.00  0.00     0.040 A 
ATOM     89  F   UNL A   1      47.648  25.211  32.216  1.00  0.00    -0.206 F 
ATOM     90  C   UNL A   1      45.456  26.769  34.643  1.00  0.00     0.006 A 
ENDBRANCH  66  83
ENDBRANCH  40  41
ENDBRANCH  32  35
ENDBRANCH  30  31
ENDBRANCH  29  30
ENDBRANCH   1  29
TORSDOF 14
ENDMDL
MODEL 3
REMARK VINA RESULT:     -13.2      0.742      1.552
REMARK SMILES Cc1ccnc(C(=O)c2[nH]c3cc(Cl)c(F)cc3c2CC(=O)NCCCCNC(=O)c2ccc(-c3c4nc(c(-c5c(F)cccc5F)c5ccc([nH]5)c(-c5c(F)cccc5F)c5nc(c(-c6c(F)cccc6F)c6ccc3[nH]6)C=C5)C=C4)cc2)c1
REMARK SMILES IDX 25 1 24 2 23 3 21 4 22 5 20 7 19 8 9 9 10 10 11 11 18 13
REMARK SMILES IDX 12 14 17 15 13 16 15 17 14 18 16 19 7 20 8 21 6 22 1 23 2 24
REMARK SMILES IDX 3 25 85 26 4 27 5 28 26 29 27 30 28 31 29 32 30 34 31 35
REMARK SMILES IDX 32 36 84 37 33 38 83 39 34 40 35 41 36 42 77 43 37 44 82 45
REMARK SMILES IDX 76 46 78 47 38 48 81 49 75 50 74 51 39 53 65 54 48 55 64 56
REMARK SMILES IDX 49 57 52 58 63 59 79 60 50 61 51 62 62 64 80 65 53 66 40 67
REMARK SMILES IDX 41 68 46 69 42 70 43 71 45 72 47 73 44 74 66 75 67 76 72 77
REMARK SMILES IDX 68 78 69 79 71 80 73 81 70 82 54 83 55 84 60 85 56 86 57 87
REMARK SMILES IDX 59 88 61 89 58 90
REMARK H PARENT 23 6 10 12 28 33 78 52 52 63
REMARK Flexibility Score: inf
ROOT
ATOM      1  C   UNL A   1      32.819  28.327  27.241  1.00  0.00     0.023 C 
ENDROOT
BRANCH   1   2
ATOM      2  C   UNL A   1      31.941  27.538  26.252  1.00  0.00     0.116 C 
BRANCH   2   3
ATOM      3  N   UNL A   1      31.463  26.243  26.697  1.00  0.00    -0.356 N 
ATOM      4  C   UNL A   1      31.979  24.988  26.548  1.00  0.00     0.224 C 
ATOM      5  O   UNL A   1      31.446  24.084  27.201  1.00  0.00    -0.275 OA
ATOM      6  H   UNL A   1      30.614  26.275  27.196  1.00  0.00     0.163 HD
BRANCH   4   7
ATOM      7  C   UNL A   1      33.182  24.690  25.679  1.00  0.00     0.138 C 
BRANCH   7   8
ATOM      8  C   UNL A   1      32.908  23.937  24.413  1.00  0.00    -0.002 A 
ATOM      9  C   UNL A   1      32.739  24.418  23.113  1.00  0.00     0.093 A 
ATOM     10  N   UNL A   1      32.365  23.331  22.342  1.00  0.00    -0.351 N 
ATOM     11  C   UNL A   1      32.433  22.159  23.053  1.00  0.00     0.048 A 
ATOM     12  H   UNL A   1      32.084  23.391  21.401  1.00  0.00     0.167 HD
ATOM     13  C   UNL A   1      32.694  22.510  24.372  1.00  0.00     0.007 A 
ATOM     14  C   UNL A   1      32.264  20.828  22.640  1.00  0.00     0.050 A 
ATOM     15  C   UNL A   1      32.740  21.484  25.343  1.00  0.00     0.051 A 
ATOM     16  C   UNL A   1      32.392  19.827  23.610  1.00  0.00     0.078 A 
ATOM     17  C   UNL A   1      32.620  20.154  24.941  1.00  0.00     0.142 A 
ATOM     18  Cl  UNL A   1      32.273  18.175  23.132  1.00  0.00    -0.081 Cl
ATOM     19  F   UNL A   1      32.759  19.196  25.871  1.00  0.00    -0.205 F 
BRANCH   9  20
ATOM     20  C   UNL A   1      32.753  25.753  22.508  1.00  0.00     0.227 C 
ATOM     21  O   UNL A   1      33.721  26.088  21.825  1.00  0.00    -0.285 OA
BRANCH  20  22
ATOM     22  C   UNL A   1      31.679  26.781  22.790  1.00  0.00     0.113 A 
ATOM     23  C   UNL A   1      27.999  27.111  23.714  1.00  0.00     0.044 C 
ATOM     24  C   UNL A   1      29.433  27.425  23.406  1.00  0.00    -0.047 A 
ATOM     25  C   UNL A   1      29.805  28.752  23.222  1.00  0.00     0.023 A 
ATOM     26  C   UNL A   1      30.414  26.435  23.256  1.00  0.00     0.036 A 
ATOM     27  C   UNL A   1      31.108  29.024  22.846  1.00  0.00     0.112 A 
ATOM     28  N   UNL A   1      32.043  28.078  22.613  1.00  0.00    -0.253 NA
ENDBRANCH  20  22
ENDBRANCH   9  20
ENDBRANCH   7   8
ENDBRANCH   4   7
ENDBRANCH   2   3
ENDBRANCH   1   2
BRANCH   1  29
ATOM     29  C   UNL A   1      32.923  29.853  27.070  1.00  0.00     0.023 C 
BRANCH  29  30
ATOM     30  C   UNL A   1      34.280  30.445  27.419  1.00  0.00     0.116 C 
BRANCH  30  31
ATOM     31  N   UNL A   1      34.209  31.344  28.548  1.00  0.00    -0.352 N 
ATOM     32  C   UNL A   1      35.080  31.754  29.510  1.00  0.00     0.251 C 
ATOM     33  H   UNL A   1      33.320  31.758  28.644  1.00  0.00     0.163 HD
ATOM     34  O   UNL A   1      34.650  32.627  30.277  1.00  0.00    -0.269 OA
BRANCH  32  35
ATOM     35  C   UNL A   1      36.425  31.178  29.772  1.00  0.00     0.039 A 
ATOM     36  C   UNL A   1      37.649  31.845  29.723  1.00  0.00     0.014 A 
ATOM     37  C   UNL A   1      36.431  29.796  30.033  1.00  0.00     0.014 A 
ATOM     38  C   UNL A   1      38.836  31.111  29.694  1.00  0.00     0.010 A 
ATOM     39  C   UNL A   1      37.611  29.073  30.080  1.00  0.00     0.010 A 
ATOM     40  C   UNL A   1      38.802  29.711  29.781  1.00  0.00    -0.014 A 
BRANCH  40  41
ATOM     41  C   UNL A   1      40.044  28.937  29.798  1.00  0.00     0.031 A 
ATOM     42  C   UNL A   1      40.569  28.828  31.189  1.00  0.00     0.074 A 
ATOM     43  C   UNL A   1      40.578  28.325  28.709  1.00  0.00     0.049 A 
ATOM     44  N   UNL A   1      41.616  29.417  31.662  1.00  0.00    -0.248 NA
ATOM     45  C   UNL A   1      39.721  28.220  32.231  1.00  0.00     0.031 C 
ATOM     46  C   UNL A   1      40.038  28.252  27.344  1.00  0.00     0.029 A 
ATOM     47  N   UNL A   1      41.731  27.583  28.594  1.00  0.00    -0.354 N 
ATOM     48  C   UNL A   1      41.701  29.033  32.997  1.00  0.00     0.074 A 
ATOM     49  C   UNL A   1      40.424  28.473  33.339  1.00  0.00     0.031 C 
ATOM     50  C   UNL A   1      40.721  27.334  26.614  1.00  0.00     0.029 A 
ATOM     51  C   UNL A   1      41.847  26.853  27.390  1.00  0.00     0.049 A 
ATOM     52  H   UNL A   1      42.421  27.562  29.296  1.00  0.00     0.167 HD
ATOM     53  C   UNL A   1      42.919  28.947  33.600  1.00  0.00     0.037 A 
ATOM     54  C   UNL A   1      42.832  25.964  27.061  1.00  0.00     0.037 A 
ATOM     55  C   UNL A   1      43.901  29.674  32.833  1.00  0.00     0.049 A 
ATOM     56  C   UNL A   1      43.981  26.287  27.931  1.00  0.00     0.074 A 
ATOM     57  C   UNL A   1      44.157  30.998  32.546  1.00  0.00     0.029 A 
ATOM     58  N   UNL A   1      44.507  28.930  31.859  1.00  0.00    -0.354 N 
ATOM     59  N   UNL A   1      44.663  27.391  27.830  1.00  0.00    -0.248 NA
ATOM     60  C   UNL A   1      44.049  25.603  29.208  1.00  0.00     0.031 C 
ATOM     61  C   UNL A   1      44.632  31.008  31.199  1.00  0.00     0.029 A 
ATOM     62  C   UNL A   1      44.755  29.692  30.754  1.00  0.00     0.049 A 
ATOM     63  H   UNL A   1      44.733  27.975  31.942  1.00  0.00     0.167 HD
ATOM     64  C   UNL A   1      44.858  27.787  29.141  1.00  0.00     0.074 A 
ATOM     65  C   UNL A   1      44.539  26.601  29.944  1.00  0.00     0.031 C 
ATOM     66  C   UNL A   1      44.954  29.115  29.444  1.00  0.00     0.037 A 
BRANCH  53  67
ATOM     67  C   UNL A   1      43.316  27.816  34.529  1.00  0.00     0.057 A 
ATOM     68  C   UNL A   1      43.367  26.502  34.026  1.00  0.00     0.134 A 
ATOM     69  C   UNL A   1      43.348  27.911  35.936  1.00  0.00     0.134 A 
ATOM     70  F   UNL A   1      43.301  26.268  32.707  1.00  0.00    -0.206 F 
ATOM     71  C   UNL A   1      43.405  25.376  34.860  1.00  0.00     0.040 A 
ATOM     72  C   UNL A   1      43.431  26.797  36.776  1.00  0.00     0.040 A 
ATOM     73  F   UNL A   1      43.197  29.072  36.583  1.00  0.00    -0.206 F 
ATOM     74  C   UNL A   1      43.437  25.521  36.241  1.00  0.00     0.006 A 
ENDBRANCH  53  67
BRANCH  54  75
ATOM     75  C   UNL A   1      42.805  24.646  26.359  1.00  0.00     0.057 A 
ATOM     76  C   UNL A   1      43.697  24.354  25.303  1.00  0.00     0.134 A 
ATOM     77  C   UNL A   1      42.184  23.534  26.945  1.00  0.00     0.134 A 
ATOM     78  F   UNL A   1      44.380  25.336  24.697  1.00  0.00    -0.206 F 
ATOM     79  C   UNL A   1      43.987  23.040  24.895  1.00  0.00     0.040 A 
ATOM     80  C   UNL A   1      42.467  22.217  26.550  1.00  0.00     0.040 A 
ATOM     81  F   UNL A   1      41.364  23.688  27.993  1.00  0.00    -0.206 F 
ATOM     82  C   UNL A   1      43.385  21.963  25.535  1.00  0.00     0.006 A 
ENDBRANCH  54  75
BRANCH  66  83
ATOM     83  C   UNL A   1      45.156  30.077  28.303  1.00  0.00     0.057 A 
ATOM     84  C   UNL A   1      44.130  30.751  27.621  1.00  0.00     0.134 A 
ATOM     85  C   UNL A   1      46.469  30.437  27.984  1.00  0.00     0.134 A 
ATOM     86  F   UNL A   1      42.841  30.528  27.908  1.00  0.00    -0.206 F 
ATOM     87  C   UNL A   1      44.406  31.727  26.653  1.00  0.00     0.040 A 
ATOM     88  C   UNL A   1      46.757  31.428  27.046  1.00  0.00     0.040 A 
ATOM     89  F   UNL A   1      47.497  29.864  28.629  1.00  0.00    -0.206 F 
ATOM     90  C   UNL A   1      45.725  32.074  26.371  1.00  0.00     0.006 A 
ENDBRANCH  66  83
ENDBRANCH  40  41
ENDBRANCH  32  35
ENDBRANCH  30  31
ENDBRANCH  29  30
ENDBRANCH   1  29
TORSDOF 14
ENDMDL
