MODEL 1
REMARK VINA RESULT:     -12.1      0.000      0.000
REMARK SMILES Cc1nn(C)cc1-c1cc(C(=O)NCCCCNC(=O)c2ccc(-c3c4nc(c(-c5c(F)cccc5F)c5ccc([nH]5)c(-c5c(F)cccc5F)c5nc(c(-c6c(F)cccc6F)c6ccc3[nH]6)C=C5)C=C4)cc2)n2nc(C)c(Br)c2n1
REMARK SMILES IDX 16 1 15 2 14 3 13 4 11 5 12 6 10 8 8 9 9 10 82 11 81 12
REMARK SMILES IDX 75 13 79 14 76 15 77 16 80 17 78 18 7 19 1 20 2 21 3 22 4 23
REMARK SMILES IDX 6 24 5 25 17 26 18 27 19 28 20 30 21 31 22 32 74 33 23 34
REMARK SMILES IDX 73 35 24 36 25 37 26 38 67 39 27 40 72 41 66 42 68 43 28 44
REMARK SMILES IDX 71 45 65 46 64 47 29 49 55 50 38 51 54 52 39 53 42 54 53 55
REMARK SMILES IDX 69 56 40 57 41 58 52 60 70 61 43 62 30 63 31 64 36 65 32 66
REMARK SMILES IDX 33 67 35 68 37 69 34 70 56 71 57 72 62 73 58 74 59 75 61 76
REMARK SMILES IDX 63 77 60 78 44 79 45 80 50 81 46 82 47 83 49 84 51 85 48 86
REMARK H PARENT 13 7 18 29 68 48 42 59
REMARK Flexibility Score: inf
ROOT
ATOM      1  C   UNL A   1      32.512  30.932  26.755  1.00  0.00     0.023 C 
ENDROOT
BRANCH   1   2
ATOM      2  C   UNL A   1      32.851  29.673  25.926  1.00  0.00     0.023 C 
BRANCH   2   3
ATOM      3  C   UNL A   1      33.439  28.516  26.745  1.00  0.00     0.116 C 
BRANCH   3   4
ATOM      4  N   UNL A   1      32.438  27.484  26.971  1.00  0.00    -0.351 N 
ATOM      5  C   UNL A   1      31.470  26.865  26.232  1.00  0.00     0.270 C 
ATOM      6  O   UNL A   1      30.782  26.060  26.855  1.00  0.00    -0.268 OA
ATOM      7  H   UNL A   1      32.466  27.144  27.894  1.00  0.00     0.163 HD
BRANCH   5   8
ATOM      8  C   UNL A   1      31.236  27.107  24.772  1.00  0.00     0.134 A 
ATOM      9  C   UNL A   1      30.144  28.124  22.884  1.00  0.00     0.079 A 
ATOM     10  C   UNL A   1      30.252  27.919  24.350  1.00  0.00     0.063 A 
ATOM     11  N   UNL A   1      30.773  27.473  21.962  1.00  0.00    -0.227 NA
ATOM     12  C   UNL A   1      31.672  26.547  22.417  1.00  0.00     0.171 A 
ATOM     13  N   UNL A   1      31.964  26.383  23.792  1.00  0.00    -0.208 N 
ATOM     14  C   UNL A   1      32.436  25.616  21.759  1.00  0.00     0.085 A 
ATOM     15  N   UNL A   1      32.952  25.454  23.952  1.00  0.00    -0.170 NA
ATOM     16  C   UNL A   1      33.183  24.948  22.737  1.00  0.00     0.076 A 
ATOM     17  Br  UNL A   1      32.476  25.270  19.918  1.00  0.00    -0.045 Br
ATOM     18  C   UNL A   1      34.131  23.818  22.566  1.00  0.00     0.070 C 
BRANCH   9  19
ATOM     19  C   UNL A   1      29.233  29.179  22.523  1.00  0.00     0.041 A 
ATOM     20  C   UNL A   1      26.942  28.350  23.502  1.00  0.00     0.069 C 
ATOM     21  C   UNL A   1      27.832  29.274  22.753  1.00  0.00     0.069 A 
ATOM     22  N   UNL A   1      27.314  30.372  22.192  1.00  0.00    -0.178 NA
ATOM     23  N   UNL A   1      28.376  31.002  21.660  1.00  0.00    -0.275 N 
ATOM     24  C   UNL A   1      29.552  30.344  21.856  1.00  0.00     0.119 A 
ATOM     25  C   UNL A   1      28.176  32.226  20.925  1.00  0.00     0.173 C 
ENDBRANCH   9  19
ENDBRANCH   5   8
ENDBRANCH   3   4
ENDBRANCH   2   3
ENDBRANCH   1   2
BRANCH   1  26
ATOM     26  C   UNL A   1      33.489  31.260  27.901  1.00  0.00     0.116 C 
BRANCH  26  27
ATOM     27  N   UNL A   1      34.333  32.391  27.561  1.00  0.00    -0.352 N 
ATOM     28  C   UNL A   1      35.597  32.744  27.947  1.00  0.00     0.251 C 
ATOM     29  H   UNL A   1      33.917  33.025  26.932  1.00  0.00     0.163 HD
ATOM     30  O   UNL A   1      35.970  33.893  27.722  1.00  0.00    -0.269 OA
BRANCH  28  31
ATOM     31  C   UNL A   1      36.540  31.809  28.600  1.00  0.00     0.039 A 
ATOM     32  C   UNL A   1      36.941  32.107  29.911  1.00  0.00     0.014 A 
ATOM     33  C   UNL A   1      37.185  30.791  27.899  1.00  0.00     0.014 A 
ATOM     34  C   UNL A   1      37.968  31.384  30.523  1.00  0.00     0.010 A 
ATOM     35  C   UNL A   1      38.222  30.073  28.514  1.00  0.00     0.010 A 
ATOM     36  C   UNL A   1      38.623  30.357  29.832  1.00  0.00    -0.014 A 
BRANCH  36  37
ATOM     37  C   UNL A   1      39.627  29.539  30.559  1.00  0.00     0.031 A 
ATOM     38  C   UNL A   1      39.667  28.093  30.188  1.00  0.00     0.074 A 
ATOM     39  C   UNL A   1      40.734  30.059  31.139  1.00  0.00     0.049 A 
ATOM     40  N   UNL A   1      40.303  27.666  29.135  1.00  0.00    -0.248 NA
ATOM     41  C   UNL A   1      38.808  27.083  30.804  1.00  0.00     0.031 C 
ATOM     42  C   UNL A   1      41.416  31.261  30.645  1.00  0.00     0.029 A 
ATOM     43  N   UNL A   1      41.603  29.543  32.079  1.00  0.00    -0.354 N 
ATOM     44  C   UNL A   1      39.901  26.364  28.906  1.00  0.00     0.074 A 
ATOM     45  C   UNL A   1      38.988  26.037  29.980  1.00  0.00     0.031 C 
ATOM     46  C   UNL A   1      42.662  31.295  31.160  1.00  0.00     0.029 A 
ATOM     47  C   UNL A   1      42.825  30.215  32.138  1.00  0.00     0.049 A 
ATOM     48  H   UNL A   1      41.381  28.775  32.654  1.00  0.00     0.167 HD
ATOM     49  C   UNL A   1      40.336  25.647  27.837  1.00  0.00     0.037 A 
ATOM     50  C   UNL A   1      44.030  29.636  32.404  1.00  0.00     0.037 A 
ATOM     51  C   UNL A   1      41.243  26.326  26.960  1.00  0.00     0.049 A 
ATOM     52  C   UNL A   1      44.204  28.722  31.225  1.00  0.00     0.074 A 
ATOM     53  C   UNL A   1      41.177  27.057  25.793  1.00  0.00     0.029 A 
ATOM     54  N   UNL A   1      42.571  26.363  27.314  1.00  0.00    -0.354 N 
ATOM     55  N   UNL A   1      44.602  29.081  30.037  1.00  0.00    -0.248 NA
ATOM     56  C   UNL A   1      43.586  27.399  31.294  1.00  0.00     0.031 C 
ATOM     57  C   UNL A   1      42.355  27.871  25.786  1.00  0.00     0.029 A 
ATOM     58  C   UNL A   1      43.032  27.610  26.975  1.00  0.00     0.049 A 
ATOM     59  H   UNL A   1      43.089  25.637  27.727  1.00  0.00     0.167 HD
ATOM     60  C   UNL A   1      44.046  28.146  29.163  1.00  0.00     0.074 A 
ATOM     61  C   UNL A   1      43.461  27.119  30.004  1.00  0.00     0.031 C 
ATOM     62  C   UNL A   1      43.933  28.357  27.820  1.00  0.00     0.037 A 
BRANCH  49  63
ATOM     63  C   UNL A   1      40.082  24.213  27.608  1.00  0.00     0.057 A 
ATOM     64  C   UNL A   1      39.103  23.750  26.730  1.00  0.00     0.134 A 
ATOM     65  C   UNL A   1      41.038  23.298  28.071  1.00  0.00     0.134 A 
ATOM     66  F   UNL A   1      38.174  24.584  26.241  1.00  0.00    -0.206 F 
ATOM     67  C   UNL A   1      39.106  22.424  26.288  1.00  0.00     0.040 A 
ATOM     68  C   UNL A   1      41.059  21.979  27.630  1.00  0.00     0.040 A 
ATOM     69  F   UNL A   1      42.011  23.705  28.905  1.00  0.00    -0.206 F 
ATOM     70  C   UNL A   1      40.099  21.542  26.722  1.00  0.00     0.006 A 
ENDBRANCH  49  63
BRANCH  50  71
ATOM     71  C   UNL A   1      44.318  29.197  33.806  1.00  0.00     0.057 A 
ATOM     72  C   UNL A   1      43.385  28.619  34.680  1.00  0.00     0.134 A 
ATOM     73  C   UNL A   1      45.630  29.295  34.302  1.00  0.00     0.134 A 
ATOM     74  F   UNL A   1      42.135  28.343  34.285  1.00  0.00    -0.206 F 
ATOM     75  C   UNL A   1      43.699  28.295  36.006  1.00  0.00     0.040 A 
ATOM     76  C   UNL A   1      45.967  28.951  35.617  1.00  0.00     0.040 A 
ATOM     77  F   UNL A   1      46.628  29.712  33.509  1.00  0.00    -0.206 F 
ATOM     78  C   UNL A   1      44.990  28.477  36.484  1.00  0.00     0.006 A 
ENDBRANCH  50  71
BRANCH  62  79
ATOM     79  C   UNL A   1      44.576  29.611  27.327  1.00  0.00     0.057 A 
ATOM     80  C   UNL A   1      43.908  30.843  27.349  1.00  0.00     0.134 A 
ATOM     81  C   UNL A   1      45.892  29.598  26.853  1.00  0.00     0.134 A 
ATOM     82  F   UNL A   1      42.652  30.942  27.810  1.00  0.00    -0.206 F 
ATOM     83  C   UNL A   1      44.519  32.012  26.891  1.00  0.00     0.040 A 
ATOM     84  C   UNL A   1      46.523  30.766  26.420  1.00  0.00     0.040 A 
ATOM     85  F   UNL A   1      46.586  28.449  26.799  1.00  0.00    -0.206 F 
ATOM     86  C   UNL A   1      45.833  31.977  26.431  1.00  0.00     0.006 A 
ENDBRANCH  62  79
ENDBRANCH  36  37
ENDBRANCH  28  31
ENDBRANCH  26  27
ENDBRANCH   1  26
TORSDOF 12
ENDMDL
MODEL 2
REMARK VINA RESULT:     -12.0      6.073     10.614
REMARK SMILES Cc1nn(C)cc1-c1cc(C(=O)NCCCCNC(=O)c2ccc(-c3c4nc(c(-c5c(F)cccc5F)c5ccc([nH]5)c(-c5c(F)cccc5F)c5nc(c(-c6c(F)cccc6F)c6ccc3[nH]6)C=C5)C=C4)cc2)n2nc(C)c(Br)c2n1
REMARK SMILES IDX 16 1 15 2 14 3 13 4 11 5 12 6 10 8 8 9 9 10 82 11 81 12
REMARK SMILES IDX 75 13 79 14 76 15 77 16 80 17 78 18 7 19 1 20 2 21 3 22 4 23
REMARK SMILES IDX 6 24 5 25 17 26 18 27 19 28 20 30 21 31 22 32 74 33 23 34
REMARK SMILES IDX 73 35 24 36 25 37 26 38 67 39 27 40 72 41 66 42 68 43 28 44
REMARK SMILES IDX 71 45 65 46 64 47 29 49 55 50 38 51 54 52 39 53 42 54 53 55
REMARK SMILES IDX 69 56 40 57 41 58 52 60 70 61 43 62 30 63 31 64 36 65 32 66
REMARK SMILES IDX 33 67 35 68 37 69 34 70 56 71 57 72 62 73 58 74 59 75 61 76
REMARK SMILES IDX 63 77 60 78 44 79 45 80 50 81 46 82 47 83 49 84 51 85 48 86
REMARK H PARENT 13 7 18 29 68 48 42 59
REMARK Flexibility Score: inf
ROOT
ATOM      1  C   UNL A   1      44.542  33.496  25.321  1.00  0.00     0.023 C 
ENDROOT
BRANCH   1   2
ATOM      2  C   UNL A   1      44.141  32.296  26.208  1.00  0.00     0.023 C 
BRANCH   2   3
ATOM      3  C   UNL A   1      45.328  31.527  26.804  1.00  0.00     0.116 C 
BRANCH   3   4
ATOM      4  N   UNL A   1      45.930  30.655  25.806  1.00  0.00    -0.351 N 
ATOM      5  C   UNL A   1      46.290  29.340  25.726  1.00  0.00     0.270 C 
ATOM      6  O   UNL A   1      46.841  29.019  24.677  1.00  0.00    -0.268 OA
ATOM      7  H   UNL A   1      46.130  31.139  24.971  1.00  0.00     0.163 HD
BRANCH   5   8
ATOM      8  C   UNL A   1      46.038  28.328  26.803  1.00  0.00     0.134 A 
ATOM      9  C   UNL A   1      45.071  26.324  27.719  1.00  0.00     0.079 A 
ATOM     10  C   UNL A   1      45.208  27.291  26.601  1.00  0.00     0.063 A 
ATOM     11  N   UNL A   1      45.521  26.463  28.923  1.00  0.00    -0.227 NA
ATOM     12  C   UNL A   1      46.247  27.602  29.143  1.00  0.00     0.171 A 
ATOM     13  N   UNL A   1      46.567  28.511  28.107  1.00  0.00    -0.208 N 
ATOM     14  C   UNL A   1      46.787  28.134  30.287  1.00  0.00     0.085 A 
ATOM     15  N   UNL A   1      47.366  29.508  28.590  1.00  0.00    -0.170 NA
ATOM     16  C   UNL A   1      47.438  29.315  29.911  1.00  0.00     0.076 A 
ATOM     17  Br  UNL A   1      46.673  27.448  32.027  1.00  0.00    -0.045 Br
ATOM     18  C   UNL A   1      48.145  30.297  30.771  1.00  0.00     0.070 C 
BRANCH   9  19
ATOM     19  C   UNL A   1      44.363  25.126  27.352  1.00  0.00     0.041 A 
ATOM     20  C   UNL A   1      43.541  24.188  29.663  1.00  0.00     0.069 C 
ATOM     21  C   UNL A   1      43.724  24.168  28.189  1.00  0.00     0.069 A 
ATOM     22  N   UNL A   1      43.244  23.139  27.481  1.00  0.00    -0.178 NA
ATOM     23  N   UNL A   1      43.520  23.460  26.205  1.00  0.00    -0.275 N 
ATOM     24  C   UNL A   1      44.163  24.653  26.072  1.00  0.00     0.119 A 
ATOM     25  C   UNL A   1      43.173  22.536  25.154  1.00  0.00     0.173 C 
ENDBRANCH   9  19
ENDBRANCH   5   8
ENDBRANCH   3   4
ENDBRANCH   2   3
ENDBRANCH   1   2
BRANCH   1  26
ATOM     26  C   UNL A   1      43.462  34.581  25.138  1.00  0.00     0.116 C 
BRANCH  26  27
ATOM     27  N   UNL A   1      43.875  35.836  25.739  1.00  0.00    -0.352 N 
ATOM     28  C   UNL A   1      43.674  36.369  26.983  1.00  0.00     0.251 C 
ATOM     29  H   UNL A   1      44.400  36.413  25.138  1.00  0.00     0.163 HD
ATOM     30  O   UNL A   1      43.899  37.567  27.141  1.00  0.00    -0.269 OA
BRANCH  28  31
ATOM     31  C   UNL A   1      43.222  35.575  28.147  1.00  0.00     0.039 A 
ATOM     32  C   UNL A   1      44.190  34.825  28.832  1.00  0.00     0.014 A 
ATOM     33  C   UNL A   1      41.872  35.388  28.443  1.00  0.00     0.014 A 
ATOM     34  C   UNL A   1      43.816  33.908  29.816  1.00  0.00     0.010 A 
ATOM     35  C   UNL A   1      41.499  34.458  29.425  1.00  0.00     0.010 A 
ATOM     36  C   UNL A   1      42.464  33.711  30.125  1.00  0.00    -0.014 A 
BRANCH  36  37
ATOM     37  C   UNL A   1      42.116  32.813  31.256  1.00  0.00     0.031 A 
ATOM     38  C   UNL A   1      40.723  32.944  31.776  1.00  0.00     0.074 A 
ATOM     39  C   UNL A   1      42.765  31.653  31.513  1.00  0.00     0.049 A 
ATOM     40  N   UNL A   1      39.711  32.362  31.200  1.00  0.00    -0.248 NA
ATOM     41  C   UNL A   1      40.337  33.919  32.795  1.00  0.00     0.031 C 
ATOM     42  C   UNL A   1      43.395  30.832  30.472  1.00  0.00     0.029 A 
ATOM     43  N   UNL A   1      42.800  30.854  32.638  1.00  0.00    -0.354 N 
ATOM     44  C   UNL A   1      38.559  32.915  31.723  1.00  0.00     0.074 A 
ATOM     45  C   UNL A   1      38.996  33.863  32.727  1.00  0.00     0.031 C 
ATOM     46  C   UNL A   1      43.598  29.592  30.963  1.00  0.00     0.029 A 
ATOM     47  C   UNL A   1      43.262  29.560  32.389  1.00  0.00     0.049 A 
ATOM     48  H   UNL A   1      42.525  31.166  33.530  1.00  0.00     0.167 HD
ATOM     49  C   UNL A   1      37.321  32.567  31.286  1.00  0.00     0.037 A 
ATOM     50  C   UNL A   1      42.827  28.433  33.020  1.00  0.00     0.037 A 
ATOM     51  C   UNL A   1      37.284  31.584  30.243  1.00  0.00     0.049 A 
ATOM     52  C   UNL A   1      41.391  28.367  32.585  1.00  0.00     0.074 A 
ATOM     53  C   UNL A   1      37.218  31.561  28.866  1.00  0.00     0.029 A 
ATOM     54  N   UNL A   1      37.389  30.262  30.605  1.00  0.00    -0.354 N 
ATOM     55  N   UNL A   1      40.965  27.927  31.435  1.00  0.00    -0.248 NA
ATOM     56  C   UNL A   1      40.413  29.138  33.351  1.00  0.00     0.031 C 
ATOM     57  C   UNL A   1      37.763  30.294  28.481  1.00  0.00     0.029 A 
ATOM     58  C   UNL A   1      38.165  29.655  29.651  1.00  0.00     0.049 A 
ATOM     59  H   UNL A   1      36.984  29.834  31.393  1.00  0.00     0.167 HD
ATOM     60  C   UNL A   1      39.756  28.589  31.211  1.00  0.00     0.074 A 
ATOM     61  C   UNL A   1      39.459  29.293  32.443  1.00  0.00     0.031 C 
ATOM     62  C   UNL A   1      39.171  28.673  29.982  1.00  0.00     0.037 A 
BRANCH  49  63
ATOM     63  C   UNL A   1      36.047  32.989  31.894  1.00  0.00     0.057 A 
ATOM     64  C   UNL A   1      35.720  32.724  33.224  1.00  0.00     0.134 A 
ATOM     65  C   UNL A   1      35.269  33.925  31.199  1.00  0.00     0.134 A 
ATOM     66  F   UNL A   1      36.440  31.851  33.943  1.00  0.00    -0.206 F 
ATOM     67  C   UNL A   1      34.677  33.408  33.855  1.00  0.00     0.040 A 
ATOM     68  C   UNL A   1      34.236  34.622  31.819  1.00  0.00     0.040 A 
ATOM     69  F   UNL A   1      35.559  34.225  29.921  1.00  0.00    -0.206 F 
ATOM     70  C   UNL A   1      33.949  34.375  33.158  1.00  0.00     0.006 A 
ENDBRANCH  49  63
BRANCH  50  71
ATOM     71  C   UNL A   1      43.244  28.202  34.440  1.00  0.00     0.057 A 
ATOM     72  C   UNL A   1      43.146  29.144  35.475  1.00  0.00     0.134 A 
ATOM     73  C   UNL A   1      43.717  26.934  34.820  1.00  0.00     0.134 A 
ATOM     74  F   UNL A   1      42.585  30.345  35.276  1.00  0.00    -0.206 F 
ATOM     75  C   UNL A   1      43.621  28.891  36.768  1.00  0.00     0.040 A 
ATOM     76  C   UNL A   1      44.171  26.656  36.115  1.00  0.00     0.040 A 
ATOM     77  F   UNL A   1      43.730  25.920  33.941  1.00  0.00    -0.206 F 
ATOM     78  C   UNL A   1      44.152  27.648  37.087  1.00  0.00     0.006 A 
ENDBRANCH  50  71
BRANCH  62  79
ATOM     79  C   UNL A   1      39.847  27.885  28.910  1.00  0.00     0.057 A 
ATOM     80  C   UNL A   1      39.590  26.520  28.721  1.00  0.00     0.134 A 
ATOM     81  C   UNL A   1      40.744  28.500  28.031  1.00  0.00     0.134 A 
ATOM     82  F   UNL A   1      38.725  25.863  29.509  1.00  0.00    -0.206 F 
ATOM     83  C   UNL A   1      40.223  25.791  27.713  1.00  0.00     0.040 A 
ATOM     84  C   UNL A   1      41.361  27.787  27.001  1.00  0.00     0.040 A 
ATOM     85  F   UNL A   1      41.041  29.803  28.161  1.00  0.00    -0.206 F 
ATOM     86  C   UNL A   1      41.107  26.426  26.844  1.00  0.00     0.006 A 
ENDBRANCH  62  79
ENDBRANCH  36  37
ENDBRANCH  28  31
ENDBRANCH  26  27
ENDBRANCH   1  26
TORSDOF 12
ENDMDL
MODEL 3
REMARK VINA RESULT:     -11.8      6.182      9.912
REMARK SMILES Cc1nn(C)cc1-c1cc(C(=O)NCCCCNC(=O)c2ccc(-c3c4nc(c(-c5c(F)cccc5F)c5ccc([nH]5)c(-c5c(F)cccc5F)c5nc(c(-c6c(F)cccc6F)c6ccc3[nH]6)C=C5)C=C4)cc2)n2nc(C)c(Br)c2n1
REMARK SMILES IDX 16 1 15 2 14 3 13 4 11 5 12 6 10 8 8 9 9 10 82 11 81 12
REMARK SMILES IDX 75 13 79 14 76 15 77 16 80 17 78 18 7 19 1 20 2 21 3 22 4 23
REMARK SMILES IDX 6 24 5 25 17 26 18 27 19 28 20 30 21 31 22 32 74 33 23 34
REMARK SMILES IDX 73 35 24 36 25 37 26 38 67 39 27 40 72 41 66 42 68 43 28 44
REMARK SMILES IDX 71 45 65 46 64 47 29 49 55 50 38 51 54 52 39 53 42 54 53 55
REMARK SMILES IDX 69 56 40 57 41 58 52 60 70 61 43 62 30 63 31 64 36 65 32 66
REMARK SMILES IDX 33 67 35 68 37 69 34 70 56 71 57 72 62 73 58 74 59 75 61 76
REMARK SMILES IDX 63 77 60 78 44 79 45 80 50 81 46 82 47 83 49 84 51 85 48 86
REMARK H PARENT 13 7 18 29 68 48 42 59
REMARK Flexibility Score: inf
ROOT
ATOM      1  C   UNL A   1      41.584  25.981  35.834  1.00  0.00     0.023 C 
ENDROOT
BRANCH   1   2
ATOM      2  C   UNL A   1      41.489  26.701  34.471  1.00  0.00     0.023 C 
BRANCH   2   3
ATOM      3  C   UNL A   1      41.742  28.214  34.535  1.00  0.00     0.116 C 
BRANCH   3   4
ATOM      4  N   UNL A   1      40.778  28.859  35.415  1.00  0.00    -0.351 N 
ATOM      5  C   UNL A   1      40.098  30.043  35.441  1.00  0.00     0.270 C 
ATOM      6  O   UNL A   1      39.401  30.216  36.438  1.00  0.00    -0.268 OA
ATOM      7  H   UNL A   1      40.560  28.296  36.194  1.00  0.00     0.163 HD
BRANCH   5   8
ATOM      8  C   UNL A   1      40.155  31.074  34.355  1.00  0.00     0.134 A 
ATOM      9  C   UNL A   1      39.227  32.445  32.608  1.00  0.00     0.079 A 
ATOM     10  C   UNL A   1      39.068  31.374  33.623  1.00  0.00     0.063 A 
ATOM     11  N   UNL A   1      40.334  32.996  32.229  1.00  0.00    -0.227 NA
ATOM     12  C   UNL A   1      41.451  32.570  32.895  1.00  0.00     0.171 A 
ATOM     13  N   UNL A   1      41.389  31.668  33.983  1.00  0.00    -0.208 N 
ATOM     14  C   UNL A   1      42.784  32.842  32.710  1.00  0.00     0.085 A 
ATOM     15  N   UNL A   1      42.636  31.483  34.508  1.00  0.00    -0.170 NA
ATOM     16  C   UNL A   1      43.478  32.134  33.699  1.00  0.00     0.076 A 
ATOM     17  Br  UNL A   1      43.552  33.926  31.389  1.00  0.00    -0.045 Br
ATOM     18  C   UNL A   1      44.943  32.045  33.916  1.00  0.00     0.070 C 
BRANCH   9  19
ATOM     19  C   UNL A   1      37.979  32.875  32.034  1.00  0.00     0.041 A 
ATOM     20  C   UNL A   1      38.670  33.663  29.627  1.00  0.00     0.069 C 
ATOM     21  C   UNL A   1      37.727  33.441  30.753  1.00  0.00     0.069 A 
ATOM     22  N   UNL A   1      36.444  33.792  30.614  1.00  0.00    -0.178 NA
ATOM     23  N   UNL A   1      35.870  33.405  31.766  1.00  0.00    -0.275 N 
ATOM     24  C   UNL A   1      36.740  32.825  32.638  1.00  0.00     0.119 A 
ATOM     25  C   UNL A   1      34.470  33.674  31.982  1.00  0.00     0.173 C 
ENDBRANCH   9  19
ENDBRANCH   5   8
ENDBRANCH   3   4
ENDBRANCH   2   3
ENDBRANCH   1   2
BRANCH   1  26
ATOM     26  C   UNL A   1      41.576  24.441  35.778  1.00  0.00     0.116 C 
BRANCH  26  27
ATOM     27  N   UNL A   1      42.891  23.901  36.077  1.00  0.00    -0.352 N 
ATOM     28  C   UNL A   1      44.061  23.886  35.369  1.00  0.00     0.251 C 
ATOM     29  H   UNL A   1      42.952  23.463  36.957  1.00  0.00     0.163 HD
ATOM     30  O   UNL A   1      44.950  23.123  35.740  1.00  0.00    -0.269 OA
BRANCH  28  31
ATOM     31  C   UNL A   1      44.316  24.754  34.198  1.00  0.00     0.039 A 
ATOM     32  C   UNL A   1      43.985  24.246  32.934  1.00  0.00     0.014 A 
ATOM     33  C   UNL A   1      45.049  25.937  34.293  1.00  0.00     0.014 A 
ATOM     34  C   UNL A   1      44.367  24.921  31.772  1.00  0.00     0.010 A 
ATOM     35  C   UNL A   1      45.439  26.608  33.124  1.00  0.00     0.010 A 
ATOM     36  C   UNL A   1      45.101  26.111  31.852  1.00  0.00    -0.014 A 
BRANCH  36  37
ATOM     37  C   UNL A   1      45.386  26.857  30.599  1.00  0.00     0.031 A 
ATOM     38  C   UNL A   1      45.392  26.037  29.351  1.00  0.00     0.074 A 
ATOM     39  C   UNL A   1      45.185  28.189  30.462  1.00  0.00     0.049 A 
ATOM     40  N   UNL A   1      44.295  25.712  28.730  1.00  0.00    -0.248 NA
ATOM     41  C   UNL A   1      46.574  25.325  28.867  1.00  0.00     0.031 C 
ATOM     42  C   UNL A   1      44.150  28.929  31.194  1.00  0.00     0.029 A 
ATOM     43  N   UNL A   1      45.645  29.092  29.526  1.00  0.00    -0.354 N 
ATOM     44  C   UNL A   1      44.610  24.723  27.818  1.00  0.00     0.074 A 
ATOM     45  C   UNL A   1      46.041  24.530  27.923  1.00  0.00     0.031 C 
ATOM     46  C   UNL A   1      43.939  30.107  30.571  1.00  0.00     0.029 A 
ATOM     47  C   UNL A   1      44.918  30.283  29.495  1.00  0.00     0.049 A 
ATOM     48  H   UNL A   1      46.413  28.913  28.935  1.00  0.00     0.167 HD
ATOM     49  C   UNL A   1      43.669  24.118  27.047  1.00  0.00     0.037 A 
ATOM     50  C   UNL A   1      44.663  31.022  28.378  1.00  0.00     0.037 A 
ATOM     51  C   UNL A   1      42.323  24.572  27.239  1.00  0.00     0.049 A 
ATOM     52  C   UNL A   1      43.808  30.085  27.574  1.00  0.00     0.074 A 
ATOM     53  C   UNL A   1      41.218  24.204  27.977  1.00  0.00     0.029 A 
ATOM     54  N   UNL A   1      41.935  25.720  26.589  1.00  0.00    -0.354 N 
ATOM     55  N   UNL A   1      42.537  29.866  27.760  1.00  0.00    -0.248 NA
ATOM     56  C   UNL A   1      44.485  29.100  26.732  1.00  0.00     0.031 C 
ATOM     57  C   UNL A   1      40.427  25.392  28.095  1.00  0.00     0.029 A 
ATOM     58  C   UNL A   1      41.131  26.411  27.458  1.00  0.00     0.049 A 
ATOM     59  H   UNL A   1      42.184  25.991  25.676  1.00  0.00     0.167 HD
ATOM     60  C   UNL A   1      42.310  28.575  27.282  1.00  0.00     0.074 A 
ATOM     61  C   UNL A   1      43.543  28.173  26.633  1.00  0.00     0.031 C 
ATOM     62  C   UNL A   1      41.203  27.845  27.605  1.00  0.00     0.037 A 
BRANCH  49  63
ATOM     63  C   UNL A   1      43.940  23.175  25.948  1.00  0.00     0.057 A 
ATOM     64  C   UNL A   1      44.677  23.525  24.817  1.00  0.00     0.134 A 
ATOM     65  C   UNL A   1      43.690  21.815  26.177  1.00  0.00     0.134 A 
ATOM     66  F   UNL A   1      44.961  24.809  24.557  1.00  0.00    -0.206 F 
ATOM     67  C   UNL A   1      45.191  22.542  23.966  1.00  0.00     0.040 A 
ATOM     68  C   UNL A   1      44.207  20.827  25.344  1.00  0.00     0.040 A 
ATOM     69  F   UNL A   1      42.999  21.431  27.264  1.00  0.00    -0.206 F 
ATOM     70  C   UNL A   1      44.975  21.191  24.242  1.00  0.00     0.006 A 
ENDBRANCH  49  63
BRANCH  50  71
ATOM     71  C   UNL A   1      45.783  31.806  27.768  1.00  0.00     0.057 A 
ATOM     72  C   UNL A   1      47.040  31.286  27.425  1.00  0.00     0.134 A 
ATOM     73  C   UNL A   1      45.576  33.157  27.438  1.00  0.00     0.134 A 
ATOM     74  F   UNL A   1      47.318  29.983  27.559  1.00  0.00    -0.206 F 
ATOM     75  C   UNL A   1      48.072  32.090  26.922  1.00  0.00     0.040 A 
ATOM     76  C   UNL A   1      46.590  33.967  26.911  1.00  0.00     0.040 A 
ATOM     77  F   UNL A   1      44.371  33.722  27.603  1.00  0.00    -0.206 F 
ATOM     78  C   UNL A   1      47.853  33.440  26.680  1.00  0.00     0.006 A 
ENDBRANCH  50  71
BRANCH  62  79
ATOM     79  C   UNL A   1      40.177  28.582  28.400  1.00  0.00     0.057 A 
ATOM     80  C   UNL A   1      39.180  29.353  27.788  1.00  0.00     0.134 A 
ATOM     81  C   UNL A   1      40.161  28.497  29.796  1.00  0.00     0.134 A 
ATOM     82  F   UNL A   1      39.114  29.466  26.452  1.00  0.00    -0.206 F 
ATOM     83  C   UNL A   1      38.221  30.035  28.539  1.00  0.00     0.040 A 
ATOM     84  C   UNL A   1      39.189  29.151  30.556  1.00  0.00     0.040 A 
ATOM     85  F   UNL A   1      41.093  27.780  30.446  1.00  0.00    -0.206 F 
ATOM     86  C   UNL A   1      38.219  29.929  29.927  1.00  0.00     0.006 A 
ENDBRANCH  62  79
ENDBRANCH  36  37
ENDBRANCH  28  31
ENDBRANCH  26  27
ENDBRANCH   1  26
TORSDOF 12
ENDMDL
