MODEL 1
REMARK VINA RESULT:     -11.4      0.000      0.000
REMARK SMILES COc1cccc(OC)c1[C@@H](C(=O)NCCCCNC(=O)c1ccc(-c2c3nc(c(-c4c(F)cccc4F)c4ccc([nH]4)c(-c4c(F)cccc4F)c4nc(c(-c5c(F)cccc5F)c5ccc2[nH]5)C=C4)C=C3)cc1)[N@@H+](C)Cc1c(C)n[nH]c1C
REMARK SMILES IDX 16 1 15 2 14 3 12 4 13 5 11 7 10 8 3 9 4 10 5 11 7 12 6 13
REMARK SMILES IDX 2 14 1 15 8 16 9 17 76 18 77 19 78 21 79 22 80 23 84 24
REMARK SMILES IDX 81 25 82 26 83 27 85 28 17 30 18 31 19 32 20 33 21 35 22 36
REMARK SMILES IDX 23 37 75 38 24 39 74 40 25 41 26 42 27 43 68 44 28 45 73 46
REMARK SMILES IDX 67 47 69 48 29 49 72 50 66 51 65 52 30 54 56 55 39 56 55 57
REMARK SMILES IDX 40 58 43 59 54 60 70 61 41 62 42 63 53 65 71 66 44 67 31 68
REMARK SMILES IDX 32 69 37 70 33 71 34 72 36 73 38 74 35 75 57 76 58 77 63 78
REMARK SMILES IDX 59 79 60 80 62 81 64 82 61 83 45 84 46 85 51 86 47 87 48 88
REMARK SMILES IDX 50 89 52 90 49 91
REMARK H PARENT 14 6 76 20 83 29 19 34 69 53 43 64
REMARK Flexibility Score: inf
ROOT
ATOM      1  C   UNL A   1      36.430  20.947  24.969  1.00  0.00     0.023 C 
ENDROOT
BRANCH   1   2
ATOM      2  C   UNL A   1      36.503  22.446  24.732  1.00  0.00     0.116 C 
BRANCH   2   3
ATOM      3  N   UNL A   1      35.616  23.203  25.577  1.00  0.00    -0.351 N 
ATOM      4  C   UNL A   1      34.441  23.844  25.359  1.00  0.00     0.283 C 
ATOM      5  O   UNL A   1      33.767  23.891  26.403  1.00  0.00    -0.268 OA
ATOM      6  H   UNL A   1      35.929  23.270  26.508  1.00  0.00     0.163 HD
BRANCH   4   7
ATOM      7  C   UNL A   1      33.872  24.377  23.998  1.00  0.00     0.313 C 
BRANCH   7   8
ATOM      8  C   UNL A   1      33.763  25.908  23.717  1.00  0.00     0.103 A 
ATOM      9  C   UNL A   1      33.662  26.357  22.369  1.00  0.00     0.132 A 
ATOM     10  C   UNL A   1      33.767  27.710  22.008  1.00  0.00     0.047 A 
ATOM     11  C   UNL A   1      33.851  28.687  22.983  1.00  0.00     0.008 A 
ATOM     12  C   UNL A   1      33.765  26.944  24.683  1.00  0.00     0.132 A 
ATOM     13  C   UNL A   1      33.794  28.305  24.314  1.00  0.00     0.047 A 
BRANCH   9  14
ATOM     14  O   UNL A   1      33.621  25.491  21.299  1.00  0.00    -0.496 OA
ATOM     15  C   UNL A   1      32.473  25.664  20.473  1.00  0.00     0.278 C 
ENDBRANCH   9  14
BRANCH  12  16
ATOM     16  O   UNL A   1      33.525  26.655  25.987  1.00  0.00    -0.496 OA
ATOM     17  C   UNL A   1      32.977  27.655  26.837  1.00  0.00     0.278 C 
ENDBRANCH  12  16
ENDBRANCH   7   8
BRANCH   7  18
ATOM     18  N   UNL A   1      32.814  23.473  23.423  1.00  0.00    -0.319 N 
ATOM     19  C   UNL A   1      33.063  22.053  23.697  1.00  0.00     0.333 C 
ATOM     20  H   UNL A   1      32.976  23.728  22.449  1.00  0.00     0.349 HD
BRANCH  18  21
ATOM     21  C   UNL A   1      31.376  23.768  23.521  1.00  0.00     0.303 C 
BRANCH  21  22
ATOM     22  C   UNL A   1      30.800  24.455  24.729  1.00  0.00     0.050 A 
ATOM     23  C   UNL A   1      30.446  23.779  25.944  1.00  0.00     0.068 A 
ATOM     24  C   UNL A   1      30.279  25.733  24.920  1.00  0.00     0.041 A 
ATOM     25  C   UNL A   1      30.594  22.336  26.264  1.00  0.00     0.069 C 
ATOM     26  N   UNL A   1      29.844  24.582  26.826  1.00  0.00    -0.180 NA
ATOM     27  N   UNL A   1      29.809  25.760  26.206  1.00  0.00    -0.282 N 
ATOM     28  C   UNL A   1      30.138  26.953  24.093  1.00  0.00     0.066 C 
ATOM     29  H   UNL A   1      29.475  26.581  26.635  1.00  0.00     0.190 HD
ENDBRANCH  21  22
ENDBRANCH  18  21
ENDBRANCH   7  18
ENDBRANCH   4   7
ENDBRANCH   2   3
ENDBRANCH   1   2
BRANCH   1  30
ATOM     30  C   UNL A   1      37.749  20.215  24.719  1.00  0.00     0.023 C 
BRANCH  30  31
ATOM     31  C   UNL A   1      38.831  20.442  25.770  1.00  0.00     0.116 C 
BRANCH  31  32
ATOM     32  N   UNL A   1      39.884  19.439  25.737  1.00  0.00    -0.352 N 
ATOM     33  C   UNL A   1      41.213  19.567  26.069  1.00  0.00     0.251 C 
ATOM     34  H   UNL A   1      39.606  18.544  25.434  1.00  0.00     0.163 HD
ATOM     35  O   UNL A   1      41.991  18.650  25.882  1.00  0.00    -0.269 OA
BRANCH  33  36
ATOM     36  C   UNL A   1      41.693  20.853  26.620  1.00  0.00     0.039 A 
ATOM     37  C   UNL A   1      42.251  21.787  25.745  1.00  0.00     0.014 A 
ATOM     38  C   UNL A   1      41.559  21.145  27.980  1.00  0.00     0.014 A 
ATOM     39  C   UNL A   1      42.613  23.046  26.224  1.00  0.00     0.010 A 
ATOM     40  C   UNL A   1      41.849  22.425  28.439  1.00  0.00     0.010 A 
ATOM     41  C   UNL A   1      42.377  23.389  27.566  1.00  0.00    -0.014 A 
BRANCH  41  42
ATOM     42  C   UNL A   1      42.670  24.753  28.070  1.00  0.00     0.031 A 
ATOM     43  C   UNL A   1      44.068  25.123  28.479  1.00  0.00     0.074 A 
ATOM     44  C   UNL A   1      41.666  25.638  28.219  1.00  0.00     0.049 A 
ATOM     45  N   UNL A   1      44.509  26.240  28.999  1.00  0.00    -0.248 NA
ATOM     46  C   UNL A   1      45.103  24.091  28.306  1.00  0.00     0.031 C 
ATOM     47  C   UNL A   1      40.258  25.383  27.904  1.00  0.00     0.029 A 
ATOM     48  N   UNL A   1      41.673  26.929  28.682  1.00  0.00    -0.354 N 
ATOM     49  C   UNL A   1      45.866  26.042  29.224  1.00  0.00     0.074 A 
ATOM     50  C   UNL A   1      46.164  24.680  28.839  1.00  0.00     0.031 C 
ATOM     51  C   UNL A   1      39.543  26.490  28.161  1.00  0.00     0.029 A 
ATOM     52  C   UNL A   1      40.431  27.517  28.695  1.00  0.00     0.049 A 
ATOM     53  H   UNL A   1      42.490  27.392  28.978  1.00  0.00     0.167 HD
ATOM     54  C   UNL A   1      46.783  26.923  29.687  1.00  0.00     0.037 A 
ATOM     55  C   UNL A   1      40.050  28.744  29.099  1.00  0.00     0.037 A 
ATOM     56  C   UNL A   1      46.487  28.284  30.052  1.00  0.00     0.049 A 
ATOM     57  C   UNL A   1      41.087  29.700  29.620  1.00  0.00     0.074 A 
ATOM     58  C   UNL A   1      47.358  29.271  30.479  1.00  0.00     0.029 A 
ATOM     59  N   UNL A   1      45.219  28.846  30.037  1.00  0.00    -0.354 N 
ATOM     60  N   UNL A   1      42.378  29.523  29.763  1.00  0.00    -0.248 NA
ATOM     61  C   UNL A   1      40.615  31.030  30.031  1.00  0.00     0.031 C 
ATOM     62  C   UNL A   1      46.610  30.417  30.767  1.00  0.00     0.029 A 
ATOM     63  C   UNL A   1      45.281  30.161  30.470  1.00  0.00     0.049 A 
ATOM     64  H   UNL A   1      44.397  28.381  29.761  1.00  0.00     0.167 HD
ATOM     65  C   UNL A   1      42.877  30.724  30.250  1.00  0.00     0.074 A 
ATOM     66  C   UNL A   1      41.750  31.627  30.366  1.00  0.00     0.031 C 
ATOM     67  C   UNL A   1      44.152  31.050  30.573  1.00  0.00     0.037 A 
BRANCH  54  68
ATOM     68  C   UNL A   1      48.199  26.439  29.823  1.00  0.00     0.057 A 
ATOM     69  C   UNL A   1      49.132  26.586  28.787  1.00  0.00     0.134 A 
ATOM     70  C   UNL A   1      48.643  25.849  31.012  1.00  0.00     0.134 A 
ATOM     71  F   UNL A   1      48.769  27.132  27.617  1.00  0.00    -0.206 F 
ATOM     72  C   UNL A   1      50.447  26.137  28.920  1.00  0.00     0.040 A 
ATOM     73  C   UNL A   1      49.964  25.423  31.168  1.00  0.00     0.040 A 
ATOM     74  F   UNL A   1      47.804  25.684  32.047  1.00  0.00    -0.206 F 
ATOM     75  C   UNL A   1      50.868  25.561  30.116  1.00  0.00     0.006 A 
ENDBRANCH  54  68
BRANCH  55  76
ATOM     76  C   UNL A   1      38.624  29.147  29.007  1.00  0.00     0.057 A 
ATOM     77  C   UNL A   1      37.775  29.057  30.118  1.00  0.00     0.134 A 
ATOM     78  C   UNL A   1      38.072  29.623  27.812  1.00  0.00     0.134 A 
ATOM     79  F   UNL A   1      38.240  28.592  31.287  1.00  0.00    -0.206 F 
ATOM     80  C   UNL A   1      36.426  29.406  30.037  1.00  0.00     0.040 A 
ATOM     81  C   UNL A   1      36.731  30.000  27.724  1.00  0.00     0.040 A 
ATOM     82  F   UNL A   1      38.834  29.741  26.714  1.00  0.00    -0.206 F 
ATOM     83  C   UNL A   1      35.902  29.884  28.838  1.00  0.00     0.006 A 
ENDBRANCH  55  76
BRANCH  67  84
ATOM     84  C   UNL A   1      44.405  32.452  31.046  1.00  0.00     0.057 A 
ATOM     85  C   UNL A   1      44.396  32.789  32.404  1.00  0.00     0.134 A 
ATOM     86  C   UNL A   1      44.701  33.469  30.129  1.00  0.00     0.134 A 
ATOM     87  F   UNL A   1      44.106  31.865  33.333  1.00  0.00    -0.206 F 
ATOM     88  C   UNL A   1      44.649  34.093  32.833  1.00  0.00     0.040 A 
ATOM     89  C   UNL A   1      44.985  34.770  30.546  1.00  0.00     0.040 A 
ATOM     90  F   UNL A   1      44.736  33.211  28.812  1.00  0.00    -0.206 F 
ATOM     91  C   UNL A   1      44.953  35.086  31.903  1.00  0.00     0.006 A 
ENDBRANCH  67  84
ENDBRANCH  41  42
ENDBRANCH  33  36
ENDBRANCH  31  32
ENDBRANCH  30  31
ENDBRANCH   1  30
TORSDOF 17
ENDMDL
MODEL 2
REMARK VINA RESULT:     -11.4      2.051      3.605
REMARK SMILES COc1cccc(OC)c1[C@@H](C(=O)NCCCCNC(=O)c1ccc(-c2c3nc(c(-c4c(F)cccc4F)c4ccc([nH]4)c(-c4c(F)cccc4F)c4nc(c(-c5c(F)cccc5F)c5ccc2[nH]5)C=C4)C=C3)cc1)[N@@H+](C)Cc1c(C)n[nH]c1C
REMARK SMILES IDX 16 1 15 2 14 3 12 4 13 5 11 7 10 8 3 9 4 10 5 11 7 12 6 13
REMARK SMILES IDX 2 14 1 15 8 16 9 17 76 18 77 19 78 21 79 22 80 23 84 24
REMARK SMILES IDX 81 25 82 26 83 27 85 28 17 30 18 31 19 32 20 33 21 35 22 36
REMARK SMILES IDX 23 37 75 38 24 39 74 40 25 41 26 42 27 43 68 44 28 45 73 46
REMARK SMILES IDX 67 47 69 48 29 49 72 50 66 51 65 52 30 54 56 55 39 56 55 57
REMARK SMILES IDX 40 58 43 59 54 60 70 61 41 62 42 63 53 65 71 66 44 67 31 68
REMARK SMILES IDX 32 69 37 70 33 71 34 72 36 73 38 74 35 75 57 76 58 77 63 78
REMARK SMILES IDX 59 79 60 80 62 81 64 82 61 83 45 84 46 85 51 86 47 87 48 88
REMARK SMILES IDX 50 89 52 90 49 91
REMARK H PARENT 14 6 76 20 83 29 19 34 69 53 43 64
REMARK Flexibility Score: inf
ROOT
ATOM      1  C   UNL A   1      37.094  20.984  24.719  1.00  0.00     0.023 C 
ENDROOT
BRANCH   1   2
ATOM      2  C   UNL A   1      35.640  20.647  25.001  1.00  0.00     0.116 C 
BRANCH   2   3
ATOM      3  N   UNL A   1      35.127  21.269  26.194  1.00  0.00    -0.351 N 
ATOM      4  C   UNL A   1      33.879  21.434  26.697  1.00  0.00     0.283 C 
ATOM      5  O   UNL A   1      33.914  21.519  27.937  1.00  0.00    -0.268 OA
ATOM      6  H   UNL A   1      35.831  21.656  26.764  1.00  0.00     0.163 HD
BRANCH   4   7
ATOM      7  C   UNL A   1      32.516  21.412  25.922  1.00  0.00     0.313 C 
BRANCH   7   8
ATOM      8  C   UNL A   1      32.349  20.581  24.612  1.00  0.00     0.103 A 
ATOM      9  C   UNL A   1      32.394  19.159  24.685  1.00  0.00     0.132 A 
ATOM     10  C   UNL A   1      32.460  18.341  23.546  1.00  0.00     0.047 A 
ATOM     11  C   UNL A   1      32.357  18.894  22.283  1.00  0.00     0.008 A 
ATOM     12  C   UNL A   1      32.163  21.096  23.305  1.00  0.00     0.132 A 
ATOM     13  C   UNL A   1      32.154  20.261  22.170  1.00  0.00     0.047 A 
BRANCH   9  14
ATOM     14  O   UNL A   1      32.545  18.482  25.875  1.00  0.00    -0.496 OA
ATOM     15  C   UNL A   1      32.665  17.072  25.712  1.00  0.00     0.278 C 
ENDBRANCH   9  14
BRANCH  12  16
ATOM     16  O   UNL A   1      31.776  22.386  23.135  1.00  0.00    -0.496 OA
ATOM     17  C   UNL A   1      32.697  23.331  22.605  1.00  0.00     0.278 C 
ENDBRANCH  12  16
ENDBRANCH   7   8
BRANCH   7  18
ATOM     18  N   UNL A   1      31.767  22.713  26.037  1.00  0.00    -0.319 N 
ATOM     19  C   UNL A   1      30.360  22.533  26.418  1.00  0.00     0.333 C 
ATOM     20  H   UNL A   1      31.886  22.990  25.063  1.00  0.00     0.349 HD
BRANCH  18  21
ATOM     21  C   UNL A   1      32.329  23.898  26.702  1.00  0.00     0.303 C 
BRANCH  21  22
ATOM     22  C   UNL A   1      32.887  25.048  25.908  1.00  0.00     0.050 A 
ATOM     23  C   UNL A   1      32.099  26.145  25.422  1.00  0.00     0.068 A 
ATOM     24  C   UNL A   1      34.115  25.244  25.280  1.00  0.00     0.041 A 
ATOM     25  C   UNL A   1      30.646  26.384  25.616  1.00  0.00     0.069 C 
ATOM     26  N   UNL A   1      32.797  26.978  24.644  1.00  0.00    -0.180 NA
ATOM     27  N   UNL A   1      34.017  26.441  24.624  1.00  0.00    -0.282 N 
ATOM     28  C   UNL A   1      35.386  24.491  25.184  1.00  0.00     0.066 C 
ATOM     29  H   UNL A   1      34.781  26.869  24.175  1.00  0.00     0.190 HD
ENDBRANCH  21  22
ENDBRANCH  18  21
ENDBRANCH   7  18
ENDBRANCH   4   7
ENDBRANCH   2   3
ENDBRANCH   1   2
BRANCH   1  30
ATOM     30  C   UNL A   1      38.057  19.820  24.953  1.00  0.00     0.023 C 
BRANCH  30  31
ATOM     31  C   UNL A   1      39.212  20.109  25.906  1.00  0.00     0.116 C 
BRANCH  31  32
ATOM     32  N   UNL A   1      40.231  19.071  25.905  1.00  0.00    -0.352 N 
ATOM     33  C   UNL A   1      41.589  19.190  26.092  1.00  0.00     0.251 C 
ATOM     34  H   UNL A   1      39.902  18.155  25.750  1.00  0.00     0.163 HD
ATOM     35  O   UNL A   1      42.322  18.228  25.954  1.00  0.00    -0.269 OA
BRANCH  33  36
ATOM     36  C   UNL A   1      42.153  20.517  26.423  1.00  0.00     0.039 A 
ATOM     37  C   UNL A   1      42.523  21.364  25.377  1.00  0.00     0.014 A 
ATOM     38  C   UNL A   1      42.279  20.931  27.751  1.00  0.00     0.014 A 
ATOM     39  C   UNL A   1      42.957  22.658  25.663  1.00  0.00     0.010 A 
ATOM     40  C   UNL A   1      42.638  22.246  28.029  1.00  0.00     0.010 A 
ATOM     41  C   UNL A   1      42.979  23.123  26.988  1.00  0.00    -0.014 A 
BRANCH  41  42
ATOM     42  C   UNL A   1      43.350  24.525  27.302  1.00  0.00     0.031 A 
ATOM     43  C   UNL A   1      44.787  24.960  27.231  1.00  0.00     0.074 A 
ATOM     44  C   UNL A   1      42.401  25.388  27.713  1.00  0.00     0.049 A 
ATOM     45  N   UNL A   1      45.314  26.121  27.526  1.00  0.00    -0.248 NA
ATOM     46  C   UNL A   1      45.764  23.950  26.795  1.00  0.00     0.031 C 
ATOM     47  C   UNL A   1      40.980  25.073  27.871  1.00  0.00     0.029 A 
ATOM     48  N   UNL A   1      42.491  26.706  28.082  1.00  0.00    -0.354 N 
ATOM     49  C   UNL A   1      46.681  25.978  27.323  1.00  0.00     0.074 A 
ATOM     50  C   UNL A   1      46.908  24.602  26.935  1.00  0.00     0.031 C 
ATOM     51  C   UNL A   1      40.328  26.173  28.281  1.00  0.00     0.029 A 
ATOM     52  C   UNL A   1      41.289  27.258  28.454  1.00  0.00     0.049 A 
ATOM     53  H   UNL A   1      43.337  27.210  28.081  1.00  0.00     0.167 HD
ATOM     54  C   UNL A   1      47.654  26.912  27.427  1.00  0.00     0.037 A 
ATOM     55  C   UNL A   1      40.995  28.497  28.893  1.00  0.00     0.037 A 
ATOM     56  C   UNL A   1      47.421  28.285  27.794  1.00  0.00     0.049 A 
ATOM     57  C   UNL A   1      42.095  29.514  29.010  1.00  0.00     0.074 A 
ATOM     58  C   UNL A   1      48.334  29.322  27.873  1.00  0.00     0.029 A 
ATOM     59  N   UNL A   1      46.187  28.808  28.150  1.00  0.00    -0.354 N 
ATOM     60  N   UNL A   1      43.374  29.384  28.748  1.00  0.00    -0.248 NA
ATOM     61  C   UNL A   1      41.713  30.853  29.479  1.00  0.00     0.031 C 
ATOM     62  C   UNL A   1      47.660  30.462  28.322  1.00  0.00     0.029 A 
ATOM     63  C   UNL A   1      46.319  30.150  28.471  1.00  0.00     0.049 A 
ATOM     64  H   UNL A   1      45.344  28.302  28.171  1.00  0.00     0.167 HD
ATOM     65  C   UNL A   1      43.942  30.627  28.991  1.00  0.00     0.074 A 
ATOM     66  C   UNL A   1      42.865  31.503  29.407  1.00  0.00     0.031 C 
ATOM     67  C   UNL A   1      45.237  31.010  28.878  1.00  0.00     0.037 A 
BRANCH  54  68
ATOM     68  C   UNL A   1      49.062  26.480  27.135  1.00  0.00     0.057 A 
ATOM     69  C   UNL A   1      49.607  26.558  25.846  1.00  0.00     0.134 A 
ATOM     70  C   UNL A   1      49.894  26.009  28.159  1.00  0.00     0.134 A 
ATOM     71  F   UNL A   1      48.862  26.988  24.817  1.00  0.00    -0.206 F 
ATOM     72  C   UNL A   1      50.918  26.157  25.582  1.00  0.00     0.040 A 
ATOM     73  C   UNL A   1      51.215  25.633  27.913  1.00  0.00     0.040 A 
ATOM     74  F   UNL A   1      49.438  25.915  29.418  1.00  0.00    -0.206 F 
ATOM     75  C   UNL A   1      51.728  25.700  26.619  1.00  0.00     0.006 A 
ENDBRANCH  54  68
BRANCH  55  76
ATOM     76  C   UNL A   1      39.594  28.851  29.234  1.00  0.00     0.057 A 
ATOM     77  C   UNL A   1      39.094  28.657  30.527  1.00  0.00     0.134 A 
ATOM     78  C   UNL A   1      38.720  29.384  28.278  1.00  0.00     0.134 A 
ATOM     79  F   UNL A   1      39.878  28.134  31.482  1.00  0.00    -0.206 F 
ATOM     80  C   UNL A   1      37.771  28.960  30.853  1.00  0.00     0.040 A 
ATOM     81  C   UNL A   1      37.402  29.716  28.597  1.00  0.00     0.040 A 
ATOM     82  F   UNL A   1      39.140  29.602  27.023  1.00  0.00    -0.206 F 
ATOM     83  C   UNL A   1      36.923  29.496  29.887  1.00  0.00     0.006 A 
ENDBRANCH  55  76
BRANCH  67  84
ATOM     84  C   UNL A   1      45.558  32.447  29.173  1.00  0.00     0.057 A 
ATOM     85  C   UNL A   1      45.474  33.442  28.192  1.00  0.00     0.134 A 
ATOM     86  C   UNL A   1      45.915  32.844  30.468  1.00  0.00     0.134 A 
ATOM     87  F   UNL A   1      45.149  33.126  26.929  1.00  0.00    -0.206 F 
ATOM     88  C   UNL A   1      45.757  34.777  28.482  1.00  0.00     0.040 A 
ATOM     89  C   UNL A   1      46.173  34.180  30.778  1.00  0.00     0.040 A 
ATOM     90  F   UNL A   1      46.005  31.941  31.458  1.00  0.00    -0.206 F 
ATOM     91  C   UNL A   1      46.101  35.150  29.781  1.00  0.00     0.006 A 
ENDBRANCH  67  84
ENDBRANCH  41  42
ENDBRANCH  33  36
ENDBRANCH  31  32
ENDBRANCH  30  31
ENDBRANCH   1  30
TORSDOF 17
ENDMDL
MODEL 3
REMARK VINA RESULT:     -11.4      4.378      8.910
REMARK SMILES COc1cccc(OC)c1[C@@H](C(=O)NCCCCNC(=O)c1ccc(-c2c3nc(c(-c4c(F)cccc4F)c4ccc([nH]4)c(-c4c(F)cccc4F)c4nc(c(-c5c(F)cccc5F)c5ccc2[nH]5)C=C4)C=C3)cc1)[N@@H+](C)Cc1c(C)n[nH]c1C
REMARK SMILES IDX 16 1 15 2 14 3 12 4 13 5 11 7 10 8 3 9 4 10 5 11 7 12 6 13
REMARK SMILES IDX 2 14 1 15 8 16 9 17 76 18 77 19 78 21 79 22 80 23 84 24
REMARK SMILES IDX 81 25 82 26 83 27 85 28 17 30 18 31 19 32 20 33 21 35 22 36
REMARK SMILES IDX 23 37 75 38 24 39 74 40 25 41 26 42 27 43 68 44 28 45 73 46
REMARK SMILES IDX 67 47 69 48 29 49 72 50 66 51 65 52 30 54 56 55 39 56 55 57
REMARK SMILES IDX 40 58 43 59 54 60 70 61 41 62 42 63 53 65 71 66 44 67 31 68
REMARK SMILES IDX 32 69 37 70 33 71 34 72 36 73 38 74 35 75 57 76 58 77 63 78
REMARK SMILES IDX 59 79 60 80 62 81 64 82 61 83 45 84 46 85 51 86 47 87 48 88
REMARK SMILES IDX 50 89 52 90 49 91
REMARK H PARENT 14 6 76 20 83 29 19 34 69 53 43 64
REMARK Flexibility Score: inf
ROOT
ATOM      1  C   UNL A   1      31.892  30.494  26.599  1.00  0.00     0.023 C 
ENDROOT
BRANCH   1   2
ATOM      2  C   UNL A   1      31.463  29.915  25.261  1.00  0.00     0.116 C 
BRANCH   2   3
ATOM      3  N   UNL A   1      32.569  29.543  24.417  1.00  0.00    -0.351 N 
ATOM      4  C   UNL A   1      32.660  28.881  23.237  1.00  0.00     0.283 C 
ATOM      5  O   UNL A   1      33.671  29.239  22.609  1.00  0.00    -0.268 OA
ATOM      6  H   UNL A   1      33.442  29.830  24.770  1.00  0.00     0.163 HD
BRANCH   4   7
ATOM      7  C   UNL A   1      31.627  27.879  22.612  1.00  0.00     0.313 C 
BRANCH   7   8
ATOM      8  C   UNL A   1      30.106  27.983  22.940  1.00  0.00     0.103 A 
ATOM      9  C   UNL A   1      29.498  26.968  23.734  1.00  0.00     0.132 A 
ATOM     10  C   UNL A   1      28.109  26.867  23.907  1.00  0.00     0.047 A 
ATOM     11  C   UNL A   1      27.271  27.845  23.403  1.00  0.00     0.008 A 
ATOM     12  C   UNL A   1      29.220  29.004  22.515  1.00  0.00     0.132 A 
ATOM     13  C   UNL A   1      27.834  28.936  22.759  1.00  0.00     0.047 A 
BRANCH   9  14
ATOM     14  O   UNL A   1      30.209  25.910  24.255  1.00  0.00    -0.496 OA
ATOM     15  C   UNL A   1      30.049  25.759  25.663  1.00  0.00     0.278 C 
ENDBRANCH   9  14
BRANCH  12  16
ATOM     16  O   UNL A   1      29.715  30.178  22.047  1.00  0.00    -0.496 OA
ATOM     17  C   UNL A   1      28.822  31.171  21.558  1.00  0.00     0.278 C 
ENDBRANCH  12  16
ENDBRANCH   7   8
BRANCH   7  18
ATOM     18  N   UNL A   1      32.214  26.509  22.393  1.00  0.00    -0.319 N 
ATOM     19  C   UNL A   1      31.989  26.000  21.035  1.00  0.00     0.333 C 
ATOM     20  H   UNL A   1      31.646  26.038  23.097  1.00  0.00     0.349 HD
BRANCH  18  21
ATOM     21  C   UNL A   1      33.555  26.134  22.865  1.00  0.00     0.303 C 
BRANCH  21  22
ATOM     22  C   UNL A   1      33.743  25.290  24.096  1.00  0.00     0.050 A 
ATOM     23  C   UNL A   1      33.741  23.854  24.093  1.00  0.00     0.068 A 
ATOM     24  C   UNL A   1      33.729  25.598  25.454  1.00  0.00     0.041 A 
ATOM     25  C   UNL A   1      33.593  22.942  22.930  1.00  0.00     0.069 C 
ATOM     26  N   UNL A   1      33.806  23.335  25.322  1.00  0.00    -0.180 NA
ATOM     27  N   UNL A   1      33.854  24.405  26.114  1.00  0.00    -0.282 N 
ATOM     28  C   UNL A   1      33.613  26.838  26.256  1.00  0.00     0.066 C 
ATOM     29  H   UNL A   1      33.971  24.344  27.089  1.00  0.00     0.190 HD
ENDBRANCH  21  22
ENDBRANCH  18  21
ENDBRANCH   7  18
ENDBRANCH   4   7
ENDBRANCH   2   3
ENDBRANCH   1   2
BRANCH   1  30
ATOM     30  C   UNL A   1      31.619  31.991  26.742  1.00  0.00     0.023 C 
BRANCH  30  31
ATOM     31  C   UNL A   1      32.794  32.823  27.250  1.00  0.00     0.116 C 
BRANCH  31  32
ATOM     32  N   UNL A   1      32.424  34.185  27.600  1.00  0.00    -0.352 N 
ATOM     33  C   UNL A   1      32.975  35.015  28.549  1.00  0.00     0.251 C 
ATOM     34  H   UNL A   1      31.675  34.566  27.087  1.00  0.00     0.163 HD
ATOM     35  O   UNL A   1      32.475  36.098  28.794  1.00  0.00    -0.269 OA
BRANCH  33  36
ATOM     36  C   UNL A   1      34.163  34.554  29.301  1.00  0.00     0.039 A 
ATOM     37  C   UNL A   1      33.976  33.989  30.563  1.00  0.00     0.014 A 
ATOM     38  C   UNL A   1      35.443  34.647  28.747  1.00  0.00     0.014 A 
ATOM     39  C   UNL A   1      35.069  33.452  31.244  1.00  0.00     0.010 A 
ATOM     40  C   UNL A   1      36.516  34.043  29.393  1.00  0.00     0.010 A 
ATOM     41  C   UNL A   1      36.340  33.438  30.647  1.00  0.00    -0.014 A 
BRANCH  41  42
ATOM     42  C   UNL A   1      37.494  32.789  31.317  1.00  0.00     0.031 A 
ATOM     43  C   UNL A   1      38.152  31.590  30.694  1.00  0.00     0.074 A 
ATOM     44  C   UNL A   1      37.908  33.241  32.516  1.00  0.00     0.049 A 
ATOM     45  N   UNL A   1      39.129  30.852  31.156  1.00  0.00    -0.248 NA
ATOM     46  C   UNL A   1      37.625  31.146  29.394  1.00  0.00     0.031 C 
ATOM     47  C   UNL A   1      37.319  34.366  33.247  1.00  0.00     0.029 A 
ATOM     48  N   UNL A   1      38.915  32.804  33.337  1.00  0.00    -0.354 N 
ATOM     49  C   UNL A   1      39.325  29.852  30.210  1.00  0.00     0.074 A 
ATOM     50  C   UNL A   1      38.329  30.045  29.179  1.00  0.00     0.031 C 
ATOM     51  C   UNL A   1      37.991  34.544  34.395  1.00  0.00     0.029 A 
ATOM     52  C   UNL A   1      39.030  33.525  34.502  1.00  0.00     0.049 A 
ATOM     53  H   UNL A   1      39.502  32.045  33.115  1.00  0.00     0.167 HD
ATOM     54  C   UNL A   1      40.265  28.878  30.192  1.00  0.00     0.037 A 
ATOM     55  C   UNL A   1      39.872  33.376  35.542  1.00  0.00     0.037 A 
ATOM     56  C   UNL A   1      41.266  28.702  31.211  1.00  0.00     0.049 A 
ATOM     57  C   UNL A   1      40.899  32.279  35.503  1.00  0.00     0.074 A 
ATOM     58  C   UNL A   1      42.297  27.779  31.255  1.00  0.00     0.029 A 
ATOM     59  N   UNL A   1      41.358  29.461  32.368  1.00  0.00    -0.354 N 
ATOM     60  N   UNL A   1      41.119  31.384  34.570  1.00  0.00    -0.248 NA
ATOM     61  C   UNL A   1      41.801  32.174  36.658  1.00  0.00     0.031 C 
ATOM     62  C   UNL A   1      42.984  27.950  32.461  1.00  0.00     0.029 A 
ATOM     63  C   UNL A   1      42.415  29.013  33.144  1.00  0.00     0.049 A 
ATOM     64  H   UNL A   1      40.761  30.207  32.603  1.00  0.00     0.167 HD
ATOM     65  C   UNL A   1      42.199  30.631  35.010  1.00  0.00     0.074 A 
ATOM     66  C   UNL A   1      42.599  31.183  36.288  1.00  0.00     0.031 C 
ATOM     67  C   UNL A   1      42.805  29.577  34.410  1.00  0.00     0.037 A 
BRANCH  54  68
ATOM     68  C   UNL A   1      40.254  27.929  29.028  1.00  0.00     0.057 A 
ATOM     69  C   UNL A   1      40.983  28.186  27.858  1.00  0.00     0.134 A 
ATOM     70  C   UNL A   1      39.533  26.730  29.088  1.00  0.00     0.134 A 
ATOM     71  F   UNL A   1      41.686  29.321  27.730  1.00  0.00    -0.206 F 
ATOM     72  C   UNL A   1      40.971  27.298  26.781  1.00  0.00     0.040 A 
ATOM     73  C   UNL A   1      39.537  25.821  28.029  1.00  0.00     0.040 A 
ATOM     74  F   UNL A   1      38.819  26.419  30.181  1.00  0.00    -0.206 F 
ATOM     75  C   UNL A   1      40.253  26.108  26.868  1.00  0.00     0.006 A 
ENDBRANCH  54  68
BRANCH  55  76
ATOM     76  C   UNL A   1      39.794  34.301  36.700  1.00  0.00     0.057 A 
ATOM     77  C   UNL A   1      39.053  33.969  37.841  1.00  0.00     0.134 A 
ATOM     78  C   UNL A   1      40.446  35.540  36.694  1.00  0.00     0.134 A 
ATOM     79  F   UNL A   1      38.391  32.804  37.901  1.00  0.00    -0.206 F 
ATOM     80  C   UNL A   1      38.949  34.842  38.925  1.00  0.00     0.040 A 
ATOM     81  C   UNL A   1      40.372  36.412  37.782  1.00  0.00     0.040 A 
ATOM     82  F   UNL A   1      41.179  35.914  35.634  1.00  0.00    -0.206 F 
ATOM     83  C   UNL A   1      39.614  36.066  38.899  1.00  0.00     0.006 A 
ENDBRANCH  55  76
BRANCH  67  84
ATOM     84  C   UNL A   1      43.990  28.976  35.110  1.00  0.00     0.057 A 
ATOM     85  C   UNL A   1      43.853  27.939  36.041  1.00  0.00     0.134 A 
ATOM     86  C   UNL A   1      45.287  29.414  34.816  1.00  0.00     0.134 A 
ATOM     87  F   UNL A   1      42.638  27.482  36.377  1.00  0.00    -0.206 F 
ATOM     88  C   UNL A   1      44.963  27.376  36.673  1.00  0.00     0.040 A 
ATOM     89  C   UNL A   1      46.407  28.840  35.419  1.00  0.00     0.040 A 
ATOM     90  F   UNL A   1      45.489  30.398  33.925  1.00  0.00    -0.206 F 
ATOM     91  C   UNL A   1      46.245  27.822  36.356  1.00  0.00     0.006 A 
ENDBRANCH  67  84
ENDBRANCH  41  42
ENDBRANCH  33  36
ENDBRANCH  31  32
ENDBRANCH  30  31
ENDBRANCH   1  30
TORSDOF 17
ENDMDL
