MODEL 1
REMARK VINA RESULT:     -11.4      0.000      0.000
REMARK SMILES COC1CCN(c2nc(C(C)C)c(C(=O)NCCCCNC(=O)c3ccc(-c4c5nc(c(-c6c(F)cccc6F)c6ccc([nH]6)c(-c6c(F)cccc6F)c6nc(c(-c7c(F)cccc7F)c7ccc4[nH]7)C=C6)C=C5)cc3)s2)CC1
REMARK SMILES IDX 18 1 17 2 16 3 14 4 15 5 13 7 7 8 8 9 78 10 9 11 6 12 3 13
REMARK SMILES IDX 4 14 80 15 5 16 79 17 2 18 1 19 10 20 11 21 12 22 19 23
REMARK SMILES IDX 20 24 21 25 22 26 23 28 24 29 25 30 77 31 26 32 76 33 27 34
REMARK SMILES IDX 28 35 29 36 70 37 30 38 75 39 69 40 71 41 31 42 74 43 68 44
REMARK SMILES IDX 67 45 32 47 58 48 41 49 57 50 42 51 45 52 56 53 72 54 43 55
REMARK SMILES IDX 44 56 55 58 73 59 46 60 33 61 34 62 39 63 35 64 36 65 38 66
REMARK SMILES IDX 40 67 37 68 59 69 60 70 65 71 61 72 62 73 64 74 66 75 63 76
REMARK SMILES IDX 47 77 48 78 53 79 49 80 50 81 52 82 54 83 51 84
REMARK H PARENT 16 6 21 27 71 46 45 57
REMARK Flexibility Score: inf
ROOT
ATOM      1  C   UNL A   1      31.641  27.655  26.693  1.00  0.00     0.023 C 
ENDROOT
BRANCH   1   2
ATOM      2  C   UNL A   1      32.090  26.314  26.118  1.00  0.00     0.116 C 
BRANCH   2   3
ATOM      3  N   UNL A   1      31.371  25.218  26.696  1.00  0.00    -0.351 N 
ATOM      4  C   UNL A   1      31.234  23.885  26.434  1.00  0.00     0.263 C 
ATOM      5  O   UNL A   1      30.471  23.369  27.267  1.00  0.00    -0.268 OA
ATOM      6  H   UNL A   1      30.843  25.496  27.479  1.00  0.00     0.163 HD
BRANCH   4   7
ATOM      7  C   UNL A   1      31.859  23.098  25.364  1.00  0.00     0.117 A 
ATOM      8  C   UNL A   1      32.741  21.003  24.347  1.00  0.00     0.186 A 
ATOM      9  N   UNL A   1      32.886  22.016  23.539  1.00  0.00    -0.224 NA
ATOM     10  S   UNL A   1      32.090  21.425  25.858  1.00  0.00    -0.091 S 
ATOM     11  C   UNL A   1      32.325  23.192  24.045  1.00  0.00     0.069 A 
BRANCH   8  12
ATOM     12  N   UNL A   1      33.100  19.730  24.044  1.00  0.00    -0.348 N 
ATOM     13  C   UNL A   1      33.817  17.017  23.454  1.00  0.00     0.121 C 
ATOM     14  C   UNL A   1      34.732  17.941  24.264  1.00  0.00     0.053 C 
ATOM     15  C   UNL A   1      32.930  17.843  22.518  1.00  0.00     0.053 C 
ATOM     16  C   UNL A   1      33.927  19.000  25.003  1.00  0.00     0.121 C 
ATOM     17  C   UNL A   1      32.154  18.911  23.290  1.00  0.00     0.121 C 
BRANCH  13  18
ATOM     18  O   UNL A   1      32.946  16.223  24.271  1.00  0.00    -0.381 OA
ATOM     19  C   UNL A   1      33.609  15.459  25.267  1.00  0.00     0.195 C 
ENDBRANCH  13  18
ENDBRANCH   8  12
BRANCH  11  20
ATOM     20  C   UNL A   1      32.332  24.267  22.987  1.00  0.00     0.034 C 
ATOM     21  C   UNL A   1      31.016  25.044  22.933  1.00  0.00     0.014 C 
ATOM     22  C   UNL A   1      33.631  25.074  22.923  1.00  0.00     0.014 C 
ENDBRANCH  11  20
ENDBRANCH   4   7
ENDBRANCH   2   3
ENDBRANCH   1   2
BRANCH   1  23
ATOM     23  C   UNL A   1      32.515  28.836  26.290  1.00  0.00     0.023 C 
BRANCH  23  24
ATOM     24  C   UNL A   1      33.766  29.025  27.137  1.00  0.00     0.116 C 
BRANCH  24  25
ATOM     25  N   UNL A   1      33.807  30.273  27.891  1.00  0.00    -0.352 N 
ATOM     26  C   UNL A   1      34.886  30.792  28.573  1.00  0.00     0.251 C 
ATOM     27  H   UNL A   1      32.977  30.801  27.915  1.00  0.00     0.163 HD
ATOM     28  O   UNL A   1      34.805  31.836  29.209  1.00  0.00    -0.269 OA
BRANCH  26  29
ATOM     29  C   UNL A   1      36.137  30.014  28.556  1.00  0.00     0.039 A 
ATOM     30  C   UNL A   1      36.971  30.101  27.440  1.00  0.00     0.014 A 
ATOM     31  C   UNL A   1      36.554  29.364  29.721  1.00  0.00     0.014 A 
ATOM     32  C   UNL A   1      38.275  29.612  27.526  1.00  0.00     0.010 A 
ATOM     33  C   UNL A   1      37.875  28.955  29.829  1.00  0.00     0.010 A 
ATOM     34  C   UNL A   1      38.751  29.087  28.739  1.00  0.00    -0.014 A 
BRANCH  34  35
ATOM     35  C   UNL A   1      40.163  28.664  28.908  1.00  0.00     0.031 A 
ATOM     36  C   UNL A   1      41.171  29.658  29.407  1.00  0.00     0.074 A 
ATOM     37  C   UNL A   1      40.558  27.439  28.510  1.00  0.00     0.049 A 
ATOM     38  N   UNL A   1      42.475  29.566  29.452  1.00  0.00    -0.248 NA
ATOM     39  C   UNL A   1      40.643  30.949  29.875  1.00  0.00     0.031 C 
ATOM     40  C   UNL A   1      39.686  26.398  27.959  1.00  0.00     0.029 A 
ATOM     41  N   UNL A   1      41.806  26.867  28.492  1.00  0.00    -0.354 N 
ATOM     42  C   UNL A   1      42.922  30.800  29.904  1.00  0.00     0.074 A 
ATOM     43  C   UNL A   1      41.755  31.635  30.085  1.00  0.00     0.031 C 
ATOM     44  C   UNL A   1      40.423  25.311  27.677  1.00  0.00     0.029 A 
ATOM     45  C   UNL A   1      41.821  25.589  27.989  1.00  0.00     0.049 A 
ATOM     46  H   UNL A   1      42.615  27.330  28.809  1.00  0.00     0.167 HD
ATOM     47  C   UNL A   1      44.189  31.195  30.164  1.00  0.00     0.037 A 
ATOM     48  C   UNL A   1      42.850  24.742  27.796  1.00  0.00     0.037 A 
ATOM     49  C   UNL A   1      45.339  30.342  30.048  1.00  0.00     0.049 A 
ATOM     50  C   UNL A   1      44.242  25.181  28.155  1.00  0.00     0.074 A 
ATOM     51  C   UNL A   1      46.659  30.626  30.349  1.00  0.00     0.029 A 
ATOM     52  N   UNL A   1      45.301  29.027  29.611  1.00  0.00    -0.354 N 
ATOM     53  N   UNL A   1      44.647  26.339  28.619  1.00  0.00    -0.248 NA
ATOM     54  C   UNL A   1      45.319  24.198  27.970  1.00  0.00     0.031 C 
ATOM     55  C   UNL A   1      47.422  29.485  30.082  1.00  0.00     0.029 A 
ATOM     56  C   UNL A   1      46.572  28.484  29.640  1.00  0.00     0.049 A 
ATOM     57  H   UNL A   1      44.488  28.550  29.321  1.00  0.00     0.167 HD
ATOM     58  C   UNL A   1      46.017  26.213  28.811  1.00  0.00     0.074 A 
ATOM     59  C   UNL A   1      46.374  24.866  28.415  1.00  0.00     0.031 C 
ATOM     60  C   UNL A   1      46.898  27.131  29.273  1.00  0.00     0.037 A 
BRANCH  47  61
ATOM     61  C   UNL A   1      44.387  32.611  30.612  1.00  0.00     0.057 A 
ATOM     62  C   UNL A   1      44.355  32.968  31.965  1.00  0.00     0.134 A 
ATOM     63  C   UNL A   1      44.616  33.630  29.678  1.00  0.00     0.134 A 
ATOM     64  F   UNL A   1      44.120  32.041  32.907  1.00  0.00    -0.206 F 
ATOM     65  C   UNL A   1      44.514  34.293  32.374  1.00  0.00     0.040 A 
ATOM     66  C   UNL A   1      44.803  34.953  30.076  1.00  0.00     0.040 A 
ATOM     67  F   UNL A   1      44.661  33.353  28.366  1.00  0.00    -0.206 F 
ATOM     68  C   UNL A   1      44.745  35.289  31.428  1.00  0.00     0.006 A 
ENDBRANCH  47  61
BRANCH  48  69
ATOM     69  C   UNL A   1      42.603  23.377  27.268  1.00  0.00     0.057 A 
ATOM     70  C   UNL A   1      42.702  23.111  25.897  1.00  0.00     0.134 A 
ATOM     71  C   UNL A   1      42.257  22.314  28.110  1.00  0.00     0.134 A 
ATOM     72  F   UNL A   1      43.013  24.095  25.040  1.00  0.00    -0.206 F 
ATOM     73  C   UNL A   1      42.446  21.841  25.378  1.00  0.00     0.040 A 
ATOM     74  C   UNL A   1      42.017  21.035  27.606  1.00  0.00     0.040 A 
ATOM     75  F   UNL A   1      42.155  22.504  29.433  1.00  0.00    -0.206 F 
ATOM     76  C   UNL A   1      42.105  20.797  26.236  1.00  0.00     0.006 A 
ENDBRANCH  48  69
BRANCH  60  77
ATOM     77  C   UNL A   1      48.322  26.697  29.434  1.00  0.00     0.057 A 
ATOM     78  C   UNL A   1      48.769  26.049  30.591  1.00  0.00     0.134 A 
ATOM     79  C   UNL A   1      49.237  26.871  28.388  1.00  0.00     0.134 A 
ATOM     80  F   UNL A   1      47.942  25.864  31.631  1.00  0.00    -0.206 F 
ATOM     81  C   UNL A   1      50.084  25.596  30.706  1.00  0.00     0.040 A 
ATOM     82  C   UNL A   1      50.549  26.407  28.485  1.00  0.00     0.040 A 
ATOM     83  F   UNL A   1      48.864  27.480  27.252  1.00  0.00    -0.206 F 
ATOM     84  C   UNL A   1      50.975  25.767  29.647  1.00  0.00     0.006 A 
ENDBRANCH  60  77
ENDBRANCH  34  35
ENDBRANCH  26  29
ENDBRANCH  24  25
ENDBRANCH  23  24
ENDBRANCH   1  23
TORSDOF 14
ENDMDL
MODEL 2
REMARK VINA RESULT:     -11.4      4.045      5.519
REMARK SMILES COC1CCN(c2nc(C(C)C)c(C(=O)NCCCCNC(=O)c3ccc(-c4c5nc(c(-c6c(F)cccc6F)c6ccc([nH]6)c(-c6c(F)cccc6F)c6nc(c(-c7c(F)cccc7F)c7ccc4[nH]7)C=C6)C=C5)cc3)s2)CC1
REMARK SMILES IDX 18 1 17 2 16 3 14 4 15 5 13 7 7 8 8 9 78 10 9 11 6 12 3 13
REMARK SMILES IDX 4 14 80 15 5 16 79 17 2 18 1 19 10 20 11 21 12 22 19 23
REMARK SMILES IDX 20 24 21 25 22 26 23 28 24 29 25 30 77 31 26 32 76 33 27 34
REMARK SMILES IDX 28 35 29 36 70 37 30 38 75 39 69 40 71 41 31 42 74 43 68 44
REMARK SMILES IDX 67 45 32 47 58 48 41 49 57 50 42 51 45 52 56 53 72 54 43 55
REMARK SMILES IDX 44 56 55 58 73 59 46 60 33 61 34 62 39 63 35 64 36 65 38 66
REMARK SMILES IDX 40 67 37 68 59 69 60 70 65 71 61 72 62 73 64 74 66 75 63 76
REMARK SMILES IDX 47 77 48 78 53 79 49 80 50 81 52 82 54 83 51 84
REMARK H PARENT 16 6 21 27 71 46 45 57
REMARK Flexibility Score: inf
ROOT
ATOM      1  C   UNL A   1      31.694  30.109  26.265  1.00  0.00     0.023 C 
ENDROOT
BRANCH   1   2
ATOM      2  C   UNL A   1      33.184  29.809  26.134  1.00  0.00     0.116 C 
BRANCH   2   3
ATOM      3  N   UNL A   1      33.578  29.651  24.765  1.00  0.00    -0.351 N 
ATOM      4  C   UNL A   1      33.379  28.720  23.786  1.00  0.00     0.263 C 
ATOM      5  O   UNL A   1      33.954  29.075  22.745  1.00  0.00    -0.268 OA
ATOM      6  H   UNL A   1      34.132  30.402  24.452  1.00  0.00     0.163 HD
BRANCH   4   7
ATOM      7  C   UNL A   1      32.612  27.471  23.860  1.00  0.00     0.117 A 
ATOM      8  C   UNL A   1      32.363  25.007  24.129  1.00  0.00     0.186 A 
ATOM      9  N   UNL A   1      31.208  25.578  23.934  1.00  0.00    -0.224 NA
ATOM     10  S   UNL A   1      33.676  26.083  24.052  1.00  0.00    -0.091 S 
ATOM     11  C   UNL A   1      31.302  26.971  23.863  1.00  0.00     0.069 A 
BRANCH   8  12
ATOM     12  N   UNL A   1      32.529  23.677  24.341  1.00  0.00    -0.348 N 
ATOM     13  C   UNL A   1      32.847  20.854  24.730  1.00  0.00     0.121 C 
ATOM     14  C   UNL A   1      31.778  21.661  25.474  1.00  0.00     0.053 C 
ATOM     15  C   UNL A   1      34.025  21.759  24.357  1.00  0.00     0.053 C 
ATOM     16  C   UNL A   1      31.350  22.879  24.667  1.00  0.00     0.121 C 
ATOM     17  C   UNL A   1      33.555  22.982  23.568  1.00  0.00     0.121 C 
BRANCH  13  18
ATOM     18  O   UNL A   1      32.366  20.262  23.516  1.00  0.00    -0.381 OA
ATOM     19  C   UNL A   1      32.504  18.850  23.455  1.00  0.00     0.195 C 
ENDBRANCH  13  18
ENDBRANCH   8  12
BRANCH  11  20
ATOM     20  C   UNL A   1      29.923  27.584  23.853  1.00  0.00     0.034 C 
ATOM     21  C   UNL A   1      29.799  28.731  22.849  1.00  0.00     0.014 C 
ATOM     22  C   UNL A   1      28.784  26.561  23.899  1.00  0.00     0.014 C 
ENDBRANCH  11  20
ENDBRANCH   4   7
ENDBRANCH   2   3
ENDBRANCH   1   2
BRANCH   1  23
ATOM     23  C   UNL A   1      31.378  31.454  26.907  1.00  0.00     0.023 C 
BRANCH  23  24
ATOM     24  C   UNL A   1      32.260  32.607  26.446  1.00  0.00     0.116 C 
BRANCH  24  25
ATOM     25  N   UNL A   1      32.179  33.805  27.273  1.00  0.00    -0.352 N 
ATOM     26  C   UNL A   1      33.077  34.208  28.236  1.00  0.00     0.251 C 
ATOM     27  H   UNL A   1      31.399  34.388  27.128  1.00  0.00     0.163 HD
ATOM     28  O   UNL A   1      32.896  35.218  28.904  1.00  0.00    -0.269 OA
BRANCH  26  29
ATOM     29  C   UNL A   1      34.248  33.346  28.475  1.00  0.00     0.039 A 
ATOM     30  C   UNL A   1      35.523  33.914  28.442  1.00  0.00     0.014 A 
ATOM     31  C   UNL A   1      34.053  32.034  28.914  1.00  0.00     0.014 A 
ATOM     32  C   UNL A   1      36.604  33.189  28.945  1.00  0.00     0.010 A 
ATOM     33  C   UNL A   1      35.115  31.351  29.489  1.00  0.00     0.010 A 
ATOM     34  C   UNL A   1      36.396  31.926  29.522  1.00  0.00    -0.014 A 
BRANCH  34  35
ATOM     35  C   UNL A   1      37.496  31.172  30.173  1.00  0.00     0.031 A 
ATOM     36  C   UNL A   1      37.792  31.415  31.625  1.00  0.00     0.074 A 
ATOM     37  C   UNL A   1      38.292  30.367  29.443  1.00  0.00     0.049 A 
ATOM     38  N   UNL A   1      38.810  31.015  32.341  1.00  0.00    -0.248 NA
ATOM     39  C   UNL A   1      36.835  32.260  32.356  1.00  0.00     0.031 C 
ATOM     40  C   UNL A   1      38.144  30.088  28.013  1.00  0.00     0.029 A 
ATOM     41  N   UNL A   1      39.403  29.647  29.806  1.00  0.00    -0.354 N 
ATOM     42  C   UNL A   1      38.642  31.601  33.589  1.00  0.00     0.074 A 
ATOM     43  C   UNL A   1      37.446  32.410  33.521  1.00  0.00     0.031 C 
ATOM     44  C   UNL A   1      39.113  29.242  27.626  1.00  0.00     0.029 A 
ATOM     45  C   UNL A   1      39.973  28.950  28.768  1.00  0.00     0.049 A 
ATOM     46  H   UNL A   1      39.759  29.631  30.724  1.00  0.00     0.167 HD
ATOM     47  C   UNL A   1      39.405  31.460  34.696  1.00  0.00     0.037 A 
ATOM     48  C   UNL A   1      41.071  28.170  28.743  1.00  0.00     0.037 A 
ATOM     49  C   UNL A   1      40.555  30.603  34.780  1.00  0.00     0.049 A 
ATOM     50  C   UNL A   1      41.865  27.976  30.004  1.00  0.00     0.074 A 
ATOM     51  C   UNL A   1      41.358  30.340  35.875  1.00  0.00     0.029 A 
ATOM     52  N   UNL A   1      41.052  29.851  33.727  1.00  0.00    -0.354 N 
ATOM     53  N   UNL A   1      41.673  28.506  31.189  1.00  0.00    -0.248 NA
ATOM     54  C   UNL A   1      43.024  27.075  29.930  1.00  0.00     0.031 C 
ATOM     55  C   UNL A   1      42.351  29.437  35.480  1.00  0.00     0.029 A 
ATOM     56  C   UNL A   1      42.147  29.119  34.147  1.00  0.00     0.049 A 
ATOM     57  H   UNL A   1      40.680  29.840  32.814  1.00  0.00     0.167 HD
ATOM     58  C   UNL A   1      42.665  27.978  32.006  1.00  0.00     0.074 A 
ATOM     59  C   UNL A   1      43.456  27.086  31.183  1.00  0.00     0.031 C 
ATOM     60  C   UNL A   1      42.898  28.212  33.319  1.00  0.00     0.037 A 
BRANCH  47  61
ATOM     61  C   UNL A   1      39.006  32.247  35.907  1.00  0.00     0.057 A 
ATOM     62  C   UNL A   1      38.181  31.705  36.901  1.00  0.00     0.134 A 
ATOM     63  C   UNL A   1      39.455  33.562  36.085  1.00  0.00     0.134 A 
ATOM     64  F   UNL A   1      37.702  30.457  36.779  1.00  0.00    -0.206 F 
ATOM     65  C   UNL A   1      37.792  32.451  38.013  1.00  0.00     0.040 A 
ATOM     66  C   UNL A   1      39.095  34.309  37.206  1.00  0.00     0.040 A 
ATOM     67  F   UNL A   1      40.251  34.139  35.171  1.00  0.00    -0.206 F 
ATOM     68  C   UNL A   1      38.255  33.756  38.171  1.00  0.00     0.006 A 
ENDBRANCH  47  61
BRANCH  48  69
ATOM     69  C   UNL A   1      41.467  27.481  27.490  1.00  0.00     0.057 A 
ATOM     70  C   UNL A   1      41.035  26.177  27.223  1.00  0.00     0.134 A 
ATOM     71  C   UNL A   1      42.286  28.098  26.538  1.00  0.00     0.134 A 
ATOM     72  F   UNL A   1      40.262  25.528  28.107  1.00  0.00    -0.206 F 
ATOM     73  C   UNL A   1      41.419  25.501  26.064  1.00  0.00     0.040 A 
ATOM     74  C   UNL A   1      42.663  27.441  25.365  1.00  0.00     0.040 A 
ATOM     75  F   UNL A   1      42.726  29.349  26.733  1.00  0.00    -0.206 F 
ATOM     76  C   UNL A   1      42.234  26.136  25.129  1.00  0.00     0.006 A 
ENDBRANCH  48  69
BRANCH  60  77
ATOM     77  C   UNL A   1      44.015  27.452  33.965  1.00  0.00     0.057 A 
ATOM     78  C   UNL A   1      43.818  26.183  34.521  1.00  0.00     0.134 A 
ATOM     79  C   UNL A   1      45.315  27.972  33.967  1.00  0.00     0.134 A 
ATOM     80  F   UNL A   1      42.592  25.639  34.558  1.00  0.00    -0.206 F 
ATOM     81  C   UNL A   1      44.877  25.459  35.068  1.00  0.00     0.040 A 
ATOM     82  C   UNL A   1      46.386  27.250  34.495  1.00  0.00     0.040 A 
ATOM     83  F   UNL A   1      45.566  29.180  33.442  1.00  0.00    -0.206 F 
ATOM     84  C   UNL A   1      46.167  25.989  35.048  1.00  0.00     0.006 A 
ENDBRANCH  60  77
ENDBRANCH  34  35
ENDBRANCH  26  29
ENDBRANCH  24  25
ENDBRANCH  23  24
ENDBRANCH   1  23
TORSDOF 14
ENDMDL
MODEL 3
REMARK VINA RESULT:     -11.4      2.583      7.535
REMARK SMILES COC1CCN(c2nc(C(C)C)c(C(=O)NCCCCNC(=O)c3ccc(-c4c5nc(c(-c6c(F)cccc6F)c6ccc([nH]6)c(-c6c(F)cccc6F)c6nc(c(-c7c(F)cccc7F)c7ccc4[nH]7)C=C6)C=C5)cc3)s2)CC1
REMARK SMILES IDX 18 1 17 2 16 3 14 4 15 5 13 7 7 8 8 9 78 10 9 11 6 12 3 13
REMARK SMILES IDX 4 14 80 15 5 16 79 17 2 18 1 19 10 20 11 21 12 22 19 23
REMARK SMILES IDX 20 24 21 25 22 26 23 28 24 29 25 30 77 31 26 32 76 33 27 34
REMARK SMILES IDX 28 35 29 36 70 37 30 38 75 39 69 40 71 41 31 42 74 43 68 44
REMARK SMILES IDX 67 45 32 47 58 48 41 49 57 50 42 51 45 52 56 53 72 54 43 55
REMARK SMILES IDX 44 56 55 58 73 59 46 60 33 61 34 62 39 63 35 64 36 65 38 66
REMARK SMILES IDX 40 67 37 68 59 69 60 70 65 71 61 72 62 73 64 74 66 75 63 76
REMARK SMILES IDX 47 77 48 78 53 79 49 80 50 81 52 82 54 83 51 84
REMARK H PARENT 16 6 21 27 71 46 45 57
REMARK Flexibility Score: inf
ROOT
ATOM      1  C   UNL A   1      36.379  20.024  24.955  1.00  0.00     0.023 C 
ENDROOT
BRANCH   1   2
ATOM      2  C   UNL A   1      36.403  21.457  25.479  1.00  0.00     0.116 C 
BRANCH   2   3
ATOM      3  N   UNL A   1      35.527  21.630  26.600  1.00  0.00    -0.351 N 
ATOM      4  C   UNL A   1      34.260  22.100  26.793  1.00  0.00     0.263 C 
ATOM      5  O   UNL A   1      33.965  22.028  27.997  1.00  0.00    -0.268 OA
ATOM      6  H   UNL A   1      35.944  21.336  27.441  1.00  0.00     0.163 HD
BRANCH   4   7
ATOM      7  C   UNL A   1      33.319  22.619  25.794  1.00  0.00     0.117 A 
ATOM      8  C   UNL A   1      31.844  24.363  24.799  1.00  0.00     0.186 A 
ATOM      9  N   UNL A   1      31.808  23.262  24.102  1.00  0.00    -0.224 NA
ATOM     10  S   UNL A   1      32.797  24.250  26.202  1.00  0.00    -0.091 S 
ATOM     11  C   UNL A   1      32.689  22.290  24.586  1.00  0.00     0.069 A 
BRANCH   8  12
ATOM     12  N   UNL A   1      31.166  25.492  24.474  1.00  0.00    -0.348 N 
ATOM     13  C   UNL A   1      29.765  27.879  23.724  1.00  0.00     0.121 C 
ATOM     14  C   UNL A   1      30.994  27.912  24.638  1.00  0.00     0.053 C 
ATOM     15  C   UNL A   1      29.056  26.526  23.844  1.00  0.00     0.053 C 
ATOM     16  C   UNL A   1      31.920  26.738  24.354  1.00  0.00     0.121 C 
ATOM     17  C   UNL A   1      30.021  25.370  23.574  1.00  0.00     0.121 C 
BRANCH  13  18
ATOM     18  O   UNL A   1      30.083  28.069  22.339  1.00  0.00    -0.381 OA
ATOM     19  C   UNL A   1      30.452  29.397  21.998  1.00  0.00     0.195 C 
ENDBRANCH  13  18
ENDBRANCH   8  12
BRANCH  11  20
ATOM     20  C   UNL A   1      32.762  21.131  23.622  1.00  0.00     0.034 C 
ATOM     21  C   UNL A   1      32.559  19.782  24.314  1.00  0.00     0.014 C 
ATOM     22  C   UNL A   1      32.021  21.367  22.304  1.00  0.00     0.014 C 
ENDBRANCH  11  20
ENDBRANCH   4   7
ENDBRANCH   2   3
ENDBRANCH   1   2
BRANCH   1  23
ATOM     23  C   UNL A   1      37.755  19.424  24.700  1.00  0.00     0.023 C 
BRANCH  23  24
ATOM     24  C   UNL A   1      38.803  19.756  25.754  1.00  0.00     0.116 C 
BRANCH  24  25
ATOM     25  N   UNL A   1      40.026  18.966  25.668  1.00  0.00    -0.352 N 
ATOM     26  C   UNL A   1      41.293  19.359  26.038  1.00  0.00     0.251 C 
ATOM     27  H   UNL A   1      39.937  18.054  25.307  1.00  0.00     0.163 HD
ATOM     28  O   UNL A   1      42.264  18.627  25.890  1.00  0.00    -0.269 OA
BRANCH  26  29
ATOM     29  C   UNL A   1      41.451  20.723  26.574  1.00  0.00     0.039 A 
ATOM     30  C   UNL A   1      41.814  20.884  27.912  1.00  0.00     0.014 A 
ATOM     31  C   UNL A   1      41.422  21.809  25.696  1.00  0.00     0.014 A 
ATOM     32  C   UNL A   1      42.247  22.136  28.352  1.00  0.00     0.010 A 
ATOM     33  C   UNL A   1      41.931  23.029  26.117  1.00  0.00     0.010 A 
ATOM     34  C   UNL A   1      42.360  23.201  27.444  1.00  0.00    -0.014 A 
BRANCH  34  35
ATOM     35  C   UNL A   1      42.924  24.513  27.843  1.00  0.00     0.031 A 
ATOM     36  C   UNL A   1      41.995  25.606  28.286  1.00  0.00     0.074 A 
ATOM     37  C   UNL A   1      44.241  24.760  27.701  1.00  0.00     0.049 A 
ATOM     38  N   UNL A   1      42.244  26.873  28.497  1.00  0.00    -0.248 NA
ATOM     39  C   UNL A   1      40.584  25.231  28.472  1.00  0.00     0.031 C 
ATOM     40  C   UNL A   1      45.243  23.800  27.230  1.00  0.00     0.029 A 
ATOM     41  N   UNL A   1      44.962  25.906  27.922  1.00  0.00    -0.354 N 
ATOM     42  C   UNL A   1      41.017  27.451  28.790  1.00  0.00     0.074 A 
ATOM     43  C   UNL A   1      40.020  26.408  28.694  1.00  0.00     0.031 C 
ATOM     44  C   UNL A   1      46.448  24.392  27.218  1.00  0.00     0.029 A 
ATOM     45  C   UNL A   1      46.301  25.781  27.641  1.00  0.00     0.049 A 
ATOM     46  H   UNL A   1      44.557  26.742  28.250  1.00  0.00     0.167 HD
ATOM     47  C   UNL A   1      40.747  28.733  29.127  1.00  0.00     0.037 A 
ATOM     48  C   UNL A   1      47.294  26.688  27.711  1.00  0.00     0.037 A 
ATOM     49  C   UNL A   1      41.748  29.752  29.287  1.00  0.00     0.049 A 
ATOM     50  C   UNL A   1      46.980  28.090  28.152  1.00  0.00     0.074 A 
ATOM     51  C   UNL A   1      41.586  31.066  29.689  1.00  0.00     0.029 A 
ATOM     52  N   UNL A   1      43.103  29.562  29.070  1.00  0.00    -0.354 N 
ATOM     53  N   UNL A   1      45.819  28.615  28.464  1.00  0.00    -0.248 NA
ATOM     54  C   UNL A   1      48.110  29.024  28.258  1.00  0.00     0.031 C 
ATOM     55  C   UNL A   1      42.845  31.675  29.704  1.00  0.00     0.029 A 
ATOM     56  C   UNL A   1      43.792  30.731  29.337  1.00  0.00     0.049 A 
ATOM     57  H   UNL A   1      43.516  28.718  28.771  1.00  0.00     0.167 HD
ATOM     58  C   UNL A   1      46.084  29.929  28.832  1.00  0.00     0.074 A 
ATOM     59  C   UNL A   1      47.514  30.120  28.707  1.00  0.00     0.031 C 
ATOM     60  C   UNL A   1      45.218  30.888  29.237  1.00  0.00     0.037 A 
BRANCH  47  61
ATOM     61  C   UNL A   1      39.311  29.094  29.356  1.00  0.00     0.057 A 
ATOM     62  C   UNL A   1      38.721  29.006  30.623  1.00  0.00     0.134 A 
ATOM     63  C   UNL A   1      38.509  29.539  28.298  1.00  0.00     0.134 A 
ATOM     64  F   UNL A   1      39.432  28.568  31.674  1.00  0.00    -0.206 F 
ATOM     65  C   UNL A   1      37.377  29.319  30.825  1.00  0.00     0.040 A 
ATOM     66  C   UNL A   1      37.171  29.880  28.492  1.00  0.00     0.040 A 
ATOM     67  F   UNL A   1      39.015  29.648  27.059  1.00  0.00    -0.206 F 
ATOM     68  C   UNL A   1      36.599  29.764  29.758  1.00  0.00     0.006 A 
ENDBRANCH  47  61
BRANCH  48  69
ATOM     69  C   UNL A   1      48.688  26.294  27.389  1.00  0.00     0.057 A 
ATOM     70  C   UNL A   1      49.174  26.388  26.080  1.00  0.00     0.134 A 
ATOM     71  C   UNL A   1      49.560  25.809  28.370  1.00  0.00     0.134 A 
ATOM     72  F   UNL A   1      48.378  26.830  25.095  1.00  0.00    -0.206 F 
ATOM     73  C   UNL A   1      50.473  25.997  25.752  1.00  0.00     0.040 A 
ATOM     74  C   UNL A   1      50.867  25.431  28.059  1.00  0.00     0.040 A 
ATOM     75  F   UNL A   1      49.155  25.702  29.643  1.00  0.00    -0.206 F 
ATOM     76  C   UNL A   1      51.325  25.518  26.746  1.00  0.00     0.006 A 
ENDBRANCH  48  69
BRANCH  60  77
ATOM     77  C   UNL A   1      45.796  32.213  29.632  1.00  0.00     0.057 A 
ATOM     78  C   UNL A   1      45.969  33.247  28.705  1.00  0.00     0.134 A 
ATOM     79  C   UNL A   1      46.117  32.473  30.970  1.00  0.00     0.134 A 
ATOM     80  F   UNL A   1      45.690  33.052  27.408  1.00  0.00    -0.206 F 
ATOM     81  C   UNL A   1      46.453  34.496  29.095  1.00  0.00     0.040 A 
ATOM     82  C   UNL A   1      46.584  33.724  31.375  1.00  0.00     0.040 A 
ATOM     83  F   UNL A   1      45.965  31.523  31.904  1.00  0.00    -0.206 F 
ATOM     84  C   UNL A   1      46.753  34.740  30.435  1.00  0.00     0.006 A 
ENDBRANCH  60  77
ENDBRANCH  34  35
ENDBRANCH  26  29
ENDBRANCH  24  25
ENDBRANCH  23  24
ENDBRANCH   1  23
TORSDOF 14
ENDMDL
