MODEL 1
REMARK VINA RESULT:     -12.2      0.000      0.000
REMARK SMILES O=C(NCCCCNC(=O)[C@@H](NC(=O)[C@H]1CC[C@@H]2CCCC[C@H]2[NH2+]1)C1CC1)c1ccc(-c2c3nc(c(-c4c(F)cccc4F)c4ccc([nH]4)c(-c4c(F)cccc4F)c4nc(c(-c5c(F)cccc5F)c5ccc2[nH]5)C=C4)C=C3)cc1
REMARK SMILES IDX 5 1 4 2 3 3 1 4 2 5 28 7 29 8 81 9 30 10 80 11 31 12 32 13
REMARK SMILES IDX 33 14 74 15 34 16 79 17 73 18 75 19 35 20 78 21 72 22 71 23
REMARK SMILES IDX 36 25 62 26 45 27 61 28 46 29 49 30 60 31 76 32 47 33 48 34
REMARK SMILES IDX 59 36 77 37 50 38 37 39 38 40 43 41 39 42 40 43 42 44 44 45
REMARK SMILES IDX 41 46 63 47 64 48 69 49 65 50 66 51 68 52 70 53 67 54 51 55
REMARK SMILES IDX 52 56 57 57 53 58 54 59 56 60 58 61 55 62 6 63 7 64 8 65
REMARK SMILES IDX 9 66 10 68 11 69 12 70 13 71 14 73 15 74 16 75 24 76 17 77
REMARK SMILES IDX 23 78 18 81 22 82 19 83 21 84 20 85 25 86 26 87 27 88
REMARK H PARENT 3 6 75 24 49 35 8 67 12 72 24 79 24 80
REMARK Flexibility Score: inf
ROOT
ATOM      1  C   UNL A   1      37.363  19.569  24.890  1.00  0.00     0.023 C 
ENDROOT
BRANCH   1   2
ATOM      2  C   UNL A   1      38.592  20.189  25.540  1.00  0.00     0.116 C 
BRANCH   2   3
ATOM      3  N   UNL A   1      39.719  19.273  25.625  1.00  0.00    -0.352 N 
ATOM      4  O   UNL A   1      41.892  18.696  25.910  1.00  0.00    -0.269 OA
ATOM      5  C   UNL A   1      41.014  19.537  26.012  1.00  0.00     0.251 C 
ATOM      6  H   UNL A   1      39.532  18.340  25.371  1.00  0.00     0.163 HD
BRANCH   5   7
ATOM      7  C   UNL A   1      41.320  20.882  26.534  1.00  0.00     0.039 A 
ATOM      8  C   UNL A   1      41.768  21.873  25.659  1.00  0.00     0.014 A 
ATOM      9  C   UNL A   1      41.224  21.126  27.905  1.00  0.00     0.014 A 
ATOM     10  C   UNL A   1      42.268  23.059  26.173  1.00  0.00     0.010 A 
ATOM     11  C   UNL A   1      41.638  22.360  28.411  1.00  0.00     0.010 A 
ATOM     12  C   UNL A   1      42.184  23.326  27.550  1.00  0.00    -0.014 A 
BRANCH  12  13
ATOM     13  C   UNL A   1      42.565  24.669  28.044  1.00  0.00     0.031 A 
ATOM     14  C   UNL A   1      41.543  25.738  28.300  1.00  0.00     0.074 A 
ATOM     15  C   UNL A   1      43.872  24.903  28.267  1.00  0.00     0.049 A 
ATOM     16  N   UNL A   1      41.729  26.968  28.707  1.00  0.00    -0.248 NA
ATOM     17  C   UNL A   1      40.132  25.394  28.064  1.00  0.00     0.031 C 
ATOM     18  C   UNL A   1      44.950  23.936  28.034  1.00  0.00     0.029 A 
ATOM     19  N   UNL A   1      44.521  26.011  28.744  1.00  0.00    -0.354 N 
ATOM     20  C   UNL A   1      40.470  27.553  28.752  1.00  0.00     0.074 A 
ATOM     21  C   UNL A   1      39.523  26.546  28.324  1.00  0.00     0.031 C 
ATOM     22  C   UNL A   1      46.119  24.479  28.400  1.00  0.00     0.029 A 
ATOM     23  C   UNL A   1      45.884  25.853  28.820  1.00  0.00     0.049 A 
ATOM     24  H   UNL A   1      44.058  26.838  29.006  1.00  0.00     0.167 HD
ATOM     25  C   UNL A   1      40.146  28.815  29.118  1.00  0.00     0.037 A 
ATOM     26  C   UNL A   1      46.847  26.730  29.154  1.00  0.00     0.037 A 
ATOM     27  C   UNL A   1      41.099  29.799  29.569  1.00  0.00     0.049 A 
ATOM     28  C   UNL A   1      46.452  28.124  29.531  1.00  0.00     0.074 A 
ATOM     29  C   UNL A   1      40.859  31.081  30.033  1.00  0.00     0.029 A 
ATOM     30  N   UNL A   1      42.472  29.612  29.605  1.00  0.00    -0.354 N 
ATOM     31  N   UNL A   1      45.253  28.646  29.617  1.00  0.00    -0.248 NA
ATOM     32  C   UNL A   1      47.543  29.056  29.843  1.00  0.00     0.031 C 
ATOM     33  C   UNL A   1      42.091  31.687  30.302  1.00  0.00     0.029 A 
ATOM     34  C   UNL A   1      43.096  30.769  30.046  1.00  0.00     0.049 A 
ATOM     35  H   UNL A   1      42.937  28.781  29.353  1.00  0.00     0.167 HD
ATOM     36  C   UNL A   1      45.442  29.966  29.994  1.00  0.00     0.074 A 
ATOM     37  C   UNL A   1      46.870  30.155  30.152  1.00  0.00     0.031 C 
ATOM     38  C   UNL A   1      44.519  30.939  30.182  1.00  0.00     0.037 A 
BRANCH  25  39
ATOM     39  C   UNL A   1      38.706  29.233  29.038  1.00  0.00     0.057 A 
ATOM     40  C   UNL A   1      38.118  29.636  27.834  1.00  0.00     0.134 A 
ATOM     41  C   UNL A   1      37.875  29.127  30.160  1.00  0.00     0.134 A 
ATOM     42  F   UNL A   1      38.860  29.763  26.724  1.00  0.00    -0.206 F 
ATOM     43  C   UNL A   1      36.752  29.919  27.749  1.00  0.00     0.040 A 
ATOM     44  C   UNL A   1      36.506  29.391  30.084  1.00  0.00     0.040 A 
ATOM     45  F   UNL A   1      38.375  28.739  31.343  1.00  0.00    -0.206 F 
ATOM     46  C   UNL A   1      35.941  29.787  28.874  1.00  0.00     0.006 A 
ENDBRANCH  25  39
BRANCH  26  47
ATOM     47  C   UNL A   1      48.270  26.319  29.095  1.00  0.00     0.057 A 
ATOM     48  C   UNL A   1      49.030  26.493  27.935  1.00  0.00     0.134 A 
ATOM     49  C   UNL A   1      48.905  25.746  30.205  1.00  0.00     0.134 A 
ATOM     50  F   UNL A   1      48.472  27.021  26.835  1.00  0.00    -0.206 F 
ATOM     51  C   UNL A   1      50.367  26.096  27.873  1.00  0.00     0.040 A 
ATOM     52  C   UNL A   1      50.248  25.374  30.168  1.00  0.00     0.040 A 
ATOM     53  F   UNL A   1      48.233  25.563  31.351  1.00  0.00    -0.206 F 
ATOM     54  C   UNL A   1      50.981  25.541  28.994  1.00  0.00     0.006 A 
ENDBRANCH  26  47
BRANCH  38  55
ATOM     55  C   UNL A   1      45.035  32.287  30.579  1.00  0.00     0.057 A 
ATOM     56  C   UNL A   1      45.247  32.622  31.922  1.00  0.00     0.134 A 
ATOM     57  C   UNL A   1      45.334  33.255  29.612  1.00  0.00     0.134 A 
ATOM     58  F   UNL A   1      44.960  31.744  32.895  1.00  0.00    -0.206 F 
ATOM     59  C   UNL A   1      45.716  33.882  32.292  1.00  0.00     0.040 A 
ATOM     60  C   UNL A   1      45.828  34.509  29.968  1.00  0.00     0.040 A 
ATOM     61  F   UNL A   1      45.156  32.993  28.308  1.00  0.00    -0.206 F 
ATOM     62  C   UNL A   1      46.014  34.828  31.312  1.00  0.00     0.006 A 
ENDBRANCH  38  55
ENDBRANCH  12  13
ENDBRANCH   5   7
ENDBRANCH   2   3
ENDBRANCH   1   2
BRANCH   1  63
ATOM     63  C   UNL A   1      36.096  20.416  24.958  1.00  0.00     0.023 C 
BRANCH  63  64
ATOM     64  C   UNL A   1      36.294  21.839  25.464  1.00  0.00     0.116 C 
BRANCH  64  65
ATOM     65  N   UNL A   1      35.675  22.092  26.750  1.00  0.00    -0.354 N 
ATOM     66  C   UNL A   1      34.528  22.790  27.026  1.00  0.00     0.242 C 
ATOM     67  H   UNL A   1      36.140  21.714  27.530  1.00  0.00     0.163 HD
ATOM     68  O   UNL A   1      34.046  22.666  28.156  1.00  0.00    -0.273 OA
BRANCH  66  69
ATOM     69  C   UNL A   1      33.776  23.582  25.919  1.00  0.00     0.174 C 
BRANCH  69  70
ATOM     70  N   UNL A   1      32.317  23.495  26.093  1.00  0.00    -0.339 N 
ATOM     71  C   UNL A   1      31.389  22.508  25.920  1.00  0.00     0.278 C 
ATOM     72  H   UNL A   1      31.920  24.340  26.406  1.00  0.00     0.164 HD
ATOM     73  O   UNL A   1      30.267  22.713  26.393  1.00  0.00    -0.268 OA
BRANCH  71  74
ATOM     74  C   UNL A   1      31.699  21.306  25.028  1.00  0.00     0.272 C 
ATOM     75  C   UNL A   1      32.461  21.647  23.756  1.00  0.00     0.076 C 
ATOM     76  N   UNL A   1      32.497  20.248  25.702  1.00  0.00    -0.333 N 
ATOM     77  C   UNL A   1      32.246  20.485  22.796  1.00  0.00     0.016 C 
ATOM     78  C   UNL A   1      32.440  19.011  24.903  1.00  0.00     0.186 C 
ATOM     79  H   UNL A   1      32.114  20.072  26.631  1.00  0.00     0.347 HD
ATOM     80  H   UNL A   1      33.467  20.554  25.789  1.00  0.00     0.347 HD
ATOM     81  C   UNL A   1      32.858  19.237  23.425  1.00  0.00     0.048 C 
ATOM     82  C   UNL A   1      33.358  17.921  25.475  1.00  0.00     0.065 C 
ATOM     83  C   UNL A   1      32.526  17.977  22.629  1.00  0.00     0.010 C 
ATOM     84  C   UNL A   1      33.267  16.624  24.655  1.00  0.00     0.006 C 
ATOM     85  C   UNL A   1      33.386  16.826  23.140  1.00  0.00     0.001 C 
ENDBRANCH  71  74
ENDBRANCH  69  70
BRANCH  69  86
ATOM     86  C   UNL A   1      34.352  24.964  25.662  1.00  0.00     0.021 C 
ATOM     87  C   UNL A   1      34.063  25.813  24.443  1.00  0.00     0.006 C 
ATOM     88  C   UNL A   1      33.554  26.245  25.783  1.00  0.00     0.006 C 
ENDBRANCH  69  86
ENDBRANCH  66  69
ENDBRANCH  64  65
ENDBRANCH  63  64
ENDBRANCH   1  63
TORSDOF 14
ENDMDL
MODEL 2
REMARK VINA RESULT:     -12.1      0.442      6.249
REMARK SMILES O=C(NCCCCNC(=O)[C@@H](NC(=O)[C@H]1CC[C@@H]2CCCC[C@H]2[NH2+]1)C1CC1)c1ccc(-c2c3nc(c(-c4c(F)cccc4F)c4ccc([nH]4)c(-c4c(F)cccc4F)c4nc(c(-c5c(F)cccc5F)c5ccc2[nH]5)C=C4)C=C3)cc1
REMARK SMILES IDX 5 1 4 2 3 3 1 4 2 5 28 7 29 8 81 9 30 10 80 11 31 12 32 13
REMARK SMILES IDX 33 14 74 15 34 16 79 17 73 18 75 19 35 20 78 21 72 22 71 23
REMARK SMILES IDX 36 25 62 26 45 27 61 28 46 29 49 30 60 31 76 32 47 33 48 34
REMARK SMILES IDX 59 36 77 37 50 38 37 39 38 40 43 41 39 42 40 43 42 44 44 45
REMARK SMILES IDX 41 46 63 47 64 48 69 49 65 50 66 51 68 52 70 53 67 54 51 55
REMARK SMILES IDX 52 56 57 57 53 58 54 59 56 60 58 61 55 62 6 63 7 64 8 65
REMARK SMILES IDX 9 66 10 68 11 69 12 70 13 71 14 73 15 74 16 75 24 76 17 77
REMARK SMILES IDX 23 78 18 81 22 82 19 83 21 84 20 85 25 86 26 87 27 88
REMARK H PARENT 3 6 75 24 49 35 8 67 12 72 24 79 24 80
REMARK Flexibility Score: inf
ROOT
ATOM      1  C   UNL A   1      37.519  19.691  24.769  1.00  0.00     0.023 C 
ENDROOT
BRANCH   1   2
ATOM      2  C   UNL A   1      38.663  20.221  25.621  1.00  0.00     0.116 C 
BRANCH   2   3
ATOM      3  N   UNL A   1      39.792  19.305  25.698  1.00  0.00    -0.352 N 
ATOM      4  O   UNL A   1      41.966  18.728  25.968  1.00  0.00    -0.269 OA
ATOM      5  C   UNL A   1      41.089  19.569  26.076  1.00  0.00     0.251 C 
ATOM      6  H   UNL A   1      39.603  18.372  25.444  1.00  0.00     0.163 HD
BRANCH   5   7
ATOM      7  C   UNL A   1      41.397  20.914  26.598  1.00  0.00     0.039 A 
ATOM      8  C   UNL A   1      41.857  21.900  25.724  1.00  0.00     0.014 A 
ATOM      9  C   UNL A   1      41.294  21.160  27.968  1.00  0.00     0.014 A 
ATOM     10  C   UNL A   1      42.359  23.085  26.240  1.00  0.00     0.010 A 
ATOM     11  C   UNL A   1      41.710  22.393  28.475  1.00  0.00     0.010 A 
ATOM     12  C   UNL A   1      42.267  23.354  27.616  1.00  0.00    -0.014 A 
BRANCH  12  13
ATOM     13  C   UNL A   1      42.651  24.697  28.111  1.00  0.00     0.031 A 
ATOM     14  C   UNL A   1      44.072  25.042  28.448  1.00  0.00     0.074 A 
ATOM     15  C   UNL A   1      41.672  25.614  28.244  1.00  0.00     0.049 A 
ATOM     16  N   UNL A   1      44.553  26.166  28.915  1.00  0.00    -0.248 NA
ATOM     17  C   UNL A   1      45.087  23.996  28.244  1.00  0.00     0.031 C 
ATOM     18  C   UNL A   1      40.253  25.374  27.960  1.00  0.00     0.029 A 
ATOM     19  N   UNL A   1      41.713  26.924  28.639  1.00  0.00    -0.354 N 
ATOM     20  C   UNL A   1      45.916  25.959  29.086  1.00  0.00     0.074 A 
ATOM     21  C   UNL A   1      46.189  24.598  28.679  1.00  0.00     0.031 C 
ATOM     22  C   UNL A   1      39.566  26.508  28.156  1.00  0.00     0.029 A 
ATOM     23  C   UNL A   1      40.480  27.528  28.651  1.00  0.00     0.049 A 
ATOM     24  H   UNL A   1      42.544  27.388  28.890  1.00  0.00     0.167 HD
ATOM     25  C   UNL A   1      46.844  26.832  29.543  1.00  0.00     0.037 A 
ATOM     26  C   UNL A   1      40.113  28.757  29.053  1.00  0.00     0.037 A 
ATOM     27  C   UNL A   1      46.560  28.195  29.920  1.00  0.00     0.049 A 
ATOM     28  C   UNL A   1      41.164  29.687  29.574  1.00  0.00     0.074 A 
ATOM     29  C   UNL A   1      47.446  29.179  30.323  1.00  0.00     0.029 A 
ATOM     30  N   UNL A   1      45.295  28.761  29.946  1.00  0.00    -0.354 N 
ATOM     31  N   UNL A   1      42.456  29.494  29.682  1.00  0.00    -0.248 NA
ATOM     32  C   UNL A   1      40.708  31.002  30.043  1.00  0.00     0.031 C 
ATOM     33  C   UNL A   1      46.711  30.326  30.642  1.00  0.00     0.029 A 
ATOM     34  C   UNL A   1      45.372  30.070  30.396  1.00  0.00     0.049 A 
ATOM     35  H   UNL A   1      44.464  28.302  29.685  1.00  0.00     0.167 HD
ATOM     36  C   UNL A   1      42.968  30.660  30.229  1.00  0.00     0.074 A 
ATOM     37  C   UNL A   1      41.851  31.567  30.400  1.00  0.00     0.031 C 
ATOM     38  C   UNL A   1      44.246  30.950  30.571  1.00  0.00     0.037 A 
BRANCH  25  39
ATOM     39  C   UNL A   1      48.260  26.356  29.686  1.00  0.00     0.057 A 
ATOM     40  C   UNL A   1      49.215  26.557  28.683  1.00  0.00     0.134 A 
ATOM     41  C   UNL A   1      48.697  25.786  30.889  1.00  0.00     0.134 A 
ATOM     42  F   UNL A   1      48.861  27.094  27.506  1.00  0.00    -0.206 F 
ATOM     43  C   UNL A   1      50.554  26.207  28.870  1.00  0.00     0.040 A 
ATOM     44  C   UNL A   1      50.036  25.447  31.094  1.00  0.00     0.040 A 
ATOM     45  F   UNL A   1      47.834  25.573  31.894  1.00  0.00    -0.206 F 
ATOM     46  C   UNL A   1      50.970  25.659  30.083  1.00  0.00     0.006 A 
ENDBRANCH  25  39
BRANCH  26  47
ATOM     47  C   UNL A   1      38.683  29.148  29.020  1.00  0.00     0.057 A 
ATOM     48  C   UNL A   1      37.880  29.066  30.161  1.00  0.00     0.134 A 
ATOM     49  C   UNL A   1      38.088  29.619  27.842  1.00  0.00     0.134 A 
ATOM     50  F   UNL A   1      38.390  28.606  31.314  1.00  0.00    -0.206 F 
ATOM     51  C   UNL A   1      36.531  29.421  30.130  1.00  0.00     0.040 A 
ATOM     52  C   UNL A   1      36.750  30.008  27.805  1.00  0.00     0.040 A 
ATOM     53  F   UNL A   1      38.808  29.732  26.716  1.00  0.00    -0.206 F 
ATOM     54  C   UNL A   1      35.964  29.901  28.951  1.00  0.00     0.006 A 
ENDBRANCH  26  47
BRANCH  38  55
ATOM     55  C   UNL A   1      44.492  32.304  31.161  1.00  0.00     0.057 A 
ATOM     56  C   UNL A   1      44.759  33.416  30.352  1.00  0.00     0.134 A 
ATOM     57  C   UNL A   1      44.451  32.502  32.546  1.00  0.00     0.134 A 
ATOM     58  F   UNL A   1      44.832  33.285  29.019  1.00  0.00    -0.206 F 
ATOM     59  C   UNL A   1      45.000  34.674  30.903  1.00  0.00     0.040 A 
ATOM     60  C   UNL A   1      44.665  33.760  33.107  1.00  0.00     0.040 A 
ATOM     61  F   UNL A   1      44.196  31.477  33.374  1.00  0.00    -0.206 F 
ATOM     62  C   UNL A   1      44.947  34.850  32.285  1.00  0.00     0.006 A 
ENDBRANCH  38  55
ENDBRANCH  12  13
ENDBRANCH   5   7
ENDBRANCH   2   3
ENDBRANCH   1   2
BRANCH   1  63
ATOM     63  C   UNL A   1      36.175  20.382  24.987  1.00  0.00     0.023 C 
BRANCH  63  64
ATOM     64  C   UNL A   1      36.258  21.844  25.403  1.00  0.00     0.116 C 
BRANCH  64  65
ATOM     65  N   UNL A   1      35.685  22.113  26.707  1.00  0.00    -0.354 N 
ATOM     66  C   UNL A   1      34.553  22.823  27.016  1.00  0.00     0.242 C 
ATOM     67  H   UNL A   1      36.172  21.736  27.474  1.00  0.00     0.163 HD
ATOM     68  O   UNL A   1      34.109  22.711  28.162  1.00  0.00    -0.273 OA
BRANCH  66  69
ATOM     69  C   UNL A   1      33.772  23.614  25.929  1.00  0.00     0.174 C 
BRANCH  69  70
ATOM     70  N   UNL A   1      32.318  23.508  26.128  1.00  0.00    -0.339 N 
ATOM     71  C   UNL A   1      31.399  22.510  25.971  1.00  0.00     0.278 C 
ATOM     72  H   UNL A   1      31.916  24.348  26.449  1.00  0.00     0.164 HD
ATOM     73  O   UNL A   1      30.284  22.700  26.464  1.00  0.00    -0.268 OA
BRANCH  71  74
ATOM     74  C   UNL A   1      31.709  21.312  25.072  1.00  0.00     0.272 C 
ATOM     75  C   UNL A   1      32.451  21.662  23.791  1.00  0.00     0.076 C 
ATOM     76  N   UNL A   1      32.526  20.260  25.734  1.00  0.00    -0.333 N 
ATOM     77  C   UNL A   1      32.235  20.500  22.832  1.00  0.00     0.016 C 
ATOM     78  C   UNL A   1      32.469  19.024  24.933  1.00  0.00     0.186 C 
ATOM     79  H   UNL A   1      32.156  20.078  26.667  1.00  0.00     0.347 HD
ATOM     80  H   UNL A   1      33.493  20.574  25.809  1.00  0.00     0.347 HD
ATOM     81  C   UNL A   1      32.867  19.257  23.451  1.00  0.00     0.048 C 
ATOM     82  C   UNL A   1      33.405  17.941  25.491  1.00  0.00     0.065 C 
ATOM     83  C   UNL A   1      32.536  17.995  22.656  1.00  0.00     0.010 C 
ATOM     84  C   UNL A   1      33.315  16.645  24.669  1.00  0.00     0.006 C 
ATOM     85  C   UNL A   1      33.413  16.851  23.153  1.00  0.00     0.001 C 
ENDBRANCH  71  74
ENDBRANCH  69  70
BRANCH  69  86
ATOM     86  C   UNL A   1      34.327  25.005  25.671  1.00  0.00     0.021 C 
ATOM     87  C   UNL A   1      34.022  25.850  24.453  1.00  0.00     0.006 C 
ATOM     88  C   UNL A   1      33.511  26.273  25.796  1.00  0.00     0.006 C 
ENDBRANCH  69  86
ENDBRANCH  66  69
ENDBRANCH  64  65
ENDBRANCH  63  64
ENDBRANCH   1  63
TORSDOF 14
ENDMDL
MODEL 3
REMARK VINA RESULT:     -12.0      5.267      9.933
REMARK SMILES O=C(NCCCCNC(=O)[C@@H](NC(=O)[C@H]1CC[C@@H]2CCCC[C@H]2[NH2+]1)C1CC1)c1ccc(-c2c3nc(c(-c4c(F)cccc4F)c4ccc([nH]4)c(-c4c(F)cccc4F)c4nc(c(-c5c(F)cccc5F)c5ccc2[nH]5)C=C4)C=C3)cc1
REMARK SMILES IDX 5 1 4 2 3 3 1 4 2 5 28 7 29 8 81 9 30 10 80 11 31 12 32 13
REMARK SMILES IDX 33 14 74 15 34 16 79 17 73 18 75 19 35 20 78 21 72 22 71 23
REMARK SMILES IDX 36 25 62 26 45 27 61 28 46 29 49 30 60 31 76 32 47 33 48 34
REMARK SMILES IDX 59 36 77 37 50 38 37 39 38 40 43 41 39 42 40 43 42 44 44 45
REMARK SMILES IDX 41 46 63 47 64 48 69 49 65 50 66 51 68 52 70 53 67 54 51 55
REMARK SMILES IDX 52 56 57 57 53 58 54 59 56 60 58 61 55 62 6 63 7 64 8 65
REMARK SMILES IDX 9 66 10 68 11 69 12 70 13 71 14 73 15 74 16 75 24 76 17 77
REMARK SMILES IDX 23 78 18 81 22 82 19 83 21 84 20 85 25 86 26 87 27 88
REMARK H PARENT 3 6 75 24 49 35 8 67 12 72 24 79 24 80
REMARK Flexibility Score: inf
ROOT
ATOM      1  C   UNL A   1      31.259  31.667  26.410  1.00  0.00     0.023 C 
ENDROOT
BRANCH   1   2
ATOM      2  C   UNL A   1      32.571  32.284  26.875  1.00  0.00     0.116 C 
BRANCH   2   3
ATOM      3  N   UNL A   1      32.419  33.644  27.371  1.00  0.00    -0.352 N 
ATOM      4  O   UNL A   1      32.828  35.393  28.752  1.00  0.00    -0.269 OA
ATOM      5  C   UNL A   1      33.150  34.291  28.343  1.00  0.00     0.251 C 
ATOM      6  H   UNL A   1      31.698  34.172  26.958  1.00  0.00     0.163 HD
BRANCH   5   7
ATOM      7  C   UNL A   1      34.329  33.598  28.898  1.00  0.00     0.039 A 
ATOM      8  C   UNL A   1      34.148  32.474  29.705  1.00  0.00     0.014 A 
ATOM      9  C   UNL A   1      35.603  34.119  28.667  1.00  0.00     0.014 A 
ATOM     10  C   UNL A   1      35.227  31.960  30.407  1.00  0.00     0.010 A 
ATOM     11  C   UNL A   1      36.704  33.537  29.300  1.00  0.00     0.010 A 
ATOM     12  C   UNL A   1      36.519  32.468  30.193  1.00  0.00    -0.014 A 
BRANCH  12  13
ATOM     13  C   UNL A   1      37.672  31.784  30.823  1.00  0.00     0.031 A 
ATOM     14  C   UNL A   1      38.477  30.750  30.091  1.00  0.00     0.074 A 
ATOM     15  C   UNL A   1      37.984  32.128  32.087  1.00  0.00     0.049 A 
ATOM     16  N   UNL A   1      39.495  30.049  30.522  1.00  0.00    -0.248 NA
ATOM     17  C   UNL A   1      38.093  30.454  28.702  1.00  0.00     0.031 C 
ATOM     18  C   UNL A   1      37.254  33.111  32.895  1.00  0.00     0.029 A 
ATOM     19  N   UNL A   1      38.992  31.706  32.913  1.00  0.00    -0.354 N 
ATOM     20  C   UNL A   1      39.858  29.214  29.474  1.00  0.00     0.074 A 
ATOM     21  C   UNL A   1      38.947  29.488  28.383  1.00  0.00     0.031 C 
ATOM     22  C   UNL A   1      37.857  33.241  34.084  1.00  0.00     0.029 A 
ATOM     23  C   UNL A   1      38.966  32.300  34.151  1.00  0.00     0.049 A 
ATOM     24  H   UNL A   1      39.668  31.043  32.646  1.00  0.00     0.167 HD
ATOM     25  C   UNL A   1      40.860  28.305  29.436  1.00  0.00     0.037 A 
ATOM     26  C   UNL A   1      39.726  32.086  35.239  1.00  0.00     0.037 A 
ATOM     27  C   UNL A   1      41.777  28.063  30.523  1.00  0.00     0.049 A 
ATOM     28  C   UNL A   1      40.810  31.056  35.167  1.00  0.00     0.074 A 
ATOM     29  C   UNL A   1      42.872  27.217  30.553  1.00  0.00     0.029 A 
ATOM     30  N   UNL A   1      41.701  28.662  31.771  1.00  0.00    -0.354 N 
ATOM     31  N   UNL A   1      41.173  30.310  34.152  1.00  0.00    -0.248 NA
ATOM     32  C   UNL A   1      41.584  30.826  36.394  1.00  0.00     0.031 C 
ATOM     33  C   UNL A   1      43.428  27.266  31.836  1.00  0.00     0.029 A 
ATOM     34  C   UNL A   1      42.706  28.175  32.591  1.00  0.00     0.049 A 
ATOM     35  H   UNL A   1      41.031  29.334  32.035  1.00  0.00     0.167 HD
ATOM     36  C   UNL A   1      42.216  29.523  34.615  1.00  0.00     0.074 A 
ATOM     37  C   UNL A   1      42.449  29.906  35.993  1.00  0.00     0.031 C 
ATOM     38  C   UNL A   1      42.911  28.561  33.963  1.00  0.00     0.037 A 
BRANCH  25  39
ATOM     39  C   UNL A   1      41.026  27.478  28.194  1.00  0.00     0.057 A 
ATOM     40  C   UNL A   1      40.339  26.273  28.008  1.00  0.00     0.134 A 
ATOM     41  C   UNL A   1      41.802  27.951  27.128  1.00  0.00     0.134 A 
ATOM     42  F   UNL A   1      39.584  25.763  28.992  1.00  0.00    -0.206 F 
ATOM     43  C   UNL A   1      40.418  25.567  26.805  1.00  0.00     0.040 A 
ATOM     44  C   UNL A   1      41.876  27.264  25.915  1.00  0.00     0.040 A 
ATOM     45  F   UNL A   1      42.479  29.104  27.238  1.00  0.00    -0.206 F 
ATOM     46  C   UNL A   1      41.180  26.068  25.751  1.00  0.00     0.006 A 
ENDBRANCH  25  39
BRANCH  26  47
ATOM     47  C   UNL A   1      39.448  32.828  36.491  1.00  0.00     0.057 A 
ATOM     48  C   UNL A   1      40.135  34.004  36.808  1.00  0.00     0.134 A 
ATOM     49  C   UNL A   1      38.481  32.378  37.400  1.00  0.00     0.134 A 
ATOM     50  F   UNL A   1      41.083  34.474  35.985  1.00  0.00    -0.206 F 
ATOM     51  C   UNL A   1      39.883  34.698  37.993  1.00  0.00     0.040 A 
ATOM     52  C   UNL A   1      38.196  33.079  38.572  1.00  0.00     0.040 A 
ATOM     53  F   UNL A   1      37.779  31.263  37.148  1.00  0.00    -0.206 F 
ATOM     54  C   UNL A   1      38.906  34.239  38.875  1.00  0.00     0.006 A 
ENDBRANCH  26  47
BRANCH  38  55
ATOM     55  C   UNL A   1      43.984  27.865  34.740  1.00  0.00     0.057 A 
ATOM     56  C   UNL A   1      45.287  28.377  34.807  1.00  0.00     0.134 A 
ATOM     57  C   UNL A   1      43.714  26.681  35.437  1.00  0.00     0.134 A 
ATOM     58  F   UNL A   1      45.612  29.496  34.144  1.00  0.00    -0.206 F 
ATOM     59  C   UNL A   1      46.289  27.721  35.521  1.00  0.00     0.040 A 
ATOM     60  C   UNL A   1      44.702  26.031  36.176  1.00  0.00     0.040 A 
ATOM     61  F   UNL A   1      42.485  26.143  35.415  1.00  0.00    -0.206 F 
ATOM     62  C   UNL A   1      45.996  26.547  36.213  1.00  0.00     0.006 A 
ENDBRANCH  38  55
ENDBRANCH  12  13
ENDBRANCH   5   7
ENDBRANCH   2   3
ENDBRANCH   1   2
BRANCH   1  63
ATOM     63  C   UNL A   1      31.402  30.444  25.509  1.00  0.00     0.023 C 
BRANCH  63  64
ATOM     64  C   UNL A   1      32.561  29.517  25.853  1.00  0.00     0.116 C 
BRANCH  64  65
ATOM     65  N   UNL A   1      33.568  29.431  24.813  1.00  0.00    -0.354 N 
ATOM     66  C   UNL A   1      33.895  28.358  24.024  1.00  0.00     0.242 C 
ATOM     67  H   UNL A   1      34.087  30.251  24.653  1.00  0.00     0.163 HD
ATOM     68  O   UNL A   1      34.600  28.577  23.035  1.00  0.00    -0.273 OA
BRANCH  66  69
ATOM     69  C   UNL A   1      33.278  26.953  24.273  1.00  0.00     0.174 C 
BRANCH  69  70
ATOM     70  N   UNL A   1      32.951  26.279  23.006  1.00  0.00    -0.339 N 
ATOM     71  C   UNL A   1      32.008  26.467  22.036  1.00  0.00     0.278 C 
ATOM     72  H   UNL A   1      33.548  25.520  22.814  1.00  0.00     0.164 HD
ATOM     73  O   UNL A   1      32.172  25.854  20.977  1.00  0.00    -0.268 OA
BRANCH  71  74
ATOM     74  C   UNL A   1      30.735  27.256  22.342  1.00  0.00     0.272 C 
ATOM     75  C   UNL A   1      30.120  26.957  23.701  1.00  0.00     0.076 C 
ATOM     76  N   UNL A   1      30.919  28.731  22.301  1.00  0.00    -0.333 N 
ATOM     77  C   UNL A   1      28.670  27.415  23.632  1.00  0.00     0.016 C 
ATOM     78  C   UNL A   1      29.599  29.385  22.254  1.00  0.00     0.186 C 
ATOM     79  H   UNL A   1      31.455  28.985  21.471  1.00  0.00     0.347 HD
ATOM     80  H   UNL A   1      31.422  29.037  23.135  1.00  0.00     0.347 HD
ATOM     81  C   UNL A   1      28.664  28.923  23.404  1.00  0.00     0.048 C 
ATOM     82  C   UNL A   1      29.718  30.914  22.351  1.00  0.00     0.065 C 
ATOM     83  C   UNL A   1      27.258  29.451  23.126  1.00  0.00     0.010 C 
ATOM     84  C   UNL A   1      28.340  31.590  22.268  1.00  0.00     0.006 C 
ATOM     85  C   UNL A   1      27.279  30.974  23.188  1.00  0.00     0.001 C 
ENDBRANCH  71  74
ENDBRANCH  69  70
BRANCH  69  86
ATOM     86  C   UNL A   1      34.029  26.133  25.309  1.00  0.00     0.021 C 
ATOM     87  C   UNL A   1      33.432  25.006  26.124  1.00  0.00     0.006 C 
ATOM     88  C   UNL A   1      34.473  24.703  25.090  1.00  0.00     0.006 C 
ENDBRANCH  69  86
ENDBRANCH  66  69
ENDBRANCH  64  65
ENDBRANCH  63  64
ENDBRANCH   1  63
TORSDOF 14
ENDMDL
