MODEL 1
REMARK VINA RESULT:      -9.9      0.000      0.000
REMARK SMILES COc1cc(/C=N/NC(=O)c2cccnc2)ccc1OCC(=O)NCCCCNC(=O)c1ccc(-c2c3nc(c(-c4c(F)cccc4F)c4ccc([nH]4)c(-c4c(F)cccc4F)c4nc(c(-c5c(F)cccc5F)c5ccc2[nH]5)C=C4)C=C3)cc1
REMARK SMILES IDX 25 1 24 2 22 3 23 4 21 6 20 7 19 8 3 9 4 10 5 11 18 12 17 13
REMARK SMILES IDX 2 14 1 15 6 16 7 17 8 18 9 19 10 21 11 22 12 23 16 24 13 25
REMARK SMILES IDX 15 26 14 27 26 28 27 29 28 30 29 31 30 32 31 34 32 35 33 36
REMARK SMILES IDX 85 37 34 38 84 39 35 40 36 41 37 42 78 43 38 44 83 45 77 46
REMARK SMILES IDX 79 47 39 48 82 49 76 50 75 51 40 53 66 54 49 55 65 56 50 57
REMARK SMILES IDX 53 58 64 59 80 60 51 61 52 62 63 64 81 65 54 66 41 67 42 68
REMARK SMILES IDX 47 69 43 70 44 71 46 72 48 73 45 74 67 75 68 76 73 77 69 78
REMARK SMILES IDX 70 79 72 80 74 81 71 82 55 83 56 84 61 85 57 86 58 87 60 88
REMARK SMILES IDX 62 89 59 90
REMARK H PARENT 24 5 8 20 29 33 79 52 53 63
REMARK Flexibility Score: inf
ROOT
ATOM      1  C   UNL A   1      45.000  21.856  24.160  1.00  0.00     0.116 C 
ENDROOT
BRANCH   1   2
ATOM      2  N   UNL A   1      46.060  22.735  23.714  1.00  0.00    -0.353 N 
ATOM      3  C   UNL A   1      46.423  23.950  24.219  1.00  0.00     0.257 C 
ATOM      4  O   UNL A   1      47.508  24.415  23.862  1.00  0.00    -0.271 OA
ATOM      5  H   UNL A   1      46.588  22.415  22.947  1.00  0.00     0.163 HD
BRANCH   3   6
ATOM      6  C   UNL A   1      45.532  24.654  25.252  1.00  0.00     0.329 C 
BRANCH   6   7
ATOM      7  O   UNL A   1      44.844  25.826  24.846  1.00  0.00    -0.480 OA
BRANCH   7   8
ATOM      8  C   UNL A   1      45.136  27.025  25.433  1.00  0.00     0.161 A 
ATOM      9  C   UNL A   1      44.277  27.880  26.137  1.00  0.00     0.161 A 
ATOM     10  C   UNL A   1      44.752  29.112  26.615  1.00  0.00     0.060 A 
ATOM     11  C   UNL A   1      46.092  29.462  26.431  1.00  0.00    -0.002 A 
ATOM     12  C   UNL A   1      46.471  27.409  25.240  1.00  0.00     0.051 A 
ATOM     13  C   UNL A   1      46.961  28.608  25.757  1.00  0.00     0.014 A 
BRANCH   9  14
ATOM     14  O   UNL A   1      42.946  27.584  26.242  1.00  0.00    -0.493 OA
ATOM     15  C   UNL A   1      42.120  28.423  25.433  1.00  0.00     0.278 C 
ENDBRANCH   9  14
BRANCH  11  16
ATOM     16  C   UNL A   1      46.604  30.780  26.849  1.00  0.00     0.141 C 
ATOM     17  N   UNL A   1      46.645  31.774  26.022  1.00  0.00    -0.180 NA
BRANCH  17  18
ATOM     18  N   UNL A   1      47.279  32.920  26.416  1.00  0.00    -0.243 N 
ATOM     19  C   UNL A   1      46.784  34.205  26.567  1.00  0.00     0.272 C 
ATOM     20  H   UNL A   1      48.236  32.816  26.623  1.00  0.00     0.194 HD
ATOM     21  O   UNL A   1      47.531  35.128  26.889  1.00  0.00    -0.267 OA
BRANCH  19  22
ATOM     22  C   UNL A   1      45.358  34.505  26.346  1.00  0.00     0.059 A 
ATOM     23  C   UNL A   1      44.650  34.092  25.216  1.00  0.00     0.017 A 
ATOM     24  C   UNL A   1      44.690  35.257  27.302  1.00  0.00     0.124 A 
ATOM     25  C   UNL A   1      43.331  34.509  25.052  1.00  0.00     0.021 A 
ATOM     26  N   UNL A   1      43.410  35.683  27.162  1.00  0.00    -0.264 NA
ATOM     27  C   UNL A   1      42.763  35.303  26.038  1.00  0.00     0.111 A 
ENDBRANCH  19  22
ENDBRANCH  17  18
ENDBRANCH  11  16
ENDBRANCH   7   8
ENDBRANCH   6   7
ENDBRANCH   3   6
ENDBRANCH   1   2
BRANCH   1  28
ATOM     28  C   UNL A   1      45.509  20.663  24.962  1.00  0.00     0.023 C 
BRANCH  28  29
ATOM     29  C   UNL A   1      44.725  19.360  24.793  1.00  0.00     0.023 C 
BRANCH  29  30
ATOM     30  C   UNL A   1      43.980  18.867  26.027  1.00  0.00     0.116 C 
BRANCH  30  31
ATOM     31  N   UNL A   1      42.575  18.589  25.776  1.00  0.00    -0.352 N 
ATOM     32  C   UNL A   1      41.474  19.375  26.004  1.00  0.00     0.251 C 
ATOM     33  H   UNL A   1      42.387  17.706  25.383  1.00  0.00     0.163 HD
ATOM     34  O   UNL A   1      40.348  18.920  25.824  1.00  0.00    -0.269 OA
BRANCH  32  35
ATOM     35  C   UNL A   1      41.639  20.756  26.506  1.00  0.00     0.039 A 
ATOM     36  C   UNL A   1      41.566  20.980  27.882  1.00  0.00     0.014 A 
ATOM     37  C   UNL A   1      41.876  21.821  25.632  1.00  0.00     0.014 A 
ATOM     38  C   UNL A   1      41.799  22.259  28.389  1.00  0.00     0.010 A 
ATOM     39  C   UNL A   1      42.184  23.079  26.144  1.00  0.00     0.010 A 
ATOM     40  C   UNL A   1      42.151  23.312  27.527  1.00  0.00    -0.014 A 
BRANCH  40  41
ATOM     41  C   UNL A   1      42.497  24.656  28.060  1.00  0.00     0.031 A 
ATOM     42  C   UNL A   1      43.899  24.953  28.518  1.00  0.00     0.074 A 
ATOM     43  C   UNL A   1      41.531  25.586  28.196  1.00  0.00     0.049 A 
ATOM     44  N   UNL A   1      44.373  26.040  29.073  1.00  0.00    -0.248 NA
ATOM     45  C   UNL A   1      44.894  23.881  28.356  1.00  0.00     0.031 C 
ATOM     46  C   UNL A   1      40.121  25.402  27.843  1.00  0.00     0.029 A 
ATOM     47  N   UNL A   1      41.583  26.868  28.685  1.00  0.00    -0.354 N 
ATOM     48  C   UNL A   1      45.709  25.775  29.344  1.00  0.00     0.074 A 
ATOM     49  C   UNL A   1      45.963  24.413  28.933  1.00  0.00     0.031 C 
ATOM     50  C   UNL A   1      39.447  26.532  28.114  1.00  0.00     0.029 A 
ATOM     51  C   UNL A   1      40.364  27.505  28.697  1.00  0.00     0.049 A 
ATOM     52  H   UNL A   1      42.415  27.292  28.998  1.00  0.00     0.167 HD
ATOM     53  C   UNL A   1      46.643  26.600  29.874  1.00  0.00     0.037 A 
ATOM     54  C   UNL A   1      40.022  28.730  29.141  1.00  0.00     0.037 A 
ATOM     55  C   UNL A   1      46.397  27.969  30.247  1.00  0.00     0.049 A 
ATOM     56  C   UNL A   1      41.085  29.628  29.713  1.00  0.00     0.074 A 
ATOM     57  C   UNL A   1      47.302  28.909  30.706  1.00  0.00     0.029 A 
ATOM     58  N   UNL A   1      45.158  28.588  30.210  1.00  0.00    -0.354 N 
ATOM     59  N   UNL A   1      42.366  29.395  29.875  1.00  0.00    -0.248 NA
ATOM     60  C   UNL A   1      40.660  30.963  30.157  1.00  0.00     0.031 C 
ATOM     61  C   UNL A   1      46.601  30.082  31.001  1.00  0.00     0.029 A 
ATOM     62  C   UNL A   1      45.271  29.891  30.669  1.00  0.00     0.049 A 
ATOM     63  H   UNL A   1      44.323  28.167  29.903  1.00  0.00     0.167 HD
ATOM     64  C   UNL A   1      42.901  30.562  30.407  1.00  0.00     0.074 A 
ATOM     65  C   UNL A   1      41.812  31.506  30.525  1.00  0.00     0.031 C 
ATOM     66  C   UNL A   1      44.180  30.825  30.769  1.00  0.00     0.037 A 
BRANCH  53  67
ATOM     67  C   UNL A   1      48.025  26.056  30.086  1.00  0.00     0.057 A 
ATOM     68  C   UNL A   1      48.977  26.027  29.059  1.00  0.00     0.134 A 
ATOM     69  C   UNL A   1      48.432  25.628  31.357  1.00  0.00     0.134 A 
ATOM     70  F   UNL A   1      48.650  26.414  27.817  1.00  0.00    -0.206 F 
ATOM     71  C   UNL A   1      50.281  25.581  29.285  1.00  0.00     0.040 A 
ATOM     72  C   UNL A   1      49.740  25.205  31.601  1.00  0.00     0.040 A 
ATOM     73  F   UNL A   1      47.572  25.636  32.386  1.00  0.00    -0.206 F 
ATOM     74  C   UNL A   1      50.668  25.178  30.563  1.00  0.00     0.006 A 
ENDBRANCH  53  67
BRANCH  54  75
ATOM     75  C   UNL A   1      38.609  29.187  29.072  1.00  0.00     0.057 A 
ATOM     76  C   UNL A   1      37.765  29.113  30.187  1.00  0.00     0.134 A 
ATOM     77  C   UNL A   1      38.056  29.666  27.879  1.00  0.00     0.134 A 
ATOM     78  F   UNL A   1      38.230  28.645  31.355  1.00  0.00    -0.206 F 
ATOM     79  C   UNL A   1      36.416  29.466  30.110  1.00  0.00     0.040 A 
ATOM     80  C   UNL A   1      36.717  30.052  27.795  1.00  0.00     0.040 A 
ATOM     81  F   UNL A   1      38.811  29.770  26.775  1.00  0.00    -0.206 F 
ATOM     82  C   UNL A   1      35.890  29.939  28.910  1.00  0.00     0.006 A 
ENDBRANCH  54  75
BRANCH  66  83
ATOM     83  C   UNL A   1      44.481  32.202  31.284  1.00  0.00     0.057 A 
ATOM     84  C   UNL A   1      44.995  33.208  30.456  1.00  0.00     0.134 A 
ATOM     85  C   UNL A   1      44.215  32.536  32.618  1.00  0.00     0.134 A 
ATOM     86  F   UNL A   1      45.285  32.951  29.171  1.00  0.00    -0.206 F 
ATOM     87  C   UNL A   1      45.256  34.491  30.944  1.00  0.00     0.040 A 
ATOM     88  C   UNL A   1      44.442  33.822  33.109  1.00  0.00     0.040 A 
ATOM     89  F   UNL A   1      43.712  31.622  33.462  1.00  0.00    -0.206 F 
ATOM     90  C   UNL A   1      44.973  34.802  32.272  1.00  0.00     0.006 A 
ENDBRANCH  66  83
ENDBRANCH  40  41
ENDBRANCH  32  35
ENDBRANCH  30  31
ENDBRANCH  29  30
ENDBRANCH  28  29
ENDBRANCH   1  28
TORSDOF 17
ENDMDL
MODEL 2
REMARK VINA RESULT:      -9.2      6.361     12.697
REMARK SMILES COc1cc(/C=N/NC(=O)c2cccnc2)ccc1OCC(=O)NCCCCNC(=O)c1ccc(-c2c3nc(c(-c4c(F)cccc4F)c4ccc([nH]4)c(-c4c(F)cccc4F)c4nc(c(-c5c(F)cccc5F)c5ccc2[nH]5)C=C4)C=C3)cc1
REMARK SMILES IDX 25 1 24 2 22 3 23 4 21 6 20 7 19 8 3 9 4 10 5 11 18 12 17 13
REMARK SMILES IDX 2 14 1 15 6 16 7 17 8 18 9 19 10 21 11 22 12 23 16 24 13 25
REMARK SMILES IDX 15 26 14 27 26 28 27 29 28 30 29 31 30 32 31 34 32 35 33 36
REMARK SMILES IDX 85 37 34 38 84 39 35 40 36 41 37 42 78 43 38 44 83 45 77 46
REMARK SMILES IDX 79 47 39 48 82 49 76 50 75 51 40 53 66 54 49 55 65 56 50 57
REMARK SMILES IDX 53 58 64 59 80 60 51 61 52 62 63 64 81 65 54 66 41 67 42 68
REMARK SMILES IDX 47 69 43 70 44 71 46 72 48 73 45 74 67 75 68 76 73 77 69 78
REMARK SMILES IDX 70 79 72 80 74 81 71 82 55 83 56 84 61 85 57 86 58 87 60 88
REMARK SMILES IDX 62 89 59 90
REMARK H PARENT 24 5 8 20 29 33 79 52 53 63
REMARK Flexibility Score: inf
ROOT
ATOM      1  C   UNL A   1      34.256  32.281  29.308  1.00  0.00     0.116 C 
ENDROOT
BRANCH   1   2
ATOM      2  N   UNL A   1      34.852  31.156  28.619  1.00  0.00    -0.353 N 
ATOM      3  C   UNL A   1      34.412  30.521  27.493  1.00  0.00     0.257 C 
ATOM      4  O   UNL A   1      35.196  29.756  26.926  1.00  0.00    -0.271 OA
ATOM      5  H   UNL A   1      35.682  30.803  29.013  1.00  0.00     0.163 HD
BRANCH   3   6
ATOM      6  C   UNL A   1      33.016  30.825  26.931  1.00  0.00     0.329 C 
BRANCH   6   7
ATOM      7  O   UNL A   1      31.961  29.935  27.257  1.00  0.00    -0.480 OA
BRANCH   7   8
ATOM      8  C   UNL A   1      31.732  28.835  26.478  1.00  0.00     0.161 A 
ATOM      9  C   UNL A   1      31.240  28.786  25.167  1.00  0.00     0.161 A 
ATOM     10  C   UNL A   1      31.010  27.546  24.551  1.00  0.00     0.060 A 
ATOM     11  C   UNL A   1      31.317  26.363  25.228  1.00  0.00    -0.002 A 
ATOM     12  C   UNL A   1      32.010  27.634  27.147  1.00  0.00     0.051 A 
ATOM     13  C   UNL A   1      31.831  26.400  26.521  1.00  0.00     0.014 A 
BRANCH   9  14
ATOM     14  O   UNL A   1      30.855  29.936  24.534  1.00  0.00    -0.493 OA
ATOM     15  C   UNL A   1      29.894  29.711  23.501  1.00  0.00     0.278 C 
ENDBRANCH   9  14
BRANCH  11  16
ATOM     16  C   UNL A   1      31.013  25.045  24.643  1.00  0.00     0.141 C 
ATOM     17  N   UNL A   1      31.741  24.009  24.912  1.00  0.00    -0.180 NA
BRANCH  17  18
ATOM     18  N   UNL A   1      31.512  22.855  24.215  1.00  0.00    -0.243 N 
ATOM     19  C   UNL A   1      32.408  21.975  23.630  1.00  0.00     0.272 C 
ATOM     20  H   UNL A   1      30.564  22.612  24.114  1.00  0.00     0.194 HD
ATOM     21  O   UNL A   1      32.003  21.002  22.995  1.00  0.00    -0.267 OA
BRANCH  19  22
ATOM     22  C   UNL A   1      33.863  22.178  23.746  1.00  0.00     0.059 A 
ATOM     23  C   UNL A   1      34.652  21.561  24.718  1.00  0.00     0.017 A 
ATOM     24  C   UNL A   1      34.477  23.046  22.854  1.00  0.00     0.124 A 
ATOM     25  C   UNL A   1      36.002  21.893  24.807  1.00  0.00     0.021 A 
ATOM     26  N   UNL A   1      35.787  23.392  22.924  1.00  0.00    -0.264 NA
ATOM     27  C   UNL A   1      36.516  22.811  23.902  1.00  0.00     0.111 A 
ENDBRANCH  19  22
ENDBRANCH  17  18
ENDBRANCH  11  16
ENDBRANCH   7   8
ENDBRANCH   6   7
ENDBRANCH   3   6
ENDBRANCH   1   2
BRANCH   1  28
ATOM     28  C   UNL A   1      34.397  33.594  28.544  1.00  0.00     0.023 C 
BRANCH  28  29
ATOM     29  C   UNL A   1      33.225  34.569  28.668  1.00  0.00     0.023 C 
BRANCH  29  30
ATOM     30  C   UNL A   1      33.508  35.857  29.430  1.00  0.00     0.116 C 
BRANCH  30  31
ATOM     31  N   UNL A   1      32.575  36.097  30.518  1.00  0.00    -0.352 N 
ATOM     32  C   UNL A   1      32.652  35.718  31.835  1.00  0.00     0.251 C 
ATOM     33  H   UNL A   1      31.769  36.606  30.275  1.00  0.00     0.163 HD
ATOM     34  O   UNL A   1      31.704  35.923  32.588  1.00  0.00    -0.269 OA
BRANCH  32  35
ATOM     35  C   UNL A   1      33.858  35.028  32.339  1.00  0.00     0.039 A 
ATOM     36  C   UNL A   1      33.721  33.743  32.866  1.00  0.00     0.014 A 
ATOM     37  C   UNL A   1      35.117  35.634  32.284  1.00  0.00     0.014 A 
ATOM     38  C   UNL A   1      34.854  33.036  33.273  1.00  0.00     0.010 A 
ATOM     39  C   UNL A   1      36.252  34.899  32.619  1.00  0.00     0.010 A 
ATOM     40  C   UNL A   1      36.134  33.592  33.115  1.00  0.00    -0.014 A 
BRANCH  40  41
ATOM     41  C   UNL A   1      37.355  32.816  33.454  1.00  0.00     0.031 A 
ATOM     42  C   UNL A   1      38.113  33.108  34.721  1.00  0.00     0.074 A 
ATOM     43  C   UNL A   1      37.820  31.895  32.587  1.00  0.00     0.049 A 
ATOM     44  N   UNL A   1      39.234  32.586  35.151  1.00  0.00    -0.248 NA
ATOM     45  C   UNL A   1      37.554  34.141  35.608  1.00  0.00     0.031 C 
ATOM     46  C   UNL A   1      37.208  31.559  31.298  1.00  0.00     0.029 A 
ATOM     47  N   UNL A   1      38.925  31.083  32.648  1.00  0.00    -0.354 N 
ATOM     48  C   UNL A   1      39.523  33.239  36.342  1.00  0.00     0.074 A 
ATOM     49  C   UNL A   1      38.486  34.225  36.548  1.00  0.00     0.031 C 
ATOM     50  C   UNL A   1      37.938  30.604  30.700  1.00  0.00     0.029 A 
ATOM     51  C   UNL A   1      39.090  30.288  31.538  1.00  0.00     0.049 A 
ATOM     52  H   UNL A   1      39.543  31.071  33.414  1.00  0.00     0.167 HD
ATOM     53  C   UNL A   1      40.553  33.024  37.194  1.00  0.00     0.037 A 
ATOM     54  C   UNL A   1      40.066  29.414  31.224  1.00  0.00     0.037 A 
ATOM     55  C   UNL A   1      41.563  32.015  37.006  1.00  0.00     0.049 A 
ATOM     56  C   UNL A   1      41.190  29.189  32.198  1.00  0.00     0.074 A 
ATOM     57  C   UNL A   1      42.593  31.662  37.861  1.00  0.00     0.029 A 
ATOM     58  N   UNL A   1      41.675  31.206  35.887  1.00  0.00    -0.354 N 
ATOM     59  N   UNL A   1      41.398  29.747  33.366  1.00  0.00    -0.248 NA
ATOM     60  C   UNL A   1      42.213  28.204  31.816  1.00  0.00     0.031 C 
ATOM     61  C   UNL A   1      43.362  30.677  37.234  1.00  0.00     0.029 A 
ATOM     62  C   UNL A   1      42.776  30.376  36.016  1.00  0.00     0.049 A 
ATOM     63  H   UNL A   1      41.063  31.219  35.116  1.00  0.00     0.167 HD
ATOM     64  C   UNL A   1      42.553  29.161  33.870  1.00  0.00     0.074 A 
ATOM     65  C   UNL A   1      42.990  28.191  32.889  1.00  0.00     0.031 C 
ATOM     66  C   UNL A   1      43.194  29.405  35.038  1.00  0.00     0.037 A 
BRANCH  53  67
ATOM     67  C   UNL A   1      40.650  33.891  38.416  1.00  0.00     0.057 A 
ATOM     68  C   UNL A   1      41.418  35.061  38.437  1.00  0.00     0.134 A 
ATOM     69  C   UNL A   1      39.901  33.588  39.561  1.00  0.00     0.134 A 
ATOM     70  F   UNL A   1      42.167  35.403  37.377  1.00  0.00    -0.206 F 
ATOM     71  C   UNL A   1      41.448  35.895  39.557  1.00  0.00     0.040 A 
ATOM     72  C   UNL A   1      39.901  34.428  40.677  1.00  0.00     0.040 A 
ATOM     73  F   UNL A   1      39.138  32.486  39.605  1.00  0.00    -0.206 F 
ATOM     74  C   UNL A   1      40.678  35.583  40.677  1.00  0.00     0.006 A 
ENDBRANCH  53  67
BRANCH  54  75
ATOM     75  C   UNL A   1      40.035  28.687  29.928  1.00  0.00     0.057 A 
ATOM     76  C   UNL A   1      39.337  27.481  29.787  1.00  0.00     0.134 A 
ATOM     77  C   UNL A   1      40.739  29.156  28.813  1.00  0.00     0.134 A 
ATOM     78  F   UNL A   1      38.658  26.969  30.824  1.00  0.00    -0.206 F 
ATOM     79  C   UNL A   1      39.368  26.752  28.596  1.00  0.00     0.040 A 
ATOM     80  C   UNL A   1      40.754  28.453  27.607  1.00  0.00     0.040 A 
ATOM     81  F   UNL A   1      41.423  30.309  28.878  1.00  0.00    -0.206 F 
ATOM     82  C   UNL A   1      40.077  27.240  27.501  1.00  0.00     0.006 A 
ENDBRANCH  54  75
BRANCH  66  83
ATOM     83  C   UNL A   1      44.411  28.583  35.342  1.00  0.00     0.057 A 
ATOM     84  C   UNL A   1      45.699  29.004  34.986  1.00  0.00     0.134 A 
ATOM     85  C   UNL A   1      44.297  27.372  36.037  1.00  0.00     0.134 A 
ATOM     86  F   UNL A   1      45.878  30.147  34.307  1.00  0.00    -0.206 F 
ATOM     87  C   UNL A   1      46.826  28.238  35.290  1.00  0.00     0.040 A 
ATOM     88  C   UNL A   1      45.418  26.613  36.374  1.00  0.00     0.040 A 
ATOM     89  F   UNL A   1      43.093  26.916  36.417  1.00  0.00    -0.206 F 
ATOM     90  C   UNL A   1      46.687  27.042  35.991  1.00  0.00     0.006 A 
ENDBRANCH  66  83
ENDBRANCH  40  41
ENDBRANCH  32  35
ENDBRANCH  30  31
ENDBRANCH  29  30
ENDBRANCH  28  29
ENDBRANCH   1  28
TORSDOF 17
ENDMDL
MODEL 3
REMARK VINA RESULT:      -9.1      4.599     11.930
REMARK SMILES COc1cc(/C=N/NC(=O)c2cccnc2)ccc1OCC(=O)NCCCCNC(=O)c1ccc(-c2c3nc(c(-c4c(F)cccc4F)c4ccc([nH]4)c(-c4c(F)cccc4F)c4nc(c(-c5c(F)cccc5F)c5ccc2[nH]5)C=C4)C=C3)cc1
REMARK SMILES IDX 25 1 24 2 22 3 23 4 21 6 20 7 19 8 3 9 4 10 5 11 18 12 17 13
REMARK SMILES IDX 2 14 1 15 6 16 7 17 8 18 9 19 10 21 11 22 12 23 16 24 13 25
REMARK SMILES IDX 15 26 14 27 26 28 27 29 28 30 29 31 30 32 31 34 32 35 33 36
REMARK SMILES IDX 85 37 34 38 84 39 35 40 36 41 37 42 78 43 38 44 83 45 77 46
REMARK SMILES IDX 79 47 39 48 82 49 76 50 75 51 40 53 66 54 49 55 65 56 50 57
REMARK SMILES IDX 53 58 64 59 80 60 51 61 52 62 63 64 81 65 54 66 41 67 42 68
REMARK SMILES IDX 47 69 43 70 44 71 46 72 48 73 45 74 67 75 68 76 73 77 69 78
REMARK SMILES IDX 70 79 72 80 74 81 71 82 55 83 56 84 61 85 57 86 58 87 60 88
REMARK SMILES IDX 62 89 59 90
REMARK H PARENT 24 5 8 20 29 33 79 52 53 63
REMARK Flexibility Score: inf
ROOT
ATOM      1  C   UNL A   1      44.115  35.078  33.492  1.00  0.00     0.116 C 
ENDROOT
BRANCH   1   2
ATOM      2  N   UNL A   1      44.118  33.636  33.363  1.00  0.00    -0.353 N 
ATOM      3  C   UNL A   1      43.072  32.769  33.503  1.00  0.00     0.257 C 
ATOM      4  O   UNL A   1      43.232  31.614  33.103  1.00  0.00    -0.271 OA
ATOM      5  H   UNL A   1      44.987  33.227  33.148  1.00  0.00     0.163 HD
BRANCH   3   6
ATOM      6  C   UNL A   1      41.733  33.261  34.067  1.00  0.00     0.329 C 
BRANCH   6   7
ATOM      7  O   UNL A   1      40.596  32.431  33.898  1.00  0.00    -0.480 OA
BRANCH   7   8
ATOM      8  C   UNL A   1      39.342  32.949  34.067  1.00  0.00     0.161 A 
ATOM      9  C   UNL A   1      38.524  32.892  35.204  1.00  0.00     0.161 A 
ATOM     10  C   UNL A   1      37.229  33.433  35.162  1.00  0.00     0.060 A 
ATOM     11  C   UNL A   1      36.775  34.071  34.005  1.00  0.00    -0.002 A 
ATOM     12  C   UNL A   1      38.856  33.573  32.909  1.00  0.00     0.051 A 
ATOM     13  C   UNL A   1      37.589  34.157  32.879  1.00  0.00     0.014 A 
BRANCH   9  14
ATOM     14  O   UNL A   1      38.928  32.193  36.307  1.00  0.00    -0.493 OA
ATOM     15  C   UNL A   1      37.850  31.858  37.183  1.00  0.00     0.278 C 
ENDBRANCH   9  14
BRANCH  11  16
ATOM     16  C   UNL A   1      35.395  34.578  33.901  1.00  0.00     0.141 C 
ATOM     17  N   UNL A   1      35.158  35.815  33.607  1.00  0.00    -0.180 NA
BRANCH  17  18
ATOM     18  N   UNL A   1      33.869  36.266  33.685  1.00  0.00    -0.243 N 
ATOM     19  C   UNL A   1      32.928  36.451  32.686  1.00  0.00     0.272 C 
ATOM     20  H   UNL A   1      33.563  36.494  34.593  1.00  0.00     0.194 HD
ATOM     21  O   UNL A   1      31.820  36.917  32.950  1.00  0.00    -0.267 OA
BRANCH  19  22
ATOM     22  C   UNL A   1      33.223  36.101  31.285  1.00  0.00     0.059 A 
ATOM     23  C   UNL A   1      33.742  34.866  30.892  1.00  0.00     0.017 A 
ATOM     24  C   UNL A   1      32.994  37.059  30.307  1.00  0.00     0.124 A 
ATOM     25  C   UNL A   1      34.079  34.666  29.556  1.00  0.00     0.021 A 
ATOM     26  N   UNL A   1      33.320  36.893  29.001  1.00  0.00    -0.264 NA
ATOM     27  C   UNL A   1      33.861  35.702  28.658  1.00  0.00     0.111 A 
ENDBRANCH  19  22
ENDBRANCH  17  18
ENDBRANCH  11  16
ENDBRANCH   7   8
ENDBRANCH   6   7
ENDBRANCH   3   6
ENDBRANCH   1   2
BRANCH   1  28
ATOM     28  C   UNL A   1      43.424  35.781  32.329  1.00  0.00     0.023 C 
BRANCH  28  29
ATOM     29  C   UNL A   1      43.765  37.261  32.144  1.00  0.00     0.023 C 
BRANCH  29  30
ATOM     30  C   UNL A   1      43.817  37.757  30.704  1.00  0.00     0.116 C 
BRANCH  30  31
ATOM     31  N   UNL A   1      45.169  38.021  30.238  1.00  0.00    -0.352 N 
ATOM     32  C   UNL A   1      46.067  37.175  29.639  1.00  0.00     0.251 C 
ATOM     33  H   UNL A   1      45.485  38.943  30.372  1.00  0.00     0.163 HD
ATOM     34  O   UNL A   1      47.212  37.558  29.411  1.00  0.00    -0.269 OA
BRANCH  32  35
ATOM     35  C   UNL A   1      45.673  35.790  29.303  1.00  0.00     0.039 A 
ATOM     36  C   UNL A   1      46.038  34.762  30.174  1.00  0.00     0.014 A 
ATOM     37  C   UNL A   1      44.941  35.504  28.147  1.00  0.00     0.014 A 
ATOM     38  C   UNL A   1      45.608  33.457  29.925  1.00  0.00     0.010 A 
ATOM     39  C   UNL A   1      44.450  34.218  27.940  1.00  0.00     0.010 A 
ATOM     40  C   UNL A   1      44.776  33.180  28.827  1.00  0.00    -0.014 A 
BRANCH  40  41
ATOM     41  C   UNL A   1      44.233  31.816  28.602  1.00  0.00     0.031 A 
ATOM     42  C   UNL A   1      42.902  31.423  29.184  1.00  0.00     0.074 A 
ATOM     43  C   UNL A   1      44.971  30.908  27.933  1.00  0.00     0.049 A 
ATOM     44  N   UNL A   1      42.297  30.262  29.153  1.00  0.00    -0.248 NA
ATOM     45  C   UNL A   1      42.164  32.463  29.919  1.00  0.00     0.031 C 
ATOM     46  C   UNL A   1      46.302  31.146  27.369  1.00  0.00     0.029 A 
ATOM     47  N   UNL A   1      44.714  29.594  27.626  1.00  0.00    -0.354 N 
ATOM     48  C   UNL A   1      41.125  30.427  29.879  1.00  0.00     0.074 A 
ATOM     49  C   UNL A   1      41.119  31.785  30.374  1.00  0.00     0.031 C 
ATOM     50  C   UNL A   1      46.737  30.023  26.776  1.00  0.00     0.029 A 
ATOM     51  C   UNL A   1      45.739  28.974  26.951  1.00  0.00     0.049 A 
ATOM     52  H   UNL A   1      43.876  29.139  27.868  1.00  0.00     0.167 HD
ATOM     53  C   UNL A   1      40.135  29.529  30.099  1.00  0.00     0.037 A 
ATOM     54  C   UNL A   1      45.867  27.699  26.533  1.00  0.00     0.037 A 
ATOM     55  C   UNL A   1      40.125  28.189  29.572  1.00  0.00     0.049 A 
ATOM     56  C   UNL A   1      44.743  26.729  26.781  1.00  0.00     0.074 A 
ATOM     57  C   UNL A   1      39.123  27.238  29.664  1.00  0.00     0.029 A 
ATOM     58  N   UNL A   1      41.165  27.610  28.862  1.00  0.00    -0.354 N 
ATOM     59  N   UNL A   1      43.598  26.928  27.388  1.00  0.00    -0.248 NA
ATOM     60  C   UNL A   1      44.925  25.360  26.279  1.00  0.00     0.031 C 
ATOM     61  C   UNL A   1      39.580  26.064  29.059  1.00  0.00     0.029 A 
ATOM     62  C   UNL A   1      40.840  26.303  28.538  1.00  0.00     0.049 A 
ATOM     63  H   UNL A   1      42.006  28.060  28.623  1.00  0.00     0.167 HD
ATOM     64  C   UNL A   1      42.912  25.721  27.313  1.00  0.00     0.074 A 
ATOM     65  C   UNL A   1      43.762  24.803  26.586  1.00  0.00     0.031 C 
ATOM     66  C   UNL A   1      41.690  25.402  27.803  1.00  0.00     0.037 A 
BRANCH  53  67
ATOM     67  C   UNL A   1      38.971  29.956  30.944  1.00  0.00     0.057 A 
ATOM     68  C   UNL A   1      37.871  30.636  30.405  1.00  0.00     0.134 A 
ATOM     69  C   UNL A   1      38.917  29.612  32.302  1.00  0.00     0.134 A 
ATOM     70  F   UNL A   1      37.865  31.003  29.115  1.00  0.00    -0.206 F 
ATOM     71  C   UNL A   1      36.764  30.969  31.188  1.00  0.00     0.040 A 
ATOM     72  C   UNL A   1      37.803  29.916  33.088  1.00  0.00     0.040 A 
ATOM     73  F   UNL A   1      39.933  28.955  32.880  1.00  0.00    -0.206 F 
ATOM     74  C   UNL A   1      36.724  30.599  32.532  1.00  0.00     0.006 A 
ENDBRANCH  53  67
BRANCH  54  75
ATOM     75  C   UNL A   1      47.104  27.256  25.840  1.00  0.00     0.057 A 
ATOM     76  C   UNL A   1      48.169  26.684  26.547  1.00  0.00     0.134 A 
ATOM     77  C   UNL A   1      47.271  27.433  24.461  1.00  0.00     0.134 A 
ATOM     78  F   UNL A   1      48.079  26.505  27.874  1.00  0.00    -0.206 F 
ATOM     79  C   UNL A   1      49.365  26.337  25.916  1.00  0.00     0.040 A 
ATOM     80  C   UNL A   1      48.450  27.063  23.812  1.00  0.00     0.040 A 
ATOM     81  F   UNL A   1      46.286  27.968  23.723  1.00  0.00    -0.206 F 
ATOM     82  C   UNL A   1      49.506  26.525  24.543  1.00  0.00     0.006 A 
ENDBRANCH  54  75
BRANCH  66  83
ATOM     83  C   UNL A   1      41.178  24.018  27.534  1.00  0.00     0.057 A 
ATOM     84  C   UNL A   1      41.644  22.904  28.244  1.00  0.00     0.134 A 
ATOM     85  C   UNL A   1      40.176  23.803  26.579  1.00  0.00     0.134 A 
ATOM     86  F   UNL A   1      42.613  23.038  29.163  1.00  0.00    -0.206 F 
ATOM     87  C   UNL A   1      41.148  21.622  27.996  1.00  0.00     0.040 A 
ATOM     88  C   UNL A   1      39.650  22.532  26.345  1.00  0.00     0.040 A 
ATOM     89  F   UNL A   1      39.678  24.828  25.872  1.00  0.00    -0.206 F 
ATOM     90  C   UNL A   1      40.143  21.435  27.050  1.00  0.00     0.006 A 
ENDBRANCH  66  83
ENDBRANCH  40  41
ENDBRANCH  32  35
ENDBRANCH  30  31
ENDBRANCH  29  30
ENDBRANCH  28  29
ENDBRANCH   1  28
TORSDOF 17
ENDMDL
