MODEL 1
REMARK VINA RESULT:     -11.8      0.000      0.000
REMARK SMILES Cc1ccc(C)c(Oc2cccc(F)c2C(=O)NCCCCNC(=O)c2ccc(-c3c4nc(c(-c5c(F)cccc5F)c5ccc([nH]5)c(-c5c(F)cccc5F)c5nc(c(-c6c(F)cccc6F)c6ccc3[nH]6)C=C5)C=C4)cc2)c1
REMARK SMILES IDX 20 1 19 2 18 3 16 4 17 5 15 7 9 8 10 9 11 10 13 11 12 12
REMARK SMILES IDX 14 13 8 14 7 15 1 16 2 17 3 18 80 19 4 20 5 21 6 22 21 23
REMARK SMILES IDX 22 24 23 25 24 26 25 28 26 29 27 30 79 31 28 32 78 33 29 34
REMARK SMILES IDX 30 35 31 36 72 37 32 38 77 39 71 40 73 41 33 42 76 43 70 44
REMARK SMILES IDX 69 45 34 47 60 48 43 49 59 50 44 51 47 52 58 53 74 54 45 55
REMARK SMILES IDX 46 56 57 58 75 59 48 60 35 61 36 62 41 63 37 64 38 65 40 66
REMARK SMILES IDX 42 67 39 68 61 69 62 70 67 71 63 72 64 73 66 74 68 75 65 76
REMARK SMILES IDX 49 77 50 78 55 79 51 80 52 81 54 82 56 83 53 84
REMARK H PARENT 18 6 23 27 73 46 47 57
REMARK Flexibility Score: inf
ROOT
ATOM      1  C   UNL A   1      34.975  30.364  27.308  1.00  0.00     0.023 C 
ENDROOT
BRANCH   1   2
ATOM      2  C   UNL A   1      34.451  28.937  27.124  1.00  0.00     0.116 C 
BRANCH   2   3
ATOM      3  N   UNL A   1      33.147  28.629  27.688  1.00  0.00    -0.352 N 
ATOM      4  C   UNL A   1      31.974  28.152  27.122  1.00  0.00     0.258 C 
ATOM      5  O   UNL A   1      31.085  27.820  27.907  1.00  0.00    -0.269 OA
ATOM      6  H   UNL A   1      33.085  28.789  28.658  1.00  0.00     0.163 HD
BRANCH   4   7
ATOM      7  C   UNL A   1      31.710  28.123  25.652  1.00  0.00     0.118 A 
ATOM      8  C   UNL A   1      31.991  26.968  24.896  1.00  0.00     0.143 A 
ATOM      9  C   UNL A   1      31.506  26.819  23.582  1.00  0.00     0.048 A 
ATOM     10  C   UNL A   1      30.871  27.881  22.951  1.00  0.00     0.007 A 
ATOM     11  C   UNL A   1      31.205  29.214  24.945  1.00  0.00     0.139 A 
ATOM     12  C   UNL A   1      30.764  29.096  23.621  1.00  0.00     0.040 A 
ATOM     13  F   UNL A   1      31.187  30.441  25.485  1.00  0.00    -0.206 F 
BRANCH   8  14
ATOM     14  O   UNL A   1      32.785  25.959  25.399  1.00  0.00    -0.456 OA
BRANCH  14  15
ATOM     15  C   UNL A   1      32.222  24.690  25.523  1.00  0.00     0.130 A 
ATOM     16  C   UNL A   1      29.370  22.805  27.251  1.00  0.00     0.044 C 
ATOM     17  C   UNL A   1      30.581  23.096  26.410  1.00  0.00    -0.047 A 
ATOM     18  C   UNL A   1      31.223  22.066  25.726  1.00  0.00     0.004 A 
ATOM     19  C   UNL A   1      31.074  24.405  26.288  1.00  0.00     0.050 A 
ATOM     20  C   UNL A   1      32.337  22.340  24.931  1.00  0.00     0.007 A 
ATOM     21  C   UNL A   1      32.849  23.646  24.822  1.00  0.00    -0.008 A 
ATOM     22  C   UNL A   1      34.043  23.866  23.937  1.00  0.00     0.048 C 
ENDBRANCH  14  15
ENDBRANCH   8  14
ENDBRANCH   4   7
ENDBRANCH   2   3
ENDBRANCH   1   2
BRANCH   1  23
ATOM     23  C   UNL A   1      34.106  31.445  27.963  1.00  0.00     0.023 C 
BRANCH  23  24
ATOM     24  C   UNL A   1      34.774  32.748  28.410  1.00  0.00     0.116 C 
BRANCH  24  25
ATOM     25  N   UNL A   1      34.860  32.945  29.869  1.00  0.00    -0.352 N 
ATOM     26  C   UNL A   1      35.431  32.154  30.869  1.00  0.00     0.251 C 
ATOM     27  H   UNL A   1      34.442  33.776  30.194  1.00  0.00     0.163 HD
ATOM     28  O   UNL A   1      35.087  32.277  32.033  1.00  0.00    -0.269 OA
BRANCH  26  29
ATOM     29  C   UNL A   1      36.495  31.188  30.522  1.00  0.00     0.039 A 
ATOM     30  C   UNL A   1      36.381  29.795  30.481  1.00  0.00     0.014 A 
ATOM     31  C   UNL A   1      37.753  31.713  30.400  1.00  0.00     0.014 A 
ATOM     32  C   UNL A   1      37.558  29.035  30.343  1.00  0.00     0.010 A 
ATOM     33  C   UNL A   1      38.684  31.036  29.700  1.00  0.00     0.010 A 
ATOM     34  C   UNL A   1      38.739  29.710  30.041  1.00  0.00    -0.014 A 
BRANCH  34  35
ATOM     35  C   UNL A   1      40.084  29.182  29.937  1.00  0.00     0.031 A 
ATOM     36  C   UNL A   1      40.743  28.958  31.244  1.00  0.00     0.074 A 
ATOM     37  C   UNL A   1      40.479  28.518  28.827  1.00  0.00     0.049 A 
ATOM     38  N   UNL A   1      41.703  29.646  31.762  1.00  0.00    -0.248 NA
ATOM     39  C   UNL A   1      40.138  27.987  32.178  1.00  0.00     0.031 C 
ATOM     40  C   UNL A   1      39.730  28.246  27.591  1.00  0.00     0.029 A 
ATOM     41  N   UNL A   1      41.632  27.829  28.627  1.00  0.00    -0.354 N 
ATOM     42  C   UNL A   1      41.952  29.052  32.994  1.00  0.00     0.074 A 
ATOM     43  C   UNL A   1      40.784  28.279  33.307  1.00  0.00     0.031 C 
ATOM     44  C   UNL A   1      40.375  27.299  26.868  1.00  0.00     0.029 A 
ATOM     45  C   UNL A   1      41.633  26.984  27.522  1.00  0.00     0.049 A 
ATOM     46  H   UNL A   1      42.411  27.921  29.221  1.00  0.00     0.167 HD
ATOM     47  C   UNL A   1      43.207  28.988  33.516  1.00  0.00     0.037 A 
ATOM     48  C   UNL A   1      42.584  26.057  27.238  1.00  0.00     0.037 A 
ATOM     49  C   UNL A   1      44.116  29.816  32.760  1.00  0.00     0.049 A 
ATOM     50  C   UNL A   1      43.786  26.408  28.047  1.00  0.00     0.074 A 
ATOM     51  C   UNL A   1      44.139  31.157  32.420  1.00  0.00     0.029 A 
ATOM     52  N   UNL A   1      44.954  29.190  31.867  1.00  0.00    -0.354 N 
ATOM     53  N   UNL A   1      44.507  27.478  27.852  1.00  0.00    -0.248 NA
ATOM     54  C   UNL A   1      43.904  25.811  29.372  1.00  0.00     0.031 C 
ATOM     55  C   UNL A   1      44.576  31.183  31.063  1.00  0.00     0.029 A 
ATOM     56  C   UNL A   1      44.877  29.876  30.680  1.00  0.00     0.049 A 
ATOM     57  H   UNL A   1      45.506  28.395  32.045  1.00  0.00     0.167 HD
ATOM     58  C   UNL A   1      44.818  27.932  29.127  1.00  0.00     0.074 A 
ATOM     59  C   UNL A   1      44.497  26.819  30.019  1.00  0.00     0.031 C 
ATOM     60  C   UNL A   1      45.007  29.262  29.376  1.00  0.00     0.037 A 
BRANCH  47  61
ATOM     61  C   UNL A   1      43.693  27.926  34.472  1.00  0.00     0.057 A 
ATOM     62  C   UNL A   1      43.912  26.569  34.152  1.00  0.00     0.134 A 
ATOM     63  C   UNL A   1      44.191  28.324  35.724  1.00  0.00     0.134 A 
ATOM     64  F   UNL A   1      43.604  26.044  32.961  1.00  0.00    -0.206 F 
ATOM     65  C   UNL A   1      44.565  25.679  35.010  1.00  0.00     0.040 A 
ATOM     66  C   UNL A   1      44.901  27.457  36.564  1.00  0.00     0.040 A 
ATOM     67  F   UNL A   1      44.064  29.592  36.144  1.00  0.00    -0.206 F 
ATOM     68  C   UNL A   1      45.090  26.128  36.208  1.00  0.00     0.006 A 
ENDBRANCH  47  61
BRANCH  48  69
ATOM     69  C   UNL A   1      42.424  24.714  26.625  1.00  0.00     0.057 A 
ATOM     70  C   UNL A   1      41.828  23.648  27.320  1.00  0.00     0.134 A 
ATOM     71  C   UNL A   1      43.133  24.369  25.462  1.00  0.00     0.134 A 
ATOM     72  F   UNL A   1      41.147  23.848  28.455  1.00  0.00    -0.206 F 
ATOM     73  C   UNL A   1      41.987  22.318  26.923  1.00  0.00     0.040 A 
ATOM     74  C   UNL A   1      43.293  23.039  25.050  1.00  0.00     0.040 A 
ATOM     75  F   UNL A   1      43.751  25.311  24.735  1.00  0.00    -0.206 F 
ATOM     76  C   UNL A   1      42.741  22.007  25.800  1.00  0.00     0.006 A 
ENDBRANCH  48  69
BRANCH  60  77
ATOM     77  C   UNL A   1      45.090  30.203  28.201  1.00  0.00     0.057 A 
ATOM     78  C   UNL A   1      46.350  30.553  27.707  1.00  0.00     0.134 A 
ATOM     79  C   UNL A   1      43.995  30.913  27.682  1.00  0.00     0.134 A 
ATOM     80  F   UNL A   1      47.452  29.960  28.190  1.00  0.00    -0.206 F 
ATOM     81  C   UNL A   1      46.516  31.562  26.754  1.00  0.00     0.040 A 
ATOM     82  C   UNL A   1      44.142  31.900  26.704  1.00  0.00     0.040 A 
ATOM     83  F   UNL A   1      42.759  30.725  28.152  1.00  0.00    -0.206 F 
ATOM     84  C   UNL A   1      45.410  32.237  26.245  1.00  0.00     0.006 A 
ENDBRANCH  60  77
ENDBRANCH  34  35
ENDBRANCH  26  29
ENDBRANCH  24  25
ENDBRANCH  23  24
ENDBRANCH   1  23
TORSDOF 13
ENDMDL
MODEL 2
REMARK VINA RESULT:     -11.5      1.747      2.658
REMARK SMILES Cc1ccc(C)c(Oc2cccc(F)c2C(=O)NCCCCNC(=O)c2ccc(-c3c4nc(c(-c5c(F)cccc5F)c5ccc([nH]5)c(-c5c(F)cccc5F)c5nc(c(-c6c(F)cccc6F)c6ccc3[nH]6)C=C5)C=C4)cc2)c1
REMARK SMILES IDX 20 1 19 2 18 3 16 4 17 5 15 7 9 8 10 9 11 10 13 11 12 12
REMARK SMILES IDX 14 13 8 14 7 15 1 16 2 17 3 18 80 19 4 20 5 21 6 22 21 23
REMARK SMILES IDX 22 24 23 25 24 26 25 28 26 29 27 30 79 31 28 32 78 33 29 34
REMARK SMILES IDX 30 35 31 36 72 37 32 38 77 39 71 40 73 41 33 42 76 43 70 44
REMARK SMILES IDX 69 45 34 47 60 48 43 49 59 50 44 51 47 52 58 53 74 54 45 55
REMARK SMILES IDX 46 56 57 58 75 59 48 60 35 61 36 62 41 63 37 64 38 65 40 66
REMARK SMILES IDX 42 67 39 68 61 69 62 70 67 71 63 72 64 73 66 74 68 75 65 76
REMARK SMILES IDX 49 77 50 78 55 79 51 80 52 81 54 82 56 83 53 84
REMARK H PARENT 18 6 23 27 73 46 47 57
REMARK Flexibility Score: inf
ROOT
ATOM      1  C   UNL A   1      33.888  28.234  24.526  1.00  0.00     0.023 C 
ENDROOT
BRANCH   1   2
ATOM      2  C   UNL A   1      33.002  28.825  23.427  1.00  0.00     0.116 C 
BRANCH   2   3
ATOM      3  N   UNL A   1      32.545  27.922  22.383  1.00  0.00    -0.352 N 
ATOM      4  C   UNL A   1      31.718  26.809  22.408  1.00  0.00     0.258 C 
ATOM      5  O   UNL A   1      31.374  26.359  21.313  1.00  0.00    -0.269 OA
ATOM      6  H   UNL A   1      32.889  28.143  21.487  1.00  0.00     0.163 HD
BRANCH   4   7
ATOM      7  C   UNL A   1      31.324  26.091  23.657  1.00  0.00     0.118 A 
ATOM      8  C   UNL A   1      32.108  25.031  24.153  1.00  0.00     0.143 A 
ATOM      9  C   UNL A   1      31.914  24.525  25.453  1.00  0.00     0.048 A 
ATOM     10  C   UNL A   1      30.837  24.960  26.214  1.00  0.00     0.007 A 
ATOM     11  C   UNL A   1      30.173  26.397  24.382  1.00  0.00     0.139 A 
ATOM     12  C   UNL A   1      29.939  25.864  25.656  1.00  0.00     0.040 A 
ATOM     13  F   UNL A   1      29.205  27.162  23.856  1.00  0.00    -0.206 F 
BRANCH   8  14
ATOM     14  O   UNL A   1      33.067  24.422  23.370  1.00  0.00    -0.456 OA
BRANCH  14  15
ATOM     15  C   UNL A   1      34.029  23.643  24.011  1.00  0.00     0.130 A 
ATOM     16  C   UNL A   1      37.324  23.897  25.946  1.00  0.00     0.044 C 
ATOM     17  C   UNL A   1      36.115  23.325  25.263  1.00  0.00    -0.047 A 
ATOM     18  C   UNL A   1      35.922  21.945  25.218  1.00  0.00     0.004 A 
ATOM     19  C   UNL A   1      35.156  24.165  24.675  1.00  0.00     0.050 A 
ATOM     20  C   UNL A   1      34.789  21.416  24.599  1.00  0.00     0.007 A 
ATOM     21  C   UNL A   1      33.836  22.252  23.989  1.00  0.00    -0.008 A 
ATOM     22  C   UNL A   1      32.636  21.609  23.353  1.00  0.00     0.048 C 
ENDBRANCH  14  15
ENDBRANCH   8  14
ENDBRANCH   4   7
ENDBRANCH   2   3
ENDBRANCH   1   2
BRANCH   1  23
ATOM     23  C   UNL A   1      33.448  28.261  25.995  1.00  0.00     0.023 C 
BRANCH  23  24
ATOM     24  C   UNL A   1      34.324  29.004  27.007  1.00  0.00     0.116 C 
BRANCH  24  25
ATOM     25  N   UNL A   1      34.328  30.474  26.879  1.00  0.00    -0.352 N 
ATOM     26  C   UNL A   1      35.042  31.451  27.577  1.00  0.00     0.251 C 
ATOM     27  H   UNL A   1      33.724  30.826  26.186  1.00  0.00     0.163 HD
ATOM     28  O   UNL A   1      34.652  32.607  27.603  1.00  0.00    -0.269 OA
BRANCH  26  29
ATOM     29  C   UNL A   1      36.307  31.094  28.253  1.00  0.00     0.039 A 
ATOM     30  C   UNL A   1      37.041  31.894  29.135  1.00  0.00     0.014 A 
ATOM     31  C   UNL A   1      36.895  29.933  27.832  1.00  0.00     0.014 A 
ATOM     32  C   UNL A   1      38.330  31.467  29.506  1.00  0.00     0.010 A 
ATOM     33  C   UNL A   1      37.783  29.315  28.635  1.00  0.00     0.010 A 
ATOM     34  C   UNL A   1      38.717  30.176  29.149  1.00  0.00    -0.014 A 
BRANCH  34  35
ATOM     35  C   UNL A   1      40.003  29.534  29.327  1.00  0.00     0.031 A 
ATOM     36  C   UNL A   1      40.279  29.119  30.721  1.00  0.00     0.074 A 
ATOM     37  C   UNL A   1      40.630  28.948  28.282  1.00  0.00     0.049 A 
ATOM     38  N   UNL A   1      41.113  29.657  31.545  1.00  0.00    -0.248 NA
ATOM     39  C   UNL A   1      39.387  28.123  31.347  1.00  0.00     0.031 C 
ATOM     40  C   UNL A   1      40.216  28.873  26.873  1.00  0.00     0.029 A 
ATOM     41  N   UNL A   1      41.747  28.176  28.299  1.00  0.00    -0.354 N 
ATOM     42  C   UNL A   1      40.989  28.923  32.718  1.00  0.00     0.074 A 
ATOM     43  C   UNL A   1      39.731  28.238  32.630  1.00  0.00     0.031 C 
ATOM     44  C   UNL A   1      40.964  27.946  26.228  1.00  0.00     0.029 A 
ATOM     45  C   UNL A   1      41.981  27.448  27.136  1.00  0.00     0.049 A 
ATOM     46  H   UNL A   1      42.347  28.133  29.078  1.00  0.00     0.167 HD
ATOM     47  C   UNL A   1      42.056  28.687  33.530  1.00  0.00     0.037 A 
ATOM     48  C   UNL A   1      42.910  26.467  26.994  1.00  0.00     0.037 A 
ATOM     49  C   UNL A   1      43.184  29.496  33.135  1.00  0.00     0.049 A 
ATOM     50  C   UNL A   1      43.877  26.619  28.116  1.00  0.00     0.074 A 
ATOM     51  C   UNL A   1      43.385  30.855  32.977  1.00  0.00     0.029 A 
ATOM     52  N   UNL A   1      44.184  28.883  32.415  1.00  0.00    -0.354 N 
ATOM     53  N   UNL A   1      44.694  27.630  28.242  1.00  0.00    -0.248 NA
ATOM     54  C   UNL A   1      43.603  25.885  29.346  1.00  0.00     0.031 C 
ATOM     55  C   UNL A   1      44.164  30.974  31.789  1.00  0.00     0.029 A 
ATOM     56  C   UNL A   1      44.468  29.688  31.339  1.00  0.00     0.049 A 
ATOM     57  H   UNL A   1      44.615  28.025  32.630  1.00  0.00     0.167 HD
ATOM     58  C   UNL A   1      44.689  27.923  29.599  1.00  0.00     0.074 A 
ATOM     59  C   UNL A   1      44.071  26.762  30.239  1.00  0.00     0.031 C 
ATOM     60  C   UNL A   1      44.894  29.197  30.047  1.00  0.00     0.037 A 
BRANCH  47  61
ATOM     61  C   UNL A   1      42.202  27.494  34.443  1.00  0.00     0.057 A 
ATOM     62  C   UNL A   1      42.927  26.318  34.151  1.00  0.00     0.134 A 
ATOM     63  C   UNL A   1      41.789  27.614  35.781  1.00  0.00     0.134 A 
ATOM     64  F   UNL A   1      43.489  26.089  32.959  1.00  0.00    -0.206 F 
ATOM     65  C   UNL A   1      43.210  25.340  35.107  1.00  0.00     0.040 A 
ATOM     66  C   UNL A   1      42.121  26.671  36.761  1.00  0.00     0.040 A 
ATOM     67  F   UNL A   1      41.106  28.692  36.196  1.00  0.00    -0.206 F 
ATOM     68  C   UNL A   1      42.834  25.528  36.425  1.00  0.00     0.006 A 
ENDBRANCH  47  61
BRANCH  48  69
ATOM     69  C   UNL A   1      42.827  25.213  26.203  1.00  0.00     0.057 A 
ATOM     70  C   UNL A   1      41.983  24.154  26.577  1.00  0.00     0.134 A 
ATOM     71  C   UNL A   1      43.804  24.909  25.239  1.00  0.00     0.134 A 
ATOM     72  F   UNL A   1      41.030  24.315  27.503  1.00  0.00    -0.206 F 
ATOM     73  C   UNL A   1      42.147  22.859  26.080  1.00  0.00     0.040 A 
ATOM     74  C   UNL A   1      43.973  23.615  24.728  1.00  0.00     0.040 A 
ATOM     75  F   UNL A   1      44.668  25.846  24.824  1.00  0.00    -0.206 F 
ATOM     76  C   UNL A   1      43.159  22.579  25.171  1.00  0.00     0.006 A 
ENDBRANCH  48  69
BRANCH  60  77
ATOM     77  C   UNL A   1      45.346  30.238  29.054  1.00  0.00     0.057 A 
ATOM     78  C   UNL A   1      46.709  30.530  28.958  1.00  0.00     0.134 A 
ATOM     79  C   UNL A   1      44.474  31.081  28.346  1.00  0.00     0.134 A 
ATOM     80  F   UNL A   1      47.604  29.805  29.647  1.00  0.00    -0.206 F 
ATOM     81  C   UNL A   1      47.183  31.610  28.208  1.00  0.00     0.040 A 
ATOM     82  C   UNL A   1      44.936  32.144  27.564  1.00  0.00     0.040 A 
ATOM     83  F   UNL A   1      43.149  30.950  28.443  1.00  0.00    -0.206 F 
ATOM     84  C   UNL A   1      46.296  32.419  27.503  1.00  0.00     0.006 A 
ENDBRANCH  60  77
ENDBRANCH  34  35
ENDBRANCH  26  29
ENDBRANCH  24  25
ENDBRANCH  23  24
ENDBRANCH   1  23
TORSDOF 13
ENDMDL
MODEL 3
REMARK VINA RESULT:     -11.3      2.825      7.877
REMARK SMILES Cc1ccc(C)c(Oc2cccc(F)c2C(=O)NCCCCNC(=O)c2ccc(-c3c4nc(c(-c5c(F)cccc5F)c5ccc([nH]5)c(-c5c(F)cccc5F)c5nc(c(-c6c(F)cccc6F)c6ccc3[nH]6)C=C5)C=C4)cc2)c1
REMARK SMILES IDX 20 1 19 2 18 3 16 4 17 5 15 7 9 8 10 9 11 10 13 11 12 12
REMARK SMILES IDX 14 13 8 14 7 15 1 16 2 17 3 18 80 19 4 20 5 21 6 22 21 23
REMARK SMILES IDX 22 24 23 25 24 26 25 28 26 29 27 30 79 31 28 32 78 33 29 34
REMARK SMILES IDX 30 35 31 36 72 37 32 38 77 39 71 40 73 41 33 42 76 43 70 44
REMARK SMILES IDX 69 45 34 47 60 48 43 49 59 50 44 51 47 52 58 53 74 54 45 55
REMARK SMILES IDX 46 56 57 58 75 59 48 60 35 61 36 62 41 63 37 64 38 65 40 66
REMARK SMILES IDX 42 67 39 68 61 69 62 70 67 71 63 72 64 73 66 74 68 75 65 76
REMARK SMILES IDX 49 77 50 78 55 79 51 80 52 81 54 82 56 83 53 84
REMARK H PARENT 18 6 23 27 73 46 47 57
REMARK Flexibility Score: inf
ROOT
ATOM      1  C   UNL A   1      37.741  23.013  25.753  1.00  0.00     0.023 C 
ENDROOT
BRANCH   1   2
ATOM      2  C   UNL A   1      36.593  23.185  24.755  1.00  0.00     0.116 C 
BRANCH   2   3
ATOM      3  N   UNL A   1      35.307  22.610  25.115  1.00  0.00    -0.352 N 
ATOM      4  C   UNL A   1      34.022  22.826  24.640  1.00  0.00     0.258 C 
ATOM      5  O   UNL A   1      33.156  22.042  25.031  1.00  0.00    -0.269 OA
ATOM      6  H   UNL A   1      35.359  21.939  25.834  1.00  0.00     0.163 HD
BRANCH   4   7
ATOM      7  C   UNL A   1      33.633  23.989  23.787  1.00  0.00     0.118 A 
ATOM      8  C   UNL A   1      33.746  25.306  24.276  1.00  0.00     0.143 A 
ATOM      9  C   UNL A   1      33.647  26.415  23.413  1.00  0.00     0.048 A 
ATOM     10  C   UNL A   1      33.280  26.234  22.086  1.00  0.00     0.007 A 
ATOM     11  C   UNL A   1      33.125  23.852  22.496  1.00  0.00     0.139 A 
ATOM     12  C   UNL A   1      32.973  24.952  21.641  1.00  0.00     0.040 A 
ATOM     13  F   UNL A   1      32.692  22.667  22.043  1.00  0.00    -0.206 F 
BRANCH   8  14
ATOM     14  O   UNL A   1      33.914  25.558  25.620  1.00  0.00    -0.456 OA
BRANCH  14  15
ATOM     15  C   UNL A   1      33.334  26.714  26.142  1.00  0.00     0.130 A 
ATOM     16  C   UNL A   1      34.176  30.282  27.250  1.00  0.00     0.044 C 
ATOM     17  C   UNL A   1      33.406  29.025  26.963  1.00  0.00    -0.047 A 
ATOM     18  C   UNL A   1      32.043  28.957  27.248  1.00  0.00     0.004 A 
ATOM     19  C   UNL A   1      34.038  27.908  26.395  1.00  0.00     0.050 A 
ATOM     20  C   UNL A   1      31.324  27.795  26.964  1.00  0.00     0.007 A 
ATOM     21  C   UNL A   1      31.957  26.665  26.415  1.00  0.00    -0.008 A 
ATOM     22  C   UNL A   1      31.116  25.454  26.125  1.00  0.00     0.048 C 
ENDBRANCH  14  15
ENDBRANCH   8  14
ENDBRANCH   4   7
ENDBRANCH   2   3
ENDBRANCH   1   2
BRANCH   1  23
ATOM     23  C   UNL A   1      38.724  21.843  25.631  1.00  0.00     0.023 C 
BRANCH  23  24
ATOM     24  C   UNL A   1      39.782  21.660  26.723  1.00  0.00     0.116 C 
BRANCH  24  25
ATOM     25  N   UNL A   1      41.174  21.906  26.301  1.00  0.00    -0.352 N 
ATOM     26  C   UNL A   1      41.866  23.098  26.075  1.00  0.00     0.251 C 
ATOM     27  H   UNL A   1      41.706  21.090  26.151  1.00  0.00     0.163 HD
ATOM     28  O   UNL A   1      42.870  23.115  25.382  1.00  0.00    -0.269 OA
BRANCH  26  29
ATOM     29  C   UNL A   1      41.406  24.347  26.720  1.00  0.00     0.039 A 
ATOM     30  C   UNL A   1      40.453  25.243  26.225  1.00  0.00     0.014 A 
ATOM     31  C   UNL A   1      42.113  24.738  27.823  1.00  0.00     0.014 A 
ATOM     32  C   UNL A   1      40.307  26.484  26.873  1.00  0.00     0.010 A 
ATOM     33  C   UNL A   1      41.546  25.587  28.703  1.00  0.00     0.010 A 
ATOM     34  C   UNL A   1      40.959  26.664  28.092  1.00  0.00    -0.014 A 
BRANCH  34  35
ATOM     35  C   UNL A   1      41.045  27.859  28.906  1.00  0.00     0.031 A 
ATOM     36  C   UNL A   1      42.113  28.794  28.489  1.00  0.00     0.074 A 
ATOM     37  C   UNL A   1      39.976  28.284  29.618  1.00  0.00     0.049 A 
ATOM     38  N   UNL A   1      43.225  29.031  29.099  1.00  0.00    -0.248 NA
ATOM     39  C   UNL A   1      42.040  29.388  27.139  1.00  0.00     0.031 C 
ATOM     40  C   UNL A   1      38.643  27.676  29.747  1.00  0.00     0.029 A 
ATOM     41  N   UNL A   1      39.830  29.450  30.298  1.00  0.00    -0.354 N 
ATOM     42  C   UNL A   1      43.884  29.961  28.305  1.00  0.00     0.074 A 
ATOM     43  C   UNL A   1      43.269  29.888  27.010  1.00  0.00     0.031 C 
ATOM     44  C   UNL A   1      37.786  28.570  30.295  1.00  0.00     0.029 A 
ATOM     45  C   UNL A   1      38.525  29.764  30.664  1.00  0.00     0.049 A 
ATOM     46  H   UNL A   1      40.593  30.032  30.517  1.00  0.00     0.167 HD
ATOM     47  C   UNL A   1      44.669  30.934  28.844  1.00  0.00     0.037 A 
ATOM     48  C   UNL A   1      38.112  30.957  31.166  1.00  0.00     0.037 A 
ATOM     49  C   UNL A   1      44.898  30.683  30.247  1.00  0.00     0.049 A 
ATOM     50  C   UNL A   1      39.329  31.671  31.645  1.00  0.00     0.074 A 
ATOM     51  C   UNL A   1      45.423  29.622  30.962  1.00  0.00     0.029 A 
ATOM     52  N   UNL A   1      44.165  31.416  31.152  1.00  0.00    -0.354 N 
ATOM     53  N   UNL A   1      40.048  31.281  32.662  1.00  0.00    -0.248 NA
ATOM     54  C   UNL A   1      40.010  32.548  30.701  1.00  0.00     0.031 C 
ATOM     55  C   UNL A   1      44.582  29.499  32.106  1.00  0.00     0.029 A 
ATOM     56  C   UNL A   1      43.651  30.538  32.074  1.00  0.00     0.049 A 
ATOM     57  H   UNL A   1      44.032  32.392  31.140  1.00  0.00     0.167 HD
ATOM     58  C   UNL A   1      41.362  31.495  32.269  1.00  0.00     0.074 A 
ATOM     59  C   UNL A   1      41.274  32.358  31.091  1.00  0.00     0.031 C 
ATOM     60  C   UNL A   1      42.376  30.708  32.736  1.00  0.00     0.037 A 
BRANCH  47  61
ATOM     61  C   UNL A   1      44.937  32.279  28.213  1.00  0.00     0.057 A 
ATOM     62  C   UNL A   1      46.077  32.618  27.452  1.00  0.00     0.134 A 
ATOM     63  C   UNL A   1      43.895  33.221  28.167  1.00  0.00     0.134 A 
ATOM     64  F   UNL A   1      47.117  31.792  27.293  1.00  0.00    -0.206 F 
ATOM     65  C   UNL A   1      46.176  33.800  26.714  1.00  0.00     0.040 A 
ATOM     66  C   UNL A   1      43.959  34.378  27.381  1.00  0.00     0.040 A 
ATOM     67  F   UNL A   1      42.749  33.013  28.832  1.00  0.00    -0.206 F 
ATOM     68  C   UNL A   1      45.103  34.671  26.650  1.00  0.00     0.006 A 
ENDBRANCH  47  61
BRANCH  48  69
ATOM     69  C   UNL A   1      36.831  31.671  30.936  1.00  0.00     0.057 A 
ATOM     70  C   UNL A   1      36.514  32.245  29.694  1.00  0.00     0.134 A 
ATOM     71  C   UNL A   1      36.030  32.071  32.019  1.00  0.00     0.134 A 
ATOM     72  F   UNL A   1      37.220  31.960  28.593  1.00  0.00    -0.206 F 
ATOM     73  C   UNL A   1      35.513  33.210  29.551  1.00  0.00     0.040 A 
ATOM     74  C   UNL A   1      35.019  33.033  31.887  1.00  0.00     0.040 A 
ATOM     75  F   UNL A   1      36.259  31.592  33.251  1.00  0.00    -0.206 F 
ATOM     76  C   UNL A   1      34.778  33.625  30.653  1.00  0.00     0.006 A 
ENDBRANCH  48  69
BRANCH  60  77
ATOM     77  C   UNL A   1      42.073  29.745  33.856  1.00  0.00     0.057 A 
ATOM     78  C   UNL A   1      42.345  30.135  35.170  1.00  0.00     0.134 A 
ATOM     79  C   UNL A   1      41.714  28.401  33.664  1.00  0.00     0.134 A 
ATOM     80  F   UNL A   1      42.746  31.388  35.433  1.00  0.00    -0.206 F 
ATOM     81  C   UNL A   1      42.274  29.235  36.238  1.00  0.00     0.040 A 
ATOM     82  C   UNL A   1      41.606  27.498  34.725  1.00  0.00     0.040 A 
ATOM     83  F   UNL A   1      41.526  27.900  32.440  1.00  0.00    -0.206 F 
ATOM     84  C   UNL A   1      41.899  27.913  36.019  1.00  0.00     0.006 A 
ENDBRANCH  60  77
ENDBRANCH  34  35
ENDBRANCH  26  29
ENDBRANCH  24  25
ENDBRANCH  23  24
ENDBRANCH   1  23
TORSDOF 13
ENDMDL
