MODEL 1
REMARK VINA RESULT:     -11.3      0.000      0.000
REMARK SMILES CC(C)[C@H]1CC[C@@H](C)C/C1=C(\F)C(=O)NCCCCNC(=O)c1ccc(-c2c3nc(c(-c4c(F)cccc4F)c4ccc([nH]4)c(-c4c(F)cccc4F)c4nc(c(-c5c(F)cccc5F)c5ccc2[nH]5)C=C4)C=C3)cc1
REMARK SMILES IDX 18 1 17 2 16 3 15 4 13 5 14 6 11 8 4 9 5 10 10 11 6 12 9 13
REMARK SMILES IDX 7 14 12 15 8 16 2 17 1 18 3 19 19 20 20 21 21 22 22 24 23 25
REMARK SMILES IDX 24 26 76 27 25 28 75 29 26 30 27 31 28 32 69 33 29 34 74 35
REMARK SMILES IDX 68 36 70 37 30 38 73 39 67 40 66 41 31 43 57 44 40 45 56 46
REMARK SMILES IDX 41 47 44 48 55 49 71 50 42 51 43 52 54 54 72 55 45 56 32 57
REMARK SMILES IDX 33 58 38 59 34 60 35 61 37 62 39 63 36 64 58 65 59 66 64 67
REMARK SMILES IDX 60 68 61 69 63 70 65 71 62 72 46 73 47 74 52 75 48 76 49 77
REMARK SMILES IDX 51 78 53 79 50 80
REMARK H PARENT 15 7 20 23 70 42 44 53
REMARK Flexibility Score: inf
ROOT
ATOM      1  C   UNL A   1      32.256  28.022  27.036  1.00  0.00     0.023 C 
ENDROOT
BRANCH   1   2
ATOM      2  C   UNL A   1      32.119  27.157  25.778  1.00  0.00     0.023 C 
BRANCH   2   3
ATOM      3  C   UNL A   1      32.912  25.851  25.804  1.00  0.00     0.116 C 
BRANCH   3   4
ATOM      4  N   UNL A   1      32.163  24.805  26.471  1.00  0.00    -0.350 N 
ATOM      5  C   UNL A   1      32.419  23.507  26.791  1.00  0.00     0.279 C 
ATOM      6  O   UNL A   1      31.440  22.896  27.206  1.00  0.00    -0.267 OA
ATOM      7  H   UNL A   1      31.269  25.098  26.759  1.00  0.00     0.163 HD
BRANCH   5   8
ATOM      8  C   UNL A   1      33.803  22.932  26.688  1.00  0.00     0.187 C 
ATOM      9  C   UNL A   1      34.310  22.377  24.124  1.00  0.00     0.021 C 
ATOM     10  C   UNL A   1      35.543  22.939  23.359  1.00  0.00     0.009 C 
ATOM     11  C   UNL A   1      34.547  22.472  25.651  1.00  0.00    -0.025 C 
ATOM     12  C   UNL A   1      36.871  22.328  23.797  1.00  0.00     0.004 C 
ATOM     13  C   UNL A   1      35.888  21.822  26.029  1.00  0.00     0.038 C 
ATOM     14  C   UNL A   1      37.087  22.443  25.305  1.00  0.00    -0.010 C 
ATOM     15  F   UNL A   1      34.371  22.789  27.908  1.00  0.00    -0.201 F 
ATOM     16  C   UNL A   1      37.359  23.888  25.752  1.00  0.00     0.008 C 
BRANCH   9  17
ATOM     17  C   UNL A   1      33.001  22.937  23.503  1.00  0.00    -0.010 C 
ATOM     18  C   UNL A   1      33.242  24.101  22.533  1.00  0.00     0.008 C 
ATOM     19  C   UNL A   1      32.160  21.863  22.800  1.00  0.00     0.008 C 
ENDBRANCH   9  17
ENDBRANCH   5   8
ENDBRANCH   3   4
ENDBRANCH   2   3
ENDBRANCH   1   2
BRANCH   1  20
ATOM     20  C   UNL A   1      33.649  28.586  27.300  1.00  0.00     0.116 C 
BRANCH  20  21
ATOM     21  N   UNL A   1      33.624  29.980  27.707  1.00  0.00    -0.352 N 
ATOM     22  C   UNL A   1      34.604  30.732  28.307  1.00  0.00     0.251 C 
ATOM     23  H   UNL A   1      32.781  30.456  27.525  1.00  0.00     0.163 HD
ATOM     24  O   UNL A   1      34.354  31.863  28.705  1.00  0.00    -0.269 OA
BRANCH  22  25
ATOM     25  C   UNL A   1      35.953  30.161  28.505  1.00  0.00     0.039 A 
ATOM     26  C   UNL A   1      36.857  30.201  27.441  1.00  0.00     0.014 A 
ATOM     27  C   UNL A   1      36.330  29.596  29.727  1.00  0.00     0.014 A 
ATOM     28  C   UNL A   1      38.159  29.732  27.621  1.00  0.00     0.010 A 
ATOM     29  C   UNL A   1      37.650  29.200  29.928  1.00  0.00     0.010 A 
ATOM     30  C   UNL A   1      38.577  29.263  28.877  1.00  0.00    -0.014 A 
BRANCH  30  31
ATOM     31  C   UNL A   1      39.984  28.845  29.106  1.00  0.00     0.031 A 
ATOM     32  C   UNL A   1      40.966  29.789  29.744  1.00  0.00     0.074 A 
ATOM     33  C   UNL A   1      40.392  27.630  28.689  1.00  0.00     0.049 A 
ATOM     34  N   UNL A   1      42.241  29.619  29.983  1.00  0.00    -0.248 NA
ATOM     35  C   UNL A   1      40.450  31.107  30.145  1.00  0.00     0.031 C 
ATOM     36  C   UNL A   1      39.549  26.640  28.017  1.00  0.00     0.029 A 
ATOM     37  N   UNL A   1      41.621  27.024  28.762  1.00  0.00    -0.354 N 
ATOM     38  C   UNL A   1      42.681  30.807  30.552  1.00  0.00     0.074 A 
ATOM     39  C   UNL A   1      41.551  31.710  30.568  1.00  0.00     0.031 C 
ATOM     40  C   UNL A   1      40.278  25.541  27.765  1.00  0.00     0.029 A 
ATOM     41  C   UNL A   1      41.648  25.763  28.217  1.00  0.00     0.049 A 
ATOM     42  H   UNL A   1      42.409  27.452  29.169  1.00  0.00     0.167 HD
ATOM     43  C   UNL A   1      43.909  31.110  31.038  1.00  0.00     0.037 A 
ATOM     44  C   UNL A   1      42.663  24.888  28.087  1.00  0.00     0.037 A 
ATOM     45  C   UNL A   1      45.028  30.204  31.030  1.00  0.00     0.049 A 
ATOM     46  C   UNL A   1      44.023  25.260  28.609  1.00  0.00     0.074 A 
ATOM     47  C   UNL A   1      46.297  30.398  31.547  1.00  0.00     0.029 A 
ATOM     48  N   UNL A   1      45.015  28.938  30.466  1.00  0.00    -0.354 N 
ATOM     49  N   UNL A   1      44.407  26.359  29.211  1.00  0.00    -0.248 NA
ATOM     50  C   UNL A   1      45.092  24.265  28.435  1.00  0.00     0.031 C 
ATOM     51  C   UNL A   1      47.068  29.271  31.247  1.00  0.00     0.029 A 
ATOM     52  C   UNL A   1      46.264  28.349  30.595  1.00  0.00     0.049 A 
ATOM     53  H   UNL A   1      44.236  28.517  30.036  1.00  0.00     0.167 HD
ATOM     54  C   UNL A   1      45.751  26.179  29.513  1.00  0.00     0.074 A 
ATOM     55  C   UNL A   1      46.110  24.856  29.043  1.00  0.00     0.031 C 
ATOM     56  C   UNL A   1      46.609  27.032  30.125  1.00  0.00     0.037 A 
BRANCH  43  57
ATOM     57  C   UNL A   1      44.103  32.483  31.616  1.00  0.00     0.057 A 
ATOM     58  C   UNL A   1      43.910  32.748  32.979  1.00  0.00     0.134 A 
ATOM     59  C   UNL A   1      44.518  33.549  30.807  1.00  0.00     0.134 A 
ATOM     60  F   UNL A   1      43.504  31.776  33.809  1.00  0.00    -0.206 F 
ATOM     61  C   UNL A   1      44.090  34.027  33.508  1.00  0.00     0.040 A 
ATOM     62  C   UNL A   1      44.732  34.825  31.331  1.00  0.00     0.040 A 
ATOM     63  F   UNL A   1      44.731  33.366  29.495  1.00  0.00    -0.206 F 
ATOM     64  C   UNL A   1      44.509  35.068  32.684  1.00  0.00     0.006 A 
ENDBRANCH  43  57
BRANCH  44  65
ATOM     65  C   UNL A   1      42.429  23.567  27.449  1.00  0.00     0.057 A 
ATOM     66  C   UNL A   1      42.576  23.396  26.068  1.00  0.00     0.134 A 
ATOM     67  C   UNL A   1      42.046  22.448  28.200  1.00  0.00     0.134 A 
ATOM     68  F   UNL A   1      42.923  24.434  25.292  1.00  0.00    -0.206 F 
ATOM     69  C   UNL A   1      42.331  22.167  25.452  1.00  0.00     0.040 A 
ATOM     70  C   UNL A   1      41.825  21.207  27.601  1.00  0.00     0.040 A 
ATOM     71  F   UNL A   1      41.895  22.544  29.529  1.00  0.00    -0.206 F 
ATOM     72  C   UNL A   1      41.960  21.066  26.221  1.00  0.00     0.006 A 
ENDBRANCH  44  65
BRANCH  56  73
ATOM     73  C   UNL A   1      48.014  26.550  30.351  1.00  0.00     0.057 A 
ATOM     74  C   UNL A   1      48.390  25.883  31.525  1.00  0.00     0.134 A 
ATOM     75  C   UNL A   1      48.994  26.724  29.365  1.00  0.00     0.134 A 
ATOM     76  F   UNL A   1      47.504  25.695  32.514  1.00  0.00    -0.206 F 
ATOM     77  C   UNL A   1      49.696  25.429  31.719  1.00  0.00     0.040 A 
ATOM     78  C   UNL A   1      50.294  26.247  29.535  1.00  0.00     0.040 A 
ATOM     79  F   UNL A   1      48.700  27.345  28.213  1.00  0.00    -0.206 F 
ATOM     80  C   UNL A   1      50.649  25.603  30.719  1.00  0.00     0.006 A 
ENDBRANCH  56  73
ENDBRANCH  30  31
ENDBRANCH  22  25
ENDBRANCH  20  21
ENDBRANCH   1  20
TORSDOF 12
ENDMDL
MODEL 2
REMARK VINA RESULT:     -11.3      2.508      7.479
REMARK SMILES CC(C)[C@H]1CC[C@@H](C)C/C1=C(\F)C(=O)NCCCCNC(=O)c1ccc(-c2c3nc(c(-c4c(F)cccc4F)c4ccc([nH]4)c(-c4c(F)cccc4F)c4nc(c(-c5c(F)cccc5F)c5ccc2[nH]5)C=C4)C=C3)cc1
REMARK SMILES IDX 18 1 17 2 16 3 15 4 13 5 14 6 11 8 4 9 5 10 10 11 6 12 9 13
REMARK SMILES IDX 7 14 12 15 8 16 2 17 1 18 3 19 19 20 20 21 21 22 22 24 23 25
REMARK SMILES IDX 24 26 76 27 25 28 75 29 26 30 27 31 28 32 69 33 29 34 74 35
REMARK SMILES IDX 68 36 70 37 30 38 73 39 67 40 66 41 31 43 57 44 40 45 56 46
REMARK SMILES IDX 41 47 44 48 55 49 71 50 42 51 43 52 54 54 72 55 45 56 32 57
REMARK SMILES IDX 33 58 38 59 34 60 35 61 37 62 39 63 36 64 58 65 59 66 64 67
REMARK SMILES IDX 60 68 61 69 63 70 65 71 62 72 46 73 47 74 52 75 48 76 49 77
REMARK SMILES IDX 51 78 53 79 50 80
REMARK H PARENT 15 7 20 23 70 42 44 53
REMARK Flexibility Score: inf
ROOT
ATOM      1  C   UNL A   1      39.118  21.151  25.607  1.00  0.00     0.023 C 
ENDROOT
BRANCH   1   2
ATOM      2  C   UNL A   1      39.206  22.537  26.255  1.00  0.00     0.023 C 
BRANCH   2   3
ATOM      3  C   UNL A   1      37.965  23.411  26.080  1.00  0.00     0.116 C 
BRANCH   3   4
ATOM      4  N   UNL A   1      37.589  23.502  24.683  1.00  0.00    -0.350 N 
ATOM      5  C   UNL A   1      36.691  22.851  23.895  1.00  0.00     0.279 C 
ATOM      6  O   UNL A   1      36.804  23.105  22.701  1.00  0.00    -0.267 OA
ATOM      7  H   UNL A   1      38.096  24.189  24.195  1.00  0.00     0.163 HD
BRANCH   5   8
ATOM      8  C   UNL A   1      35.635  21.958  24.482  1.00  0.00     0.187 C 
ATOM      9  C   UNL A   1      33.617  23.478  25.352  1.00  0.00     0.021 C 
ATOM     10  C   UNL A   1      32.144  23.282  24.892  1.00  0.00     0.009 C 
ATOM     11  C   UNL A   1      34.435  22.195  25.069  1.00  0.00    -0.025 C 
ATOM     12  C   UNL A   1      31.488  22.021  25.447  1.00  0.00     0.004 C 
ATOM     13  C   UNL A   1      33.733  20.966  25.671  1.00  0.00     0.038 C 
ATOM     14  C   UNL A   1      32.307  20.767  25.147  1.00  0.00    -0.010 C 
ATOM     15  F   UNL A   1      36.023  20.661  24.474  1.00  0.00    -0.201 F 
ATOM     16  C   UNL A   1      32.276  20.386  23.659  1.00  0.00     0.008 C 
BRANCH   9  17
ATOM     17  C   UNL A   1      34.143  24.858  24.870  1.00  0.00    -0.010 C 
ATOM     18  C   UNL A   1      33.786  25.165  23.410  1.00  0.00     0.008 C 
ATOM     19  C   UNL A   1      33.681  26.023  25.756  1.00  0.00     0.008 C 
ENDBRANCH   9  17
ENDBRANCH   5   8
ENDBRANCH   3   4
ENDBRANCH   2   3
ENDBRANCH   1   2
BRANCH   1  20
ATOM     20  C   UNL A   1      39.591  19.987  26.471  1.00  0.00     0.116 C 
BRANCH  20  21
ATOM     21  N   UNL A   1      40.759  19.317  25.925  1.00  0.00    -0.352 N 
ATOM     22  C   UNL A   1      42.049  19.769  25.805  1.00  0.00     0.251 C 
ATOM     23  H   UNL A   1      40.601  18.404  25.590  1.00  0.00     0.163 HD
ATOM     24  O   UNL A   1      42.877  19.111  25.189  1.00  0.00    -0.269 OA
BRANCH  22  25
ATOM     25  C   UNL A   1      42.431  21.071  26.395  1.00  0.00     0.039 A 
ATOM     26  C   UNL A   1      42.799  22.110  25.536  1.00  0.00     0.014 A 
ATOM     27  C   UNL A   1      42.422  21.271  27.778  1.00  0.00     0.014 A 
ATOM     28  C   UNL A   1      43.097  23.367  26.061  1.00  0.00     0.010 A 
ATOM     29  C   UNL A   1      42.644  22.545  28.293  1.00  0.00     0.010 A 
ATOM     30  C   UNL A   1      42.984  23.607  27.441  1.00  0.00    -0.014 A 
BRANCH  30  31
ATOM     31  C   UNL A   1      43.212  24.963  28.002  1.00  0.00     0.031 A 
ATOM     32  C   UNL A   1      44.589  25.392  28.425  1.00  0.00     0.074 A 
ATOM     33  C   UNL A   1      42.164  25.792  28.181  1.00  0.00     0.049 A 
ATOM     34  N   UNL A   1      44.974  26.515  28.976  1.00  0.00    -0.248 NA
ATOM     35  C   UNL A   1      45.675  24.419  28.225  1.00  0.00     0.031 C 
ATOM     36  C   UNL A   1      40.772  25.478  27.853  1.00  0.00     0.029 A 
ATOM     37  N   UNL A   1      42.106  27.065  28.690  1.00  0.00    -0.354 N 
ATOM     38  C   UNL A   1      46.338  26.382  29.195  1.00  0.00     0.074 A 
ATOM     39  C   UNL A   1      46.704  25.047  28.772  1.00  0.00     0.031 C 
ATOM     40  C   UNL A   1      40.003  26.540  28.142  1.00  0.00     0.029 A 
ATOM     41  C   UNL A   1      40.837  27.591  28.715  1.00  0.00     0.049 A 
ATOM     42  H   UNL A   1      42.899  27.556  29.005  1.00  0.00     0.167 HD
ATOM     43  C   UNL A   1      47.211  27.296  29.682  1.00  0.00     0.037 A 
ATOM     44  C   UNL A   1      40.393  28.782  29.159  1.00  0.00     0.037 A 
ATOM     45  C   UNL A   1      46.845  28.627  30.090  1.00  0.00     0.049 A 
ATOM     46  C   UNL A   1      41.379  29.769  29.722  1.00  0.00     0.074 A 
ATOM     47  C   UNL A   1      47.664  29.645  30.546  1.00  0.00     0.029 A 
ATOM     48  N   UNL A   1      45.549  29.120  30.104  1.00  0.00    -0.354 N 
ATOM     49  N   UNL A   1      42.678  29.657  29.856  1.00  0.00    -0.248 NA
ATOM     50  C   UNL A   1      40.835  31.051  30.194  1.00  0.00     0.031 C 
ATOM     51  C   UNL A   1      46.859  30.735  30.888  1.00  0.00     0.029 A 
ATOM     52  C   UNL A   1      45.543  30.419  30.590  1.00  0.00     0.049 A 
ATOM     53  H   UNL A   1      44.751  28.623  29.813  1.00  0.00     0.167 HD
ATOM     54  C   UNL A   1      43.111  30.860  30.398  1.00  0.00     0.074 A 
ATOM     55  C   UNL A   1      41.936  31.694  30.553  1.00  0.00     0.031 C 
ATOM     56  C   UNL A   1      44.367  31.240  30.737  1.00  0.00     0.037 A 
BRANCH  43  57
ATOM     57  C   UNL A   1      48.651  26.881  29.801  1.00  0.00     0.057 A 
ATOM     58  C   UNL A   1      49.143  26.229  30.941  1.00  0.00     0.134 A 
ATOM     59  C   UNL A   1      49.551  27.109  28.752  1.00  0.00     0.134 A 
ATOM     60  F   UNL A   1      48.338  25.988  31.986  1.00  0.00    -0.206 F 
ATOM     61  C   UNL A   1      50.482  25.850  31.045  1.00  0.00     0.040 A 
ATOM     62  C   UNL A   1      50.885  26.705  28.832  1.00  0.00     0.040 A 
ATOM     63  F   UNL A   1      49.147  27.720  27.628  1.00  0.00    -0.206 F 
ATOM     64  C   UNL A   1      51.356  26.082  29.986  1.00  0.00     0.006 A 
ENDBRANCH  43  57
BRANCH  44  65
ATOM     65  C   UNL A   1      38.948  29.117  29.075  1.00  0.00     0.057 A 
ATOM     66  C   UNL A   1      38.117  29.015  30.197  1.00  0.00     0.134 A 
ATOM     67  C   UNL A   1      38.362  29.537  27.875  1.00  0.00     0.134 A 
ATOM     68  F   UNL A   1      38.615  28.600  31.371  1.00  0.00    -0.206 F 
ATOM     69  C   UNL A   1      36.752  29.298  30.124  1.00  0.00     0.040 A 
ATOM     70  C   UNL A   1      37.004  29.850  27.795  1.00  0.00     0.040 A 
ATOM     71  F   UNL A   1      39.105  29.663  26.766  1.00  0.00    -0.206 F 
ATOM     72  C   UNL A   1      36.193  29.722  28.922  1.00  0.00     0.006 A 
ENDBRANCH  44  65
BRANCH  56  73
ATOM     73  C   UNL A   1      44.544  32.630  31.279  1.00  0.00     0.057 A 
ATOM     74  C   UNL A   1      44.492  32.903  32.652  1.00  0.00     0.134 A 
ATOM     75  C   UNL A   1      44.805  33.703  30.417  1.00  0.00     0.134 A 
ATOM     76  F   UNL A   1      44.231  31.924  33.531  1.00  0.00    -0.206 F 
ATOM     77  C   UNL A   1      44.669  34.197  33.146  1.00  0.00     0.040 A 
ATOM     78  C   UNL A   1      45.015  34.994  30.900  1.00  0.00     0.040 A 
ATOM     79  F   UNL A   1      44.878  33.510  29.091  1.00  0.00    -0.206 F 
ATOM     80  C   UNL A   1      44.940  35.245  32.268  1.00  0.00     0.006 A 
ENDBRANCH  56  73
ENDBRANCH  30  31
ENDBRANCH  22  25
ENDBRANCH  20  21
ENDBRANCH   1  20
TORSDOF 12
ENDMDL
MODEL 3
REMARK VINA RESULT:     -11.2      1.620      2.809
REMARK SMILES CC(C)[C@H]1CC[C@@H](C)C/C1=C(\F)C(=O)NCCCCNC(=O)c1ccc(-c2c3nc(c(-c4c(F)cccc4F)c4ccc([nH]4)c(-c4c(F)cccc4F)c4nc(c(-c5c(F)cccc5F)c5ccc2[nH]5)C=C4)C=C3)cc1
REMARK SMILES IDX 18 1 17 2 16 3 15 4 13 5 14 6 11 8 4 9 5 10 10 11 6 12 9 13
REMARK SMILES IDX 7 14 12 15 8 16 2 17 1 18 3 19 19 20 20 21 21 22 22 24 23 25
REMARK SMILES IDX 24 26 76 27 25 28 75 29 26 30 27 31 28 32 69 33 29 34 74 35
REMARK SMILES IDX 68 36 70 37 30 38 73 39 67 40 66 41 31 43 57 44 40 45 56 46
REMARK SMILES IDX 41 47 44 48 55 49 71 50 42 51 43 52 54 54 72 55 45 56 32 57
REMARK SMILES IDX 33 58 38 59 34 60 35 61 37 62 39 63 36 64 58 65 59 66 64 67
REMARK SMILES IDX 60 68 61 69 63 70 65 71 62 72 46 73 47 74 52 75 48 76 49 77
REMARK SMILES IDX 51 78 53 79 50 80
REMARK H PARENT 15 7 20 23 70 42 44 53
REMARK Flexibility Score: inf
ROOT
ATOM      1  C   UNL A   1      33.039  28.366  25.884  1.00  0.00     0.023 C 
ENDROOT
BRANCH   1   2
ATOM      2  C   UNL A   1      33.921  28.268  24.634  1.00  0.00     0.023 C 
BRANCH   2   3
ATOM      3  C   UNL A   1      33.260  28.739  23.340  1.00  0.00     0.116 C 
BRANCH   3   4
ATOM      4  N   UNL A   1      33.450  27.769  22.279  1.00  0.00    -0.350 N 
ATOM      5  C   UNL A   1      33.032  26.492  22.071  1.00  0.00     0.279 C 
ATOM      6  O   UNL A   1      33.565  25.945  21.112  1.00  0.00    -0.267 OA
ATOM      7  H   UNL A   1      34.008  28.112  21.544  1.00  0.00     0.163 HD
BRANCH   5   8
ATOM      8  C   UNL A   1      31.965  25.868  22.924  1.00  0.00     0.187 C 
ATOM      9  C   UNL A   1      33.122  24.183  24.645  1.00  0.00     0.021 C 
ATOM     10  C   UNL A   1      32.931  24.276  26.186  1.00  0.00     0.009 C 
ATOM     11  C   UNL A   1      31.988  24.951  23.924  1.00  0.00    -0.025 C 
ATOM     12  C   UNL A   1      31.538  23.868  26.660  1.00  0.00     0.004 C 
ATOM     13  C   UNL A   1      30.614  24.480  24.430  1.00  0.00     0.038 C 
ATOM     14  C   UNL A   1      30.436  24.646  25.943  1.00  0.00    -0.010 C 
ATOM     15  F   UNL A   1      30.729  26.268  22.543  1.00  0.00    -0.201 F 
ATOM     16  C   UNL A   1      30.383  26.121  26.369  1.00  0.00     0.008 C 
BRANCH   9  17
ATOM     17  C   UNL A   1      34.606  24.461  24.278  1.00  0.00    -0.010 C 
ATOM     18  C   UNL A   1      35.543  24.438  25.493  1.00  0.00     0.008 C 
ATOM     19  C   UNL A   1      35.150  23.509  23.205  1.00  0.00     0.008 C 
ENDBRANCH   9  17
ENDBRANCH   5   8
ENDBRANCH   3   4
ENDBRANCH   2   3
ENDBRANCH   1   2
BRANCH   1  20
ATOM     20  C   UNL A   1      33.782  28.571  27.201  1.00  0.00     0.116 C 
BRANCH  20  21
ATOM     21  N   UNL A   1      33.737  29.947  27.664  1.00  0.00    -0.352 N 
ATOM     22  C   UNL A   1      34.703  30.685  28.303  1.00  0.00     0.251 C 
ATOM     23  H   UNL A   1      32.890  30.420  27.496  1.00  0.00     0.163 HD
ATOM     24  O   UNL A   1      34.436  31.796  28.744  1.00  0.00    -0.269 OA
BRANCH  22  25
ATOM     25  C   UNL A   1      36.058  30.123  28.488  1.00  0.00     0.039 A 
ATOM     26  C   UNL A   1      36.970  30.218  27.434  1.00  0.00     0.014 A 
ATOM     27  C   UNL A   1      36.432  29.511  29.688  1.00  0.00     0.014 A 
ATOM     28  C   UNL A   1      38.275  29.757  27.606  1.00  0.00     0.010 A 
ATOM     29  C   UNL A   1      37.754  29.123  29.883  1.00  0.00     0.010 A 
ATOM     30  C   UNL A   1      38.690  29.242  28.844  1.00  0.00    -0.014 A 
BRANCH  30  31
ATOM     31  C   UNL A   1      40.100  28.831  29.068  1.00  0.00     0.031 A 
ATOM     32  C   UNL A   1      41.079  29.780  29.702  1.00  0.00     0.074 A 
ATOM     33  C   UNL A   1      40.513  27.619  28.648  1.00  0.00     0.049 A 
ATOM     34  N   UNL A   1      42.356  29.617  29.937  1.00  0.00    -0.248 NA
ATOM     35  C   UNL A   1      40.557  31.095  30.106  1.00  0.00     0.031 C 
ATOM     36  C   UNL A   1      39.673  26.624  27.978  1.00  0.00     0.029 A 
ATOM     37  N   UNL A   1      41.746  27.019  28.716  1.00  0.00    -0.354 N 
ATOM     38  C   UNL A   1      42.792  30.807  30.504  1.00  0.00     0.074 A 
ATOM     39  C   UNL A   1      41.656  31.704  30.526  1.00  0.00     0.031 C 
ATOM     40  C   UNL A   1      40.407  25.529  27.723  1.00  0.00     0.029 A 
ATOM     41  C   UNL A   1      41.777  25.759  28.170  1.00  0.00     0.049 A 
ATOM     42  H   UNL A   1      42.533  27.451  29.120  1.00  0.00     0.167 HD
ATOM     43  C   UNL A   1      44.020  31.116  30.985  1.00  0.00     0.037 A 
ATOM     44  C   UNL A   1      42.796  24.889  28.035  1.00  0.00     0.037 A 
ATOM     45  C   UNL A   1      45.144  30.217  30.973  1.00  0.00     0.049 A 
ATOM     46  C   UNL A   1      44.156  25.268  28.552  1.00  0.00     0.074 A 
ATOM     47  C   UNL A   1      46.413  30.417  31.485  1.00  0.00     0.029 A 
ATOM     48  N   UNL A   1      45.136  28.950  30.408  1.00  0.00    -0.354 N 
ATOM     49  N   UNL A   1      44.537  26.369  29.153  1.00  0.00    -0.248 NA
ATOM     50  C   UNL A   1      45.230  24.280  28.374  1.00  0.00     0.031 C 
ATOM     51  C   UNL A   1      47.190  29.295  31.181  1.00  0.00     0.029 A 
ATOM     52  C   UNL A   1      46.388  28.369  30.532  1.00  0.00     0.049 A 
ATOM     53  H   UNL A   1      44.357  28.526  29.981  1.00  0.00     0.167 HD
ATOM     54  C   UNL A   1      45.882  26.196  29.450  1.00  0.00     0.074 A 
ATOM     55  C   UNL A   1      46.247  24.876  28.978  1.00  0.00     0.031 C 
ATOM     56  C   UNL A   1      46.738  27.053  30.059  1.00  0.00     0.037 A 
BRANCH  43  57
ATOM     57  C   UNL A   1      44.209  32.490  31.564  1.00  0.00     0.057 A 
ATOM     58  C   UNL A   1      44.624  33.575  30.779  1.00  0.00     0.134 A 
ATOM     59  C   UNL A   1      43.944  32.740  32.917  1.00  0.00     0.134 A 
ATOM     60  F   UNL A   1      44.905  33.404  29.478  1.00  0.00    -0.206 F 
ATOM     61  C   UNL A   1      44.801  34.847  31.324  1.00  0.00     0.040 A 
ATOM     62  C   UNL A   1      44.085  34.016  33.466  1.00  0.00     0.040 A 
ATOM     63  F   UNL A   1      43.533  31.751  33.725  1.00  0.00    -0.206 F 
ATOM     64  C   UNL A   1      44.524  35.072  32.671  1.00  0.00     0.006 A 
ENDBRANCH  43  57
BRANCH  44  65
ATOM     65  C   UNL A   1      42.567  23.567  27.397  1.00  0.00     0.057 A 
ATOM     66  C   UNL A   1      42.228  22.446  28.163  1.00  0.00     0.134 A 
ATOM     67  C   UNL A   1      42.689  23.391  26.014  1.00  0.00     0.134 A 
ATOM     68  F   UNL A   1      42.114  22.547  29.496  1.00  0.00    -0.206 F 
ATOM     69  C   UNL A   1      42.038  21.192  27.579  1.00  0.00     0.040 A 
ATOM     70  C   UNL A   1      42.475  22.149  25.413  1.00  0.00     0.040 A 
ATOM     71  F   UNL A   1      43.004  24.428  25.223  1.00  0.00    -0.206 F 
ATOM     72  C   UNL A   1      42.156  21.042  26.199  1.00  0.00     0.006 A 
ENDBRANCH  44  65
BRANCH  56  73
ATOM     73  C   UNL A   1      48.147  26.579  30.280  1.00  0.00     0.057 A 
ATOM     74  C   UNL A   1      48.518  25.861  31.424  1.00  0.00     0.134 A 
ATOM     75  C   UNL A   1      49.137  26.814  29.316  1.00  0.00     0.134 A 
ATOM     76  F   UNL A   1      47.622  25.614  32.392  1.00  0.00    -0.206 F 
ATOM     77  C   UNL A   1      49.827  25.415  31.613  1.00  0.00     0.040 A 
ATOM     78  C   UNL A   1      50.441  26.346  29.479  1.00  0.00     0.040 A 
ATOM     79  F   UNL A   1      48.848  27.486  28.192  1.00  0.00    -0.206 F 
ATOM     80  C   UNL A   1      50.790  25.650  30.635  1.00  0.00     0.006 A 
ENDBRANCH  56  73
ENDBRANCH  30  31
ENDBRANCH  22  25
ENDBRANCH  20  21
ENDBRANCH   1  20
TORSDOF 12
ENDMDL
