MODEL 1
REMARK VINA RESULT:     -10.2      0.000      0.000
REMARK SMILES C[C@]12c3ccccc3[C@](C)(c3ccccc31)[C@@H]1C(=O)N(c3ccc(C(=O)NCCCCNC(=O)c4ccc(-c5c6nc(c(-c7c(F)cccc7F)c7ccc([nH]7)c(-c7c(F)cccc7F)c7nc(c(-c8c(F)cccc8F)c8ccc5[nH]8)C=C7)C=C6)cc4)cc3)C(=O)[C@H]12
REMARK SMILES IDX 30 1 29 2 28 3 27 4 25 5 26 6 24 8 21 9 22 10 90 11 23 12
REMARK SMILES IDX 89 13 20 14 1 15 2 16 16 17 3 18 93 19 15 20 11 21 8 22 4 23
REMARK SMILES IDX 17 24 91 25 14 26 12 27 9 28 7 29 5 30 18 31 92 32 13 33
REMARK SMILES IDX 10 34 6 35 19 36 31 37 32 38 33 39 34 41 35 42 36 43 88 44
REMARK SMILES IDX 37 45 87 46 38 47 39 48 40 49 81 50 41 51 86 52 80 53 82 54
REMARK SMILES IDX 42 55 85 56 79 57 78 58 43 60 69 61 52 62 68 63 53 64 56 65
REMARK SMILES IDX 67 66 83 67 54 68 55 69 66 71 84 72 57 73 44 74 45 75 50 76
REMARK SMILES IDX 46 77 47 78 49 79 51 80 48 81 70 82 71 83 76 84 72 85 73 86
REMARK SMILES IDX 75 87 77 88 74 89 58 90 59 91 64 92 60 93 61 94 63 95 65 96
REMARK SMILES IDX 62 97
REMARK H PARENT 27 7 32 40 82 59 56 70
REMARK Flexibility Score: inf
ROOT
ATOM      1  C   UNL A   1      42.200  20.535  26.475  1.00  0.00     0.023 C 
ENDROOT
BRANCH   1   2
ATOM      2  C   UNL A   1      41.149  20.839  27.534  1.00  0.00     0.023 C 
BRANCH   2   3
ATOM      3  C   UNL A   1      40.702  22.292  27.635  1.00  0.00     0.116 C 
BRANCH   3   4
ATOM      4  N   UNL A   1      39.616  22.648  26.735  1.00  0.00    -0.352 N 
ATOM      5  C   UNL A   1      38.968  23.851  26.562  1.00  0.00     0.251 C 
ATOM      6  O   UNL A   1      38.046  23.930  25.755  1.00  0.00    -0.269 OA
ATOM      7  H   UNL A   1      39.295  21.917  26.160  1.00  0.00     0.163 HD
BRANCH   5   8
ATOM      8  C   UNL A   1      39.317  25.029  27.391  1.00  0.00     0.039 A 
ATOM      9  C   UNL A   1      39.677  27.462  28.744  1.00  0.00     0.052 A 
ATOM     10  C   UNL A   1      40.191  27.285  27.453  1.00  0.00     0.027 A 
ATOM     11  C   UNL A   1      39.095  26.366  29.395  1.00  0.00     0.027 A 
ATOM     12  C   UNL A   1      40.028  26.069  26.785  1.00  0.00     0.016 A 
ATOM     13  C   UNL A   1      38.927  25.152  28.726  1.00  0.00     0.016 A 
BRANCH   9  14
ATOM     14  N   UNL A   1      39.675  28.735  29.356  1.00  0.00    -0.250 N 
ATOM     15  C   UNL A   1      37.430  32.661  29.271  1.00  0.00     0.022 C 
ATOM     16  C   UNL A   1      38.531  32.235  30.240  1.00  0.00     0.030 C 
ATOM     17  C   UNL A   1      38.103  32.175  31.732  1.00  0.00    -0.033 A 
ATOM     18  C   UNL A   1      39.794  33.155  30.251  1.00  0.00    -0.033 A 
ATOM     19  C   UNL A   1      39.233  30.930  29.791  1.00  0.00     0.108 C 
ATOM     20  C   UNL A   1      36.850  32.509  32.242  1.00  0.00     0.005 A 
ATOM     21  C   UNL A   1      39.162  31.825  32.639  1.00  0.00    -0.033 A 
ATOM     22  C   UNL A   1      40.858  32.648  31.080  1.00  0.00    -0.033 A 
ATOM     23  C   UNL A   1      39.976  34.306  29.490  1.00  0.00     0.005 A 
ATOM     24  C   UNL A   1      39.896  30.288  31.010  1.00  0.00     0.108 C 
ATOM     25  C   UNL A   1      38.693  29.710  29.119  1.00  0.00     0.238 C 
ATOM     26  C   UNL A   1      36.653  32.512  33.626  1.00  0.00     0.000 A 
ATOM     27  C   UNL A   1      38.955  31.847  34.016  1.00  0.00     0.005 A 
ATOM     28  C   UNL A   1      40.476  31.400  31.915  1.00  0.00     0.030 C 
ATOM     29  C   UNL A   1      42.081  33.310  31.108  1.00  0.00     0.005 A 
ATOM     30  C   UNL A   1      41.210  34.952  29.534  1.00  0.00     0.000 A 
ATOM     31  C   UNL A   1      40.573  29.131  30.354  1.00  0.00     0.238 C 
ATOM     32  O   UNL A   1      37.672  29.647  28.463  1.00  0.00    -0.274 OA
ATOM     33  C   UNL A   1      37.697  32.196  34.504  1.00  0.00     0.000 A 
ATOM     34  C   UNL A   1      41.568  30.868  32.841  1.00  0.00     0.022 C 
ATOM     35  C   UNL A   1      42.252  34.457  30.329  1.00  0.00     0.000 A 
ATOM     36  O   UNL A   1      41.607  28.602  30.726  1.00  0.00    -0.274 OA
ENDBRANCH   9  14
ENDBRANCH   5   8
ENDBRANCH   3   4
ENDBRANCH   2   3
ENDBRANCH   1   2
BRANCH   1  37
ATOM     37  C   UNL A   1      43.288  21.586  26.312  1.00  0.00     0.116 C 
BRANCH  37  38
ATOM     38  N   UNL A   1      43.805  21.703  24.953  1.00  0.00    -0.352 N 
ATOM     39  C   UNL A   1      44.357  22.795  24.316  1.00  0.00     0.251 C 
ATOM     40  H   UNL A   1      43.752  20.883  24.411  1.00  0.00     0.163 HD
ATOM     41  O   UNL A   1      44.668  22.738  23.131  1.00  0.00    -0.269 OA
BRANCH  39  42
ATOM     42  C   UNL A   1      44.515  24.057  25.066  1.00  0.00     0.039 A 
ATOM     43  C   UNL A   1      45.772  24.437  25.532  1.00  0.00     0.014 A 
ATOM     44  C   UNL A   1      43.381  24.798  25.406  1.00  0.00     0.014 A 
ATOM     45  C   UNL A   1      45.861  25.390  26.537  1.00  0.00     0.010 A 
ATOM     46  C   UNL A   1      43.494  25.843  26.328  1.00  0.00     0.010 A 
ATOM     47  C   UNL A   1      44.721  26.095  26.961  1.00  0.00    -0.014 A 
BRANCH  47  48
ATOM     48  C   UNL A   1      44.839  27.060  28.087  1.00  0.00     0.031 A 
ATOM     49  C   UNL A   1      45.108  28.521  27.834  1.00  0.00     0.074 A 
ATOM     50  C   UNL A   1      44.641  26.625  29.347  1.00  0.00     0.049 A 
ATOM     51  N   UNL A   1      45.246  29.498  28.696  1.00  0.00    -0.248 NA
ATOM     52  C   UNL A   1      45.246  28.943  26.432  1.00  0.00     0.031 C 
ATOM     53  C   UNL A   1      44.353  25.240  29.726  1.00  0.00     0.029 A 
ATOM     54  N   UNL A   1      44.631  27.304  30.538  1.00  0.00    -0.354 N 
ATOM     55  C   UNL A   1      45.513  30.639  27.946  1.00  0.00     0.074 A 
ATOM     56  C   UNL A   1      45.550  30.226  26.559  1.00  0.00     0.031 C 
ATOM     57  C   UNL A   1      44.148  25.179  31.048  1.00  0.00     0.029 A 
ATOM     58  C   UNL A   1      44.372  26.500  31.621  1.00  0.00     0.049 A 
ATOM     59  H   UNL A   1      44.794  28.272  30.609  1.00  0.00     0.167 HD
ATOM     60  C   UNL A   1      45.701  31.913  28.371  1.00  0.00     0.037 A 
ATOM     61  C   UNL A   1      44.352  26.784  32.935  1.00  0.00     0.037 A 
ATOM     62  C   UNL A   1      45.652  32.321  29.752  1.00  0.00     0.049 A 
ATOM     63  C   UNL A   1      44.631  28.189  33.384  1.00  0.00     0.074 A 
ATOM     64  C   UNL A   1      45.800  33.593  30.283  1.00  0.00     0.029 A 
ATOM     65  N   UNL A   1      45.448  31.465  30.825  1.00  0.00    -0.354 N 
ATOM     66  N   UNL A   1      44.866  29.257  32.662  1.00  0.00    -0.248 NA
ATOM     67  C   UNL A   1      44.651  28.423  34.833  1.00  0.00     0.031 C 
ATOM     68  C   UNL A   1      45.749  33.494  31.678  1.00  0.00     0.029 A 
ATOM     69  C   UNL A   1      45.503  32.174  32.015  1.00  0.00     0.049 A 
ATOM     70  H   UNL A   1      45.287  30.497  30.750  1.00  0.00     0.167 HD
ATOM     71  C   UNL A   1      45.044  30.295  33.568  1.00  0.00     0.074 A 
ATOM     72  C   UNL A   1      44.864  29.730  34.889  1.00  0.00     0.031 C 
ATOM     73  C   UNL A   1      45.333  31.598  33.326  1.00  0.00     0.037 A 
BRANCH  60  74
ATOM     74  C   UNL A   1      46.020  32.951  27.329  1.00  0.00     0.057 A 
ATOM     75  C   UNL A   1      44.990  33.662  26.696  1.00  0.00     0.134 A 
ATOM     76  C   UNL A   1      47.334  33.242  26.938  1.00  0.00     0.134 A 
ATOM     77  F   UNL A   1      43.707  33.428  27.011  1.00  0.00    -0.206 F 
ATOM     78  C   UNL A   1      45.256  34.626  25.722  1.00  0.00     0.040 A 
ATOM     79  C   UNL A   1      47.614  34.226  25.986  1.00  0.00     0.040 A 
ATOM     80  F   UNL A   1      48.369  32.607  27.507  1.00  0.00    -0.206 F 
ATOM     81  C   UNL A   1      46.572  34.919  25.373  1.00  0.00     0.006 A 
ENDBRANCH  60  74
BRANCH  61  82
ATOM     82  C   UNL A   1      44.092  25.705  33.921  1.00  0.00     0.057 A 
ATOM     83  C   UNL A   1      42.852  25.587  34.560  1.00  0.00     0.134 A 
ATOM     84  C   UNL A   1      45.075  24.762  34.242  1.00  0.00     0.134 A 
ATOM     85  F   UNL A   1      41.871  26.465  34.302  1.00  0.00    -0.206 F 
ATOM     86  C   UNL A   1      42.600  24.579  35.491  1.00  0.00     0.040 A 
ATOM     87  C   UNL A   1      44.827  23.729  35.146  1.00  0.00     0.040 A 
ATOM     88  F   UNL A   1      46.278  24.812  33.650  1.00  0.00    -0.206 F 
ATOM     89  C   UNL A   1      43.587  23.640  35.778  1.00  0.00     0.006 A 
ENDBRANCH  61  82
BRANCH  73  90
ATOM     90  C   UNL A   1      45.444  32.501  34.521  1.00  0.00     0.057 A 
ATOM     91  C   UNL A   1      44.340  33.248  34.954  1.00  0.00     0.134 A 
ATOM     92  C   UNL A   1      46.638  32.638  35.241  1.00  0.00     0.134 A 
ATOM     93  F   UNL A   1      43.167  33.171  34.308  1.00  0.00    -0.206 F 
ATOM     94  C   UNL A   1      44.420  34.097  36.059  1.00  0.00     0.040 A 
ATOM     95  C   UNL A   1      46.722  33.458  36.367  1.00  0.00     0.040 A 
ATOM     96  F   UNL A   1      47.727  31.937  34.890  1.00  0.00    -0.206 F 
ATOM     97  C   UNL A   1      45.611  34.195  36.775  1.00  0.00     0.006 A 
ENDBRANCH  73  90
ENDBRANCH  47  48
ENDBRANCH  39  42
ENDBRANCH  37  38
ENDBRANCH   1  37
TORSDOF 12
ENDMDL
MODEL 2
REMARK VINA RESULT:     -10.2      2.975      9.299
REMARK SMILES C[C@]12c3ccccc3[C@](C)(c3ccccc31)[C@@H]1C(=O)N(c3ccc(C(=O)NCCCCNC(=O)c4ccc(-c5c6nc(c(-c7c(F)cccc7F)c7ccc([nH]7)c(-c7c(F)cccc7F)c7nc(c(-c8c(F)cccc8F)c8ccc5[nH]8)C=C7)C=C6)cc4)cc3)C(=O)[C@H]12
REMARK SMILES IDX 30 1 29 2 28 3 27 4 25 5 26 6 24 8 21 9 22 10 90 11 23 12
REMARK SMILES IDX 89 13 20 14 1 15 2 16 16 17 3 18 93 19 15 20 11 21 8 22 4 23
REMARK SMILES IDX 17 24 91 25 14 26 12 27 9 28 7 29 5 30 18 31 92 32 13 33
REMARK SMILES IDX 10 34 6 35 19 36 31 37 32 38 33 39 34 41 35 42 36 43 88 44
REMARK SMILES IDX 37 45 87 46 38 47 39 48 40 49 81 50 41 51 86 52 80 53 82 54
REMARK SMILES IDX 42 55 85 56 79 57 78 58 43 60 69 61 52 62 68 63 53 64 56 65
REMARK SMILES IDX 67 66 83 67 54 68 55 69 66 71 84 72 57 73 44 74 45 75 50 76
REMARK SMILES IDX 46 77 47 78 49 79 51 80 48 81 70 82 71 83 76 84 72 85 73 86
REMARK SMILES IDX 75 87 77 88 74 89 58 90 59 91 64 92 60 93 61 94 63 95 65 96
REMARK SMILES IDX 62 97
REMARK H PARENT 27 7 32 40 82 59 56 70
REMARK Flexibility Score: inf
ROOT
ATOM      1  C   UNL A   1      34.825  32.360  30.321  1.00  0.00     0.023 C 
ENDROOT
BRANCH   1   2
ATOM      2  C   UNL A   1      35.750  33.491  30.752  1.00  0.00     0.023 C 
BRANCH   2   3
ATOM      3  C   UNL A   1      36.880  33.107  31.699  1.00  0.00     0.116 C 
BRANCH   3   4
ATOM      4  N   UNL A   1      36.525  33.162  33.109  1.00  0.00    -0.352 N 
ATOM      5  C   UNL A   1      37.142  32.591  34.199  1.00  0.00     0.251 C 
ATOM      6  O   UNL A   1      36.655  32.742  35.316  1.00  0.00    -0.269 OA
ATOM      7  H   UNL A   1      35.719  33.688  33.314  1.00  0.00     0.163 HD
BRANCH   5   8
ATOM      8  C   UNL A   1      38.341  31.735  34.034  1.00  0.00     0.039 A 
ATOM      9  C   UNL A   1      40.587  30.054  34.138  1.00  0.00     0.052 A 
ATOM     10  C   UNL A   1      40.679  31.389  34.550  1.00  0.00     0.027 A 
ATOM     11  C   UNL A   1      39.392  29.610  33.554  1.00  0.00     0.027 A 
ATOM     12  C   UNL A   1      39.567  32.232  34.483  1.00  0.00     0.016 A 
ATOM     13  C   UNL A   1      38.279  30.450  33.491  1.00  0.00     0.016 A 
BRANCH   9  14
ATOM     14  N   UNL A   1      41.645  29.147  34.368  1.00  0.00    -0.250 N 
ATOM     15  C   UNL A   1      43.148  26.236  37.486  1.00  0.00     0.022 C 
ATOM     16  C   UNL A   1      43.693  26.460  36.078  1.00  0.00     0.030 C 
ATOM     17  C   UNL A   1      43.626  25.220  35.144  1.00  0.00    -0.033 A 
ATOM     18  C   UNL A   1      45.193  26.896  36.010  1.00  0.00    -0.033 A 
ATOM     19  C   UNL A   1      43.085  27.716  35.408  1.00  0.00     0.108 C 
ATOM     20  C   UNL A   1      43.163  23.953  35.493  1.00  0.00     0.005 A 
ATOM     21  C   UNL A   1      44.191  25.429  33.839  1.00  0.00    -0.033 A 
ATOM     22  C   UNL A   1      45.630  27.222  34.676  1.00  0.00    -0.033 A 
ATOM     23  C   UNL A   1      46.046  27.066  37.097  1.00  0.00     0.005 A 
ATOM     24  C   UNL A   1      43.231  27.581  33.892  1.00  0.00     0.108 C 
ATOM     25  C   UNL A   1      41.710  28.297  35.484  1.00  0.00     0.238 C 
ATOM     26  C   UNL A   1      43.272  22.907  34.571  1.00  0.00     0.000 A 
ATOM     27  C   UNL A   1      44.306  24.374  32.937  1.00  0.00     0.005 A 
ATOM     28  C   UNL A   1      44.588  26.913  33.571  1.00  0.00     0.030 C 
ATOM     29  C   UNL A   1      46.912  27.722  34.478  1.00  0.00     0.005 A 
ATOM     30  C   UNL A   1      47.326  27.569  36.873  1.00  0.00     0.000 A 
ATOM     31  C   UNL A   1      42.683  28.901  33.462  1.00  0.00     0.238 C 
ATOM     32  O   UNL A   1      40.902  28.108  36.371  1.00  0.00    -0.274 OA
ATOM     33  C   UNL A   1      43.848  23.113  33.312  1.00  0.00     0.000 A 
ATOM     34  C   UNL A   1      45.041  27.201  32.141  1.00  0.00     0.022 C 
ATOM     35  C   UNL A   1      47.753  27.898  35.580  1.00  0.00     0.000 A 
ATOM     36  O   UNL A   1      43.007  29.519  32.462  1.00  0.00    -0.274 OA
ENDBRANCH   9  14
ENDBRANCH   5   8
ENDBRANCH   3   4
ENDBRANCH   2   3
ENDBRANCH   1   2
BRANCH   1  37
ATOM     37  C   UNL A   1      34.626  32.213  28.820  1.00  0.00     0.116 C 
BRANCH  37  38
ATOM     38  N   UNL A   1      34.223  30.874  28.401  1.00  0.00    -0.352 N 
ATOM     39  C   UNL A   1      34.995  29.748  28.210  1.00  0.00     0.251 C 
ATOM     40  H   UNL A   1      33.261  30.759  28.231  1.00  0.00     0.163 HD
ATOM     41  O   UNL A   1      34.497  28.715  27.772  1.00  0.00    -0.269 OA
BRANCH  39  42
ATOM     42  C   UNL A   1      36.445  29.817  28.482  1.00  0.00     0.039 A 
ATOM     43  C   UNL A   1      37.324  30.206  27.474  1.00  0.00     0.014 A 
ATOM     44  C   UNL A   1      36.932  29.376  29.714  1.00  0.00     0.014 A 
ATOM     45  C   UNL A   1      38.673  29.909  27.601  1.00  0.00     0.010 A 
ATOM     46  C   UNL A   1      38.308  29.195  29.883  1.00  0.00     0.010 A 
ATOM     47  C   UNL A   1      39.182  29.385  28.802  1.00  0.00    -0.014 A 
BRANCH  47  48
ATOM     48  C   UNL A   1      40.621  29.012  28.882  1.00  0.00     0.031 A 
ATOM     49  C   UNL A   1      41.091  27.638  28.478  1.00  0.00     0.074 A 
ATOM     50  C   UNL A   1      41.518  29.941  29.266  1.00  0.00     0.049 A 
ATOM     51  N   UNL A   1      42.305  27.143  28.490  1.00  0.00    -0.248 NA
ATOM     52  C   UNL A   1      40.069  26.694  28.004  1.00  0.00     0.031 C 
ATOM     53  C   UNL A   1      41.196  31.313  29.663  1.00  0.00     0.029 A 
ATOM     54  N   UNL A   1      42.885  29.879  29.366  1.00  0.00    -0.354 N 
ATOM     55  C   UNL A   1      42.187  25.827  28.054  1.00  0.00     0.074 A 
ATOM     56  C   UNL A   1      40.779  25.591  27.816  1.00  0.00     0.031 C 
ATOM     57  C   UNL A   1      42.332  31.976  29.917  1.00  0.00     0.029 A 
ATOM     58  C   UNL A   1      43.455  31.056  29.782  1.00  0.00     0.049 A 
ATOM     59  H   UNL A   1      43.405  29.069  29.158  1.00  0.00     0.167 HD
ATOM     60  C   UNL A   1      43.162  24.904  27.861  1.00  0.00     0.037 A 
ATOM     61  C   UNL A   1      44.735  31.357  30.062  1.00  0.00     0.037 A 
ATOM     62  C   UNL A   1      44.564  25.147  28.088  1.00  0.00     0.049 A 
ATOM     63  C   UNL A   1      45.786  30.297  29.905  1.00  0.00     0.074 A 
ATOM     64  C   UNL A   1      45.633  24.287  27.894  1.00  0.00     0.029 A 
ATOM     65  N   UNL A   1      45.094  26.336  28.570  1.00  0.00    -0.354 N 
ATOM     66  N   UNL A   1      45.661  29.064  29.477  1.00  0.00    -0.248 NA
ATOM     67  C   UNL A   1      47.155  30.669  30.281  1.00  0.00     0.031 C 
ATOM     68  C   UNL A   1      46.799  24.934  28.318  1.00  0.00     0.029 A 
ATOM     69  C   UNL A   1      46.468  26.219  28.714  1.00  0.00     0.049 A 
ATOM     70  H   UNL A   1      44.571  27.143  28.778  1.00  0.00     0.167 HD
ATOM     71  C   UNL A   1      46.937  28.519  29.514  1.00  0.00     0.074 A 
ATOM     72  C   UNL A   1      47.823  29.565  29.982  1.00  0.00     0.031 C 
ATOM     73  C   UNL A   1      47.339  27.264  29.192  1.00  0.00     0.037 A 
BRANCH  60  74
ATOM     74  C   UNL A   1      42.737  23.530  27.418  1.00  0.00     0.057 A 
ATOM     75  C   UNL A   1      42.631  23.224  26.054  1.00  0.00     0.134 A 
ATOM     76  C   UNL A   1      42.417  22.514  28.330  1.00  0.00     0.134 A 
ATOM     77  F   UNL A   1      42.910  24.150  25.124  1.00  0.00    -0.206 F 
ATOM     78  C   UNL A   1      42.233  21.959  25.615  1.00  0.00     0.040 A 
ATOM     79  C   UNL A   1      42.048  21.236  27.902  1.00  0.00     0.040 A 
ATOM     80  F   UNL A   1      42.503  22.734  29.650  1.00  0.00    -0.206 F 
ATOM     81  C   UNL A   1      41.952  20.958  26.541  1.00  0.00     0.006 A 
ENDBRANCH  60  74
BRANCH  61  82
ATOM     82  C   UNL A   1      45.085  32.713  30.554  1.00  0.00     0.057 A 
ATOM     83  C   UNL A   1      45.058  33.019  31.921  1.00  0.00     0.134 A 
ATOM     84  C   UNL A   1      45.462  33.732  29.672  1.00  0.00     0.134 A 
ATOM     85  F   UNL A   1      44.697  32.089  32.816  1.00  0.00    -0.206 F 
ATOM     86  C   UNL A   1      45.381  34.292  32.392  1.00  0.00     0.040 A 
ATOM     87  C   UNL A   1      45.819  34.999  30.132  1.00  0.00     0.040 A 
ATOM     88  F   UNL A   1      45.523  33.494  28.354  1.00  0.00    -0.206 F 
ATOM     89  C   UNL A   1      45.773  35.283  31.496  1.00  0.00     0.006 A 
ENDBRANCH  61  82
BRANCH  73  90
ATOM     90  C   UNL A   1      48.807  26.970  29.311  1.00  0.00     0.057 A 
ATOM     91  C   UNL A   1      49.334  26.443  30.498  1.00  0.00     0.134 A 
ATOM     92  C   UNL A   1      49.700  27.213  28.260  1.00  0.00     0.134 A 
ATOM     93  F   UNL A   1      48.537  26.193  31.547  1.00  0.00    -0.206 F 
ATOM     94  C   UNL A   1      50.695  26.165  30.633  1.00  0.00     0.040 A 
ATOM     95  C   UNL A   1      51.059  26.909  28.371  1.00  0.00     0.040 A 
ATOM     96  F   UNL A   1      49.258  27.701  27.091  1.00  0.00    -0.206 F 
ATOM     97  C   UNL A   1      51.559  26.389  29.563  1.00  0.00     0.006 A 
ENDBRANCH  73  90
ENDBRANCH  47  48
ENDBRANCH  39  42
ENDBRANCH  37  38
ENDBRANCH   1  37
TORSDOF 12
ENDMDL
MODEL 3
REMARK VINA RESULT:     -10.1      0.395      5.759
REMARK SMILES C[C@]12c3ccccc3[C@](C)(c3ccccc31)[C@@H]1C(=O)N(c3ccc(C(=O)NCCCCNC(=O)c4ccc(-c5c6nc(c(-c7c(F)cccc7F)c7ccc([nH]7)c(-c7c(F)cccc7F)c7nc(c(-c8c(F)cccc8F)c8ccc5[nH]8)C=C7)C=C6)cc4)cc3)C(=O)[C@H]12
REMARK SMILES IDX 30 1 29 2 28 3 27 4 25 5 26 6 24 8 21 9 22 10 90 11 23 12
REMARK SMILES IDX 89 13 20 14 1 15 2 16 16 17 3 18 93 19 15 20 11 21 8 22 4 23
REMARK SMILES IDX 17 24 91 25 14 26 12 27 9 28 7 29 5 30 18 31 92 32 13 33
REMARK SMILES IDX 10 34 6 35 19 36 31 37 32 38 33 39 34 41 35 42 36 43 88 44
REMARK SMILES IDX 37 45 87 46 38 47 39 48 40 49 81 50 41 51 86 52 80 53 82 54
REMARK SMILES IDX 42 55 85 56 79 57 78 58 43 60 69 61 52 62 68 63 53 64 56 65
REMARK SMILES IDX 67 66 83 67 54 68 55 69 66 71 84 72 57 73 44 74 45 75 50 76
REMARK SMILES IDX 46 77 47 78 49 79 51 80 48 81 70 82 71 83 76 84 72 85 73 86
REMARK SMILES IDX 75 87 77 88 74 89 58 90 59 91 64 92 60 93 61 94 63 95 65 96
REMARK SMILES IDX 62 97
REMARK H PARENT 27 7 32 40 82 59 56 70
REMARK Flexibility Score: inf
ROOT
ATOM      1  C   UNL A   1      42.232  20.377  26.542  1.00  0.00     0.023 C 
ENDROOT
BRANCH   1   2
ATOM      2  C   UNL A   1      41.141  20.903  27.465  1.00  0.00     0.023 C 
BRANCH   2   3
ATOM      3  C   UNL A   1      40.848  22.396  27.371  1.00  0.00     0.116 C 
BRANCH   3   4
ATOM      4  N   UNL A   1      39.671  22.727  26.582  1.00  0.00    -0.352 N 
ATOM      5  C   UNL A   1      38.952  23.900  26.515  1.00  0.00     0.251 C 
ATOM      6  O   UNL A   1      37.961  23.959  25.792  1.00  0.00    -0.269 OA
ATOM      7  H   UNL A   1      39.338  22.001  26.007  1.00  0.00     0.163 HD
BRANCH   5   8
ATOM      8  C   UNL A   1      39.314  25.064  27.358  1.00  0.00     0.039 A 
ATOM      9  C   UNL A   1      39.707  27.479  28.734  1.00  0.00     0.052 A 
ATOM     10  C   UNL A   1      40.243  27.296  27.453  1.00  0.00     0.027 A 
ATOM     11  C   UNL A   1      39.084  26.393  29.366  1.00  0.00     0.027 A 
ATOM     12  C   UNL A   1      40.063  26.088  26.774  1.00  0.00     0.016 A 
ATOM     13  C   UNL A   1      38.900  25.188  28.686  1.00  0.00     0.016 A 
BRANCH   9  14
ATOM     14  N   UNL A   1      39.725  28.747  29.354  1.00  0.00    -0.250 N 
ATOM     15  C   UNL A   1      37.454  32.659  29.397  1.00  0.00     0.022 C 
ATOM     16  C   UNL A   1      38.599  32.234  30.312  1.00  0.00     0.030 C 
ATOM     17  C   UNL A   1      38.239  32.161  31.822  1.00  0.00    -0.033 A 
ATOM     18  C   UNL A   1      39.856  33.162  30.274  1.00  0.00    -0.033 A 
ATOM     19  C   UNL A   1      39.288  30.937  29.824  1.00  0.00     0.108 C 
ATOM     20  C   UNL A   1      37.008  32.484  32.389  1.00  0.00     0.005 A 
ATOM     21  C   UNL A   1      39.339  31.812  32.678  1.00  0.00    -0.033 A 
ATOM     22  C   UNL A   1      40.960  32.656  31.051  1.00  0.00    -0.033 A 
ATOM     23  C   UNL A   1      39.997  34.319  29.513  1.00  0.00     0.005 A 
ATOM     24  C   UNL A   1      40.010  30.291  31.007  1.00  0.00     0.108 C 
ATOM     25  C   UNL A   1      38.727  29.717  29.168  1.00  0.00     0.238 C 
ATOM     26  C   UNL A   1      36.872  32.476  33.781  1.00  0.00     0.000 A 
ATOM     27  C   UNL A   1      39.194  31.823  34.063  1.00  0.00     0.005 A 
ATOM     28  C   UNL A   1      40.623  31.400  31.893  1.00  0.00     0.030 C 
ATOM     29  C   UNL A   1      42.178  33.326  31.029  1.00  0.00     0.005 A 
ATOM     30  C   UNL A   1      41.228  34.973  29.507  1.00  0.00     0.000 A 
ATOM     31  C   UNL A   1      40.664  29.142  30.314  1.00  0.00     0.238 C 
ATOM     32  O   UNL A   1      37.678  29.652  28.557  1.00  0.00    -0.274 OA
ATOM     33  C   UNL A   1      37.956  32.161  34.609  1.00  0.00     0.000 A 
ATOM     34  C   UNL A   1      41.758  30.869  32.766  1.00  0.00     0.022 C 
ATOM     35  C   UNL A   1      42.307  34.480  30.251  1.00  0.00     0.000 A 
ATOM     36  O   UNL A   1      41.717  28.617  30.636  1.00  0.00    -0.274 OA
ENDBRANCH   9  14
ENDBRANCH   5   8
ENDBRANCH   3   4
ENDBRANCH   2   3
ENDBRANCH   1   2
BRANCH   1  37
ATOM     37  C   UNL A   1      43.407  21.316  26.316  1.00  0.00     0.116 C 
BRANCH  37  38
ATOM     38  N   UNL A   1      43.780  21.477  24.914  1.00  0.00    -0.352 N 
ATOM     39  C   UNL A   1      44.221  22.601  24.248  1.00  0.00     0.251 C 
ATOM     40  H   UNL A   1      43.705  20.665  24.364  1.00  0.00     0.163 HD
ATOM     41  O   UNL A   1      44.413  22.577  23.037  1.00  0.00    -0.269 OA
BRANCH  39  42
ATOM     42  C   UNL A   1      44.402  23.857  25.005  1.00  0.00     0.039 A 
ATOM     43  C   UNL A   1      45.671  24.226  25.446  1.00  0.00     0.014 A 
ATOM     44  C   UNL A   1      43.280  24.601  25.376  1.00  0.00     0.014 A 
ATOM     45  C   UNL A   1      45.788  25.170  26.457  1.00  0.00     0.010 A 
ATOM     46  C   UNL A   1      43.420  25.638  26.303  1.00  0.00     0.010 A 
ATOM     47  C   UNL A   1      44.662  25.878  26.911  1.00  0.00    -0.014 A 
BRANCH  47  48
ATOM     48  C   UNL A   1      44.809  26.833  28.042  1.00  0.00     0.031 A 
ATOM     49  C   UNL A   1      44.778  26.354  29.471  1.00  0.00     0.074 A 
ATOM     50  C   UNL A   1      45.034  28.134  27.778  1.00  0.00     0.049 A 
ATOM     51  N   UNL A   1      44.885  27.048  30.578  1.00  0.00    -0.248 NA
ATOM     52  C   UNL A   1      44.597  24.911  29.690  1.00  0.00     0.031 C 
ATOM     53  C   UNL A   1      45.108  28.723  26.439  1.00  0.00     0.029 A 
ATOM     54  N   UNL A   1      45.261  29.194  28.619  1.00  0.00    -0.354 N 
ATOM     55  C   UNL A   1      44.757  26.133  31.619  1.00  0.00     0.074 A 
ATOM     56  C   UNL A   1      44.532  24.839  31.011  1.00  0.00     0.031 C 
ATOM     57  C   UNL A   1      45.409  30.024  26.546  1.00  0.00     0.029 A 
ATOM     58  C   UNL A   1      45.468  30.380  27.958  1.00  0.00     0.049 A 
ATOM     59  H   UNL A   1      45.276  29.111  29.600  1.00  0.00     0.167 HD
ATOM     60  C   UNL A   1      44.830  26.350  32.956  1.00  0.00     0.037 A 
ATOM     61  C   UNL A   1      45.647  31.625  28.433  1.00  0.00     0.037 A 
ATOM     62  C   UNL A   1      45.065  27.638  33.556  1.00  0.00     0.049 A 
ATOM     63  C   UNL A   1      45.655  31.847  29.917  1.00  0.00     0.074 A 
ATOM     64  C   UNL A   1      45.186  27.956  34.899  1.00  0.00     0.029 A 
ATOM     65  N   UNL A   1      45.207  28.826  32.853  1.00  0.00    -0.354 N 
ATOM     66  N   UNL A   1      45.550  30.971  30.886  1.00  0.00    -0.248 NA
ATOM     67  C   UNL A   1      45.798  33.236  30.372  1.00  0.00     0.031 C 
ATOM     68  C   UNL A   1      45.336  29.344  35.009  1.00  0.00     0.029 A 
ATOM     69  C   UNL A   1      45.377  29.882  33.734  1.00  0.00     0.049 A 
ATOM     70  H   UNL A   1      45.191  28.905  31.872  1.00  0.00     0.167 HD
ATOM     71  C   UNL A   1      45.631  31.699  32.066  1.00  0.00     0.074 A 
ATOM     72  C   UNL A   1      45.821  33.084  31.688  1.00  0.00     0.031 C 
ATOM     73  C   UNL A   1      45.554  31.260  33.346  1.00  0.00     0.037 A 
BRANCH  60  74
ATOM     74  C   UNL A   1      44.610  25.168  33.862  1.00  0.00     0.057 A 
ATOM     75  C   UNL A   1      43.366  24.964  34.476  1.00  0.00     0.134 A 
ATOM     76  C   UNL A   1      45.623  24.240  34.143  1.00  0.00     0.134 A 
ATOM     77  F   UNL A   1      42.353  25.818  34.262  1.00  0.00    -0.206 F 
ATOM     78  C   UNL A   1      43.136  23.881  35.325  1.00  0.00     0.040 A 
ATOM     79  C   UNL A   1      45.396  23.135  34.967  1.00  0.00     0.040 A 
ATOM     80  F   UNL A   1      46.836  24.368  33.585  1.00  0.00    -0.206 F 
ATOM     81  C   UNL A   1      44.149  22.955  35.563  1.00  0.00     0.006 A 
ENDBRANCH  60  74
BRANCH  61  82
ATOM     82  C   UNL A   1      45.798  32.761  27.489  1.00  0.00     0.057 A 
ATOM     83  C   UNL A   1      47.057  33.151  27.017  1.00  0.00     0.134 A 
ATOM     84  C   UNL A   1      44.687  33.478  27.033  1.00  0.00     0.134 A 
ATOM     85  F   UNL A   1      48.162  32.509  27.423  1.00  0.00    -0.206 F 
ATOM     86  C   UNL A   1      47.208  34.220  26.133  1.00  0.00     0.040 A 
ATOM     87  C   UNL A   1      44.820  34.528  26.124  1.00  0.00     0.040 A 
ATOM     88  F   UNL A   1      43.453  33.141  27.436  1.00  0.00    -0.206 F 
ATOM     89  C   UNL A   1      46.085  34.906  25.677  1.00  0.00     0.006 A 
ENDBRANCH  61  82
BRANCH  73  90
ATOM     90  C   UNL A   1      45.703  32.292  34.428  1.00  0.00     0.057 A 
ATOM     91  C   UNL A   1      44.594  33.025  34.870  1.00  0.00     0.134 A 
ATOM     92  C   UNL A   1      46.939  32.565  35.027  1.00  0.00     0.134 A 
ATOM     93  F   UNL A   1      43.382  32.820  34.335  1.00  0.00    -0.206 F 
ATOM     94  C   UNL A   1      44.710  33.992  35.870  1.00  0.00     0.040 A 
ATOM     95  C   UNL A   1      47.061  33.506  36.051  1.00  0.00     0.040 A 
ATOM     96  F   UNL A   1      48.037  31.886  34.662  1.00  0.00    -0.206 F 
ATOM     97  C   UNL A   1      45.945  34.227  36.471  1.00  0.00     0.006 A 
ENDBRANCH  73  90
ENDBRANCH  47  48
ENDBRANCH  39  42
ENDBRANCH  37  38
ENDBRANCH   1  37
TORSDOF 12
ENDMDL
