MODEL 1
REMARK VINA RESULT:     -11.8      0.000      0.000
REMARK SMILES Cc1cccc(O[C@H](C)C(=O)N2CCC[C@@H](C(=O)NCCCCNC(=O)c3ccc(-c4c5nc(c(-c6c(F)cccc6F)c6ccc([nH]6)c(-c6c(F)cccc6F)c6nc(c(-c7c(F)cccc7F)c7ccc4[nH]7)C=C6)C=C5)cc3)C2)c1
REMARK SMILES IDX 20 1 19 2 17 3 18 4 16 6 12 7 13 8 81 9 14 10 15 11 10 12
REMARK SMILES IDX 11 13 8 14 9 15 7 16 6 17 1 18 2 19 3 20 82 21 4 22 5 23
REMARK SMILES IDX 21 24 22 25 23 26 24 27 25 28 26 30 27 31 28 32 80 33 29 34
REMARK SMILES IDX 79 35 30 36 31 37 32 38 73 39 33 40 78 41 72 42 74 43 34 44
REMARK SMILES IDX 77 45 71 46 70 47 35 49 61 50 44 51 60 52 45 53 48 54 59 55
REMARK SMILES IDX 75 56 46 57 47 58 58 60 76 61 49 62 36 63 37 64 42 65 38 66
REMARK SMILES IDX 39 67 41 68 43 69 40 70 62 71 63 72 68 73 64 74 65 75 67 76
REMARK SMILES IDX 69 77 66 78 50 79 51 80 56 81 52 82 53 83 55 84 57 85 54 86
REMARK H PARENT 19 5 24 29 74 48 48 59
REMARK Flexibility Score: inf
ROOT
ATOM      1  C   UNL A   1      37.756  23.253  25.677  1.00  0.00     0.116 C 
ENDROOT
BRANCH   1   2
ATOM      2  N   UNL A   1      37.447  23.283  24.260  1.00  0.00    -0.356 N 
ATOM      3  C   UNL A   1      36.362  22.882  23.553  1.00  0.00     0.224 C 
ATOM      4  O   UNL A   1      36.458  22.932  22.322  1.00  0.00    -0.275 OA
ATOM      5  H   UNL A   1      38.161  23.668  23.704  1.00  0.00     0.163 HD
BRANCH   3   6
ATOM      6  C   UNL A   1      35.050  22.447  24.188  1.00  0.00     0.098 C 
ATOM      7  N   UNL A   1      32.595  22.435  24.173  1.00  0.00    -0.339 N 
ATOM      8  C   UNL A   1      32.549  21.070  24.709  1.00  0.00     0.119 C 
ATOM      9  C   UNL A   1      33.783  22.736  23.385  1.00  0.00     0.133 C 
ATOM     10  C   UNL A   1      33.824  20.677  25.454  1.00  0.00     0.022 C 
ATOM     11  C   UNL A   1      35.082  20.986  24.640  1.00  0.00     0.017 C 
BRANCH   7  12
ATOM     12  C   UNL A   1      31.481  23.244  24.339  1.00  0.00     0.263 C 
ATOM     13  O   UNL A   1      30.675  23.385  23.408  1.00  0.00    -0.271 OA
BRANCH  12  14
ATOM     14  C   UNL A   1      31.258  24.075  25.631  1.00  0.00     0.259 C 
ATOM     15  C   UNL A   1      30.388  23.472  26.722  1.00  0.00     0.064 C 
BRANCH  14  16
ATOM     16  O   UNL A   1      32.430  24.825  25.932  1.00  0.00    -0.481 OA
BRANCH  16  17
ATOM     17  C   UNL A   1      32.852  26.010  25.438  1.00  0.00     0.120 A 
ATOM     18  C   UNL A   1      33.930  29.207  27.235  1.00  0.00     0.044 C 
ATOM     19  C   UNL A   1      33.663  28.216  26.140  1.00  0.00    -0.047 A 
ATOM     20  C   UNL A   1      33.954  28.522  24.812  1.00  0.00     0.003 A 
ATOM     21  C   UNL A   1      33.103  26.965  26.436  1.00  0.00     0.049 A 
ATOM     22  C   UNL A   1      33.723  27.572  23.816  1.00  0.00     0.004 A 
ATOM     23  C   UNL A   1      33.176  26.320  24.127  1.00  0.00     0.046 A 
ENDBRANCH  16  17
ENDBRANCH  14  16
ENDBRANCH  12  14
ENDBRANCH   7  12
ENDBRANCH   3   6
ENDBRANCH   1   2
BRANCH   1  24
ATOM     24  C   UNL A   1      38.193  21.860  26.141  1.00  0.00     0.023 C 
BRANCH  24  25
ATOM     25  C   UNL A   1      39.639  21.780  26.623  1.00  0.00     0.023 C 
BRANCH  25  26
ATOM     26  C   UNL A   1      40.483  22.955  26.163  1.00  0.00     0.116 C 
BRANCH  26  27
ATOM     27  N   UNL A   1      41.537  23.319  27.109  1.00  0.00    -0.352 N 
ATOM     28  C   UNL A   1      41.675  24.481  27.855  1.00  0.00     0.251 C 
ATOM     29  H   UNL A   1      42.245  22.647  27.233  1.00  0.00     0.163 HD
ATOM     30  O   UNL A   1      42.566  24.604  28.674  1.00  0.00    -0.269 OA
BRANCH  28  31
ATOM     31  C   UNL A   1      40.606  25.502  27.731  1.00  0.00     0.039 A 
ATOM     32  C   UNL A   1      40.895  26.598  26.916  1.00  0.00     0.014 A 
ATOM     33  C   UNL A   1      39.619  25.569  28.709  1.00  0.00     0.014 A 
ATOM     34  C   UNL A   1      40.432  27.848  27.301  1.00  0.00     0.010 A 
ATOM     35  C   UNL A   1      39.246  26.824  29.155  1.00  0.00     0.010 A 
ATOM     36  C   UNL A   1      39.748  27.963  28.511  1.00  0.00    -0.014 A 
BRANCH  36  37
ATOM     37  C   UNL A   1      39.744  29.211  29.273  1.00  0.00     0.031 A 
ATOM     38  C   UNL A   1      38.751  30.268  28.991  1.00  0.00     0.074 A 
ATOM     39  C   UNL A   1      40.650  29.390  30.265  1.00  0.00     0.049 A 
ATOM     40  N   UNL A   1      38.900  31.501  29.343  1.00  0.00    -0.248 NA
ATOM     41  C   UNL A   1      37.547  30.042  28.197  1.00  0.00     0.031 C 
ATOM     42  C   UNL A   1      40.647  30.421  31.300  1.00  0.00     0.029 A 
ATOM     43  N   UNL A   1      41.912  28.783  30.387  1.00  0.00    -0.354 N 
ATOM     44  C   UNL A   1      37.717  32.150  29.097  1.00  0.00     0.074 A 
ATOM     45  C   UNL A   1      36.974  31.249  28.256  1.00  0.00     0.031 C 
ATOM     46  C   UNL A   1      41.897  30.580  31.761  1.00  0.00     0.029 A 
ATOM     47  C   UNL A   1      42.769  29.757  30.942  1.00  0.00     0.049 A 
ATOM     48  H   UNL A   1      42.149  27.862  30.136  1.00  0.00     0.167 HD
ATOM     49  C   UNL A   1      37.457  33.312  29.757  1.00  0.00     0.037 A 
ATOM     50  C   UNL A   1      43.872  30.207  30.277  1.00  0.00     0.037 A 
ATOM     51  C   UNL A   1      38.681  33.863  30.346  1.00  0.00     0.049 A 
ATOM     52  C   UNL A   1      43.871  31.694  30.003  1.00  0.00     0.074 A 
ATOM     53  C   UNL A   1      39.160  33.965  31.639  1.00  0.00     0.029 A 
ATOM     54  N   UNL A   1      39.738  34.205  29.506  1.00  0.00    -0.354 N 
ATOM     55  N   UNL A   1      42.825  32.459  30.137  1.00  0.00    -0.248 NA
ATOM     56  C   UNL A   1      45.031  32.422  29.489  1.00  0.00     0.031 C 
ATOM     57  C   UNL A   1      40.547  34.271  31.565  1.00  0.00     0.029 A 
ATOM     58  C   UNL A   1      40.898  34.395  30.231  1.00  0.00     0.049 A 
ATOM     59  H   UNL A   1      39.669  34.299  28.528  1.00  0.00     0.167 HD
ATOM     60  C   UNL A   1      43.113  33.712  29.662  1.00  0.00     0.074 A 
ATOM     61  C   UNL A   1      44.519  33.652  29.313  1.00  0.00     0.031 C 
ATOM     62  C   UNL A   1      42.156  34.680  29.554  1.00  0.00     0.037 A 
BRANCH  49  63
ATOM     63  C   UNL A   1      36.069  33.854  30.058  1.00  0.00     0.057 A 
ATOM     64  C   UNL A   1      35.246  34.314  29.008  1.00  0.00     0.134 A 
ATOM     65  C   UNL A   1      35.533  34.091  31.342  1.00  0.00     0.134 A 
ATOM     66  F   UNL A   1      35.604  34.171  27.724  1.00  0.00    -0.206 F 
ATOM     67  C   UNL A   1      34.022  34.970  29.219  1.00  0.00     0.040 A 
ATOM     68  C   UNL A   1      34.291  34.704  31.565  1.00  0.00     0.040 A 
ATOM     69  F   UNL A   1      36.193  33.807  32.467  1.00  0.00    -0.206 F 
ATOM     70  C   UNL A   1      33.536  35.163  30.502  1.00  0.00     0.006 A 
ENDBRANCH  49  63
BRANCH  50  71
ATOM     71  C   UNL A   1      44.496  29.188  29.395  1.00  0.00     0.057 A 
ATOM     72  C   UNL A   1      45.351  28.230  29.966  1.00  0.00     0.134 A 
ATOM     73  C   UNL A   1      44.012  28.927  28.111  1.00  0.00     0.134 A 
ATOM     74  F   UNL A   1      45.847  28.418  31.200  1.00  0.00    -0.206 F 
ATOM     75  C   UNL A   1      45.631  27.018  29.331  1.00  0.00     0.040 A 
ATOM     76  C   UNL A   1      44.292  27.720  27.461  1.00  0.00     0.040 A 
ATOM     77  F   UNL A   1      43.167  29.780  27.513  1.00  0.00    -0.206 F 
ATOM     78  C   UNL A   1      45.075  26.748  28.084  1.00  0.00     0.006 A 
ENDBRANCH  50  71
BRANCH  62  79
ATOM     79  C   UNL A   1      42.338  35.995  28.840  1.00  0.00     0.057 A 
ATOM     80  C   UNL A   1      41.796  36.289  27.580  1.00  0.00     0.134 A 
ATOM     81  C   UNL A   1      42.969  37.076  29.491  1.00  0.00     0.134 A 
ATOM     82  F   UNL A   1      41.075  35.386  26.899  1.00  0.00    -0.206 F 
ATOM     83  C   UNL A   1      41.926  37.549  26.980  1.00  0.00     0.040 A 
ATOM     84  C   UNL A   1      43.061  38.351  28.925  1.00  0.00     0.040 A 
ATOM     85  F   UNL A   1      43.503  36.940  30.714  1.00  0.00    -0.206 F 
ATOM     86  C   UNL A   1      42.554  38.589  27.657  1.00  0.00     0.006 A 
ENDBRANCH  62  79
ENDBRANCH  36  37
ENDBRANCH  28  31
ENDBRANCH  26  27
ENDBRANCH  25  26
ENDBRANCH  24  25
ENDBRANCH   1  24
TORSDOF 15
ENDMDL
MODEL 2
REMARK VINA RESULT:     -11.7      3.595      9.476
REMARK SMILES Cc1cccc(O[C@H](C)C(=O)N2CCC[C@@H](C(=O)NCCCCNC(=O)c3ccc(-c4c5nc(c(-c6c(F)cccc6F)c6ccc([nH]6)c(-c6c(F)cccc6F)c6nc(c(-c7c(F)cccc7F)c7ccc4[nH]7)C=C6)C=C5)cc3)C2)c1
REMARK SMILES IDX 20 1 19 2 17 3 18 4 16 6 12 7 13 8 81 9 14 10 15 11 10 12
REMARK SMILES IDX 11 13 8 14 9 15 7 16 6 17 1 18 2 19 3 20 82 21 4 22 5 23
REMARK SMILES IDX 21 24 22 25 23 26 24 27 25 28 26 30 27 31 28 32 80 33 29 34
REMARK SMILES IDX 79 35 30 36 31 37 32 38 73 39 33 40 78 41 72 42 74 43 34 44
REMARK SMILES IDX 77 45 71 46 70 47 35 49 61 50 44 51 60 52 45 53 48 54 59 55
REMARK SMILES IDX 75 56 46 57 47 58 58 60 76 61 49 62 36 63 37 64 42 65 38 66
REMARK SMILES IDX 39 67 41 68 43 69 40 70 62 71 63 72 68 73 64 74 65 75 67 76
REMARK SMILES IDX 69 77 66 78 50 79 51 80 56 81 52 82 53 83 55 84 57 85 54 86
REMARK H PARENT 19 5 24 29 74 48 48 59
REMARK Flexibility Score: inf
ROOT
ATOM      1  C   UNL A   1      32.850  28.916  27.076  1.00  0.00     0.116 C 
ENDROOT
BRANCH   1   2
ATOM      2  N   UNL A   1      31.942  29.418  26.062  1.00  0.00    -0.356 N 
ATOM      3  C   UNL A   1      31.408  28.852  24.952  1.00  0.00     0.224 C 
ATOM      4  O   UNL A   1      30.753  29.597  24.215  1.00  0.00    -0.275 OA
ATOM      5  H   UNL A   1      31.659  30.349  26.207  1.00  0.00     0.163 HD
BRANCH   3   6
ATOM      6  C   UNL A   1      31.522  27.373  24.617  1.00  0.00     0.098 C 
ATOM      7  N   UNL A   1      31.130  25.029  25.233  1.00  0.00    -0.339 N 
ATOM      8  C   UNL A   1      30.876  24.653  23.838  1.00  0.00     0.119 C 
ATOM      9  C   UNL A   1      30.799  26.410  25.557  1.00  0.00     0.133 C 
ATOM     10  C   UNL A   1      31.498  25.623  22.835  1.00  0.00     0.022 C 
ATOM     11  C   UNL A   1      31.160  27.079  23.160  1.00  0.00     0.017 C 
BRANCH   7  12
ATOM     12  C   UNL A   1      31.516  24.036  26.122  1.00  0.00     0.263 C 
ATOM     13  O   UNL A   1      31.026  24.001  27.260  1.00  0.00    -0.271 OA
BRANCH  12  14
ATOM     14  C   UNL A   1      32.632  23.016  25.774  1.00  0.00     0.259 C 
ATOM     15  C   UNL A   1      34.027  23.272  26.322  1.00  0.00     0.064 C 
BRANCH  14  16
ATOM     16  O   UNL A   1      32.082  21.704  25.701  1.00  0.00    -0.481 OA
BRANCH  16  17
ATOM     17  C   UNL A   1      32.294  20.724  24.796  1.00  0.00     0.120 A 
ATOM     18  C   UNL A   1      32.941  16.988  25.283  1.00  0.00     0.044 C 
ATOM     19  C   UNL A   1      32.677  18.307  24.618  1.00  0.00    -0.047 A 
ATOM     20  C   UNL A   1      32.564  18.400  23.232  1.00  0.00     0.003 A 
ATOM     21  C   UNL A   1      32.552  19.475  25.383  1.00  0.00     0.049 A 
ATOM     22  C   UNL A   1      32.291  19.634  22.641  1.00  0.00     0.004 A 
ATOM     23  C   UNL A   1      32.154  20.792  23.419  1.00  0.00     0.046 A 
ENDBRANCH  16  17
ENDBRANCH  14  16
ENDBRANCH  12  14
ENDBRANCH   7  12
ENDBRANCH   3   6
ENDBRANCH   1   2
BRANCH   1  24
ATOM     24  C   UNL A   1      34.254  29.514  26.938  1.00  0.00     0.023 C 
BRANCH  24  25
ATOM     25  C   UNL A   1      34.359  30.977  27.357  1.00  0.00     0.023 C 
BRANCH  25  26
ATOM     26  C   UNL A   1      34.639  31.151  28.839  1.00  0.00     0.116 C 
BRANCH  26  27
ATOM     27  N   UNL A   1      35.854  31.916  29.115  1.00  0.00    -0.352 N 
ATOM     28  C   UNL A   1      37.171  31.482  29.136  1.00  0.00     0.251 C 
ATOM     29  H   UNL A   1      35.718  32.871  29.313  1.00  0.00     0.163 HD
ATOM     30  O   UNL A   1      38.092  32.261  29.296  1.00  0.00    -0.269 OA
BRANCH  28  31
ATOM     31  C   UNL A   1      37.426  30.060  28.801  1.00  0.00     0.039 A 
ATOM     32  C   UNL A   1      37.560  29.188  29.883  1.00  0.00     0.014 A 
ATOM     33  C   UNL A   1      37.943  29.742  27.549  1.00  0.00     0.014 A 
ATOM     34  C   UNL A   1      38.492  28.164  29.794  1.00  0.00     0.010 A 
ATOM     35  C   UNL A   1      38.947  28.793  27.495  1.00  0.00     0.010 A 
ATOM     36  C   UNL A   1      39.291  28.085  28.653  1.00  0.00    -0.014 A 
BRANCH  36  37
ATOM     37  C   UNL A   1      40.622  27.481  28.691  1.00  0.00     0.031 A 
ATOM     38  C   UNL A   1      40.807  26.036  28.450  1.00  0.00     0.074 A 
ATOM     39  C   UNL A   1      41.703  28.265  28.928  1.00  0.00     0.049 A 
ATOM     40  N   UNL A   1      41.855  25.378  28.816  1.00  0.00    -0.248 NA
ATOM     41  C   UNL A   1      39.776  25.186  27.861  1.00  0.00     0.031 C 
ATOM     42  C   UNL A   1      43.112  27.920  28.745  1.00  0.00     0.029 A 
ATOM     43  N   UNL A   1      41.735  29.487  29.621  1.00  0.00    -0.354 N 
ATOM     44  C   UNL A   1      41.774  24.125  28.264  1.00  0.00     0.074 A 
ATOM     45  C   UNL A   1      40.411  24.010  27.816  1.00  0.00     0.031 C 
ATOM     46  C   UNL A   1      43.860  28.718  29.522  1.00  0.00     0.029 A 
ATOM     47  C   UNL A   1      42.953  29.508  30.335  1.00  0.00     0.049 A 
ATOM     48  H   UNL A   1      41.045  30.188  29.610  1.00  0.00     0.167 HD
ATOM     49  C   UNL A   1      42.914  23.393  28.127  1.00  0.00     0.037 A 
ATOM     50  C   UNL A   1      42.986  29.584  31.696  1.00  0.00     0.037 A 
ATOM     51  C   UNL A   1      43.990  23.944  28.956  1.00  0.00     0.049 A 
ATOM     52  C   UNL A   1      43.676  28.419  32.368  1.00  0.00     0.074 A 
ATOM     53  C   UNL A   1      45.150  24.646  28.678  1.00  0.00     0.029 A 
ATOM     54  N   UNL A   1      43.816  24.005  30.336  1.00  0.00    -0.354 N 
ATOM     55  N   UNL A   1      43.988  27.308  31.762  1.00  0.00    -0.248 NA
ATOM     56  C   UNL A   1      44.008  28.387  33.793  1.00  0.00     0.031 C 
ATOM     57  C   UNL A   1      45.615  25.216  29.894  1.00  0.00     0.029 A 
ATOM     58  C   UNL A   1      44.762  24.827  30.914  1.00  0.00     0.049 A 
ATOM     59  H   UNL A   1      43.114  23.525  30.833  1.00  0.00     0.167 HD
ATOM     60  C   UNL A   1      44.454  26.403  32.680  1.00  0.00     0.074 A 
ATOM     61  C   UNL A   1      44.493  27.141  33.928  1.00  0.00     0.031 C 
ATOM     62  C   UNL A   1      44.725  25.108  32.344  1.00  0.00     0.037 A 
BRANCH  49  63
ATOM     63  C   UNL A   1      43.134  22.303  27.091  1.00  0.00     0.057 A 
ATOM     64  C   UNL A   1      42.410  21.095  27.170  1.00  0.00     0.134 A 
ATOM     65  C   UNL A   1      44.127  22.303  26.087  1.00  0.00     0.134 A 
ATOM     66  F   UNL A   1      41.431  20.923  28.070  1.00  0.00    -0.206 F 
ATOM     67  C   UNL A   1      42.670  19.986  26.348  1.00  0.00     0.040 A 
ATOM     68  C   UNL A   1      44.364  21.219  25.229  1.00  0.00     0.040 A 
ATOM     69  F   UNL A   1      44.974  23.319  25.905  1.00  0.00    -0.206 F 
ATOM     70  C   UNL A   1      43.647  20.046  25.368  1.00  0.00     0.006 A 
ENDBRANCH  49  63
BRANCH  50  71
ATOM     71  C   UNL A   1      41.852  30.343  32.281  1.00  0.00     0.057 A 
ATOM     72  C   UNL A   1      41.903  31.747  32.279  1.00  0.00     0.134 A 
ATOM     73  C   UNL A   1      40.609  29.750  32.516  1.00  0.00     0.134 A 
ATOM     74  F   UNL A   1      43.067  32.380  32.055  1.00  0.00    -0.206 F 
ATOM     75  C   UNL A   1      40.752  32.529  32.400  1.00  0.00     0.040 A 
ATOM     76  C   UNL A   1      39.449  30.523  32.646  1.00  0.00     0.040 A 
ATOM     77  F   UNL A   1      40.475  28.416  32.504  1.00  0.00    -0.206 F 
ATOM     78  C   UNL A   1      39.514  31.913  32.555  1.00  0.00     0.006 A 
ENDBRANCH  50  71
BRANCH  62  79
ATOM     79  C   UNL A   1      45.022  24.006  33.328  1.00  0.00     0.057 A 
ATOM     80  C   UNL A   1      44.139  22.958  33.628  1.00  0.00     0.134 A 
ATOM     81  C   UNL A   1      46.302  23.899  33.911  1.00  0.00     0.134 A 
ATOM     82  F   UNL A   1      42.929  22.876  33.055  1.00  0.00    -0.206 F 
ATOM     83  C   UNL A   1      44.480  21.911  34.495  1.00  0.00     0.040 A 
ATOM     84  C   UNL A   1      46.671  22.834  34.738  1.00  0.00     0.040 A 
ATOM     85  F   UNL A   1      47.253  24.818  33.682  1.00  0.00    -0.206 F 
ATOM     86  C   UNL A   1      45.753  21.841  35.047  1.00  0.00     0.006 A 
ENDBRANCH  62  79
ENDBRANCH  36  37
ENDBRANCH  28  31
ENDBRANCH  26  27
ENDBRANCH  25  26
ENDBRANCH  24  25
ENDBRANCH   1  24
TORSDOF 15
ENDMDL
MODEL 3
REMARK VINA RESULT:     -11.6      3.785      9.036
REMARK SMILES Cc1cccc(O[C@H](C)C(=O)N2CCC[C@@H](C(=O)NCCCCNC(=O)c3ccc(-c4c5nc(c(-c6c(F)cccc6F)c6ccc([nH]6)c(-c6c(F)cccc6F)c6nc(c(-c7c(F)cccc7F)c7ccc4[nH]7)C=C6)C=C5)cc3)C2)c1
REMARK SMILES IDX 20 1 19 2 17 3 18 4 16 6 12 7 13 8 81 9 14 10 15 11 10 12
REMARK SMILES IDX 11 13 8 14 9 15 7 16 6 17 1 18 2 19 3 20 82 21 4 22 5 23
REMARK SMILES IDX 21 24 22 25 23 26 24 27 25 28 26 30 27 31 28 32 80 33 29 34
REMARK SMILES IDX 79 35 30 36 31 37 32 38 73 39 33 40 78 41 72 42 74 43 34 44
REMARK SMILES IDX 77 45 71 46 70 47 35 49 61 50 44 51 60 52 45 53 48 54 59 55
REMARK SMILES IDX 75 56 46 57 47 58 58 60 76 61 49 62 36 63 37 64 42 65 38 66
REMARK SMILES IDX 39 67 41 68 43 69 40 70 62 71 63 72 68 73 64 74 65 75 67 76
REMARK SMILES IDX 69 77 66 78 50 79 51 80 56 81 52 82 53 83 55 84 57 85 54 86
REMARK H PARENT 19 5 24 29 74 48 48 59
REMARK Flexibility Score: inf
ROOT
ATOM      1  C   UNL A   1      31.770  29.153  25.676  1.00  0.00     0.116 C 
ENDROOT
BRANCH   1   2
ATOM      2  N   UNL A   1      32.270  29.296  24.321  1.00  0.00    -0.356 N 
ATOM      3  C   UNL A   1      32.955  28.456  23.507  1.00  0.00     0.224 C 
ATOM      4  O   UNL A   1      33.348  28.929  22.435  1.00  0.00    -0.275 OA
ATOM      5  H   UNL A   1      32.076  30.171  23.916  1.00  0.00     0.163 HD
BRANCH   3   6
ATOM      6  C   UNL A   1      33.197  26.987  23.815  1.00  0.00     0.098 C 
ATOM      7  N   UNL A   1      33.791  24.733  23.042  1.00  0.00    -0.339 N 
ATOM      8  C   UNL A   1      34.496  24.436  24.294  1.00  0.00     0.119 C 
ATOM      9  C   UNL A   1      33.773  26.144  22.678  1.00  0.00     0.133 C 
ATOM     10  C   UNL A   1      34.032  25.304  25.462  1.00  0.00     0.022 C 
ATOM     11  C   UNL A   1      34.008  26.790  25.098  1.00  0.00     0.017 C 
BRANCH   7  12
ATOM     12  C   UNL A   1      33.342  23.671  22.272  1.00  0.00     0.263 C 
ATOM     13  O   UNL A   1      33.542  23.666  21.049  1.00  0.00    -0.271 OA
BRANCH  12  14
ATOM     14  C   UNL A   1      32.494  22.521  22.878  1.00  0.00     0.259 C 
ATOM     15  C   UNL A   1      33.209  21.482  23.728  1.00  0.00     0.064 C 
BRANCH  14  16
ATOM     16  O   UNL A   1      31.196  23.001  23.212  1.00  0.00    -0.481 OA
BRANCH  16  17
ATOM     17  C   UNL A   1      30.824  23.949  24.100  1.00  0.00     0.120 A 
ATOM     18  C   UNL A   1      29.089  27.313  23.563  1.00  0.00     0.044 C 
ATOM     19  C   UNL A   1      29.697  26.124  24.247  1.00  0.00    -0.047 A 
ATOM     20  C   UNL A   1      29.728  26.036  25.637  1.00  0.00     0.003 A 
ATOM     21  C   UNL A   1      30.257  25.082  23.494  1.00  0.00     0.049 A 
ATOM     22  C   UNL A   1      30.274  24.907  26.248  1.00  0.00     0.004 A 
ATOM     23  C   UNL A   1      30.819  23.865  25.484  1.00  0.00     0.046 A 
ENDBRANCH  16  17
ENDBRANCH  14  16
ENDBRANCH  12  14
ENDBRANCH   7  12
ENDBRANCH   3   6
ENDBRANCH   1   2
BRANCH   1  24
ATOM     24  C   UNL A   1      32.036  30.402  26.522  1.00  0.00     0.023 C 
BRANCH  24  25
ATOM     25  C   UNL A   1      33.514  30.690  26.774  1.00  0.00     0.023 C 
BRANCH  25  26
ATOM     26  C   UNL A   1      33.923  30.472  28.219  1.00  0.00     0.116 C 
BRANCH  26  27
ATOM     27  N   UNL A   1      34.868  31.472  28.713  1.00  0.00    -0.352 N 
ATOM     28  C   UNL A   1      36.234  31.351  28.924  1.00  0.00     0.251 C 
ATOM     29  H   UNL A   1      34.481  32.352  28.925  1.00  0.00     0.163 HD
ATOM     30  O   UNL A   1      36.909  32.306  29.258  1.00  0.00    -0.269 OA
BRANCH  28  31
ATOM     31  C   UNL A   1      36.865  30.055  28.577  1.00  0.00     0.039 A 
ATOM     32  C   UNL A   1      37.014  29.144  29.625  1.00  0.00     0.014 A 
ATOM     33  C   UNL A   1      37.646  29.969  27.429  1.00  0.00     0.014 A 
ATOM     34  C   UNL A   1      38.160  28.363  29.664  1.00  0.00     0.010 A 
ATOM     35  C   UNL A   1      38.837  29.273  27.518  1.00  0.00     0.010 A 
ATOM     36  C   UNL A   1      39.136  28.560  28.687  1.00  0.00    -0.014 A 
BRANCH  36  37
ATOM     37  C   UNL A   1      40.545  28.265  28.942  1.00  0.00     0.031 A 
ATOM     38  C   UNL A   1      41.162  27.021  28.439  1.00  0.00     0.074 A 
ATOM     39  C   UNL A   1      41.299  29.157  29.631  1.00  0.00     0.049 A 
ATOM     40  N   UNL A   1      42.253  26.521  28.914  1.00  0.00    -0.248 NA
ATOM     41  C   UNL A   1      40.544  26.178  27.419  1.00  0.00     0.031 C 
ATOM     42  C   UNL A   1      42.755  29.183  29.758  1.00  0.00     0.029 A 
ATOM     43  N   UNL A   1      40.855  30.108  30.564  1.00  0.00    -0.354 N 
ATOM     44  C   UNL A   1      42.631  25.490  28.092  1.00  0.00     0.074 A 
ATOM     45  C   UNL A   1      41.472  25.225  27.281  1.00  0.00     0.031 C 
ATOM     46  C   UNL A   1      43.083  29.864  30.866  1.00  0.00     0.029 A 
ATOM     47  C   UNL A   1      41.850  30.180  31.563  1.00  0.00     0.049 A 
ATOM     48  H   UNL A   1      40.017  30.622  30.528  1.00  0.00     0.167 HD
ATOM     49  C   UNL A   1      43.931  25.084  28.103  1.00  0.00     0.037 A 
ATOM     50  C   UNL A   1      41.585  29.869  32.864  1.00  0.00     0.037 A 
ATOM     51  C   UNL A   1      44.625  25.589  29.292  1.00  0.00     0.049 A 
ATOM     52  C   UNL A   1      42.415  28.733  33.415  1.00  0.00     0.074 A 
ATOM     53  C   UNL A   1      45.580  26.568  29.500  1.00  0.00     0.029 A 
ATOM     54  N   UNL A   1      44.164  25.215  30.552  1.00  0.00    -0.354 N 
ATOM     55  N   UNL A   1      43.135  27.932  32.680  1.00  0.00    -0.248 NA
ATOM     56  C   UNL A   1      42.447  28.366  34.832  1.00  0.00     0.031 C 
ATOM     57  C   UNL A   1      45.614  26.852  30.893  1.00  0.00     0.029 A 
ATOM     58  C   UNL A   1      44.712  26.018  31.532  1.00  0.00     0.049 A 
ATOM     59  H   UNL A   1      43.534  24.477  30.721  1.00  0.00     0.167 HD
ATOM     60  C   UNL A   1      43.634  26.922  33.460  1.00  0.00     0.074 A 
ATOM     61  C   UNL A   1      43.216  27.265  34.806  1.00  0.00     0.031 C 
ATOM     62  C   UNL A   1      44.310  25.864  32.925  1.00  0.00     0.037 A 
BRANCH  49  63
ATOM     63  C   UNL A   1      44.646  24.408  26.945  1.00  0.00     0.057 A 
ATOM     64  C   UNL A   1      44.477  23.024  26.721  1.00  0.00     0.134 A 
ATOM     65  C   UNL A   1      45.615  25.003  26.108  1.00  0.00     0.134 A 
ATOM     66  F   UNL A   1      43.598  22.303  27.430  1.00  0.00    -0.206 F 
ATOM     67  C   UNL A   1      45.222  22.301  25.774  1.00  0.00     0.040 A 
ATOM     68  C   UNL A   1      46.331  24.300  25.127  1.00  0.00     0.040 A 
ATOM     69  F   UNL A   1      45.981  26.282  26.219  1.00  0.00    -0.206 F 
ATOM     70  C   UNL A   1      46.150  22.940  24.968  1.00  0.00     0.006 A 
ENDBRANCH  49  63
BRANCH  50  71
ATOM     71  C   UNL A   1      40.192  30.174  33.281  1.00  0.00     0.057 A 
ATOM     72  C   UNL A   1      39.833  31.512  33.517  1.00  0.00     0.134 A 
ATOM     73  C   UNL A   1      39.154  29.254  33.117  1.00  0.00     0.134 A 
ATOM     74  F   UNL A   1      40.783  32.448  33.678  1.00  0.00    -0.206 F 
ATOM     75  C   UNL A   1      38.502  31.935  33.488  1.00  0.00     0.040 A 
ATOM     76  C   UNL A   1      37.816  29.664  33.094  1.00  0.00     0.040 A 
ATOM     77  F   UNL A   1      39.419  27.964  32.859  1.00  0.00    -0.206 F 
ATOM     78  C   UNL A   1      37.490  31.011  33.245  1.00  0.00     0.006 A 
ENDBRANCH  50  71
BRANCH  62  79
ATOM     79  C   UNL A   1      44.691  24.615  33.677  1.00  0.00     0.057 A 
ATOM     80  C   UNL A   1      46.010  24.170  33.849  1.00  0.00     0.134 A 
ATOM     81  C   UNL A   1      43.713  23.885  34.384  1.00  0.00     0.134 A 
ATOM     82  F   UNL A   1      47.049  24.836  33.325  1.00  0.00    -0.206 F 
ATOM     83  C   UNL A   1      46.330  23.041  34.617  1.00  0.00     0.040 A 
ATOM     84  C   UNL A   1      44.024  22.788  35.193  1.00  0.00     0.040 A 
ATOM     85  F   UNL A   1      42.415  24.222  34.331  1.00  0.00    -0.206 F 
ATOM     86  C   UNL A   1      45.336  22.350  35.300  1.00  0.00     0.006 A 
ENDBRANCH  62  79
ENDBRANCH  36  37
ENDBRANCH  28  31
ENDBRANCH  26  27
ENDBRANCH  25  26
ENDBRANCH  24  25
ENDBRANCH   1  24
TORSDOF 15
ENDMDL
