MODEL 1
REMARK VINA RESULT:     -12.0      0.000      0.000
REMARK SMILES Cc1cc(C)c(C(N)=O)c(N[C@H]2C=C[C@H](C(=O)NCCCCNC(=O)c3ccc(-c4c5nc(c(-c6c(F)cccc6F)c6ccc([nH]6)c(-c6c(F)cccc6F)c6nc(c(-c7c(F)cccc7F)c7ccc4[nH]7)C=C6)C=C5)cc3)C2)n1
REMARK SMILES IDX 20 1 19 2 18 3 16 4 17 5 15 7 12 8 13 9 80 10 14 11 11 12
REMARK SMILES IDX 10 14 1 15 2 16 3 17 81 18 4 19 5 20 6 21 7 22 8 23 9 24
REMARK SMILES IDX 21 27 22 28 23 29 24 30 25 32 26 33 27 34 79 35 28 36 78 37
REMARK SMILES IDX 29 38 30 39 31 40 72 41 32 42 77 43 71 44 73 45 33 46 76 47
REMARK SMILES IDX 70 48 69 49 34 51 60 52 43 53 59 54 44 55 47 56 58 57 74 58
REMARK SMILES IDX 45 59 46 60 57 62 75 63 48 64 35 65 36 66 41 67 37 68 38 69
REMARK SMILES IDX 40 70 42 71 39 72 61 73 62 74 67 75 63 76 64 77 66 78 68 79
REMARK SMILES IDX 65 80 49 81 50 82 55 83 51 84 52 85 54 86 56 87 53 88
REMARK H PARENT 18 6 11 13 8 25 8 26 23 31 73 50 47 61
REMARK Flexibility Score: inf
ROOT
ATOM      1  C   UNL A   1      36.708  22.010  24.343  1.00  0.00     0.023 C 
ENDROOT
BRANCH   1   2
ATOM      2  C   UNL A   1      36.079  22.913  25.399  1.00  0.00     0.116 C 
BRANCH   2   3
ATOM      3  N   UNL A   1      35.384  22.166  26.431  1.00  0.00    -0.356 N 
ATOM      4  C   UNL A   1      34.037  22.061  26.646  1.00  0.00     0.227 C 
ATOM      5  O   UNL A   1      33.650  21.254  27.491  1.00  0.00    -0.274 OA
ATOM      6  H   UNL A   1      35.956  21.670  27.059  1.00  0.00     0.163 HD
BRANCH   4   7
ATOM      7  C   UNL A   1      33.090  22.939  25.829  1.00  0.00     0.103 C 
ATOM      8  C   UNL A   1      31.080  23.877  26.877  1.00  0.00     0.104 C 
ATOM      9  C   UNL A   1      30.756  22.680  26.051  1.00  0.00    -0.006 C 
ATOM     10  C   UNL A   1      32.567  24.145  26.629  1.00  0.00     0.046 C 
ATOM     11  C   UNL A   1      31.848  22.165  25.481  1.00  0.00    -0.016 C 
BRANCH   8  12
ATOM     12  N   UNL A   1      30.224  25.009  26.567  1.00  0.00    -0.363 N 
ATOM     13  H   UNL A   1      29.257  24.906  26.722  1.00  0.00     0.162 HD
BRANCH  12  14
ATOM     14  C   UNL A   1      30.673  26.229  26.067  1.00  0.00     0.139 A 
ATOM     15  C   UNL A   1      32.604  29.060  27.434  1.00  0.00     0.067 C 
ATOM     16  C   UNL A   1      31.845  28.216  26.454  1.00  0.00     0.040 A 
ATOM     17  C   UNL A   1      31.595  28.676  25.172  1.00  0.00     0.028 A 
ATOM     18  N   UNL A   1      31.407  27.017  26.888  1.00  0.00    -0.236 NA
ATOM     19  C   UNL A   1      30.877  27.869  24.283  1.00  0.00    -0.033 A 
ATOM     20  C   UNL A   1      30.627  28.414  22.903  1.00  0.00     0.045 C 
ATOM     21  C   UNL A   1      30.398  26.624  24.741  1.00  0.00     0.084 A 
BRANCH  21  22
ATOM     22  C   UNL A   1      29.571  25.761  23.850  1.00  0.00     0.252 C 
ATOM     23  N   UNL A   1      28.244  26.071  23.735  1.00  0.00    -0.365 N 
ATOM     24  O   UNL A   1      30.042  24.812  23.232  1.00  0.00    -0.269 OA
ATOM     25  H   UNL A   1      27.872  26.834  24.233  1.00  0.00     0.159 HD
ATOM     26  H   UNL A   1      27.661  25.532  23.153  1.00  0.00     0.159 HD
ENDBRANCH  21  22
ENDBRANCH  12  14
ENDBRANCH   8  12
ENDBRANCH   4   7
ENDBRANCH   2   3
ENDBRANCH   1   2
BRANCH   1  27
ATOM     27  C   UNL A   1      37.420  20.768  24.882  1.00  0.00     0.023 C 
BRANCH  27  28
ATOM     28  C   UNL A   1      38.699  21.033  25.669  1.00  0.00     0.116 C 
BRANCH  28  29
ATOM     29  N   UNL A   1      39.620  19.907  25.656  1.00  0.00    -0.352 N 
ATOM     30  C   UNL A   1      40.948  19.851  26.011  1.00  0.00     0.251 C 
ATOM     31  H   UNL A   1      39.234  19.056  25.347  1.00  0.00     0.163 HD
ATOM     32  O   UNL A   1      41.598  18.835  25.805  1.00  0.00    -0.269 OA
BRANCH  30  33
ATOM     33  C   UNL A   1      41.602  21.040  26.601  1.00  0.00     0.039 A 
ATOM     34  C   UNL A   1      42.158  21.994  25.744  1.00  0.00     0.014 A 
ATOM     35  C   UNL A   1      41.637  21.229  27.984  1.00  0.00     0.014 A 
ATOM     36  C   UNL A   1      42.656  23.187  26.271  1.00  0.00     0.010 A 
ATOM     37  C   UNL A   1      42.068  22.447  28.502  1.00  0.00     0.010 A 
ATOM     38  C   UNL A   1      42.561  23.446  27.648  1.00  0.00    -0.014 A 
BRANCH  38  39
ATOM     39  C   UNL A   1      42.908  24.777  28.208  1.00  0.00     0.031 A 
ATOM     40  C   UNL A   1      41.847  25.820  28.412  1.00  0.00     0.074 A 
ATOM     41  C   UNL A   1      44.200  25.076  28.444  1.00  0.00     0.049 A 
ATOM     42  N   UNL A   1      41.976  27.063  28.801  1.00  0.00    -0.248 NA
ATOM     43  C   UNL A   1      40.463  25.418  28.120  1.00  0.00     0.031 C 
ATOM     44  C   UNL A   1      45.328  24.164  28.245  1.00  0.00     0.029 A 
ATOM     45  N   UNL A   1      44.785  26.236  28.888  1.00  0.00    -0.354 N 
ATOM     46  C   UNL A   1      40.694  27.596  28.791  1.00  0.00     0.074 A 
ATOM     47  C   UNL A   1      39.809  26.556  28.311  1.00  0.00     0.031 C 
ATOM     48  C   UNL A   1      46.464  24.791  28.587  1.00  0.00     0.029 A 
ATOM     49  C   UNL A   1      46.153  26.160  28.985  1.00  0.00     0.049 A 
ATOM     50  H   UNL A   1      44.272  27.045  29.117  1.00  0.00     0.167 HD
ATOM     51  C   UNL A   1      40.289  28.833  29.166  1.00  0.00     0.037 A 
ATOM     52  C   UNL A   1      47.058  27.092  29.337  1.00  0.00     0.037 A 
ATOM     53  C   UNL A   1      41.171  29.863  29.651  1.00  0.00     0.049 A 
ATOM     54  C   UNL A   1      46.590  28.472  29.698  1.00  0.00     0.074 A 
ATOM     55  C   UNL A   1      40.849  31.121  30.128  1.00  0.00     0.029 A 
ATOM     56  N   UNL A   1      42.554  29.757  29.708  1.00  0.00    -0.354 N 
ATOM     57  N   UNL A   1      45.368  28.941  29.755  1.00  0.00    -0.248 NA
ATOM     58  C   UNL A   1      47.629  29.456  30.033  1.00  0.00     0.031 C 
ATOM     59  C   UNL A   1      42.039  31.796  30.424  1.00  0.00     0.029 A 
ATOM     60  C   UNL A   1      43.101  30.943  30.172  1.00  0.00     0.049 A 
ATOM     61  H   UNL A   1      43.070  28.957  29.456  1.00  0.00     0.167 HD
ATOM     62  C   UNL A   1      45.487  30.269  30.145  1.00  0.00     0.074 A 
ATOM     63  C   UNL A   1      46.901  30.525  30.325  1.00  0.00     0.031 C 
ATOM     64  C   UNL A   1      44.512  31.191  30.331  1.00  0.00     0.037 A 
BRANCH  51  65
ATOM     65  C   UNL A   1      38.824  29.139  29.055  1.00  0.00     0.057 A 
ATOM     66  C   UNL A   1      38.238  29.519  27.839  1.00  0.00     0.134 A 
ATOM     67  C   UNL A   1      37.986  29.042  30.173  1.00  0.00     0.134 A 
ATOM     68  F   UNL A   1      38.987  29.640  26.733  1.00  0.00    -0.206 F 
ATOM     69  C   UNL A   1      36.880  29.823  27.747  1.00  0.00     0.040 A 
ATOM     70  C   UNL A   1      36.620  29.319  30.086  1.00  0.00     0.040 A 
ATOM     71  F   UNL A   1      38.480  28.678  31.365  1.00  0.00    -0.206 F 
ATOM     72  C   UNL A   1      36.065  29.719  28.873  1.00  0.00     0.006 A 
ENDBRANCH  51  65
BRANCH  52  73
ATOM     73  C   UNL A   1      48.499  26.741  29.376  1.00  0.00     0.057 A 
ATOM     74  C   UNL A   1      49.330  27.008  28.282  1.00  0.00     0.134 A 
ATOM     75  C   UNL A   1      49.082  26.153  30.504  1.00  0.00     0.134 A 
ATOM     76  F   UNL A   1      48.823  27.551  27.166  1.00  0.00    -0.206 F 
ATOM     77  C   UNL A   1      50.690  26.698  28.307  1.00  0.00     0.040 A 
ATOM     78  C   UNL A   1      50.445  25.858  30.550  1.00  0.00     0.040 A 
ATOM     79  F   UNL A   1      48.338  25.878  31.585  1.00  0.00    -0.206 F 
ATOM     80  C   UNL A   1      51.253  26.129  29.448  1.00  0.00     0.006 A 
ENDBRANCH  52  73
BRANCH  64  81
ATOM     81  C   UNL A   1      44.941  32.565  30.753  1.00  0.00     0.057 A 
ATOM     82  C   UNL A   1      45.165  33.582  29.817  1.00  0.00     0.134 A 
ATOM     83  C   UNL A   1      45.095  32.886  32.108  1.00  0.00     0.134 A 
ATOM     84  F   UNL A   1      45.051  33.335  28.504  1.00  0.00    -0.206 F 
ATOM     85  C   UNL A   1      45.540  34.868  30.213  1.00  0.00     0.040 A 
ATOM     86  C   UNL A   1      45.446  34.173  32.517  1.00  0.00     0.040 A 
ATOM     87  F   UNL A   1      44.891  31.958  33.055  1.00  0.00    -0.206 F 
ATOM     88  C   UNL A   1      45.673  35.167  31.567  1.00  0.00     0.006 A 
ENDBRANCH  64  81
ENDBRANCH  38  39
ENDBRANCH  30  33
ENDBRANCH  28  29
ENDBRANCH  27  28
ENDBRANCH   1  27
TORSDOF 14
ENDMDL
MODEL 2
REMARK VINA RESULT:     -11.9      4.733      9.655
REMARK SMILES Cc1cc(C)c(C(N)=O)c(N[C@H]2C=C[C@H](C(=O)NCCCCNC(=O)c3ccc(-c4c5nc(c(-c6c(F)cccc6F)c6ccc([nH]6)c(-c6c(F)cccc6F)c6nc(c(-c7c(F)cccc7F)c7ccc4[nH]7)C=C6)C=C5)cc3)C2)n1
REMARK SMILES IDX 20 1 19 2 18 3 16 4 17 5 15 7 12 8 13 9 80 10 14 11 11 12
REMARK SMILES IDX 10 14 1 15 2 16 3 17 81 18 4 19 5 20 6 21 7 22 8 23 9 24
REMARK SMILES IDX 21 27 22 28 23 29 24 30 25 32 26 33 27 34 79 35 28 36 78 37
REMARK SMILES IDX 29 38 30 39 31 40 72 41 32 42 77 43 71 44 73 45 33 46 76 47
REMARK SMILES IDX 70 48 69 49 34 51 60 52 43 53 59 54 44 55 47 56 58 57 74 58
REMARK SMILES IDX 45 59 46 60 57 62 75 63 48 64 35 65 36 66 41 67 37 68 38 69
REMARK SMILES IDX 40 70 42 71 39 72 61 73 62 74 67 75 63 76 64 77 66 78 68 79
REMARK SMILES IDX 65 80 49 81 50 82 55 83 51 84 52 85 54 86 56 87 53 88
REMARK H PARENT 18 6 11 13 8 25 8 26 23 31 73 50 47 61
REMARK Flexibility Score: inf
ROOT
ATOM      1  C   UNL A   1      32.084  30.264  26.593  1.00  0.00     0.023 C 
ENDROOT
BRANCH   1   2
ATOM      2  C   UNL A   1      31.790  29.733  25.194  1.00  0.00     0.116 C 
BRANCH   2   3
ATOM      3  N   UNL A   1      32.987  29.590  24.387  1.00  0.00    -0.356 N 
ATOM      4  C   UNL A   1      33.521  28.453  23.845  1.00  0.00     0.227 C 
ATOM      5  O   UNL A   1      34.467  28.574  23.067  1.00  0.00    -0.274 OA
ATOM      6  H   UNL A   1      33.482  30.422  24.205  1.00  0.00     0.163 HD
BRANCH   4   7
ATOM      7  C   UNL A   1      32.915  27.103  24.227  1.00  0.00     0.103 C 
ATOM      8  C   UNL A   1      34.337  25.354  25.198  1.00  0.00     0.104 C 
ATOM      9  C   UNL A   1      34.085  25.110  23.750  1.00  0.00    -0.006 C 
ATOM     10  C   UNL A   1      33.469  26.563  25.558  1.00  0.00     0.046 C 
ATOM     11  C   UNL A   1      33.313  26.061  23.218  1.00  0.00    -0.016 C 
BRANCH   8  12
ATOM     12  N   UNL A   1      34.068  24.181  26.011  1.00  0.00    -0.363 N 
ATOM     13  H   UNL A   1      33.696  24.325  26.911  1.00  0.00     0.162 HD
BRANCH  12  14
ATOM     14  C   UNL A   1      34.301  22.868  25.608  1.00  0.00     0.139 A 
ATOM     15  C   UNL A   1      37.305  20.813  25.012  1.00  0.00     0.067 C 
ATOM     16  C   UNL A   1      35.860  21.192  25.127  1.00  0.00     0.040 A 
ATOM     17  C   UNL A   1      34.865  20.285  24.802  1.00  0.00     0.028 A 
ATOM     18  N   UNL A   1      35.585  22.448  25.532  1.00  0.00    -0.236 NA
ATOM     19  C   UNL A   1      33.524  20.671  24.910  1.00  0.00    -0.033 A 
ATOM     20  C   UNL A   1      32.479  19.654  24.543  1.00  0.00     0.045 C 
ATOM     21  C   UNL A   1      33.235  21.992  25.314  1.00  0.00     0.084 A 
BRANCH  21  22
ATOM     22  C   UNL A   1      31.823  22.467  25.379  1.00  0.00     0.252 C 
ATOM     23  N   UNL A   1      31.127  22.201  26.525  1.00  0.00    -0.365 N 
ATOM     24  O   UNL A   1      31.291  23.078  24.459  1.00  0.00    -0.269 OA
ATOM     25  H   UNL A   1      31.559  21.710  27.261  1.00  0.00     0.159 HD
ATOM     26  H   UNL A   1      30.193  22.500  26.615  1.00  0.00     0.159 HD
ENDBRANCH  21  22
ENDBRANCH  12  14
ENDBRANCH   8  12
ENDBRANCH   4   7
ENDBRANCH   2   3
ENDBRANCH   1   2
BRANCH   1  27
ATOM     27  C   UNL A   1      31.748  31.739  26.817  1.00  0.00     0.023 C 
BRANCH  27  28
ATOM     28  C   UNL A   1      32.881  32.594  27.374  1.00  0.00     0.116 C 
BRANCH  28  29
ATOM     29  N   UNL A   1      32.480  33.966  27.645  1.00  0.00    -0.352 N 
ATOM     30  C   UNL A   1      32.993  34.873  28.543  1.00  0.00     0.251 C 
ATOM     31  H   UNL A   1      31.727  34.296  27.103  1.00  0.00     0.163 HD
ATOM     32  O   UNL A   1      32.434  35.946  28.723  1.00  0.00    -0.269 OA
BRANCH  30  33
ATOM     33  C   UNL A   1      34.200  34.529  29.327  1.00  0.00     0.039 A 
ATOM     34  C   UNL A   1      34.039  34.052  30.631  1.00  0.00     0.014 A 
ATOM     35  C   UNL A   1      35.476  34.643  28.771  1.00  0.00     0.014 A 
ATOM     36  C   UNL A   1      35.151  33.591  31.339  1.00  0.00     0.010 A 
ATOM     37  C   UNL A   1      36.573  34.119  29.449  1.00  0.00     0.010 A 
ATOM     38  C   UNL A   1      36.417  33.568  30.731  1.00  0.00    -0.014 A 
BRANCH  38  39
ATOM     39  C   UNL A   1      37.575  32.912  31.388  1.00  0.00     0.031 A 
ATOM     40  C   UNL A   1      38.219  31.703  30.773  1.00  0.00     0.074 A 
ATOM     41  C   UNL A   1      37.987  33.355  32.591  1.00  0.00     0.049 A 
ATOM     42  N   UNL A   1      39.176  30.946  31.247  1.00  0.00    -0.248 NA
ATOM     43  C   UNL A   1      37.703  31.276  29.464  1.00  0.00     0.031 C 
ATOM     44  C   UNL A   1      37.417  34.494  33.313  1.00  0.00     0.029 A 
ATOM     45  N   UNL A   1      38.972  32.891  33.428  1.00  0.00    -0.354 N 
ATOM     46  C   UNL A   1      39.371  29.949  30.301  1.00  0.00     0.074 A 
ATOM     47  C   UNL A   1      38.400  30.168  29.250  1.00  0.00     0.031 C 
ATOM     48  C   UNL A   1      38.076  34.654  34.472  1.00  0.00     0.029 A 
ATOM     49  C   UNL A   1      39.082  33.605  34.597  1.00  0.00     0.049 A 
ATOM     50  H   UNL A   1      39.546  32.122  33.209  1.00  0.00     0.167 HD
ATOM     51  C   UNL A   1      40.288  28.951  30.301  1.00  0.00     0.037 A 
ATOM     52  C   UNL A   1      39.889  33.425  35.658  1.00  0.00     0.037 A 
ATOM     53  C   UNL A   1      41.259  28.741  31.344  1.00  0.00     0.049 A 
ATOM     54  C   UNL A   1      40.862  32.281  35.658  1.00  0.00     0.074 A 
ATOM     55  C   UNL A   1      42.279  27.808  31.398  1.00  0.00     0.029 A 
ATOM     56  N   UNL A   1      41.319  29.468  32.525  1.00  0.00    -0.354 N 
ATOM     57  N   UNL A   1      41.087  31.389  34.724  1.00  0.00    -0.248 NA
ATOM     58  C   UNL A   1      41.686  32.113  36.863  1.00  0.00     0.031 C 
ATOM     59  C   UNL A   1      42.923  27.934  32.634  1.00  0.00     0.029 A 
ATOM     60  C   UNL A   1      42.333  28.975  33.332  1.00  0.00     0.049 A 
ATOM     61  H   UNL A   1      40.730  30.222  32.755  1.00  0.00     0.167 HD
ATOM     62  C   UNL A   1      42.086  30.562  35.221  1.00  0.00     0.074 A 
ATOM     63  C   UNL A   1      42.435  31.069  36.532  1.00  0.00     0.031 C 
ATOM     64  C   UNL A   1      42.658  29.479  34.643  1.00  0.00     0.037 A 
BRANCH  51  65
ATOM     65  C   UNL A   1      40.276  28.008  29.134  1.00  0.00     0.057 A 
ATOM     66  C   UNL A   1      39.503  26.838  29.137  1.00  0.00     0.134 A 
ATOM     67  C   UNL A   1      41.035  28.276  27.988  1.00  0.00     0.134 A 
ATOM     68  F   UNL A   1      38.761  26.518  30.208  1.00  0.00    -0.206 F 
ATOM     69  C   UNL A   1      39.512  25.953  28.058  1.00  0.00     0.040 A 
ATOM     70  C   UNL A   1      41.031  27.411  26.892  1.00  0.00     0.040 A 
ATOM     71  F   UNL A   1      41.792  29.381  27.915  1.00  0.00    -0.206 F 
ATOM     72  C   UNL A   1      40.275  26.242  26.928  1.00  0.00     0.006 A 
ENDBRANCH  51  65
BRANCH  52  73
ATOM     73  C   UNL A   1      39.816  34.362  36.806  1.00  0.00     0.057 A 
ATOM     74  C   UNL A   1      40.514  35.575  36.785  1.00  0.00     0.134 A 
ATOM     75  C   UNL A   1      39.037  34.084  37.935  1.00  0.00     0.134 A 
ATOM     76  F   UNL A   1      41.292  35.887  35.739  1.00  0.00    -0.206 F 
ATOM     77  C   UNL A   1      40.445  36.475  37.848  1.00  0.00     0.040 A 
ATOM     78  C   UNL A   1      38.942  34.984  38.996  1.00  0.00     0.040 A 
ATOM     79  F   UNL A   1      38.341  32.940  38.012  1.00  0.00    -0.206 F 
ATOM     80  C   UNL A   1      39.650  36.184  38.956  1.00  0.00     0.006 A 
ENDBRANCH  52  73
BRANCH  64  81
ATOM     81  C   UNL A   1      43.722  28.767  35.425  1.00  0.00     0.057 A 
ATOM     82  C   UNL A   1      45.074  29.115  35.309  1.00  0.00     0.134 A 
ATOM     83  C   UNL A   1      43.391  27.752  36.331  1.00  0.00     0.134 A 
ATOM     84  F   UNL A   1      45.459  30.067  34.446  1.00  0.00    -0.206 F 
ATOM     85  C   UNL A   1      46.060  28.468  36.056  1.00  0.00     0.040 A 
ATOM     86  C   UNL A   1      44.365  27.115  37.102  1.00  0.00     0.040 A 
ATOM     87  F   UNL A   1      42.114  27.375  36.494  1.00  0.00    -0.206 F 
ATOM     88  C   UNL A   1      45.705  27.471  36.962  1.00  0.00     0.006 A 
ENDBRANCH  64  81
ENDBRANCH  38  39
ENDBRANCH  30  33
ENDBRANCH  28  29
ENDBRANCH  27  28
ENDBRANCH   1  27
TORSDOF 14
ENDMDL
MODEL 3
REMARK VINA RESULT:     -11.9      4.351      9.218
REMARK SMILES Cc1cc(C)c(C(N)=O)c(N[C@H]2C=C[C@H](C(=O)NCCCCNC(=O)c3ccc(-c4c5nc(c(-c6c(F)cccc6F)c6ccc([nH]6)c(-c6c(F)cccc6F)c6nc(c(-c7c(F)cccc7F)c7ccc4[nH]7)C=C6)C=C5)cc3)C2)n1
REMARK SMILES IDX 20 1 19 2 18 3 16 4 17 5 15 7 12 8 13 9 80 10 14 11 11 12
REMARK SMILES IDX 10 14 1 15 2 16 3 17 81 18 4 19 5 20 6 21 7 22 8 23 9 24
REMARK SMILES IDX 21 27 22 28 23 29 24 30 25 32 26 33 27 34 79 35 28 36 78 37
REMARK SMILES IDX 29 38 30 39 31 40 72 41 32 42 77 43 71 44 73 45 33 46 76 47
REMARK SMILES IDX 70 48 69 49 34 51 60 52 43 53 59 54 44 55 47 56 58 57 74 58
REMARK SMILES IDX 45 59 46 60 57 62 75 63 48 64 35 65 36 66 41 67 37 68 38 69
REMARK SMILES IDX 40 70 42 71 39 72 61 73 62 74 67 75 63 76 64 77 66 78 68 79
REMARK SMILES IDX 65 80 49 81 50 82 55 83 51 84 52 85 54 86 56 87 53 88
REMARK H PARENT 18 6 11 13 8 25 8 26 23 31 73 50 47 61
REMARK Flexibility Score: inf
ROOT
ATOM      1  C   UNL A   1      31.823  30.130  26.880  1.00  0.00     0.023 C 
ENDROOT
BRANCH   1   2
ATOM      2  C   UNL A   1      32.700  29.711  25.705  1.00  0.00     0.116 C 
BRANCH   2   3
ATOM      3  N   UNL A   1      31.981  29.700  24.445  1.00  0.00    -0.356 N 
ATOM      4  C   UNL A   1      31.239  28.691  23.895  1.00  0.00     0.227 C 
ATOM      5  O   UNL A   1      30.587  28.942  22.881  1.00  0.00    -0.274 OA
ATOM      6  H   UNL A   1      32.033  30.529  23.916  1.00  0.00     0.163 HD
BRANCH   4   7
ATOM      7  C   UNL A   1      31.255  27.318  24.565  1.00  0.00     0.103 C 
ATOM      8  C   UNL A   1      31.245  25.285  23.190  1.00  0.00     0.104 C 
ATOM      9  C   UNL A   1      29.889  25.584  23.730  1.00  0.00    -0.006 C 
ATOM     10  C   UNL A   1      32.172  26.318  23.839  1.00  0.00     0.046 C 
ATOM     11  C   UNL A   1      29.890  26.691  24.477  1.00  0.00    -0.016 C 
BRANCH   8  12
ATOM     12  N   UNL A   1      31.645  23.910  23.432  1.00  0.00    -0.363 N 
ATOM     13  H   UNL A   1      31.064  23.198  23.082  1.00  0.00     0.162 HD
BRANCH  12  14
ATOM     14  C   UNL A   1      32.792  23.528  24.126  1.00  0.00     0.139 A 
ATOM     15  C   UNL A   1      36.320  22.953  23.220  1.00  0.00     0.067 C 
ATOM     16  C   UNL A   1      35.084  23.068  24.059  1.00  0.00     0.040 A 
ATOM     17  C   UNL A   1      35.117  22.762  25.409  1.00  0.00     0.028 A 
ATOM     18  N   UNL A   1      33.953  23.453  23.434  1.00  0.00    -0.236 NA
ATOM     19  C   UNL A   1      33.944  22.871  26.164  1.00  0.00    -0.033 A 
ATOM     20  C   UNL A   1      34.028  22.525  27.626  1.00  0.00     0.045 C 
ATOM     21  C   UNL A   1      32.754  23.253  25.508  1.00  0.00     0.084 A 
BRANCH  21  22
ATOM     22  C   UNL A   1      31.468  23.317  26.260  1.00  0.00     0.252 C 
ATOM     23  N   UNL A   1      30.674  22.203  26.234  1.00  0.00    -0.365 N 
ATOM     24  O   UNL A   1      31.119  24.312  26.885  1.00  0.00    -0.269 OA
ATOM     25  H   UNL A   1      30.958  21.407  25.730  1.00  0.00     0.159 HD
ATOM     26  H   UNL A   1      29.817  22.198  26.721  1.00  0.00     0.159 HD
ENDBRANCH  21  22
ENDBRANCH  12  14
ENDBRANCH   8  12
ENDBRANCH   4   7
ENDBRANCH   2   3
ENDBRANCH   1   2
BRANCH   1  27
ATOM     27  C   UNL A   1      31.279  31.558  26.814  1.00  0.00     0.023 C 
BRANCH  27  28
ATOM     28  C   UNL A   1      32.305  32.639  26.488  1.00  0.00     0.116 C 
BRANCH  28  29
ATOM     29  N   UNL A   1      32.163  33.828  27.314  1.00  0.00    -0.352 N 
ATOM     30  C   UNL A   1      32.925  34.259  28.375  1.00  0.00     0.251 C 
ATOM     31  H   UNL A   1      31.408  34.413  27.077  1.00  0.00     0.163 HD
ATOM     32  O   UNL A   1      32.570  35.225  29.036  1.00  0.00    -0.269 OA
BRANCH  30  33
ATOM     33  C   UNL A   1      34.154  33.522  28.745  1.00  0.00     0.039 A 
ATOM     34  C   UNL A   1      35.374  34.204  28.726  1.00  0.00     0.014 A 
ATOM     35  C   UNL A   1      34.101  32.184  29.138  1.00  0.00     0.014 A 
ATOM     36  C   UNL A   1      36.525  33.572  29.201  1.00  0.00     0.010 A 
ATOM     37  C   UNL A   1      35.232  31.578  29.677  1.00  0.00     0.010 A 
ATOM     38  C   UNL A   1      36.450  32.274  29.734  1.00  0.00    -0.014 A 
BRANCH  38  39
ATOM     39  C   UNL A   1      37.613  31.653  30.417  1.00  0.00     0.031 A 
ATOM     40  C   UNL A   1      38.458  30.633  29.711  1.00  0.00     0.074 A 
ATOM     41  C   UNL A   1      37.849  31.944  31.711  1.00  0.00     0.049 A 
ATOM     42  N   UNL A   1      39.452  29.920  30.176  1.00  0.00    -0.248 NA
ATOM     43  C   UNL A   1      38.128  30.363  28.304  1.00  0.00     0.031 C 
ATOM     44  C   UNL A   1      37.074  32.886  32.521  1.00  0.00     0.029 A 
ATOM     45  N   UNL A   1      38.799  31.465  32.578  1.00  0.00    -0.354 N 
ATOM     46  C   UNL A   1      39.860  29.111  29.125  1.00  0.00     0.074 A 
ATOM     47  C   UNL A   1      38.975  29.385  28.013  1.00  0.00     0.031 C 
ATOM     48  C   UNL A   1      37.593  32.933  33.757  1.00  0.00     0.029 A 
ATOM     49  C   UNL A   1      38.705  31.993  33.843  1.00  0.00     0.049 A 
ATOM     50  H   UNL A   1      39.483  30.806  32.318  1.00  0.00     0.167 HD
ATOM     51  C   UNL A   1      40.891  28.232  29.084  1.00  0.00     0.037 A 
ATOM     52  C   UNL A   1      39.423  31.737  34.952  1.00  0.00     0.037 A 
ATOM     53  C   UNL A   1      41.775  27.967  30.190  1.00  0.00     0.049 A 
ATOM     54  C   UNL A   1      40.527  30.721  34.897  1.00  0.00     0.074 A 
ATOM     55  C   UNL A   1      42.894  27.154  30.224  1.00  0.00     0.029 A 
ATOM     56  N   UNL A   1      41.631  28.502  31.462  1.00  0.00    -0.354 N 
ATOM     57  N   UNL A   1      40.950  30.017  33.876  1.00  0.00    -0.248 NA
ATOM     58  C   UNL A   1      41.246  30.456  36.151  1.00  0.00     0.031 C 
ATOM     59  C   UNL A   1      43.396  27.154  31.531  1.00  0.00     0.029 A 
ATOM     60  C   UNL A   1      42.616  28.001  32.300  1.00  0.00     0.049 A 
ATOM     61  H   UNL A   1      40.932  29.141  31.731  1.00  0.00     0.167 HD
ATOM     62  C   UNL A   1      41.992  29.235  34.359  1.00  0.00     0.074 A 
ATOM     63  C   UNL A   1      42.147  29.565  35.761  1.00  0.00     0.031 C 
ATOM     64  C   UNL A   1      42.748  28.325  33.699  1.00  0.00     0.037 A 
BRANCH  51  65
ATOM     65  C   UNL A   1      41.109  27.488  27.800  1.00  0.00     0.057 A 
ATOM     66  C   UNL A   1      40.520  26.238  27.560  1.00  0.00     0.134 A 
ATOM     67  C   UNL A   1      41.905  28.030  26.784  1.00  0.00     0.134 A 
ATOM     68  F   UNL A   1      39.753  25.658  28.496  1.00  0.00    -0.206 F 
ATOM     69  C   UNL A   1      40.743  25.541  26.373  1.00  0.00     0.040 A 
ATOM     70  C   UNL A   1      42.114  27.354  25.581  1.00  0.00     0.040 A 
ATOM     71  F   UNL A   1      42.493  29.225  26.944  1.00  0.00    -0.206 F 
ATOM     72  C   UNL A   1      41.539  26.102  25.376  1.00  0.00     0.006 A 
ENDBRANCH  51  65
BRANCH  52  73
ATOM     73  C   UNL A   1      39.124  32.469  36.207  1.00  0.00     0.057 A 
ATOM     74  C   UNL A   1      39.699  33.719  36.461  1.00  0.00     0.134 A 
ATOM     75  C   UNL A   1      38.246  31.954  37.169  1.00  0.00     0.134 A 
ATOM     76  F   UNL A   1      40.563  34.254  35.587  1.00  0.00    -0.206 F 
ATOM     77  C   UNL A   1      39.418  34.428  37.630  1.00  0.00     0.040 A 
ATOM     78  C   UNL A   1      37.939  32.661  38.331  1.00  0.00     0.040 A 
ATOM     79  F   UNL A   1      37.659  30.762  36.979  1.00  0.00    -0.206 F 
ATOM     80  C   UNL A   1      38.528  33.902  38.565  1.00  0.00     0.006 A 
ENDBRANCH  52  73
BRANCH  64  81
ATOM     81  C   UNL A   1      43.813  27.620  34.486  1.00  0.00     0.057 A 
ATOM     82  C   UNL A   1      45.082  28.182  34.669  1.00  0.00     0.134 A 
ATOM     83  C   UNL A   1      43.556  26.386  35.098  1.00  0.00     0.134 A 
ATOM     84  F   UNL A   1      45.397  29.352  34.095  1.00  0.00    -0.206 F 
ATOM     85  C   UNL A   1      46.064  27.535  35.423  1.00  0.00     0.040 A 
ATOM     86  C   UNL A   1      44.520  25.742  35.874  1.00  0.00     0.040 A 
ATOM     87  F   UNL A   1      42.358  25.797  34.966  1.00  0.00    -0.206 F 
ATOM     88  C   UNL A   1      45.780  26.316  36.035  1.00  0.00     0.006 A 
ENDBRANCH  64  81
ENDBRANCH  38  39
ENDBRANCH  30  33
ENDBRANCH  28  29
ENDBRANCH  27  28
ENDBRANCH   1  27
TORSDOF 14
ENDMDL
