MODEL 1
REMARK VINA RESULT:     -13.1      0.000      0.000
REMARK SMILES Cc1ccc(C)c(-c2cc(C(=O)NCCCCNC(=O)c3ccc(-c4c5nc(c(-c6c(F)cccc6F)c6ccc([nH]6)c(-c6c(F)cccc6F)c6nc(c(-c7c(F)cccc7F)c7ccc4[nH]7)C=C6)C=C5)cc3)c3cc(C)ccc3n2)c1
REMARK SMILES IDX 16 1 15 2 14 3 13 4 11 5 12 6 10 8 8 9 9 10 82 11 81 12
REMARK SMILES IDX 75 13 80 14 76 15 79 16 77 17 78 18 7 19 1 20 2 21 3 22
REMARK SMILES IDX 83 23 4 24 5 25 6 26 17 27 18 28 19 29 20 31 21 32 22 33
REMARK SMILES IDX 74 34 23 35 73 36 24 37 25 38 26 39 67 40 27 41 72 42 66 43
REMARK SMILES IDX 68 44 28 45 71 46 65 47 64 48 29 50 55 51 38 52 54 53 39 54
REMARK SMILES IDX 42 55 53 56 69 57 40 58 41 59 52 61 70 62 43 63 30 64 31 65
REMARK SMILES IDX 36 66 32 67 33 68 35 69 37 70 34 71 56 72 57 73 62 74 58 75
REMARK SMILES IDX 59 76 61 77 63 78 60 79 44 80 45 81 50 82 46 83 47 84 49 85
REMARK SMILES IDX 51 86 48 87
REMARK H PARENT 13 7 18 30 68 49 42 60
REMARK Flexibility Score: inf
ROOT
ATOM      1  C   UNL A   1      39.672  22.136  26.569  1.00  0.00     0.023 C 
ENDROOT
BRANCH   1   2
ATOM      2  C   UNL A   1      38.871  23.433  26.736  1.00  0.00     0.023 C 
BRANCH   2   3
ATOM      3  C   UNL A   1      37.605  23.703  25.928  1.00  0.00     0.116 C 
BRANCH   3   4
ATOM      4  N   UNL A   1      37.537  23.296  24.532  1.00  0.00    -0.352 N 
ATOM      5  C   UNL A   1      36.439  23.164  23.683  1.00  0.00     0.252 C 
ATOM      6  O   UNL A   1      36.660  22.897  22.501  1.00  0.00    -0.269 OA
ATOM      7  H   UNL A   1      38.405  23.079  24.121  1.00  0.00     0.163 HD
BRANCH   5   8
ATOM      8  C   UNL A   1      35.007  23.226  24.138  1.00  0.00     0.051 A 
ATOM      9  C   UNL A   1      33.061  24.613  24.431  1.00  0.00     0.072 A 
ATOM     10  C   UNL A   1      34.423  24.505  24.186  1.00  0.00     0.043 A 
ATOM     11  N   UNL A   1      32.263  23.522  24.490  1.00  0.00    -0.248 NA
ATOM     12  C   UNL A   1      32.823  22.304  24.491  1.00  0.00     0.072 A 
ATOM     13  C   UNL A   1      34.213  22.108  24.463  1.00  0.00     0.013 A 
ATOM     14  C   UNL A   1      31.995  21.190  24.499  1.00  0.00     0.029 A 
ATOM     15  C   UNL A   1      34.709  20.813  24.724  1.00  0.00     0.014 A 
ATOM     16  C   UNL A   1      32.511  19.891  24.511  1.00  0.00     0.005 A 
ATOM     17  C   UNL A   1      33.880  19.693  24.652  1.00  0.00    -0.050 A 
ATOM     18  C   UNL A   1      34.486  18.325  24.551  1.00  0.00     0.044 C 
BRANCH   9  19
ATOM     19  C   UNL A   1      32.382  25.899  24.684  1.00  0.00     0.003 A 
ATOM     20  C   UNL A   1      31.639  28.206  27.661  1.00  0.00     0.044 C 
ATOM     21  C   UNL A   1      31.697  27.653  26.268  1.00  0.00    -0.050 A 
ATOM     22  C   UNL A   1      31.132  28.380  25.219  1.00  0.00     0.004 A 
ATOM     23  C   UNL A   1      32.318  26.423  25.992  1.00  0.00     0.014 A 
ATOM     24  C   UNL A   1      31.182  27.887  23.920  1.00  0.00     0.004 A 
ATOM     25  C   UNL A   1      31.793  26.651  23.637  1.00  0.00    -0.042 A 
ATOM     26  C   UNL A   1      31.798  26.210  22.195  1.00  0.00     0.045 C 
ENDBRANCH   9  19
ENDBRANCH   5   8
ENDBRANCH   3   4
ENDBRANCH   2   3
ENDBRANCH   1   2
BRANCH   1  27
ATOM     27  C   UNL A   1      41.049  21.983  27.215  1.00  0.00     0.116 C 
BRANCH  27  28
ATOM     28  N   UNL A   1      42.203  22.140  26.318  1.00  0.00    -0.352 N 
ATOM     29  C   UNL A   1      42.690  23.284  25.686  1.00  0.00     0.251 C 
ATOM     30  H   UNL A   1      42.707  21.314  26.137  1.00  0.00     0.163 HD
ATOM     31  O   UNL A   1      43.345  23.189  24.660  1.00  0.00    -0.269 OA
BRANCH  29  32
ATOM     32  C   UNL A   1      42.429  24.621  26.271  1.00  0.00     0.039 A 
ATOM     33  C   UNL A   1      41.541  25.553  25.722  1.00  0.00     0.014 A 
ATOM     34  C   UNL A   1      43.123  24.947  27.422  1.00  0.00     0.014 A 
ATOM     35  C   UNL A   1      41.349  26.770  26.388  1.00  0.00     0.010 A 
ATOM     36  C   UNL A   1      42.727  25.982  28.209  1.00  0.00     0.010 A 
ATOM     37  C   UNL A   1      41.951  26.966  27.640  1.00  0.00    -0.014 A 
BRANCH  37  38
ATOM     38  C   UNL A   1      41.754  28.154  28.455  1.00  0.00     0.031 A 
ATOM     39  C   UNL A   1      42.783  29.191  28.253  1.00  0.00     0.074 A 
ATOM     40  C   UNL A   1      40.600  28.437  29.101  1.00  0.00     0.049 A 
ATOM     41  N   UNL A   1      43.745  29.499  29.053  1.00  0.00    -0.248 NA
ATOM     42  C   UNL A   1      42.854  29.848  26.939  1.00  0.00     0.031 C 
ATOM     43  C   UNL A   1      39.322  27.711  29.063  1.00  0.00     0.029 A 
ATOM     44  N   UNL A   1      40.300  29.523  29.864  1.00  0.00    -0.354 N 
ATOM     45  C   UNL A   1      44.402  30.563  28.448  1.00  0.00     0.074 A 
ATOM     46  C   UNL A   1      43.973  30.562  27.073  1.00  0.00     0.031 C 
ATOM     47  C   UNL A   1      38.347  28.479  29.598  1.00  0.00     0.029 A 
ATOM     48  C   UNL A   1      38.950  29.672  30.165  1.00  0.00     0.049 A 
ATOM     49  H   UNL A   1      40.985  30.156  30.179  1.00  0.00     0.167 HD
ATOM     50  C   UNL A   1      45.012  31.516  29.203  1.00  0.00     0.037 A 
ATOM     51  C   UNL A   1      38.376  30.713  30.817  1.00  0.00     0.037 A 
ATOM     52  C   UNL A   1      45.136  31.077  30.576  1.00  0.00     0.049 A 
ATOM     53  C   UNL A   1      39.460  31.430  31.535  1.00  0.00     0.074 A 
ATOM     54  C   UNL A   1      45.701  29.981  31.203  1.00  0.00     0.029 A 
ATOM     55  N   UNL A   1      44.270  31.623  31.494  1.00  0.00    -0.354 N 
ATOM     56  N   UNL A   1      40.099  30.951  32.565  1.00  0.00    -0.248 NA
ATOM     57  C   UNL A   1      40.126  32.521  30.842  1.00  0.00     0.031 C 
ATOM     58  C   UNL A   1      44.802  29.655  32.262  1.00  0.00     0.029 A 
ATOM     59  C   UNL A   1      43.782  30.607  32.271  1.00  0.00     0.049 A 
ATOM     60  H   UNL A   1      44.042  32.578  31.579  1.00  0.00     0.167 HD
ATOM     61  C   UNL A   1      41.412  31.352  32.379  1.00  0.00     0.074 A 
ATOM     62  C   UNL A   1      41.345  32.411  31.375  1.00  0.00     0.031 C 
ATOM     63  C   UNL A   1      42.450  30.590  32.834  1.00  0.00     0.037 A 
BRANCH  50  64
ATOM     64  C   UNL A   1      45.130  32.975  28.819  1.00  0.00     0.057 A 
ATOM     65  C   UNL A   1      46.403  33.576  28.850  1.00  0.00     0.134 A 
ATOM     66  C   UNL A   1      44.053  33.878  28.696  1.00  0.00     0.134 A 
ATOM     67  F   UNL A   1      47.514  32.832  28.964  1.00  0.00    -0.206 F 
ATOM     68  C   UNL A   1      46.582  34.964  28.858  1.00  0.00     0.040 A 
ATOM     69  C   UNL A   1      44.226  35.264  28.645  1.00  0.00     0.040 A 
ATOM     70  F   UNL A   1      42.774  33.493  28.715  1.00  0.00    -0.206 F 
ATOM     71  C   UNL A   1      45.490  35.814  28.765  1.00  0.00     0.006 A 
ENDBRANCH  50  64
BRANCH  51  72
ATOM     72  C   UNL A   1      37.013  31.280  30.714  1.00  0.00     0.057 A 
ATOM     73  C   UNL A   1      36.207  31.431  31.854  1.00  0.00     0.134 A 
ATOM     74  C   UNL A   1      36.577  31.951  29.560  1.00  0.00     0.134 A 
ATOM     75  F   UNL A   1      36.550  30.853  33.015  1.00  0.00    -0.206 F 
ATOM     76  C   UNL A   1      35.062  32.239  31.860  1.00  0.00     0.040 A 
ATOM     77  C   UNL A   1      35.430  32.754  29.549  1.00  0.00     0.040 A 
ATOM     78  F   UNL A   1      37.302  31.929  28.433  1.00  0.00    -0.206 F 
ATOM     79  C   UNL A   1      34.679  32.916  30.707  1.00  0.00     0.006 A 
ENDBRANCH  51  72
BRANCH  63  80
ATOM     80  C   UNL A   1      42.143  29.495  33.821  1.00  0.00     0.057 A 
ATOM     81  C   UNL A   1      41.809  28.177  33.474  1.00  0.00     0.134 A 
ATOM     82  C   UNL A   1      42.332  29.759  35.183  1.00  0.00     0.134 A 
ATOM     83  F   UNL A   1      41.700  27.797  32.195  1.00  0.00    -0.206 F 
ATOM     84  C   UNL A   1      41.628  27.183  34.443  1.00  0.00     0.040 A 
ATOM     85  C   UNL A   1      42.194  28.767  36.156  1.00  0.00     0.040 A 
ATOM     86  F   UNL A   1      42.703  30.984  35.589  1.00  0.00    -0.206 F 
ATOM     87  C   UNL A   1      41.829  27.475  35.788  1.00  0.00     0.006 A 
ENDBRANCH  63  80
ENDBRANCH  37  38
ENDBRANCH  29  32
ENDBRANCH  27  28
ENDBRANCH   1  27
TORSDOF 12
ENDMDL
MODEL 2
REMARK VINA RESULT:     -13.1      2.926      8.085
REMARK SMILES Cc1ccc(C)c(-c2cc(C(=O)NCCCCNC(=O)c3ccc(-c4c5nc(c(-c6c(F)cccc6F)c6ccc([nH]6)c(-c6c(F)cccc6F)c6nc(c(-c7c(F)cccc7F)c7ccc4[nH]7)C=C6)C=C5)cc3)c3cc(C)ccc3n2)c1
REMARK SMILES IDX 16 1 15 2 14 3 13 4 11 5 12 6 10 8 8 9 9 10 82 11 81 12
REMARK SMILES IDX 75 13 80 14 76 15 79 16 77 17 78 18 7 19 1 20 2 21 3 22
REMARK SMILES IDX 83 23 4 24 5 25 6 26 17 27 18 28 19 29 20 31 21 32 22 33
REMARK SMILES IDX 74 34 23 35 73 36 24 37 25 38 26 39 67 40 27 41 72 42 66 43
REMARK SMILES IDX 68 44 28 45 71 46 65 47 64 48 29 50 55 51 38 52 54 53 39 54
REMARK SMILES IDX 42 55 53 56 69 57 40 58 41 59 52 61 70 62 43 63 30 64 31 65
REMARK SMILES IDX 36 66 32 67 33 68 35 69 37 70 34 71 56 72 57 73 62 74 58 75
REMARK SMILES IDX 59 76 61 77 63 78 60 79 44 80 45 81 50 82 46 83 47 84 49 85
REMARK SMILES IDX 51 86 48 87
REMARK H PARENT 13 7 18 30 68 49 42 60
REMARK Flexibility Score: inf
ROOT
ATOM      1  C   UNL A   1      34.641  31.628  27.632  1.00  0.00     0.023 C 
ENDROOT
BRANCH   1   2
ATOM      2  C   UNL A   1      35.320  30.259  27.503  1.00  0.00     0.023 C 
BRANCH   2   3
ATOM      3  C   UNL A   1      34.517  28.987  27.246  1.00  0.00     0.116 C 
BRANCH   3   4
ATOM      4  N   UNL A   1      33.166  28.864  27.774  1.00  0.00    -0.352 N 
ATOM      5  C   UNL A   1      32.087  28.105  27.324  1.00  0.00     0.252 C 
ATOM      6  O   UNL A   1      31.066  28.099  28.014  1.00  0.00    -0.269 OA
ATOM      7  H   UNL A   1      32.985  29.404  28.578  1.00  0.00     0.163 HD
BRANCH   5   8
ATOM      8  C   UNL A   1      32.054  27.381  26.006  1.00  0.00     0.051 A 
ATOM      9  C   UNL A   1      32.507  25.322  24.846  1.00  0.00     0.072 A 
ATOM     10  C   UNL A   1      32.653  26.110  25.980  1.00  0.00     0.043 A 
ATOM     11  N   UNL A   1      31.694  25.689  23.829  1.00  0.00    -0.248 NA
ATOM     12  C   UNL A   1      31.161  26.917  23.831  1.00  0.00     0.072 A 
ATOM     13  C   UNL A   1      31.431  27.860  24.836  1.00  0.00     0.013 A 
ATOM     14  C   UNL A   1      30.287  27.268  22.811  1.00  0.00     0.029 A 
ATOM     15  C   UNL A   1      31.034  29.197  24.621  1.00  0.00     0.014 A 
ATOM     16  C   UNL A   1      29.702  28.535  22.746  1.00  0.00     0.005 A 
ATOM     17  C   UNL A   1      30.095  29.523  23.641  1.00  0.00    -0.050 A 
ATOM     18  C   UNL A   1      29.411  30.857  23.683  1.00  0.00     0.044 C 
BRANCH   9  19
ATOM     19  C   UNL A   1      33.239  24.058  24.637  1.00  0.00     0.003 A 
ATOM     20  C   UNL A   1      36.643  22.914  23.278  1.00  0.00     0.044 C 
ATOM     21  C   UNL A   1      35.267  22.890  23.874  1.00  0.00    -0.050 A 
ATOM     22  C   UNL A   1      34.707  21.669  24.254  1.00  0.00     0.004 A 
ATOM     23  C   UNL A   1      34.532  24.071  24.071  1.00  0.00     0.014 A 
ATOM     24  C   UNL A   1      33.435  21.627  24.815  1.00  0.00     0.004 A 
ATOM     25  C   UNL A   1      32.688  22.804  25.006  1.00  0.00    -0.042 A 
ATOM     26  C   UNL A   1      31.323  22.650  25.627  1.00  0.00     0.045 C 
ENDBRANCH   9  19
ENDBRANCH   5   8
ENDBRANCH   3   4
ENDBRANCH   2   3
ENDBRANCH   1   2
BRANCH   1  27
ATOM     27  C   UNL A   1      35.369  32.799  28.293  1.00  0.00     0.116 C 
BRANCH  27  28
ATOM     28  N   UNL A   1      35.052  33.038  29.707  1.00  0.00    -0.352 N 
ATOM     29  C   UNL A   1      35.347  32.262  30.829  1.00  0.00     0.251 C 
ATOM     30  H   UNL A   1      34.558  33.870  29.891  1.00  0.00     0.163 HD
ATOM     31  O   UNL A   1      34.660  32.347  31.835  1.00  0.00    -0.269 OA
BRANCH  29  32
ATOM     32  C   UNL A   1      36.511  31.344  30.809  1.00  0.00     0.039 A 
ATOM     33  C   UNL A   1      36.403  29.949  30.785  1.00  0.00     0.014 A 
ATOM     34  C   UNL A   1      37.766  31.924  30.825  1.00  0.00     0.014 A 
ATOM     35  C   UNL A   1      37.576  29.186  30.728  1.00  0.00     0.010 A 
ATOM     36  C   UNL A   1      38.871  31.211  30.480  1.00  0.00     0.010 A 
ATOM     37  C   UNL A   1      38.809  29.839  30.571  1.00  0.00    -0.014 A 
BRANCH  37  38
ATOM     38  C   UNL A   1      40.077  29.146  30.419  1.00  0.00     0.031 A 
ATOM     39  C   UNL A   1      40.802  28.945  31.688  1.00  0.00     0.074 A 
ATOM     40  C   UNL A   1      40.435  28.473  29.301  1.00  0.00     0.049 A 
ATOM     41  N   UNL A   1      41.848  29.577  32.095  1.00  0.00    -0.248 NA
ATOM     42  C   UNL A   1      40.199  28.059  32.695  1.00  0.00     0.031 C 
ATOM     43  C   UNL A   1      39.644  28.217  28.089  1.00  0.00     0.029 A 
ATOM     44  N   UNL A   1      41.577  27.773  29.062  1.00  0.00    -0.354 N 
ATOM     45  C   UNL A   1      42.181  28.994  33.311  1.00  0.00     0.074 A 
ATOM     46  C   UNL A   1      41.015  28.261  33.731  1.00  0.00     0.031 C 
ATOM     47  C   UNL A   1      40.247  27.263  27.346  1.00  0.00     0.029 A 
ATOM     48  C   UNL A   1      41.539  26.960  27.934  1.00  0.00     0.049 A 
ATOM     49  H   UNL A   1      42.370  27.837  29.643  1.00  0.00     0.167 HD
ATOM     50  C   UNL A   1      43.480  28.934  33.715  1.00  0.00     0.037 A 
ATOM     51  C   UNL A   1      42.498  26.090  27.531  1.00  0.00     0.037 A 
ATOM     52  C   UNL A   1      44.307  29.799  32.903  1.00  0.00     0.049 A 
ATOM     53  C   UNL A   1      43.754  26.472  28.225  1.00  0.00     0.074 A 
ATOM     54  C   UNL A   1      44.294  31.146  32.586  1.00  0.00     0.029 A 
ATOM     55  N   UNL A   1      45.102  29.203  31.952  1.00  0.00    -0.354 N 
ATOM     56  N   UNL A   1      44.431  27.557  27.973  1.00  0.00    -0.248 NA
ATOM     57  C   UNL A   1      44.038  25.844  29.505  1.00  0.00     0.031 C 
ATOM     58  C   UNL A   1      44.677  31.208  31.214  1.00  0.00     0.029 A 
ATOM     59  C   UNL A   1      44.973  29.913  30.788  1.00  0.00     0.049 A 
ATOM     60  H   UNL A   1      45.666  28.407  32.086  1.00  0.00     0.167 HD
ATOM     61  C   UNL A   1      44.869  27.991  29.214  1.00  0.00     0.074 A 
ATOM     62  C   UNL A   1      44.703  26.839  30.097  1.00  0.00     0.031 C 
ATOM     63  C   UNL A   1      45.044  29.320  29.471  1.00  0.00     0.037 A 
BRANCH  50  64
ATOM     64  C   UNL A   1      44.072  27.818  34.549  1.00  0.00     0.057 A 
ATOM     65  C   UNL A   1      44.795  28.160  35.708  1.00  0.00     0.134 A 
ATOM     66  C   UNL A   1      44.211  26.476  34.140  1.00  0.00     0.134 A 
ATOM     67  F   UNL A   1      44.751  29.405  36.206  1.00  0.00    -0.206 F 
ATOM     68  C   UNL A   1      45.662  27.266  36.347  1.00  0.00     0.040 A 
ATOM     69  C   UNL A   1      45.030  25.560  34.806  1.00  0.00     0.040 A 
ATOM     70  F   UNL A   1      43.650  25.991  33.028  1.00  0.00    -0.206 F 
ATOM     71  C   UNL A   1      45.789  25.963  35.891  1.00  0.00     0.006 A 
ENDBRANCH  50  64
BRANCH  51  72
ATOM     72  C   UNL A   1      42.393  24.828  26.765  1.00  0.00     0.057 A 
ATOM     73  C   UNL A   1      43.012  24.690  25.513  1.00  0.00     0.134 A 
ATOM     74  C   UNL A   1      41.937  23.640  27.359  1.00  0.00     0.134 A 
ATOM     75  F   UNL A   1      43.507  25.761  24.874  1.00  0.00    -0.206 F 
ATOM     76  C   UNL A   1      43.210  23.442  24.908  1.00  0.00     0.040 A 
ATOM     77  C   UNL A   1      42.120  22.387  26.762  1.00  0.00     0.040 A 
ATOM     78  F   UNL A   1      41.388  23.645  28.582  1.00  0.00    -0.206 F 
ATOM     79  C   UNL A   1      42.775  22.282  25.541  1.00  0.00     0.006 A 
ENDBRANCH  51  72
BRANCH  63  80
ATOM     80  C   UNL A   1      45.078  30.268  28.301  1.00  0.00     0.057 A 
ATOM     81  C   UNL A   1      43.951  30.894  27.747  1.00  0.00     0.134 A 
ATOM     82  C   UNL A   1      46.326  30.667  27.808  1.00  0.00     0.134 A 
ATOM     83  F   UNL A   1      42.719  30.655  28.213  1.00  0.00    -0.206 F 
ATOM     84  C   UNL A   1      44.062  31.838  26.720  1.00  0.00     0.040 A 
ATOM     85  C   UNL A   1      46.452  31.637  26.811  1.00  0.00     0.040 A 
ATOM     86  F   UNL A   1      47.453  30.151  28.323  1.00  0.00    -0.206 F 
ATOM     87  C   UNL A   1      45.317  32.218  26.255  1.00  0.00     0.006 A 
ENDBRANCH  63  80
ENDBRANCH  37  38
ENDBRANCH  29  32
ENDBRANCH  27  28
ENDBRANCH   1  27
TORSDOF 12
ENDMDL
MODEL 3
REMARK VINA RESULT:     -13.1      1.837      2.854
REMARK SMILES Cc1ccc(C)c(-c2cc(C(=O)NCCCCNC(=O)c3ccc(-c4c5nc(c(-c6c(F)cccc6F)c6ccc([nH]6)c(-c6c(F)cccc6F)c6nc(c(-c7c(F)cccc7F)c7ccc4[nH]7)C=C6)C=C5)cc3)c3cc(C)ccc3n2)c1
REMARK SMILES IDX 16 1 15 2 14 3 13 4 11 5 12 6 10 8 8 9 9 10 82 11 81 12
REMARK SMILES IDX 75 13 80 14 76 15 79 16 77 17 78 18 7 19 1 20 2 21 3 22
REMARK SMILES IDX 83 23 4 24 5 25 6 26 17 27 18 28 19 29 20 31 21 32 22 33
REMARK SMILES IDX 74 34 23 35 73 36 24 37 25 38 26 39 67 40 27 41 72 42 66 43
REMARK SMILES IDX 68 44 28 45 71 46 65 47 64 48 29 50 55 51 38 52 54 53 39 54
REMARK SMILES IDX 42 55 53 56 69 57 40 58 41 59 52 61 70 62 43 63 30 64 31 65
REMARK SMILES IDX 36 66 32 67 33 68 35 69 37 70 34 71 56 72 57 73 62 74 58 75
REMARK SMILES IDX 59 76 61 77 63 78 60 79 44 80 45 81 50 82 46 83 47 84 49 85
REMARK SMILES IDX 51 86 48 87
REMARK H PARENT 13 7 18 30 68 49 42 60
REMARK Flexibility Score: inf
ROOT
ATOM      1  C   UNL A   1      35.636  22.680  25.406  1.00  0.00     0.023 C 
ENDROOT
BRANCH   1   2
ATOM      2  C   UNL A   1      34.793  21.745  26.281  1.00  0.00     0.023 C 
BRANCH   2   3
ATOM      3  C   UNL A   1      34.222  22.199  27.622  1.00  0.00     0.116 C 
BRANCH   3   4
ATOM      4  N   UNL A   1      32.781  22.296  27.799  1.00  0.00    -0.352 N 
ATOM      5  C   UNL A   1      31.829  23.011  27.073  1.00  0.00     0.252 C 
ATOM      6  O   UNL A   1      30.644  22.845  27.368  1.00  0.00    -0.269 OA
ATOM      7  H   UNL A   1      32.420  21.773  28.551  1.00  0.00     0.163 HD
BRANCH   5   8
ATOM      8  C   UNL A   1      32.160  24.042  26.030  1.00  0.00     0.051 A 
ATOM      9  C   UNL A   1      32.868  26.304  25.611  1.00  0.00     0.072 A 
ATOM     10  C   UNL A   1      32.392  25.348  26.498  1.00  0.00     0.043 A 
ATOM     11  N   UNL A   1      33.240  25.980  24.352  1.00  0.00    -0.248 NA
ATOM     12  C   UNL A   1      32.977  24.749  23.891  1.00  0.00     0.072 A 
ATOM     13  C   UNL A   1      32.301  23.782  24.652  1.00  0.00     0.013 A 
ATOM     14  C   UNL A   1      33.409  24.408  22.617  1.00  0.00     0.029 A 
ATOM     15  C   UNL A   1      31.848  22.617  24.000  1.00  0.00     0.014 A 
ATOM     16  C   UNL A   1      33.160  23.146  22.069  1.00  0.00     0.005 A 
ATOM     17  C   UNL A   1      32.349  22.245  22.751  1.00  0.00    -0.050 A 
ATOM     18  C   UNL A   1      32.153  20.843  22.259  1.00  0.00     0.044 C 
BRANCH   9  19
ATOM     19  C   UNL A   1      32.972  27.738  25.944  1.00  0.00     0.003 A 
ATOM     20  C   UNL A   1      35.322  30.059  27.902  1.00  0.00     0.044 C 
ATOM     21  C   UNL A   1      34.180  29.568  27.062  1.00  0.00    -0.050 A 
ATOM     22  C   UNL A   1      33.244  30.483  26.578  1.00  0.00     0.004 A 
ATOM     23  C   UNL A   1      34.038  28.208  26.739  1.00  0.00     0.014 A 
ATOM     24  C   UNL A   1      32.183  30.047  25.791  1.00  0.00     0.004 A 
ATOM     25  C   UNL A   1      32.028  28.686  25.473  1.00  0.00    -0.042 A 
ATOM     26  C   UNL A   1      30.847  28.319  24.609  1.00  0.00     0.045 C 
ENDBRANCH   9  19
ENDBRANCH   5   8
ENDBRANCH   3   4
ENDBRANCH   2   3
ENDBRANCH   1   2
BRANCH   1  27
ATOM     27  C   UNL A   1      36.977  23.216  25.906  1.00  0.00     0.116 C 
BRANCH  27  28
ATOM     28  N   UNL A   1      38.029  22.214  26.127  1.00  0.00    -0.352 N 
ATOM     29  C   UNL A   1      39.373  22.391  26.458  1.00  0.00     0.251 C 
ATOM     30  H   UNL A   1      37.743  21.277  26.027  1.00  0.00     0.163 HD
ATOM     31  O   UNL A   1      40.195  21.535  26.175  1.00  0.00    -0.269 OA
BRANCH  29  32
ATOM     32  C   UNL A   1      39.802  23.616  27.175  1.00  0.00     0.039 A 
ATOM     33  C   UNL A   1      41.062  23.773  27.763  1.00  0.00     0.014 A 
ATOM     34  C   UNL A   1      38.883  24.645  27.263  1.00  0.00     0.014 A 
ATOM     35  C   UNL A   1      41.367  24.993  28.381  1.00  0.00     0.010 A 
ATOM     36  C   UNL A   1      39.272  25.905  27.596  1.00  0.00     0.010 A 
ATOM     37  C   UNL A   1      40.455  26.055  28.283  1.00  0.00    -0.014 A 
BRANCH  37  38
ATOM     38  C   UNL A   1      40.703  27.385  28.814  1.00  0.00     0.031 A 
ATOM     39  C   UNL A   1      41.867  28.060  28.208  1.00  0.00     0.074 A 
ATOM     40  C   UNL A   1      39.805  28.077  29.552  1.00  0.00     0.049 A 
ATOM     41  N   UNL A   1      43.021  28.252  28.746  1.00  0.00    -0.248 NA
ATOM     42  C   UNL A   1      41.796  28.413  26.782  1.00  0.00     0.031 C 
ATOM     43  C   UNL A   1      38.422  27.717  29.894  1.00  0.00     0.029 A 
ATOM     44  N   UNL A   1      39.922  29.329  30.074  1.00  0.00    -0.354 N 
ATOM     45  C   UNL A   1      43.750  28.972  27.808  1.00  0.00     0.074 A 
ATOM     46  C   UNL A   1      43.047  28.822  26.561  1.00  0.00     0.031 C 
ATOM     47  C   UNL A   1      37.777  28.800  30.382  1.00  0.00     0.029 A 
ATOM     48  C   UNL A   1      38.734  29.879  30.544  1.00  0.00     0.049 A 
ATOM     49  H   UNL A   1      40.781  29.809  30.114  1.00  0.00     0.167 HD
ATOM     50  C   UNL A   1      44.702  29.859  28.207  1.00  0.00     0.037 A 
ATOM     51  C   UNL A   1      38.557  31.139  31.015  1.00  0.00     0.037 A 
ATOM     52  C   UNL A   1      45.019  29.672  29.607  1.00  0.00     0.049 A 
ATOM     53  C   UNL A   1      39.900  31.670  31.358  1.00  0.00     0.074 A 
ATOM     54  C   UNL A   1      45.451  28.607  30.376  1.00  0.00     0.029 A 
ATOM     55  N   UNL A   1      44.511  30.590  30.496  1.00  0.00    -0.354 N 
ATOM     56  N   UNL A   1      40.624  31.247  32.355  1.00  0.00    -0.248 NA
ATOM     57  C   UNL A   1      40.624  32.397  30.327  1.00  0.00     0.031 C 
ATOM     58  C   UNL A   1      44.750  28.735  31.612  1.00  0.00     0.029 A 
ATOM     59  C   UNL A   1      43.990  29.903  31.561  1.00  0.00     0.049 A 
ATOM     60  H   UNL A   1      44.521  31.569  30.388  1.00  0.00     0.167 HD
ATOM     61  C   UNL A   1      41.922  31.248  31.870  1.00  0.00     0.074 A 
ATOM     62  C   UNL A   1      41.874  32.077  30.667  1.00  0.00     0.031 C 
ATOM     63  C   UNL A   1      42.840  30.343  32.319  1.00  0.00     0.037 A 
BRANCH  50  64
ATOM     64  C   UNL A   1      45.052  31.136  27.474  1.00  0.00     0.057 A 
ATOM     65  C   UNL A   1      46.329  31.247  26.892  1.00  0.00     0.134 A 
ATOM     66  C   UNL A   1      44.329  32.344  27.547  1.00  0.00     0.134 A 
ATOM     67  F   UNL A   1      47.122  30.173  26.761  1.00  0.00    -0.206 F 
ATOM     68  C   UNL A   1      46.878  32.474  26.506  1.00  0.00     0.040 A 
ATOM     69  C   UNL A   1      44.847  33.567  27.110  1.00  0.00     0.040 A 
ATOM     70  F   UNL A   1      43.128  32.442  28.126  1.00  0.00    -0.206 F 
ATOM     71  C   UNL A   1      46.140  33.643  26.623  1.00  0.00     0.006 A 
ENDBRANCH  50  64
BRANCH  51  72
ATOM     72  C   UNL A   1      37.362  32.012  31.002  1.00  0.00     0.057 A 
ATOM     73  C   UNL A   1      36.969  32.682  29.833  1.00  0.00     0.134 A 
ATOM     74  C   UNL A   1      36.417  31.984  32.041  1.00  0.00     0.134 A 
ATOM     75  F   UNL A   1      37.789  32.741  28.772  1.00  0.00    -0.206 F 
ATOM     76  C   UNL A   1      35.697  33.249  29.686  1.00  0.00     0.040 A 
ATOM     77  C   UNL A   1      35.145  32.554  31.911  1.00  0.00     0.040 A 
ATOM     78  F   UNL A   1      36.660  31.318  33.179  1.00  0.00    -0.206 F 
ATOM     79  C   UNL A   1      34.773  33.173  30.723  1.00  0.00     0.006 A 
ENDBRANCH  51  72
BRANCH  63  80
ATOM     80  C   UNL A   1      42.520  29.574  33.574  1.00  0.00     0.057 A 
ATOM     81  C   UNL A   1      41.793  28.374  33.613  1.00  0.00     0.134 A 
ATOM     82  C   UNL A   1      43.095  30.001  34.777  1.00  0.00     0.134 A 
ATOM     83  F   UNL A   1      41.286  27.829  32.500  1.00  0.00    -0.206 F 
ATOM     84  C   UNL A   1      41.612  27.660  34.802  1.00  0.00     0.040 A 
ATOM     85  C   UNL A   1      42.954  29.278  35.962  1.00  0.00     0.040 A 
ATOM     86  F   UNL A   1      43.846  31.114  34.809  1.00  0.00    -0.206 F 
ATOM     87  C   UNL A   1      42.201  28.107  35.981  1.00  0.00     0.006 A 
ENDBRANCH  63  80
ENDBRANCH  37  38
ENDBRANCH  29  32
ENDBRANCH  27  28
ENDBRANCH   1  27
TORSDOF 12
ENDMDL
