MODEL 1
REMARK VINA RESULT:     -11.8      0.000      0.000
REMARK SMILES COc1ccc(C)cc1Nc1nc(OCC(=O)NCCCCNC(=O)c2ccc(-c3c4nc(c(-c5c(F)cccc5F)c5ccc([nH]5)c(-c5c(F)cccc5F)c5nc(c(-c6c(F)cccc6F)c6ccc3[nH]6)C=C5)C=C4)cc2)cc(C(C)(C)C)n1
REMARK SMILES IDX 19 1 18 2 16 3 17 4 15 6 14 7 13 8 11 9 12 10 86 11 81 12
REMARK SMILES IDX 80 13 10 14 9 16 3 17 4 18 5 19 8 20 6 21 7 22 2 23 1 24
REMARK SMILES IDX 82 25 83 26 84 27 85 28 20 29 21 30 22 31 23 32 24 33 25 35
REMARK SMILES IDX 26 36 27 37 79 38 28 39 78 40 29 41 30 42 31 43 72 44 32 45
REMARK SMILES IDX 77 46 71 47 73 48 33 49 76 50 70 51 69 52 34 54 60 55 43 56
REMARK SMILES IDX 59 57 44 58 47 59 58 60 74 61 45 62 46 63 57 65 75 66 48 67
REMARK SMILES IDX 35 68 36 69 41 70 37 71 38 72 40 73 42 74 39 75 61 76 62 77
REMARK SMILES IDX 67 78 63 79 64 80 66 81 68 82 65 83 49 84 50 85 55 86 51 87
REMARK SMILES IDX 52 88 54 89 56 90 53 91
REMARK H PARENT 18 5 10 15 23 34 73 53 47 64
REMARK Flexibility Score: inf
ROOT
ATOM      1  C   UNL A   1      32.430  26.267  26.421  1.00  0.00     0.116 C 
ENDROOT
BRANCH   1   2
ATOM      2  N   UNL A   1      31.411  25.281  26.733  1.00  0.00    -0.353 N 
ATOM      3  C   UNL A   1      31.553  23.967  27.068  1.00  0.00     0.258 C 
ATOM      4  O   UNL A   1      30.537  23.311  27.312  1.00  0.00    -0.271 OA
ATOM      5  H   UNL A   1      30.483  25.609  26.697  1.00  0.00     0.163 HD
BRANCH   3   6
ATOM      6  C   UNL A   1      32.946  23.327  27.157  1.00  0.00     0.331 C 
BRANCH   6   7
ATOM      7  O   UNL A   1      33.041  21.917  27.112  1.00  0.00    -0.467 OA
BRANCH   7   8
ATOM      8  C   UNL A   1      32.943  21.307  25.893  1.00  0.00     0.218 A 
ATOM      9  C   UNL A   1      32.270  21.648  23.739  1.00  0.00     0.230 A 
ATOM     10  N   UNL A   1      32.560  22.162  24.935  1.00  0.00    -0.177 NA
ATOM     11  N   UNL A   1      32.397  20.345  23.445  1.00  0.00    -0.217 NA
ATOM     12  C   UNL A   1      32.869  19.504  24.388  1.00  0.00     0.055 A 
ATOM     13  C   UNL A   1      33.167  19.969  25.653  1.00  0.00     0.093 A 
BRANCH   9  14
ATOM     14  N   UNL A   1      31.791  22.535  22.786  1.00  0.00    -0.321 N 
ATOM     15  H   UNL A   1      31.547  22.123  21.927  1.00  0.00     0.170 HD
BRANCH  14  16
ATOM     16  C   UNL A   1      31.596  23.925  22.848  1.00  0.00     0.084 A 
ATOM     17  C   UNL A   1      32.641  24.792  22.477  1.00  0.00     0.142 A 
ATOM     18  C   UNL A   1      32.465  26.179  22.533  1.00  0.00     0.049 A 
ATOM     19  C   UNL A   1      31.264  26.715  23.004  1.00  0.00     0.007 A 
ATOM     20  C   UNL A   1      30.386  24.486  23.280  1.00  0.00     0.033 A 
ATOM     21  C   UNL A   1      30.219  25.873  23.389  1.00  0.00    -0.049 A 
ATOM     22  C   UNL A   1      28.934  26.419  23.937  1.00  0.00     0.044 C 
BRANCH  17  23
ATOM     23  O   UNL A   1      33.799  24.201  22.025  1.00  0.00    -0.495 OA
ATOM     24  C   UNL A   1      34.820  24.084  23.012  1.00  0.00     0.278 C 
ENDBRANCH  17  23
ENDBRANCH  14  16
ENDBRANCH   9  14
BRANCH  12  25
ATOM     25  C   UNL A   1      33.045  18.043  23.964  1.00  0.00     0.004 C 
ATOM     26  C   UNL A   1      32.226  17.135  24.906  1.00  0.00     0.017 C 
ATOM     27  C   UNL A   1      32.518  17.882  22.525  1.00  0.00     0.017 C 
ATOM     28  C   UNL A   1      34.507  17.548  24.000  1.00  0.00     0.017 C 
ENDBRANCH  12  25
ENDBRANCH   7   8
ENDBRANCH   6   7
ENDBRANCH   3   6
ENDBRANCH   1   2
BRANCH   1  29
ATOM     29  C   UNL A   1      31.902  27.707  26.396  1.00  0.00     0.023 C 
BRANCH  29  30
ATOM     30  C   UNL A   1      32.691  28.721  27.230  1.00  0.00     0.023 C 
BRANCH  30  31
ATOM     31  C   UNL A   1      33.163  29.957  26.471  1.00  0.00     0.116 C 
BRANCH  31  32
ATOM     32  N   UNL A   1      33.349  31.145  27.296  1.00  0.00    -0.352 N 
ATOM     33  C   UNL A   1      34.386  31.431  28.184  1.00  0.00     0.251 C 
ATOM     34  H   UNL A   1      32.652  31.834  27.216  1.00  0.00     0.163 HD
ATOM     35  O   UNL A   1      34.428  32.479  28.785  1.00  0.00    -0.269 OA
BRANCH  33  36
ATOM     36  C   UNL A   1      35.508  30.461  28.278  1.00  0.00     0.039 A 
ATOM     37  C   UNL A   1      35.644  29.733  29.464  1.00  0.00     0.014 A 
ATOM     38  C   UNL A   1      36.521  30.460  27.324  1.00  0.00     0.014 A 
ATOM     39  C   UNL A   1      36.899  29.236  29.811  1.00  0.00     0.010 A 
ATOM     40  C   UNL A   1      37.785  30.046  27.704  1.00  0.00     0.010 A 
ATOM     41  C   UNL A   1      37.987  29.511  28.982  1.00  0.00    -0.014 A 
BRANCH  41  42
ATOM     42  C   UNL A   1      39.371  29.431  29.441  1.00  0.00     0.031 A 
ATOM     43  C   UNL A   1      40.163  28.196  29.295  1.00  0.00     0.074 A 
ATOM     44  C   UNL A   1      39.969  30.537  29.941  1.00  0.00     0.049 A 
ATOM     45  N   UNL A   1      41.212  27.924  29.997  1.00  0.00    -0.248 NA
ATOM     46  C   UNL A   1      39.812  27.144  28.352  1.00  0.00     0.031 C 
ATOM     47  C   UNL A   1      41.393  30.740  30.196  1.00  0.00     0.029 A 
ATOM     48  N   UNL A   1      39.350  31.640  30.543  1.00  0.00    -0.354 N 
ATOM     49  C   UNL A   1      41.826  26.833  29.433  1.00  0.00     0.074 A 
ATOM     50  C   UNL A   1      40.884  26.349  28.448  1.00  0.00     0.031 C 
ATOM     51  C   UNL A   1      41.532  31.686  31.135  1.00  0.00     0.029 A 
ATOM     52  C   UNL A   1      40.202  32.027  31.604  1.00  0.00     0.049 A 
ATOM     53  H   UNL A   1      38.498  32.059  30.281  1.00  0.00     0.167 HD
ATOM     54  C   UNL A   1      43.114  26.535  29.778  1.00  0.00     0.037 A 
ATOM     55  C   UNL A   1      39.777  31.963  32.899  1.00  0.00     0.037 A 
ATOM     56  C   UNL A   1      43.622  27.422  30.826  1.00  0.00     0.049 A 
ATOM     57  C   UNL A   1      40.571  31.024  33.786  1.00  0.00     0.074 A 
ATOM     58  C   UNL A   1      44.469  28.519  30.854  1.00  0.00     0.029 A 
ATOM     59  N   UNL A   1      43.027  27.380  32.074  1.00  0.00    -0.354 N 
ATOM     60  N   UNL A   1      41.590  30.313  33.391  1.00  0.00    -0.248 NA
ATOM     61  C   UNL A   1      40.200  30.736  35.174  1.00  0.00     0.031 C 
ATOM     62  C   UNL A   1      44.390  29.118  32.145  1.00  0.00     0.029 A 
ATOM     63  C   UNL A   1      43.489  28.388  32.896  1.00  0.00     0.049 A 
ATOM     64  H   UNL A   1      42.356  26.712  32.343  1.00  0.00     0.167 HD
ATOM     65  C   UNL A   1      41.957  29.449  34.391  1.00  0.00     0.074 A 
ATOM     66  C   UNL A   1      41.064  29.758  35.491  1.00  0.00     0.031 C 
ATOM     67  C   UNL A   1      42.928  28.503  34.231  1.00  0.00     0.037 A 
BRANCH  54  68
ATOM     68  C   UNL A   1      43.986  25.581  28.995  1.00  0.00     0.057 A 
ATOM     69  C   UNL A   1      44.489  25.927  27.726  1.00  0.00     0.134 A 
ATOM     70  C   UNL A   1      44.334  24.286  29.416  1.00  0.00     0.134 A 
ATOM     71  F   UNL A   1      44.359  27.163  27.227  1.00  0.00    -0.206 F 
ATOM     72  C   UNL A   1      45.154  25.018  26.893  1.00  0.00     0.040 A 
ATOM     73  C   UNL A   1      44.944  23.345  28.573  1.00  0.00     0.040 A 
ATOM     74  F   UNL A   1      44.151  23.890  30.683  1.00  0.00    -0.206 F 
ATOM     75  C   UNL A   1      45.342  23.706  27.295  1.00  0.00     0.006 A 
ENDBRANCH  54  68
BRANCH  55  76
ATOM     76  C   UNL A   1      38.324  32.251  33.034  1.00  0.00     0.057 A 
ATOM     77  C   UNL A   1      37.893  33.587  32.931  1.00  0.00     0.134 A 
ATOM     78  C   UNL A   1      37.359  31.255  32.874  1.00  0.00     0.134 A 
ATOM     79  F   UNL A   1      38.771  34.593  33.071  1.00  0.00    -0.206 F 
ATOM     80  C   UNL A   1      36.588  33.912  32.557  1.00  0.00     0.040 A 
ATOM     81  C   UNL A   1      36.043  31.571  32.520  1.00  0.00     0.040 A 
ATOM     82  F   UNL A   1      37.696  29.958  32.934  1.00  0.00    -0.206 F 
ATOM     83  C   UNL A   1      35.666  32.898  32.318  1.00  0.00     0.006 A 
ENDBRANCH  55  76
BRANCH  67  84
ATOM     84  C   UNL A   1      43.391  27.575  35.324  1.00  0.00     0.057 A 
ATOM     85  C   UNL A   1      44.627  27.721  35.972  1.00  0.00     0.134 A 
ATOM     86  C   UNL A   1      42.654  26.428  35.684  1.00  0.00     0.134 A 
ATOM     87  F   UNL A   1      45.465  28.717  35.649  1.00  0.00    -0.206 F 
ATOM     88  C   UNL A   1      45.067  26.828  36.958  1.00  0.00     0.040 A 
ATOM     89  C   UNL A   1      43.104  25.505  36.633  1.00  0.00     0.040 A 
ATOM     90  F   UNL A   1      41.458  26.158  35.145  1.00  0.00    -0.206 F 
ATOM     91  C   UNL A   1      44.307  25.712  37.287  1.00  0.00     0.006 A 
ENDBRANCH  67  84
ENDBRANCH  41  42
ENDBRANCH  33  36
ENDBRANCH  31  32
ENDBRANCH  30  31
ENDBRANCH  29  30
ENDBRANCH   1  29
TORSDOF 17
ENDMDL
MODEL 2
REMARK VINA RESULT:     -11.7      3.764      8.740
REMARK SMILES COc1ccc(C)cc1Nc1nc(OCC(=O)NCCCCNC(=O)c2ccc(-c3c4nc(c(-c5c(F)cccc5F)c5ccc([nH]5)c(-c5c(F)cccc5F)c5nc(c(-c6c(F)cccc6F)c6ccc3[nH]6)C=C5)C=C4)cc2)cc(C(C)(C)C)n1
REMARK SMILES IDX 19 1 18 2 16 3 17 4 15 6 14 7 13 8 11 9 12 10 86 11 81 12
REMARK SMILES IDX 80 13 10 14 9 16 3 17 4 18 5 19 8 20 6 21 7 22 2 23 1 24
REMARK SMILES IDX 82 25 83 26 84 27 85 28 20 29 21 30 22 31 23 32 24 33 25 35
REMARK SMILES IDX 26 36 27 37 79 38 28 39 78 40 29 41 30 42 31 43 72 44 32 45
REMARK SMILES IDX 77 46 71 47 73 48 33 49 76 50 70 51 69 52 34 54 60 55 43 56
REMARK SMILES IDX 59 57 44 58 47 59 58 60 74 61 45 62 46 63 57 65 75 66 48 67
REMARK SMILES IDX 35 68 36 69 41 70 37 71 38 72 40 73 42 74 39 75 61 76 62 77
REMARK SMILES IDX 67 78 63 79 64 80 66 81 68 82 65 83 49 84 50 85 55 86 51 87
REMARK SMILES IDX 52 88 54 89 56 90 53 91
REMARK H PARENT 18 5 10 15 23 34 73 53 47 64
REMARK Flexibility Score: inf
ROOT
ATOM      1  C   UNL A   1      39.125  23.329  26.864  1.00  0.00     0.116 C 
ENDROOT
BRANCH   1   2
ATOM      2  N   UNL A   1      38.371  23.694  25.677  1.00  0.00    -0.353 N 
ATOM      3  C   UNL A   1      37.323  23.051  25.087  1.00  0.00     0.258 C 
ATOM      4  O   UNL A   1      36.817  23.555  24.081  1.00  0.00    -0.271 OA
ATOM      5  H   UNL A   1      38.658  24.526  25.235  1.00  0.00     0.163 HD
BRANCH   3   6
ATOM      6  C   UNL A   1      36.778  21.741  25.673  1.00  0.00     0.331 C 
BRANCH   6   7
ATOM      7  O   UNL A   1      35.496  21.754  26.268  1.00  0.00    -0.467 OA
BRANCH   7   8
ATOM      8  C   UNL A   1      34.474  21.135  25.604  1.00  0.00     0.218 A 
ATOM      9  C   UNL A   1      32.274  21.363  25.036  1.00  0.00     0.230 A 
ATOM     10  N   UNL A   1      33.389  21.917  25.516  1.00  0.00    -0.177 NA
ATOM     11  N   UNL A   1      32.211  20.098  24.594  1.00  0.00    -0.217 NA
ATOM     12  C   UNL A   1      33.331  19.345  24.602  1.00  0.00     0.055 A 
ATOM     13  C   UNL A   1      34.511  19.852  25.106  1.00  0.00     0.093 A 
BRANCH   9  14
ATOM     14  N   UNL A   1      31.140  22.160  25.036  1.00  0.00    -0.321 N 
ATOM     15  H   UNL A   1      30.290  21.665  25.076  1.00  0.00     0.170 HD
BRANCH  14  16
ATOM     16  C   UNL A   1      31.005  23.558  24.988  1.00  0.00     0.084 A 
ATOM     17  C   UNL A   1      30.654  24.263  26.156  1.00  0.00     0.142 A 
ATOM     18  C   UNL A   1      30.514  25.654  26.127  1.00  0.00     0.049 A 
ATOM     19  C   UNL A   1      30.675  26.352  24.928  1.00  0.00     0.007 A 
ATOM     20  C   UNL A   1      31.200  24.283  23.805  1.00  0.00     0.033 A 
ATOM     21  C   UNL A   1      31.011  25.670  23.756  1.00  0.00    -0.049 A 
ATOM     22  C   UNL A   1      31.150  26.386  22.445  1.00  0.00     0.044 C 
BRANCH  17  23
ATOM     23  O   UNL A   1      30.506  23.518  27.303  1.00  0.00    -0.495 OA
ATOM     24  C   UNL A   1      29.271  22.814  27.389  1.00  0.00     0.278 C 
ENDBRANCH  17  23
ENDBRANCH  14  16
ENDBRANCH   9  14
BRANCH  12  25
ATOM     25  C   UNL A   1      33.199  17.931  24.026  1.00  0.00     0.004 C 
ATOM     26  C   UNL A   1      34.596  17.282  23.938  1.00  0.00     0.017 C 
ATOM     27  C   UNL A   1      32.314  17.096  24.972  1.00  0.00     0.017 C 
ATOM     28  C   UNL A   1      32.576  17.881  22.614  1.00  0.00     0.017 C 
ENDBRANCH  12  25
ENDBRANCH   7   8
ENDBRANCH   6   7
ENDBRANCH   3   6
ENDBRANCH   1   2
BRANCH   1  29
ATOM     29  C   UNL A   1      40.593  22.992  26.577  1.00  0.00     0.023 C 
BRANCH  29  30
ATOM     30  C   UNL A   1      40.938  21.500  26.541  1.00  0.00     0.023 C 
BRANCH  30  31
ATOM     31  C   UNL A   1      42.413  21.172  26.754  1.00  0.00     0.116 C 
BRANCH  31  32
ATOM     32  N   UNL A   1      43.093  20.636  25.581  1.00  0.00    -0.352 N 
ATOM     33  C   UNL A   1      44.108  21.220  24.823  1.00  0.00     0.251 C 
ATOM     34  H   UNL A   1      42.797  19.745  25.284  1.00  0.00     0.163 HD
ATOM     35  O   UNL A   1      44.606  20.643  23.886  1.00  0.00    -0.269 OA
BRANCH  33  36
ATOM     36  C   UNL A   1      44.651  22.526  25.279  1.00  0.00     0.039 A 
ATOM     37  C   UNL A   1      45.377  22.550  26.474  1.00  0.00     0.014 A 
ATOM     38  C   UNL A   1      44.243  23.711  24.674  1.00  0.00     0.014 A 
ATOM     39  C   UNL A   1      45.450  23.739  27.197  1.00  0.00     0.010 A 
ATOM     40  C   UNL A   1      44.237  24.870  25.427  1.00  0.00     0.010 A 
ATOM     41  C   UNL A   1      44.766  24.860  26.723  1.00  0.00    -0.014 A 
BRANCH  41  42
ATOM     42  C   UNL A   1      44.412  25.990  27.578  1.00  0.00     0.031 A 
ATOM     43  C   UNL A   1      43.062  26.582  27.557  1.00  0.00     0.074 A 
ATOM     44  C   UNL A   1      45.318  26.457  28.467  1.00  0.00     0.049 A 
ATOM     45  N   UNL A   1      42.791  27.776  27.968  1.00  0.00    -0.248 NA
ATOM     46  C   UNL A   1      41.901  25.874  27.038  1.00  0.00     0.031 C 
ATOM     47  C   UNL A   1      45.083  27.376  29.579  1.00  0.00     0.029 A 
ATOM     48  N   UNL A   1      46.714  26.359  28.392  1.00  0.00    -0.354 N 
ATOM     49  C   UNL A   1      41.425  27.899  28.034  1.00  0.00     0.074 A 
ATOM     50  C   UNL A   1      40.917  26.709  27.388  1.00  0.00     0.031 C 
ATOM     51  C   UNL A   1      46.234  27.993  29.879  1.00  0.00     0.029 A 
ATOM     52  C   UNL A   1      47.213  27.586  28.889  1.00  0.00     0.049 A 
ATOM     53  H   UNL A   1      47.239  25.594  28.061  1.00  0.00     0.167 HD
ATOM     54  C   UNL A   1      40.878  28.936  28.735  1.00  0.00     0.037 A 
ATOM     55  C   UNL A   1      47.925  28.428  28.085  1.00  0.00     0.037 A 
ATOM     56  C   UNL A   1      41.899  29.852  29.248  1.00  0.00     0.049 A 
ATOM     57  C   UNL A   1      47.298  29.790  27.873  1.00  0.00     0.074 A 
ATOM     58  C   UNL A   1      42.485  30.070  30.486  1.00  0.00     0.029 A 
ATOM     59  N   UNL A   1      42.668  30.559  28.343  1.00  0.00    -0.354 N 
ATOM     60  N   UNL A   1      46.169  30.179  28.397  1.00  0.00    -0.248 NA
ATOM     61  C   UNL A   1      47.853  30.789  26.955  1.00  0.00     0.031 C 
ATOM     62  C   UNL A   1      43.602  30.938  30.310  1.00  0.00     0.029 A 
ATOM     63  C   UNL A   1      43.697  31.239  28.965  1.00  0.00     0.049 A 
ATOM     64  H   UNL A   1      42.502  30.576  27.373  1.00  0.00     0.167 HD
ATOM     65  C   UNL A   1      45.811  31.389  27.862  1.00  0.00     0.074 A 
ATOM     66  C   UNL A   1      46.901  31.736  26.971  1.00  0.00     0.031 C 
ATOM     67  C   UNL A   1      44.621  31.998  28.141  1.00  0.00     0.037 A 
BRANCH  54  68
ATOM     68  C   UNL A   1      39.425  28.988  29.149  1.00  0.00     0.057 A 
ATOM     69  C   UNL A   1      38.430  29.440  28.261  1.00  0.00     0.134 A 
ATOM     70  C   UNL A   1      38.944  28.647  30.424  1.00  0.00     0.134 A 
ATOM     71  F   UNL A   1      38.692  29.687  26.971  1.00  0.00    -0.206 F 
ATOM     72  C   UNL A   1      37.104  29.668  28.651  1.00  0.00     0.040 A 
ATOM     73  C   UNL A   1      37.637  28.924  30.849  1.00  0.00     0.040 A 
ATOM     74  F   UNL A   1      39.703  27.974  31.301  1.00  0.00    -0.206 F 
ATOM     75  C   UNL A   1      36.713  29.456  29.963  1.00  0.00     0.006 A 
ENDBRANCH  54  68
BRANCH  55  76
ATOM     76  C   UNL A   1      48.749  27.695  27.087  1.00  0.00     0.057 A 
ATOM     77  C   UNL A   1      48.230  27.515  25.791  1.00  0.00     0.134 A 
ATOM     78  C   UNL A   1      50.125  27.522  27.253  1.00  0.00     0.134 A 
ATOM     79  F   UNL A   1      46.916  27.670  25.562  1.00  0.00    -0.206 F 
ATOM     80  C   UNL A   1      49.059  27.302  24.689  1.00  0.00     0.040 A 
ATOM     81  C   UNL A   1      50.963  27.287  26.158  1.00  0.00     0.040 A 
ATOM     82  F   UNL A   1      50.697  27.698  28.453  1.00  0.00    -0.206 F 
ATOM     83  C   UNL A   1      50.437  27.221  24.868  1.00  0.00     0.006 A 
ENDBRANCH  55  76
BRANCH  67  84
ATOM     84  C   UNL A   1      44.220  33.351  27.611  1.00  0.00     0.057 A 
ATOM     85  C   UNL A   1      44.074  34.476  28.435  1.00  0.00     0.134 A 
ATOM     86  C   UNL A   1      43.852  33.540  26.262  1.00  0.00     0.134 A 
ATOM     87  F   UNL A   1      44.297  34.402  29.755  1.00  0.00    -0.206 F 
ATOM     88  C   UNL A   1      43.660  35.720  27.940  1.00  0.00     0.040 A 
ATOM     89  C   UNL A   1      43.393  34.763  25.767  1.00  0.00     0.040 A 
ATOM     90  F   UNL A   1      43.937  32.552  25.362  1.00  0.00    -0.206 F 
ATOM     91  C   UNL A   1      43.312  35.865  26.602  1.00  0.00     0.006 A 
ENDBRANCH  67  84
ENDBRANCH  41  42
ENDBRANCH  33  36
ENDBRANCH  31  32
ENDBRANCH  30  31
ENDBRANCH  29  30
ENDBRANCH   1  29
TORSDOF 17
ENDMDL
MODEL 3
REMARK VINA RESULT:     -11.6      2.811      4.842
REMARK SMILES COc1ccc(C)cc1Nc1nc(OCC(=O)NCCCCNC(=O)c2ccc(-c3c4nc(c(-c5c(F)cccc5F)c5ccc([nH]5)c(-c5c(F)cccc5F)c5nc(c(-c6c(F)cccc6F)c6ccc3[nH]6)C=C5)C=C4)cc2)cc(C(C)(C)C)n1
REMARK SMILES IDX 19 1 18 2 16 3 17 4 15 6 14 7 13 8 11 9 12 10 86 11 81 12
REMARK SMILES IDX 80 13 10 14 9 16 3 17 4 18 5 19 8 20 6 21 7 22 2 23 1 24
REMARK SMILES IDX 82 25 83 26 84 27 85 28 20 29 21 30 22 31 23 32 24 33 25 35
REMARK SMILES IDX 26 36 27 37 79 38 28 39 78 40 29 41 30 42 31 43 72 44 32 45
REMARK SMILES IDX 77 46 71 47 73 48 33 49 76 50 70 51 69 52 34 54 60 55 43 56
REMARK SMILES IDX 59 57 44 58 47 59 58 60 74 61 45 62 46 63 57 65 75 66 48 67
REMARK SMILES IDX 35 68 36 69 41 70 37 71 38 72 40 73 42 74 39 75 61 76 62 77
REMARK SMILES IDX 67 78 63 79 64 80 66 81 68 82 65 83 49 84 50 85 55 86 51 87
REMARK SMILES IDX 52 88 54 89 56 90 53 91
REMARK H PARENT 18 5 10 15 23 34 73 53 47 64
REMARK Flexibility Score: inf
ROOT
ATOM      1  C   UNL A   1      34.867  30.837  27.878  1.00  0.00     0.116 C 
ENDROOT
BRANCH   1   2
ATOM      2  N   UNL A   1      33.603  31.126  27.223  1.00  0.00    -0.353 N 
ATOM      3  C   UNL A   1      32.714  30.271  26.645  1.00  0.00     0.258 C 
ATOM      4  O   UNL A   1      31.683  30.739  26.155  1.00  0.00    -0.271 OA
ATOM      5  H   UNL A   1      33.354  32.078  27.192  1.00  0.00     0.163 HD
BRANCH   3   6
ATOM      6  C   UNL A   1      32.983  28.759  26.621  1.00  0.00     0.331 C 
BRANCH   6   7
ATOM      7  O   UNL A   1      34.007  28.273  25.775  1.00  0.00    -0.467 OA
BRANCH   7   8
ATOM      8  C   UNL A   1      33.667  27.359  24.818  1.00  0.00     0.218 A 
ATOM      9  C   UNL A   1      32.282  27.026  23.033  1.00  0.00     0.230 A 
ATOM     10  N   UNL A   1      32.814  27.870  23.919  1.00  0.00    -0.177 NA
ATOM     11  N   UNL A   1      32.602  25.724  22.970  1.00  0.00    -0.217 NA
ATOM     12  C   UNL A   1      33.529  25.236  23.820  1.00  0.00     0.055 A 
ATOM     13  C   UNL A   1      34.101  26.053  24.775  1.00  0.00     0.093 A 
BRANCH   9  14
ATOM     14  N   UNL A   1      31.335  27.554  22.169  1.00  0.00    -0.321 N 
ATOM     15  H   UNL A   1      31.511  27.388  21.215  1.00  0.00     0.170 HD
BRANCH  14  16
ATOM     16  C   UNL A   1      30.165  28.286  22.432  1.00  0.00     0.084 A 
ATOM     17  C   UNL A   1      29.087  27.663  23.091  1.00  0.00     0.142 A 
ATOM     18  C   UNL A   1      27.915  28.376  23.360  1.00  0.00     0.049 A 
ATOM     19  C   UNL A   1      27.784  29.700  22.935  1.00  0.00     0.007 A 
ATOM     20  C   UNL A   1      30.026  29.627  22.049  1.00  0.00     0.033 A 
ATOM     21  C   UNL A   1      28.835  30.333  22.268  1.00  0.00    -0.049 A 
ATOM     22  C   UNL A   1      28.710  31.739  21.763  1.00  0.00     0.044 C 
BRANCH  17  23
ATOM     23  O   UNL A   1      29.278  26.358  23.482  1.00  0.00    -0.495 OA
ATOM     24  C   UNL A   1      29.514  26.192  24.876  1.00  0.00     0.278 C 
ENDBRANCH  17  23
ENDBRANCH  14  16
ENDBRANCH   9  14
BRANCH  12  25
ATOM     25  C   UNL A   1      33.890  23.757  23.651  1.00  0.00     0.004 C 
ATOM     26  C   UNL A   1      33.468  22.980  24.916  1.00  0.00     0.017 C 
ATOM     27  C   UNL A   1      33.120  23.200  22.438  1.00  0.00     0.017 C 
ATOM     28  C   UNL A   1      35.394  23.497  23.427  1.00  0.00     0.017 C 
ENDBRANCH  12  25
ENDBRANCH   7   8
ENDBRANCH   6   7
ENDBRANCH   3   6
ENDBRANCH   1   2
BRANCH   1  29
ATOM     29  C   UNL A   1      35.747  32.076  28.086  1.00  0.00     0.023 C 
BRANCH  29  30
ATOM     30  C   UNL A   1      35.196  33.130  29.051  1.00  0.00     0.023 C 
BRANCH  30  31
ATOM     31  C   UNL A   1      34.659  32.582  30.370  1.00  0.00     0.116 C 
BRANCH  31  32
ATOM     32  N   UNL A   1      34.005  33.570  31.220  1.00  0.00    -0.352 N 
ATOM     33  C   UNL A   1      34.519  34.232  32.335  1.00  0.00     0.251 C 
ATOM     34  H   UNL A   1      33.080  33.800  30.975  1.00  0.00     0.163 HD
ATOM     35  O   UNL A   1      33.869  35.057  32.932  1.00  0.00    -0.269 OA
BRANCH  33  36
ATOM     36  C   UNL A   1      35.940  33.985  32.695  1.00  0.00     0.039 A 
ATOM     37  C   UNL A   1      36.924  34.670  31.976  1.00  0.00     0.014 A 
ATOM     38  C   UNL A   1      36.281  32.935  33.542  1.00  0.00     0.014 A 
ATOM     39  C   UNL A   1      38.203  34.124  31.893  1.00  0.00     0.010 A 
ATOM     40  C   UNL A   1      37.523  32.344  33.393  1.00  0.00     0.010 A 
ATOM     41  C   UNL A   1      38.453  32.893  32.502  1.00  0.00    -0.014 A 
BRANCH  41  42
ATOM     42  C   UNL A   1      39.577  32.040  32.129  1.00  0.00     0.031 A 
ATOM     43  C   UNL A   1      39.389  30.823  31.318  1.00  0.00     0.074 A 
ATOM     44  C   UNL A   1      40.833  32.413  32.467  1.00  0.00     0.049 A 
ATOM     45  N   UNL A   1      40.230  29.844  31.280  1.00  0.00    -0.248 NA
ATOM     46  C   UNL A   1      38.207  30.599  30.499  1.00  0.00     0.031 C 
ATOM     47  C   UNL A   1      42.090  31.861  31.968  1.00  0.00     0.029 A 
ATOM     48  N   UNL A   1      41.218  33.239  33.531  1.00  0.00    -0.354 N 
ATOM     49  C   UNL A   1      39.862  29.011  30.252  1.00  0.00     0.074 A 
ATOM     50  C   UNL A   1      38.563  29.494  29.836  1.00  0.00     0.031 C 
ATOM     51  C   UNL A   1      43.052  32.091  32.874  1.00  0.00     0.029 A 
ATOM     52  C   UNL A   1      42.416  32.682  34.036  1.00  0.00     0.049 A 
ATOM     53  H   UNL A   1      40.750  34.041  33.860  1.00  0.00     0.167 HD
ATOM     54  C   UNL A   1      40.750  28.083  29.789  1.00  0.00     0.037 A 
ATOM     55  C   UNL A   1      42.477  32.192  35.309  1.00  0.00     0.037 A 
ATOM     56  C   UNL A   1      41.985  28.063  30.575  1.00  0.00     0.049 A 
ATOM     57  C   UNL A   1      42.793  30.714  35.409  1.00  0.00     0.074 A 
ATOM     58  C   UNL A   1      43.270  28.551  30.392  1.00  0.00     0.029 A 
ATOM     59  N   UNL A   1      41.917  27.683  31.902  1.00  0.00    -0.354 N 
ATOM     60  N   UNL A   1      43.004  29.928  34.390  1.00  0.00    -0.248 NA
ATOM     61  C   UNL A   1      42.791  29.983  36.679  1.00  0.00     0.031 C 
ATOM     62  C   UNL A   1      43.977  28.435  31.624  1.00  0.00     0.029 A 
ATOM     63  C   UNL A   1      43.117  27.884  32.555  1.00  0.00     0.049 A 
ATOM     64  H   UNL A   1      41.111  27.314  32.331  1.00  0.00     0.167 HD
ATOM     65  C   UNL A   1      43.085  28.630  34.825  1.00  0.00     0.074 A 
ATOM     66  C   UNL A   1      42.956  28.716  36.266  1.00  0.00     0.031 C 
ATOM     67  C   UNL A   1      43.195  27.570  33.971  1.00  0.00     0.037 A 
BRANCH  54  68
ATOM     68  C   UNL A   1      40.584  27.354  28.475  1.00  0.00     0.057 A 
ATOM     69  C   UNL A   1      39.784  26.200  28.377  1.00  0.00     0.134 A 
ATOM     70  C   UNL A   1      41.223  27.712  27.275  1.00  0.00     0.134 A 
ATOM     71  F   UNL A   1      39.008  25.790  29.389  1.00  0.00    -0.206 F 
ATOM     72  C   UNL A   1      39.736  25.396  27.231  1.00  0.00     0.040 A 
ATOM     73  C   UNL A   1      41.236  26.889  26.139  1.00  0.00     0.040 A 
ATOM     74  F   UNL A   1      41.815  28.905  27.128  1.00  0.00    -0.206 F 
ATOM     75  C   UNL A   1      40.502  25.713  26.121  1.00  0.00     0.006 A 
ENDBRANCH  54  68
BRANCH  55  76
ATOM     76  C   UNL A   1      41.612  32.953  36.250  1.00  0.00     0.057 A 
ATOM     77  C   UNL A   1      40.333  32.444  36.546  1.00  0.00     0.134 A 
ATOM     78  C   UNL A   1      42.137  33.907  37.124  1.00  0.00     0.134 A 
ATOM     79  F   UNL A   1      39.773  31.521  35.748  1.00  0.00    -0.206 F 
ATOM     80  C   UNL A   1      39.665  32.773  37.726  1.00  0.00     0.040 A 
ATOM     81  C   UNL A   1      41.466  34.260  38.299  1.00  0.00     0.040 A 
ATOM     82  F   UNL A   1      43.359  34.421  36.923  1.00  0.00    -0.206 F 
ATOM     83  C   UNL A   1      40.249  33.661  38.624  1.00  0.00     0.006 A 
ENDBRANCH  55  76
BRANCH  67  84
ATOM     84  C   UNL A   1      43.339  26.138  34.418  1.00  0.00     0.057 A 
ATOM     85  C   UNL A   1      44.489  25.376  34.165  1.00  0.00     0.134 A 
ATOM     86  C   UNL A   1      42.273  25.438  35.020  1.00  0.00     0.134 A 
ATOM     87  F   UNL A   1      45.536  25.898  33.510  1.00  0.00    -0.206 F 
ATOM     88  C   UNL A   1      44.597  24.032  34.547  1.00  0.00     0.040 A 
ATOM     89  C   UNL A   1      42.352  24.085  35.363  1.00  0.00     0.040 A 
ATOM     90  F   UNL A   1      41.112  26.037  35.317  1.00  0.00    -0.206 F 
ATOM     91  C   UNL A   1      43.524  23.381  35.143  1.00  0.00     0.006 A 
ENDBRANCH  67  84
ENDBRANCH  41  42
ENDBRANCH  33  36
ENDBRANCH  31  32
ENDBRANCH  30  31
ENDBRANCH  29  30
ENDBRANCH   1  29
TORSDOF 17
ENDMDL
