MODEL 1
REMARK VINA RESULT:     -12.2      0.000      0.000
REMARK SMILES COc1c(C(=O)NCCCCNC(=O)c2ccc(-c3c4nc(c(-c5c(F)cccc5F)c5ccc([nH]5)c(-c5c(F)cccc5F)c5nc(c(-c6c(F)cccc6F)c6ccc3[nH]6)C=C5)C=C4)cc2)cccc1-c1cc(C)ccc1C
REMARK SMILES IDX 10 1 9 2 8 3 7 4 5 5 6 6 4 8 3 9 72 10 69 11 71 12 70 13
REMARK SMILES IDX 2 14 1 15 73 16 74 17 79 18 75 19 78 20 80 21 76 22 77 23
REMARK SMILES IDX 11 24 12 25 13 26 14 28 15 29 16 30 68 31 17 32 67 33 18 34
REMARK SMILES IDX 19 35 20 36 61 37 21 38 66 39 60 40 62 41 22 42 65 43 59 44
REMARK SMILES IDX 58 45 23 47 49 48 32 49 48 50 33 51 36 52 47 53 63 54 34 55
REMARK SMILES IDX 35 56 46 58 64 59 37 60 24 61 25 62 30 63 26 64 27 65 29 66
REMARK SMILES IDX 31 67 28 68 50 69 51 70 56 71 52 72 53 73 55 74 57 75 54 76
REMARK SMILES IDX 38 77 39 78 44 79 40 80 41 81 43 82 45 83 42 84
REMARK H PARENT 7 7 12 27 62 46 36 57
REMARK Flexibility Score: inf
ROOT
ATOM      1  C   UNL A   1      31.278  31.538  26.864  1.00  0.00     0.023 C 
ENDROOT
BRANCH   1   2
ATOM      2  C   UNL A   1      31.844  30.127  26.735  1.00  0.00     0.023 C 
BRANCH   2   3
ATOM      3  C   UNL A   1      32.405  29.749  25.377  1.00  0.00     0.116 C 
BRANCH   3   4
ATOM      4  N   UNL A   1      31.481  29.426  24.329  1.00  0.00    -0.352 N 
ATOM      5  C   UNL A   1      30.973  28.180  24.023  1.00  0.00     0.255 C 
ATOM      6  O   UNL A   1      30.061  28.124  23.195  1.00  0.00    -0.269 OA
ATOM      7  H   UNL A   1      31.177  30.174  23.765  1.00  0.00     0.163 HD
BRANCH   5   8
ATOM      8  C   UNL A   1      31.557  26.898  24.538  1.00  0.00     0.082 A 
ATOM      9  C   UNL A   1      32.807  26.319  24.206  1.00  0.00     0.139 A 
ATOM     10  C   UNL A   1      33.203  25.093  24.814  1.00  0.00     0.025 A 
ATOM     11  C   UNL A   1      30.730  26.249  25.480  1.00  0.00     0.018 A 
ATOM     12  C   UNL A   1      32.334  24.483  25.742  1.00  0.00     0.012 A 
ATOM     13  C   UNL A   1      31.112  25.053  26.076  1.00  0.00     0.002 A 
BRANCH   9  14
ATOM     14  O   UNL A   1      33.662  27.028  23.390  1.00  0.00    -0.495 OA
ATOM     15  C   UNL A   1      33.456  26.866  21.978  1.00  0.00     0.278 C 
ENDBRANCH   9  14
BRANCH  10  16
ATOM     16  C   UNL A   1      34.462  24.384  24.493  1.00  0.00    -0.011 A 
ATOM     17  C   UNL A   1      35.538  24.525  25.398  1.00  0.00     0.012 A 
ATOM     18  C   UNL A   1      34.616  23.512  23.393  1.00  0.00    -0.043 A 
ATOM     19  C   UNL A   1      36.712  23.772  25.278  1.00  0.00    -0.050 A 
ATOM     20  C   UNL A   1      35.790  22.744  23.290  1.00  0.00     0.004 A 
ATOM     21  C   UNL A   1      33.519  23.264  22.392  1.00  0.00     0.045 C 
ATOM     22  C   UNL A   1      37.806  23.934  26.290  1.00  0.00     0.044 C 
ATOM     23  C   UNL A   1      36.821  22.867  24.224  1.00  0.00     0.004 A 
ENDBRANCH  10  16
ENDBRANCH   5   8
ENDBRANCH   3   4
ENDBRANCH   2   3
ENDBRANCH   1   2
BRANCH   1  24
ATOM     24  C   UNL A   1      32.181  32.690  26.426  1.00  0.00     0.116 C 
BRANCH  24  25
ATOM     25  N   UNL A   1      32.151  33.855  27.301  1.00  0.00    -0.352 N 
ATOM     26  C   UNL A   1      33.016  34.262  28.295  1.00  0.00     0.251 C 
ATOM     27  H   UNL A   1      31.381  34.453  27.160  1.00  0.00     0.163 HD
ATOM     28  O   UNL A   1      32.765  35.262  28.955  1.00  0.00    -0.269 OA
BRANCH  26  29
ATOM     29  C   UNL A   1      34.222  33.461  28.607  1.00  0.00     0.039 A 
ATOM     30  C   UNL A   1      35.453  34.112  28.727  1.00  0.00     0.014 A 
ATOM     31  C   UNL A   1      34.139  32.086  28.822  1.00  0.00     0.014 A 
ATOM     32  C   UNL A   1      36.567  33.408  29.190  1.00  0.00     0.010 A 
ATOM     33  C   UNL A   1      35.219  31.412  29.385  1.00  0.00     0.010 A 
ATOM     34  C   UNL A   1      36.441  32.068  29.591  1.00  0.00    -0.014 A 
BRANCH  34  35
ATOM     35  C   UNL A   1      37.558  31.339  30.248  1.00  0.00     0.031 A 
ATOM     36  C   UNL A   1      37.903  31.619  31.687  1.00  0.00     0.074 A 
ATOM     37  C   UNL A   1      38.326  30.497  29.527  1.00  0.00     0.049 A 
ATOM     38  N   UNL A   1      38.912  31.179  32.396  1.00  0.00    -0.248 NA
ATOM     39  C   UNL A   1      37.017  32.543  32.412  1.00  0.00     0.031 C 
ATOM     40  C   UNL A   1      38.143  30.184  28.108  1.00  0.00     0.029 A 
ATOM     41  N   UNL A   1      39.428  29.759  29.885  1.00  0.00    -0.354 N 
ATOM     42  C   UNL A   1      38.793  31.791  33.638  1.00  0.00     0.074 A 
ATOM     43  C   UNL A   1      37.649  32.674  33.569  1.00  0.00     0.031 C 
ATOM     44  C   UNL A   1      39.082  29.303  27.724  1.00  0.00     0.029 A 
ATOM     45  C   UNL A   1      39.958  29.020  28.854  1.00  0.00     0.049 A 
ATOM     46  H   UNL A   1      39.803  29.761  30.796  1.00  0.00     0.167 HD
ATOM     47  C   UNL A   1      39.551  31.614  34.747  1.00  0.00     0.037 A 
ATOM     48  C   UNL A   1      41.034  28.211  28.822  1.00  0.00     0.037 A 
ATOM     49  C   UNL A   1      40.664  30.707  34.830  1.00  0.00     0.049 A 
ATOM     50  C   UNL A   1      41.847  28.016  30.071  1.00  0.00     0.074 A 
ATOM     51  C   UNL A   1      41.455  30.413  35.928  1.00  0.00     0.029 A 
ATOM     52  N   UNL A   1      41.141  29.943  33.776  1.00  0.00    -0.354 N 
ATOM     53  N   UNL A   1      41.684  28.554  31.255  1.00  0.00    -0.248 NA
ATOM     54  C   UNL A   1      42.992  27.098  29.982  1.00  0.00     0.031 C 
ATOM     55  C   UNL A   1      42.430  29.491  35.529  1.00  0.00     0.029 A 
ATOM     56  C   UNL A   1      42.220  29.184  34.194  1.00  0.00     0.049 A 
ATOM     57  H   UNL A   1      40.766  29.939  32.866  1.00  0.00     0.167 HD
ATOM     58  C   UNL A   1      42.684  28.019  32.057  1.00  0.00     0.074 A 
ATOM     59  C   UNL A   1      43.441  27.105  31.228  1.00  0.00     0.031 C 
ATOM     60  C   UNL A   1      42.952  28.266  33.362  1.00  0.00     0.037 A 
BRANCH  47  61
ATOM     61  C   UNL A   1      39.185  32.407  35.967  1.00  0.00     0.057 A 
ATOM     62  C   UNL A   1      39.674  33.703  36.175  1.00  0.00     0.134 A 
ATOM     63  C   UNL A   1      38.309  31.886  36.926  1.00  0.00     0.134 A 
ATOM     64  F   UNL A   1      40.528  34.256  35.299  1.00  0.00    -0.206 F 
ATOM     65  C   UNL A   1      39.325  34.443  37.305  1.00  0.00     0.040 A 
ATOM     66  C   UNL A   1      37.931  32.626  38.048  1.00  0.00     0.040 A 
ATOM     67  F   UNL A   1      37.798  30.653  36.786  1.00  0.00    -0.206 F 
ATOM     68  C   UNL A   1      38.445  33.908  38.243  1.00  0.00     0.006 A 
ENDBRANCH  47  61
BRANCH  48  69
ATOM     69  C   UNL A   1      41.399  27.502  27.568  1.00  0.00     0.057 A 
ATOM     70  C   UNL A   1      40.954  26.197  27.324  1.00  0.00     0.134 A 
ATOM     71  C   UNL A   1      42.213  28.097  26.599  1.00  0.00     0.134 A 
ATOM     72  F   UNL A   1      40.186  25.567  28.224  1.00  0.00    -0.206 F 
ATOM     73  C   UNL A   1      41.324  25.501  26.172  1.00  0.00     0.040 A 
ATOM     74  C   UNL A   1      42.572  27.422  25.431  1.00  0.00     0.040 A 
ATOM     75  F   UNL A   1      42.666  29.348  26.769  1.00  0.00    -0.206 F 
ATOM     76  C   UNL A   1      42.134  26.115  25.220  1.00  0.00     0.006 A 
ENDBRANCH  48  69
BRANCH  60  77
ATOM     77  C   UNL A   1      44.085  27.507  33.985  1.00  0.00     0.057 A 
ATOM     78  C   UNL A   1      43.896  26.259  34.589  1.00  0.00     0.134 A 
ATOM     79  C   UNL A   1      45.390  28.017  33.943  1.00  0.00     0.134 A 
ATOM     80  F   UNL A   1      42.669  25.723  34.673  1.00  0.00    -0.206 F 
ATOM     81  C   UNL A   1      44.962  25.551  35.148  1.00  0.00     0.040 A 
ATOM     82  C   UNL A   1      46.467  27.308  34.476  1.00  0.00     0.040 A 
ATOM     83  F   UNL A   1      45.640  29.204  33.372  1.00  0.00    -0.206 F 
ATOM     84  C   UNL A   1      46.253  26.073  35.086  1.00  0.00     0.006 A 
ENDBRANCH  60  77
ENDBRANCH  34  35
ENDBRANCH  26  29
ENDBRANCH  24  25
ENDBRANCH   1  24
TORSDOF 13
ENDMDL
MODEL 2
REMARK VINA RESULT:     -12.1      0.409      6.279
REMARK SMILES COc1c(C(=O)NCCCCNC(=O)c2ccc(-c3c4nc(c(-c5c(F)cccc5F)c5ccc([nH]5)c(-c5c(F)cccc5F)c5nc(c(-c6c(F)cccc6F)c6ccc3[nH]6)C=C5)C=C4)cc2)cccc1-c1cc(C)ccc1C
REMARK SMILES IDX 10 1 9 2 8 3 7 4 5 5 6 6 4 8 3 9 72 10 69 11 71 12 70 13
REMARK SMILES IDX 2 14 1 15 73 16 74 17 79 18 75 19 78 20 80 21 76 22 77 23
REMARK SMILES IDX 11 24 12 25 13 26 14 28 15 29 16 30 68 31 17 32 67 33 18 34
REMARK SMILES IDX 19 35 20 36 61 37 21 38 66 39 60 40 62 41 22 42 65 43 59 44
REMARK SMILES IDX 58 45 23 47 49 48 32 49 48 50 33 51 36 52 47 53 63 54 34 55
REMARK SMILES IDX 35 56 46 58 64 59 37 60 24 61 25 62 30 63 26 64 27 65 29 66
REMARK SMILES IDX 31 67 28 68 50 69 51 70 56 71 52 72 53 73 55 74 57 75 54 76
REMARK SMILES IDX 38 77 39 78 44 79 40 80 41 81 43 82 45 83 42 84
REMARK H PARENT 7 7 12 27 62 46 36 57
REMARK Flexibility Score: inf
ROOT
ATOM      1  C   UNL A   1      31.289  31.553  26.879  1.00  0.00     0.023 C 
ENDROOT
BRANCH   1   2
ATOM      2  C   UNL A   1      31.809  30.124  26.755  1.00  0.00     0.023 C 
BRANCH   2   3
ATOM      3  C   UNL A   1      32.349  29.720  25.395  1.00  0.00     0.116 C 
BRANCH   3   4
ATOM      4  N   UNL A   1      31.408  29.418  24.356  1.00  0.00    -0.352 N 
ATOM      5  C   UNL A   1      30.884  28.181  24.044  1.00  0.00     0.255 C 
ATOM      6  O   UNL A   1      29.961  28.142  23.228  1.00  0.00    -0.269 OA
ATOM      7  H   UNL A   1      31.105  30.175  23.804  1.00  0.00     0.163 HD
BRANCH   5   8
ATOM      8  C   UNL A   1      31.461  26.887  24.538  1.00  0.00     0.082 A 
ATOM      9  C   UNL A   1      32.713  26.312  24.206  1.00  0.00     0.139 A 
ATOM     10  C   UNL A   1      33.102  25.074  24.793  1.00  0.00     0.025 A 
ATOM     11  C   UNL A   1      30.625  26.222  25.460  1.00  0.00     0.018 A 
ATOM     12  C   UNL A   1      32.223  24.447  25.701  1.00  0.00     0.012 A 
ATOM     13  C   UNL A   1      30.999  25.013  26.036  1.00  0.00     0.002 A 
BRANCH   9  14
ATOM     14  O   UNL A   1      33.577  27.036  23.412  1.00  0.00    -0.495 OA
ATOM     15  C   UNL A   1      33.402  26.882  21.996  1.00  0.00     0.278 C 
ENDBRANCH   9  14
BRANCH  10  16
ATOM     16  C   UNL A   1      34.362  24.370  24.470  1.00  0.00    -0.011 A 
ATOM     17  C   UNL A   1      35.437  24.506  25.378  1.00  0.00     0.012 A 
ATOM     18  C   UNL A   1      34.520  23.505  23.364  1.00  0.00    -0.043 A 
ATOM     19  C   UNL A   1      36.612  23.756  25.254  1.00  0.00    -0.050 A 
ATOM     20  C   UNL A   1      35.695  22.740  23.258  1.00  0.00     0.004 A 
ATOM     21  C   UNL A   1      33.425  23.262  22.359  1.00  0.00     0.045 C 
ATOM     22  C   UNL A   1      37.705  23.912  26.269  1.00  0.00     0.044 C 
ATOM     23  C   UNL A   1      36.725  22.858  24.194  1.00  0.00     0.004 A 
ENDBRANCH  10  16
ENDBRANCH   5   8
ENDBRANCH   3   4
ENDBRANCH   2   3
ENDBRANCH   1   2
BRANCH   1  24
ATOM     24  C   UNL A   1      32.254  32.677  26.508  1.00  0.00     0.116 C 
BRANCH  24  25
ATOM     25  N   UNL A   1      32.156  33.865  27.347  1.00  0.00    -0.352 N 
ATOM     26  C   UNL A   1      32.983  34.340  28.343  1.00  0.00     0.251 C 
ATOM     27  H   UNL A   1      31.365  34.425  27.172  1.00  0.00     0.163 HD
ATOM     28  O   UNL A   1      32.675  35.347  28.967  1.00  0.00    -0.269 OA
BRANCH  26  29
ATOM     29  C   UNL A   1      34.214  33.601  28.704  1.00  0.00     0.039 A 
ATOM     30  C   UNL A   1      35.443  34.265  28.638  1.00  0.00     0.014 A 
ATOM     31  C   UNL A   1      34.161  32.279  29.144  1.00  0.00     0.014 A 
ATOM     32  C   UNL A   1      36.592  33.646  29.137  1.00  0.00     0.010 A 
ATOM     33  C   UNL A   1      35.281  31.707  29.739  1.00  0.00     0.010 A 
ATOM     34  C   UNL A   1      36.507  32.389  29.757  1.00  0.00    -0.014 A 
BRANCH  34  35
ATOM     35  C   UNL A   1      37.671  31.778  30.451  1.00  0.00     0.031 A 
ATOM     36  C   UNL A   1      38.525  30.759  29.746  1.00  0.00     0.074 A 
ATOM     37  C   UNL A   1      37.905  32.067  31.748  1.00  0.00     0.049 A 
ATOM     38  N   UNL A   1      39.503  30.028  30.221  1.00  0.00    -0.248 NA
ATOM     39  C   UNL A   1      38.216  30.501  28.331  1.00  0.00     0.031 C 
ATOM     40  C   UNL A   1      37.117  32.987  32.570  1.00  0.00     0.029 A 
ATOM     41  N   UNL A   1      38.868  31.600  32.611  1.00  0.00    -0.354 N 
ATOM     42  C   UNL A   1      39.905  29.211  29.170  1.00  0.00     0.074 A 
ATOM     43  C   UNL A   1      39.032  29.496  28.053  1.00  0.00     0.031 C 
ATOM     44  C   UNL A   1      37.640  33.037  33.806  1.00  0.00     0.029 A 
ATOM     45  C   UNL A   1      38.774  32.123  33.879  1.00  0.00     0.049 A 
ATOM     46  H   UNL A   1      39.560  30.952  32.344  1.00  0.00     0.167 HD
ATOM     47  C   UNL A   1      40.927  28.324  29.131  1.00  0.00     0.037 A 
ATOM     48  C   UNL A   1      39.512  31.884  34.979  1.00  0.00     0.037 A 
ATOM     49  C   UNL A   1      41.822  28.068  30.228  1.00  0.00     0.049 A 
ATOM     50  C   UNL A   1      40.654  30.909  34.903  1.00  0.00     0.074 A 
ATOM     51  C   UNL A   1      42.925  27.233  30.264  1.00  0.00     0.029 A 
ATOM     52  N   UNL A   1      41.720  28.652  31.481  1.00  0.00    -0.354 N 
ATOM     53  N   UNL A   1      41.061  30.191  33.885  1.00  0.00    -0.248 NA
ATOM     54  C   UNL A   1      41.443  30.714  36.128  1.00  0.00     0.031 C 
ATOM     55  C   UNL A   1      43.473  27.288  31.550  1.00  0.00     0.029 A 
ATOM     56  C   UNL A   1      42.734  28.187  32.301  1.00  0.00     0.049 A 
ATOM     57  H   UNL A   1      41.030  29.300  31.749  1.00  0.00     0.167 HD
ATOM     58  C   UNL A   1      42.167  29.483  34.336  1.00  0.00     0.074 A 
ATOM     59  C   UNL A   1      42.376  29.868  35.716  1.00  0.00     0.031 C 
ATOM     60  C   UNL A   1      42.939  28.593  33.667  1.00  0.00     0.037 A 
BRANCH  47  61
ATOM     61  C   UNL A   1      41.143  27.577  27.847  1.00  0.00     0.057 A 
ATOM     62  C   UNL A   1      40.567  26.320  27.623  1.00  0.00     0.134 A 
ATOM     63  C   UNL A   1      41.904  28.133  26.812  1.00  0.00     0.134 A 
ATOM     64  F   UNL A   1      39.837  25.726  28.580  1.00  0.00    -0.206 F 
ATOM     65  C   UNL A   1      40.761  25.630  26.425  1.00  0.00     0.040 A 
ATOM     66  C   UNL A   1      42.083  27.465  25.599  1.00  0.00     0.040 A 
ATOM     67  F   UNL A   1      42.478  29.336  26.957  1.00  0.00    -0.206 F 
ATOM     68  C   UNL A   1      41.514  26.206  25.406  1.00  0.00     0.006 A 
ENDBRANCH  47  61
BRANCH  48  69
ATOM     69  C   UNL A   1      39.215  32.597  36.249  1.00  0.00     0.057 A 
ATOM     70  C   UNL A   1      38.351  32.041  37.200  1.00  0.00     0.134 A 
ATOM     71  C   UNL A   1      39.764  33.852  36.531  1.00  0.00     0.134 A 
ATOM     72  F   UNL A   1      37.778  30.850  36.977  1.00  0.00    -0.206 F 
ATOM     73  C   UNL A   1      38.026  32.717  38.377  1.00  0.00     0.040 A 
ATOM     74  C   UNL A   1      39.467  34.530  37.716  1.00  0.00     0.040 A 
ATOM     75  F   UNL A   1      40.605  34.435  35.665  1.00  0.00    -0.206 F 
ATOM     76  C   UNL A   1      38.587  33.965  38.639  1.00  0.00     0.006 A 
ENDBRANCH  48  69
BRANCH  60  77
ATOM     77  C   UNL A   1      44.103  28.004  34.405  1.00  0.00     0.057 A 
ATOM     78  C   UNL A   1      45.354  28.632  34.435  1.00  0.00     0.134 A 
ATOM     79  C   UNL A   1      43.958  26.812  35.127  1.00  0.00     0.134 A 
ATOM     80  F   UNL A   1      45.561  29.768  33.753  1.00  0.00    -0.206 F 
ATOM     81  C   UNL A   1      46.427  28.086  35.143  1.00  0.00     0.040 A 
ATOM     82  C   UNL A   1      45.015  26.269  35.859  1.00  0.00     0.040 A 
ATOM     83  F   UNL A   1      42.783  26.165  35.146  1.00  0.00    -0.206 F 
ATOM     84  C   UNL A   1      46.256  26.904  35.863  1.00  0.00     0.006 A 
ENDBRANCH  60  77
ENDBRANCH  34  35
ENDBRANCH  26  29
ENDBRANCH  24  25
ENDBRANCH   1  24
TORSDOF 13
ENDMDL
MODEL 3
REMARK VINA RESULT:     -12.0      3.568      4.727
REMARK SMILES COc1c(C(=O)NCCCCNC(=O)c2ccc(-c3c4nc(c(-c5c(F)cccc5F)c5ccc([nH]5)c(-c5c(F)cccc5F)c5nc(c(-c6c(F)cccc6F)c6ccc3[nH]6)C=C5)C=C4)cc2)cccc1-c1cc(C)ccc1C
REMARK SMILES IDX 10 1 9 2 8 3 7 4 5 5 6 6 4 8 3 9 72 10 69 11 71 12 70 13
REMARK SMILES IDX 2 14 1 15 73 16 74 17 79 18 75 19 78 20 80 21 76 22 77 23
REMARK SMILES IDX 11 24 12 25 13 26 14 28 15 29 16 30 68 31 17 32 67 33 18 34
REMARK SMILES IDX 19 35 20 36 61 37 21 38 66 39 60 40 62 41 22 42 65 43 59 44
REMARK SMILES IDX 58 45 23 47 49 48 32 49 48 50 33 51 36 52 47 53 63 54 34 55
REMARK SMILES IDX 35 56 46 58 64 59 37 60 24 61 25 62 30 63 26 64 27 65 29 66
REMARK SMILES IDX 31 67 28 68 50 69 51 70 56 71 52 72 53 73 55 74 57 75 54 76
REMARK SMILES IDX 38 77 39 78 44 79 40 80 41 81 43 82 45 83 42 84
REMARK H PARENT 7 7 12 27 62 46 36 57
REMARK Flexibility Score: inf
ROOT
ATOM      1  C   UNL A   1      33.875  28.848  25.881  1.00  0.00     0.023 C 
ENDROOT
BRANCH   1   2
ATOM      2  C   UNL A   1      32.903  29.559  24.945  1.00  0.00     0.023 C 
BRANCH   2   3
ATOM      3  C   UNL A   1      32.939  29.133  23.488  1.00  0.00     0.116 C 
BRANCH   3   4
ATOM      4  N   UNL A   1      31.746  28.580  22.916  1.00  0.00    -0.352 N 
ATOM      5  C   UNL A   1      31.066  27.457  23.338  1.00  0.00     0.255 C 
ATOM      6  O   UNL A   1      29.966  27.231  22.826  1.00  0.00    -0.269 OA
ATOM      7  H   UNL A   1      31.374  29.051  22.135  1.00  0.00     0.163 HD
BRANCH   5   8
ATOM      8  C   UNL A   1      31.645  26.439  24.275  1.00  0.00     0.082 A 
ATOM      9  C   UNL A   1      32.761  25.594  24.055  1.00  0.00     0.139 A 
ATOM     10  C   UNL A   1      33.180  24.694  25.078  1.00  0.00     0.025 A 
ATOM     11  C   UNL A   1      30.974  26.379  25.515  1.00  0.00     0.018 A 
ATOM     12  C   UNL A   1      32.468  24.669  26.294  1.00  0.00     0.012 A 
ATOM     13  C   UNL A   1      31.378  25.503  26.515  1.00  0.00     0.002 A 
BRANCH   9  14
ATOM     14  O   UNL A   1      33.489  25.757  22.896  1.00  0.00    -0.495 OA
ATOM     15  C   UNL A   1      33.006  25.042  21.749  1.00  0.00     0.278 C 
ENDBRANCH   9  14
BRANCH  10  16
ATOM     16  C   UNL A   1      34.298  23.737  24.924  1.00  0.00    -0.011 A 
ATOM     17  C   UNL A   1      35.564  24.129  25.413  1.00  0.00     0.012 A 
ATOM     18  C   UNL A   1      34.151  22.432  24.404  1.00  0.00    -0.043 A 
ATOM     19  C   UNL A   1      36.646  23.243  25.467  1.00  0.00    -0.050 A 
ATOM     20  C   UNL A   1      35.237  21.541  24.480  1.00  0.00     0.004 A 
ATOM     21  C   UNL A   1      32.837  21.903  23.891  1.00  0.00     0.045 C 
ATOM     22  C   UNL A   1      37.956  23.702  26.032  1.00  0.00     0.044 C 
ATOM     23  C   UNL A   1      36.466  21.938  25.011  1.00  0.00     0.004 A 
ENDBRANCH  10  16
ENDBRANCH   5   8
ENDBRANCH   3   4
ENDBRANCH   2   3
ENDBRANCH   1   2
BRANCH   1  24
ATOM     24  C   UNL A   1      33.592  28.946  27.379  1.00  0.00     0.116 C 
BRANCH  24  25
ATOM     25  N   UNL A   1      33.757  30.280  27.944  1.00  0.00    -0.352 N 
ATOM     26  C   UNL A   1      34.856  30.895  28.506  1.00  0.00     0.251 C 
ATOM     27  H   UNL A   1      32.945  30.837  27.921  1.00  0.00     0.163 HD
ATOM     28  O   UNL A   1      34.756  32.020  28.976  1.00  0.00    -0.269 OA
BRANCH  26  29
ATOM     29  C   UNL A   1      36.147  30.175  28.596  1.00  0.00     0.039 A 
ATOM     30  C   UNL A   1      37.023  30.220  27.508  1.00  0.00     0.014 A 
ATOM     31  C   UNL A   1      36.515  29.494  29.756  1.00  0.00     0.014 A 
ATOM     32  C   UNL A   1      38.312  29.698  27.634  1.00  0.00     0.010 A 
ATOM     33  C   UNL A   1      37.831  29.072  29.918  1.00  0.00     0.010 A 
ATOM     34  C   UNL A   1      38.750  29.184  28.865  1.00  0.00    -0.014 A 
BRANCH  34  35
ATOM     35  C   UNL A   1      40.164  28.780  29.086  1.00  0.00     0.031 A 
ATOM     36  C   UNL A   1      41.149  29.757  29.670  1.00  0.00     0.074 A 
ATOM     37  C   UNL A   1      40.588  27.568  28.672  1.00  0.00     0.049 A 
ATOM     38  N   UNL A   1      42.444  29.634  29.824  1.00  0.00    -0.248 NA
ATOM     39  C   UNL A   1      40.614  31.056  30.105  1.00  0.00     0.031 C 
ATOM     40  C   UNL A   1      39.754  26.549  28.031  1.00  0.00     0.029 A 
ATOM     41  N   UNL A   1      41.835  26.992  28.714  1.00  0.00    -0.354 N 
ATOM     42  C   UNL A   1      42.876  30.846  30.350  1.00  0.00     0.074 A 
ATOM     43  C   UNL A   1      41.718  31.708  30.436  1.00  0.00     0.031 C 
ATOM     44  C   UNL A   1      40.504  25.467  27.763  1.00  0.00     0.029 A 
ATOM     45  C   UNL A   1      41.878  25.729  28.173  1.00  0.00     0.049 A 
ATOM     46  H   UNL A   1      42.622  27.442  29.096  1.00  0.00     0.167 HD
ATOM     47  C   UNL A   1      44.120  31.200  30.751  1.00  0.00     0.037 A 
ATOM     48  C   UNL A   1      42.912  24.880  28.017  1.00  0.00     0.037 A 
ATOM     49  C   UNL A   1      45.265  30.331  30.703  1.00  0.00     0.049 A 
ATOM     50  C   UNL A   1      44.279  25.290  28.488  1.00  0.00     0.074 A 
ATOM     51  C   UNL A   1      46.554  30.579  31.144  1.00  0.00     0.029 A 
ATOM     52  N   UNL A   1      45.258  29.043  30.190  1.00  0.00    -0.354 N 
ATOM     53  N   UNL A   1      44.660  26.416  29.041  1.00  0.00    -0.248 NA
ATOM     54  C   UNL A   1      45.362  24.310  28.319  1.00  0.00     0.031 C 
ATOM     55  C   UNL A   1      47.334  29.450  30.869  1.00  0.00     0.029 A 
ATOM     56  C   UNL A   1      46.521  28.487  30.294  1.00  0.00     0.049 A 
ATOM     57  H   UNL A   1      44.471  28.591  29.809  1.00  0.00     0.167 HD
ATOM     58  C   UNL A   1      46.014  26.269  29.311  1.00  0.00     0.074 A 
ATOM     59  C   UNL A   1      46.386  24.940  28.874  1.00  0.00     0.031 C 
ATOM     60  C   UNL A   1      46.872  27.157  29.869  1.00  0.00     0.037 A 
BRANCH  47  61
ATOM     61  C   UNL A   1      44.301  32.587  31.296  1.00  0.00     0.057 A 
ATOM     62  C   UNL A   1      44.627  33.666  30.465  1.00  0.00     0.134 A 
ATOM     63  C   UNL A   1      44.112  32.854  32.657  1.00  0.00     0.134 A 
ATOM     64  F   UNL A   1      44.834  33.476  29.152  1.00  0.00    -0.206 F 
ATOM     65  C   UNL A   1      44.786  34.957  30.971  1.00  0.00     0.040 A 
ATOM     66  C   UNL A   1      44.241  34.145  33.172  1.00  0.00     0.040 A 
ATOM     67  F   UNL A   1      43.791  31.868  33.508  1.00  0.00    -0.206 F 
ATOM     68  C   UNL A   1      44.585  35.201  32.328  1.00  0.00     0.006 A 
ENDBRANCH  47  61
BRANCH  48  69
ATOM     69  C   UNL A   1      42.697  23.543  27.405  1.00  0.00     0.057 A 
ATOM     70  C   UNL A   1      42.833  23.353  26.025  1.00  0.00     0.134 A 
ATOM     71  C   UNL A   1      42.330  22.435  28.176  1.00  0.00     0.134 A 
ATOM     72  F   UNL A   1      43.162  24.382  25.232  1.00  0.00    -0.206 F 
ATOM     73  C   UNL A   1      42.590  22.115  25.429  1.00  0.00     0.040 A 
ATOM     74  C   UNL A   1      42.108  21.183  27.597  1.00  0.00     0.040 A 
ATOM     75  F   UNL A   1      42.192  22.548  29.504  1.00  0.00    -0.206 F 
ATOM     76  C   UNL A   1      42.229  21.024  26.217  1.00  0.00     0.006 A 
ENDBRANCH  48  69
BRANCH  60  77
ATOM     77  C   UNL A   1      48.287  26.707  30.076  1.00  0.00     0.057 A 
ATOM     78  C   UNL A   1      48.674  25.979  31.207  1.00  0.00     0.134 A 
ATOM     79  C   UNL A   1      49.265  26.972  29.109  1.00  0.00     0.134 A 
ATOM     80  F   UNL A   1      47.787  25.705  32.176  1.00  0.00    -0.206 F 
ATOM     81  C   UNL A   1      49.990  25.547  31.380  1.00  0.00     0.040 A 
ATOM     82  C   UNL A   1      50.578  26.524  29.259  1.00  0.00     0.040 A 
ATOM     83  F   UNL A   1      48.958  27.659  27.999  1.00  0.00    -0.206 F 
ATOM     84  C   UNL A   1      50.945  25.813  30.400  1.00  0.00     0.006 A 
ENDBRANCH  60  77
ENDBRANCH  34  35
ENDBRANCH  26  29
ENDBRANCH  24  25
ENDBRANCH   1  24
TORSDOF 13
ENDMDL
