MODEL 1
REMARK VINA RESULT:     -12.5      0.000      0.000
REMARK SMILES CCOC(=O)c1c(NC(=O)[C@H]2[C@@H]3CC[C@@H](C3)[C@@H]2C(=O)NCCCCNC(=O)c2ccc(-c3c4nc(c(-c5c(F)cccc5F)c5ccc([nH]5)c(-c5c(F)cccc5F)c5nc(c(-c6c(F)cccc6F)c6ccc3[nH]6)C=C5)C=C4)cc2)sc2c1CCCC2
REMARK SMILES IDX 21 1 20 2 18 3 19 4 17 6 11 7 12 8 13 9 16 10 15 11 14 12
REMARK SMILES IDX 9 13 8 14 10 16 7 17 6 18 84 19 82 20 83 21 85 22 88 23
REMARK SMILES IDX 86 24 87 25 4 26 5 27 3 28 2 29 1 30 22 31 23 32 24 33 25 34
REMARK SMILES IDX 26 35 27 37 28 38 29 39 81 40 30 41 80 42 31 43 32 44 33 45
REMARK SMILES IDX 74 46 34 47 79 48 73 49 75 50 35 51 78 52 72 53 71 54 36 56
REMARK SMILES IDX 62 57 45 58 61 59 46 60 49 61 60 62 76 63 47 64 48 65 59 67
REMARK SMILES IDX 77 68 50 69 37 70 38 71 43 72 39 73 40 74 42 75 44 76 41 77
REMARK SMILES IDX 63 78 64 79 69 80 65 81 66 82 68 83 70 84 67 85 51 86 52 87
REMARK SMILES IDX 57 88 53 89 54 90 56 91 58 92 55 93
REMARK H PARENT 20 5 8 15 25 36 75 55 49 66
REMARK Flexibility Score: inf
ROOT
ATOM      1  C   UNL A   1      36.693  22.433  24.192  1.00  0.00     0.116 C 
ENDROOT
BRANCH   1   2
ATOM      2  N   UNL A   1      36.078  23.521  24.928  1.00  0.00    -0.356 N 
ATOM      3  C   UNL A   1      34.960  24.253  24.665  1.00  0.00     0.224 C 
ATOM      4  O   UNL A   1      34.668  25.121  25.489  1.00  0.00    -0.275 OA
ATOM      5  H   UNL A   1      36.547  23.773  25.757  1.00  0.00     0.163 HD
BRANCH   3   6
ATOM      6  C   UNL A   1      34.074  23.940  23.458  1.00  0.00     0.094 C 
ATOM      7  C   UNL A   1      32.860  24.878  23.178  1.00  0.00     0.094 C 
ATOM      8  C   UNL A   1      31.700  23.871  22.928  1.00  0.00     0.002 C 
ATOM      9  C   UNL A   1      31.207  23.337  24.276  1.00  0.00     0.005 C 
ATOM     10  C   UNL A   1      32.419  22.637  22.373  1.00  0.00     0.009 C 
ATOM     11  C   UNL A   1      33.379  22.551  23.558  1.00  0.00     0.002 C 
ATOM     12  C   UNL A   1      32.382  22.470  24.738  1.00  0.00     0.005 C 
BRANCH   7  13
ATOM     13  C   UNL A   1      33.034  25.745  21.938  1.00  0.00     0.229 C 
ATOM     14  N   UNL A   1      32.730  27.070  21.922  1.00  0.00    -0.317 N 
ATOM     15  H   UNL A   1      32.804  27.478  21.030  1.00  0.00     0.170 HD
ATOM     16  O   UNL A   1      33.370  25.252  20.854  1.00  0.00    -0.274 OA
BRANCH  14  17
ATOM     17  C   UNL A   1      32.341  27.953  22.899  1.00  0.00     0.110 A 
ATOM     18  C   UNL A   1      31.237  28.708  23.245  1.00  0.00     0.098 A 
ATOM     19  C   UNL A   1      31.538  29.568  24.371  1.00  0.00    -0.017 A 
ATOM     20  S   UNL A   1      33.604  28.098  24.052  1.00  0.00    -0.122 S 
ATOM     21  C   UNL A   1      32.777  29.295  24.912  1.00  0.00     0.011 A 
ATOM     22  C   UNL A   1      30.594  30.545  25.014  1.00  0.00     0.038 C 
ATOM     23  C   UNL A   1      33.346  29.935  26.139  1.00  0.00     0.047 C 
ATOM     24  C   UNL A   1      31.304  31.439  26.040  1.00  0.00     0.005 C 
ATOM     25  C   UNL A   1      32.235  30.623  26.946  1.00  0.00     0.006 C 
BRANCH  18  26
ATOM     26  C   UNL A   1      29.879  28.574  22.754  1.00  0.00     0.341 C 
ATOM     27  O   UNL A   1      29.025  27.928  23.350  1.00  0.00    -0.246 OA
BRANCH  26  28
ATOM     28  O   UNL A   1      29.642  29.358  21.668  1.00  0.00    -0.462 OA
BRANCH  28  29
ATOM     29  C   UNL A   1      28.460  30.173  21.704  1.00  0.00     0.230 C 
ATOM     30  C   UNL A   1      28.799  31.634  21.921  1.00  0.00     0.049 C 
ENDBRANCH  28  29
ENDBRANCH  26  28
ENDBRANCH  18  26
ENDBRANCH  14  17
ENDBRANCH   7  13
ENDBRANCH   3   6
ENDBRANCH   1   2
BRANCH   1  31
ATOM     31  C   UNL A   1      36.525  21.120  24.946  1.00  0.00     0.023 C 
BRANCH  31  32
ATOM     32  C   UNL A   1      37.715  20.166  24.822  1.00  0.00     0.023 C 
BRANCH  32  33
ATOM     33  C   UNL A   1      38.893  20.541  25.714  1.00  0.00     0.116 C 
BRANCH  33  34
ATOM     34  N   UNL A   1      39.922  19.510  25.752  1.00  0.00    -0.352 N 
ATOM     35  C   UNL A   1      41.242  19.584  26.129  1.00  0.00     0.251 C 
ATOM     36  H   UNL A   1      39.625  18.617  25.459  1.00  0.00     0.163 HD
ATOM     37  O   UNL A   1      41.970  18.602  26.005  1.00  0.00    -0.269 OA
BRANCH  35  38
ATOM     38  C   UNL A   1      41.816  20.854  26.631  1.00  0.00     0.039 A 
ATOM     39  C   UNL A   1      42.386  21.737  25.707  1.00  0.00     0.014 A 
ATOM     40  C   UNL A   1      41.784  21.193  27.984  1.00  0.00     0.014 A 
ATOM     41  C   UNL A   1      42.827  22.997  26.121  1.00  0.00     0.010 A 
ATOM     42  C   UNL A   1      42.163  22.473  28.388  1.00  0.00     0.010 A 
ATOM     43  C   UNL A   1      42.662  23.395  27.456  1.00  0.00    -0.014 A 
BRANCH  43  44
ATOM     44  C   UNL A   1      42.940  24.786  27.896  1.00  0.00     0.031 A 
ATOM     45  C   UNL A   1      44.324  25.191  28.317  1.00  0.00     0.074 A 
ATOM     46  C   UNL A   1      41.919  25.653  28.034  1.00  0.00     0.049 A 
ATOM     47  N   UNL A   1      44.718  26.286  28.916  1.00  0.00    -0.248 NA
ATOM     48  C   UNL A   1      45.401  24.224  28.057  1.00  0.00     0.031 C 
ATOM     49  C   UNL A   1      40.518  25.376  27.706  1.00  0.00     0.029 A 
ATOM     50  N   UNL A   1      41.897  26.939  28.516  1.00  0.00    -0.354 N 
ATOM     51  C   UNL A   1      46.076  26.120  29.150  1.00  0.00     0.074 A 
ATOM     52  C   UNL A   1      46.439  24.817  28.631  1.00  0.00     0.031 C 
ATOM     53  C   UNL A   1      39.776  26.458  27.988  1.00  0.00     0.029 A 
ATOM     54  C   UNL A   1      40.640  27.490  28.556  1.00  0.00     0.049 A 
ATOM     55  H   UNL A   1      42.705  27.420  28.805  1.00  0.00     0.167 HD
ATOM     56  C   UNL A   1      46.941  26.976  29.743  1.00  0.00     0.037 A 
ATOM     57  C   UNL A   1      40.220  28.681  29.020  1.00  0.00     0.037 A 
ATOM     58  C   UNL A   1      46.599  28.295  30.204  1.00  0.00     0.049 A 
ATOM     59  C   UNL A   1      41.208  29.631  29.627  1.00  0.00     0.074 A 
ATOM     60  C   UNL A   1      47.432  29.267  30.734  1.00  0.00     0.029 A 
ATOM     61  N   UNL A   1      45.322  28.831  30.182  1.00  0.00    -0.354 N 
ATOM     62  N   UNL A   1      42.494  29.471  29.816  1.00  0.00    -0.248 NA
ATOM     63  C   UNL A   1      40.685  30.923  30.095  1.00  0.00     0.031 C 
ATOM     64  C   UNL A   1      46.653  30.387  31.049  1.00  0.00     0.029 A 
ATOM     65  C   UNL A   1      45.341  30.117  30.699  1.00  0.00     0.049 A 
ATOM     66  H   UNL A   1      44.520  28.368  29.850  1.00  0.00     0.167 HD
ATOM     67  C   UNL A   1      42.936  30.641  30.419  1.00  0.00     0.074 A 
ATOM     68  C   UNL A   1      41.783  31.508  30.553  1.00  0.00     0.031 C 
ATOM     69  C   UNL A   1      44.186  30.964  30.827  1.00  0.00     0.037 A 
BRANCH  56  70
ATOM     70  C   UNL A   1      48.350  26.506  29.930  1.00  0.00     0.057 A 
ATOM     71  C   UNL A   1      49.354  26.794  28.998  1.00  0.00     0.134 A 
ATOM     72  C   UNL A   1      48.711  25.781  31.072  1.00  0.00     0.134 A 
ATOM     73  F   UNL A   1      49.065  27.474  27.877  1.00  0.00    -0.206 F 
ATOM     74  C   UNL A   1      50.667  26.360  29.185  1.00  0.00     0.040 A 
ATOM     75  C   UNL A   1      50.025  25.356  31.279  1.00  0.00     0.040 A 
ATOM     76  F   UNL A   1      47.796  25.476  32.003  1.00  0.00    -0.206 F 
ATOM     77  C   UNL A   1      51.005  25.643  30.332  1.00  0.00     0.006 A 
ENDBRANCH  56  70
BRANCH  57  78
ATOM     78  C   UNL A   1      38.786  29.041  28.929  1.00  0.00     0.057 A 
ATOM     79  C   UNL A   1      37.946  28.914  30.039  1.00  0.00     0.134 A 
ATOM     80  C   UNL A   1      38.228  29.527  27.742  1.00  0.00     0.134 A 
ATOM     81  F   UNL A   1      38.425  28.436  31.197  1.00  0.00    -0.206 F 
ATOM     82  C   UNL A   1      36.594  29.250  29.971  1.00  0.00     0.040 A 
ATOM     83  C   UNL A   1      36.881  29.880  27.663  1.00  0.00     0.040 A 
ATOM     84  F   UNL A   1      38.989  29.673  26.647  1.00  0.00    -0.206 F 
ATOM     85  C   UNL A   1      36.060  29.739  28.780  1.00  0.00     0.006 A 
ENDBRANCH  57  78
BRANCH  69  86
ATOM     86  C   UNL A   1      44.369  32.313  31.447  1.00  0.00     0.057 A 
ATOM     87  C   UNL A   1      44.273  32.498  32.831  1.00  0.00     0.134 A 
ATOM     88  C   UNL A   1      44.669  33.429  30.658  1.00  0.00     0.134 A 
ATOM     89  F   UNL A   1      43.972  31.467  33.635  1.00  0.00    -0.206 F 
ATOM     90  C   UNL A   1      44.464  33.753  33.410  1.00  0.00     0.040 A 
ATOM     91  C   UNL A   1      44.874  34.686  31.226  1.00  0.00     0.040 A 
ATOM     92  F   UNL A   1      44.772  33.312  29.325  1.00  0.00    -0.206 F 
ATOM     93  C   UNL A   1      44.769  34.850  32.607  1.00  0.00     0.006 A 
ENDBRANCH  69  86
ENDBRANCH  43  44
ENDBRANCH  35  38
ENDBRANCH  33  34
ENDBRANCH  32  33
ENDBRANCH  31  32
ENDBRANCH   1  31
TORSDOF 16
ENDMDL
MODEL 2
REMARK VINA RESULT:     -12.4      3.403      9.075
REMARK SMILES CCOC(=O)c1c(NC(=O)[C@H]2[C@@H]3CC[C@@H](C3)[C@@H]2C(=O)NCCCCNC(=O)c2ccc(-c3c4nc(c(-c5c(F)cccc5F)c5ccc([nH]5)c(-c5c(F)cccc5F)c5nc(c(-c6c(F)cccc6F)c6ccc3[nH]6)C=C5)C=C4)cc2)sc2c1CCCC2
REMARK SMILES IDX 21 1 20 2 18 3 19 4 17 6 11 7 12 8 13 9 16 10 15 11 14 12
REMARK SMILES IDX 9 13 8 14 10 16 7 17 6 18 84 19 82 20 83 21 85 22 88 23
REMARK SMILES IDX 86 24 87 25 4 26 5 27 3 28 2 29 1 30 22 31 23 32 24 33 25 34
REMARK SMILES IDX 26 35 27 37 28 38 29 39 81 40 30 41 80 42 31 43 32 44 33 45
REMARK SMILES IDX 74 46 34 47 79 48 73 49 75 50 35 51 78 52 72 53 71 54 36 56
REMARK SMILES IDX 62 57 45 58 61 59 46 60 49 61 60 62 76 63 47 64 48 65 59 67
REMARK SMILES IDX 77 68 50 69 37 70 38 71 43 72 39 73 40 74 42 75 44 76 41 77
REMARK SMILES IDX 63 78 64 79 69 80 65 81 66 82 68 83 70 84 67 85 51 86 52 87
REMARK SMILES IDX 57 88 53 89 54 90 56 91 58 92 55 93
REMARK H PARENT 20 5 8 15 25 36 75 55 49 66
REMARK Flexibility Score: inf
ROOT
ATOM      1  C   UNL A   1      32.093  29.123  27.045  1.00  0.00     0.116 C 
ENDROOT
BRANCH   1   2
ATOM      2  N   UNL A   1      33.112  28.209  26.565  1.00  0.00    -0.356 N 
ATOM      3  C   UNL A   1      33.014  26.933  26.099  1.00  0.00     0.224 C 
ATOM      4  O   UNL A   1      34.066  26.397  25.744  1.00  0.00    -0.275 OA
ATOM      5  H   UNL A   1      34.027  28.571  26.577  1.00  0.00     0.163 HD
BRANCH   3   6
ATOM      6  C   UNL A   1      31.655  26.247  25.943  1.00  0.00     0.094 C 
ATOM      7  C   UNL A   1      31.634  24.760  25.480  1.00  0.00     0.094 C 
ATOM      8  C   UNL A   1      30.549  24.764  24.363  1.00  0.00     0.002 C 
ATOM      9  C   UNL A   1      31.158  25.343  23.083  1.00  0.00     0.005 C 
ATOM     10  C   UNL A   1      29.617  25.905  24.783  1.00  0.00     0.009 C 
ATOM     11  C   UNL A   1      30.754  26.923  24.869  1.00  0.00     0.002 C 
ATOM     12  C   UNL A   1      31.349  26.818  23.445  1.00  0.00     0.005 C 
BRANCH   7  13
ATOM     13  C   UNL A   1      31.210  23.787  26.573  1.00  0.00     0.229 C 
ATOM     14  N   UNL A   1      31.845  22.605  26.787  1.00  0.00    -0.317 N 
ATOM     15  H   UNL A   1      31.405  22.041  27.463  1.00  0.00     0.170 HD
ATOM     16  O   UNL A   1      30.198  23.992  27.254  1.00  0.00    -0.274 OA
BRANCH  14  17
ATOM     17  C   UNL A   1      32.976  22.039  26.253  1.00  0.00     0.110 A 
ATOM     18  C   UNL A   1      33.333  20.967  25.457  1.00  0.00     0.098 A 
ATOM     19  C   UNL A   1      34.774  20.849  25.373  1.00  0.00    -0.017 A 
ATOM     20  S   UNL A   1      34.331  23.008  26.667  1.00  0.00    -0.122 S 
ATOM     21  C   UNL A   1      35.415  21.921  25.957  1.00  0.00     0.011 A 
ATOM     22  C   UNL A   1      35.531  19.794  24.616  1.00  0.00     0.038 C 
ATOM     23  C   UNL A   1      36.893  22.154  25.955  1.00  0.00     0.047 C 
ATOM     24  C   UNL A   1      37.036  19.843  24.914  1.00  0.00     0.005 C 
ATOM     25  C   UNL A   1      37.568  21.282  24.885  1.00  0.00     0.006 C 
BRANCH  18  26
ATOM     26  C   UNL A   1      32.470  20.157  24.618  1.00  0.00     0.341 C 
ATOM     27  O   UNL A   1      32.304  20.390  23.427  1.00  0.00    -0.246 OA
BRANCH  26  28
ATOM     28  O   UNL A   1      32.008  19.053  25.265  1.00  0.00    -0.462 OA
BRANCH  28  29
ATOM     29  C   UNL A   1      32.348  17.779  24.696  1.00  0.00     0.230 C 
ATOM     30  C   UNL A   1      33.219  16.967  25.632  1.00  0.00     0.049 C 
ENDBRANCH  28  29
ENDBRANCH  26  28
ENDBRANCH  18  26
ENDBRANCH  14  17
ENDBRANCH   7  13
ENDBRANCH   3   6
ENDBRANCH   1   2
BRANCH   1  31
ATOM     31  C   UNL A   1      31.826  30.211  26.012  1.00  0.00     0.023 C 
BRANCH  31  32
ATOM     32  C   UNL A   1      31.526  31.587  26.611  1.00  0.00     0.023 C 
BRANCH  32  33
ATOM     33  C   UNL A   1      32.738  32.252  27.252  1.00  0.00     0.116 C 
BRANCH  33  34
ATOM     34  N   UNL A   1      32.489  33.639  27.624  1.00  0.00    -0.352 N 
ATOM     35  C   UNL A   1      33.206  34.485  28.437  1.00  0.00     0.251 C 
ATOM     36  H   UNL A   1      31.678  34.035  27.229  1.00  0.00     0.163 HD
ATOM     37  O   UNL A   1      32.772  35.606  28.689  1.00  0.00    -0.269 OA
BRANCH  35  38
ATOM     38  C   UNL A   1      34.471  34.038  29.065  1.00  0.00     0.039 A 
ATOM     39  C   UNL A   1      34.410  33.426  30.323  1.00  0.00     0.014 A 
ATOM     40  C   UNL A   1      35.705  34.196  28.432  1.00  0.00     0.014 A 
ATOM     41  C   UNL A   1      35.563  32.882  30.894  1.00  0.00     0.010 A 
ATOM     42  C   UNL A   1      36.842  33.597  28.970  1.00  0.00     0.010 A 
ATOM     43  C   UNL A   1      36.777  32.912  30.192  1.00  0.00    -0.014 A 
BRANCH  43  44
ATOM     44  C   UNL A   1      37.977  32.182  30.675  1.00  0.00     0.031 A 
ATOM     45  C   UNL A   1      38.882  32.797  31.703  1.00  0.00     0.074 A 
ATOM     46  C   UNL A   1      38.320  31.015  30.095  1.00  0.00     0.049 A 
ATOM     47  N   UNL A   1      40.069  32.411  32.096  1.00  0.00    -0.248 NA
ATOM     48  C   UNL A   1      38.400  34.026  32.353  1.00  0.00     0.031 C 
ATOM     49  C   UNL A   1      37.556  30.328  29.050  1.00  0.00     0.029 A 
ATOM     50  N   UNL A   1      39.418  30.213  30.282  1.00  0.00    -0.354 N 
ATOM     51  C   UNL A   1      40.498  33.373  33.000  1.00  0.00     0.074 A 
ATOM     52  C   UNL A   1      39.446  34.363  33.097  1.00  0.00     0.031 C 
ATOM     53  C   UNL A   1      38.203  29.207  28.695  1.00  0.00     0.029 A 
ATOM     54  C   UNL A   1      39.447  29.118  29.455  1.00  0.00     0.049 A 
ATOM     55  H   UNL A   1      40.119  30.405  30.946  1.00  0.00     0.167 HD
ATOM     56  C   UNL A   1      41.663  33.425  33.688  1.00  0.00     0.037 A 
ATOM     57  C   UNL A   1      40.379  28.159  29.302  1.00  0.00     0.037 A 
ATOM     58  C   UNL A   1      42.685  32.413  33.643  1.00  0.00     0.049 A 
ATOM     59  C   UNL A   1      41.639  28.214  30.113  1.00  0.00     0.074 A 
ATOM     60  C   UNL A   1      43.858  32.338  34.376  1.00  0.00     0.029 A 
ATOM     61  N   UNL A   1      42.651  31.295  32.826  1.00  0.00    -0.354 N 
ATOM     62  N   UNL A   1      42.019  29.115  30.985  1.00  0.00    -0.248 NA
ATOM     63  C   UNL A   1      42.606  27.124  29.911  1.00  0.00     0.031 C 
ATOM     64  C   UNL A   1      44.543  31.179  33.988  1.00  0.00     0.029 A 
ATOM     65  C   UNL A   1      43.787  30.528  33.028  1.00  0.00     0.049 A 
ATOM     66  H   UNL A   1      41.928  31.077  32.194  1.00  0.00     0.167 HD
ATOM     67  C   UNL A   1      43.262  28.701  31.439  1.00  0.00     0.074 A 
ATOM     68  C   UNL A   1      43.570  27.460  30.757  1.00  0.00     0.031 C 
ATOM     69  C   UNL A   1      44.078  29.299  32.340  1.00  0.00     0.037 A 
BRANCH  56  70
ATOM     70  C   UNL A   1      41.897  34.625  34.551  1.00  0.00     0.057 A 
ATOM     71  C   UNL A   1      41.504  34.657  35.893  1.00  0.00     0.134 A 
ATOM     72  C   UNL A   1      42.550  35.752  34.037  1.00  0.00     0.134 A 
ATOM     73  F   UNL A   1      40.862  33.611  36.438  1.00  0.00    -0.206 F 
ATOM     74  C   UNL A   1      41.734  35.777  36.693  1.00  0.00     0.040 A 
ATOM     75  C   UNL A   1      42.802  36.872  34.831  1.00  0.00     0.040 A 
ATOM     76  F   UNL A   1      42.953  35.782  32.758  1.00  0.00    -0.206 F 
ATOM     77  C   UNL A   1      42.390  36.887  36.162  1.00  0.00     0.006 A 
ENDBRANCH  56  70
BRANCH  57  78
ATOM     78  C   UNL A   1      40.154  27.062  28.334  1.00  0.00     0.057 A 
ATOM     79  C   UNL A   1      39.375  25.953  28.679  1.00  0.00     0.134 A 
ATOM     80  C   UNL A   1      40.701  27.099  27.047  1.00  0.00     0.134 A 
ATOM     81  F   UNL A   1      38.842  25.858  29.906  1.00  0.00    -0.206 F 
ATOM     82  C   UNL A   1      39.152  24.911  27.779  1.00  0.00     0.040 A 
ATOM     83  C   UNL A   1      40.475  26.071  26.131  1.00  0.00     0.040 A 
ATOM     84  F   UNL A   1      41.454  28.140  26.661  1.00  0.00    -0.206 F 
ATOM     85  C   UNL A   1      39.700  24.972  26.499  1.00  0.00     0.006 A 
ENDBRANCH  57  78
BRANCH  69  86
ATOM     86  C   UNL A   1      45.372  28.612  32.643  1.00  0.00     0.057 A 
ATOM     87  C   UNL A   1      45.461  27.634  33.640  1.00  0.00     0.134 A 
ATOM     88  C   UNL A   1      46.529  28.911  31.915  1.00  0.00     0.134 A 
ATOM     89  F   UNL A   1      44.388  27.318  34.379  1.00  0.00    -0.206 F 
ATOM     90  C   UNL A   1      46.664  26.980  33.909  1.00  0.00     0.040 A 
ATOM     91  C   UNL A   1      47.734  28.255  32.167  1.00  0.00     0.040 A 
ATOM     92  F   UNL A   1      46.504  29.841  30.948  1.00  0.00    -0.206 F 
ATOM     93  C   UNL A   1      47.804  27.288  33.168  1.00  0.00     0.006 A 
ENDBRANCH  69  86
ENDBRANCH  43  44
ENDBRANCH  35  38
ENDBRANCH  33  34
ENDBRANCH  32  33
ENDBRANCH  31  32
ENDBRANCH   1  31
TORSDOF 16
ENDMDL
MODEL 3
REMARK VINA RESULT:     -12.3      4.097      9.240
REMARK SMILES CCOC(=O)c1c(NC(=O)[C@H]2[C@@H]3CC[C@@H](C3)[C@@H]2C(=O)NCCCCNC(=O)c2ccc(-c3c4nc(c(-c5c(F)cccc5F)c5ccc([nH]5)c(-c5c(F)cccc5F)c5nc(c(-c6c(F)cccc6F)c6ccc3[nH]6)C=C5)C=C4)cc2)sc2c1CCCC2
REMARK SMILES IDX 21 1 20 2 18 3 19 4 17 6 11 7 12 8 13 9 16 10 15 11 14 12
REMARK SMILES IDX 9 13 8 14 10 16 7 17 6 18 84 19 82 20 83 21 85 22 88 23
REMARK SMILES IDX 86 24 87 25 4 26 5 27 3 28 2 29 1 30 22 31 23 32 24 33 25 34
REMARK SMILES IDX 26 35 27 37 28 38 29 39 81 40 30 41 80 42 31 43 32 44 33 45
REMARK SMILES IDX 74 46 34 47 79 48 73 49 75 50 35 51 78 52 72 53 71 54 36 56
REMARK SMILES IDX 62 57 45 58 61 59 46 60 49 61 60 62 76 63 47 64 48 65 59 67
REMARK SMILES IDX 77 68 50 69 37 70 38 71 43 72 39 73 40 74 42 75 44 76 41 77
REMARK SMILES IDX 63 78 64 79 69 80 65 81 66 82 68 83 70 84 67 85 51 86 52 87
REMARK SMILES IDX 57 88 53 89 54 90 56 91 58 92 55 93
REMARK H PARENT 20 5 8 15 25 36 75 55 49 66
REMARK Flexibility Score: inf
ROOT
ATOM      1  C   UNL A   1      32.923  28.812  26.785  1.00  0.00     0.116 C 
ENDROOT
BRANCH   1   2
ATOM      2  N   UNL A   1      33.715  27.857  26.033  1.00  0.00    -0.356 N 
ATOM      3  C   UNL A   1      33.386  26.639  25.517  1.00  0.00     0.224 C 
ATOM      4  O   UNL A   1      34.275  26.046  24.904  1.00  0.00    -0.275 OA
ATOM      5  H   UNL A   1      34.644  28.134  25.867  1.00  0.00     0.163 HD
BRANCH   3   6
ATOM      6  C   UNL A   1      31.960  26.093  25.620  1.00  0.00     0.094 C 
ATOM      7  C   UNL A   1      31.728  24.587  25.294  1.00  0.00     0.094 C 
ATOM      8  C   UNL A   1      30.490  24.627  24.351  1.00  0.00     0.002 C 
ATOM      9  C   UNL A   1      30.947  25.046  22.951  1.00  0.00     0.005 C 
ATOM     10  C   UNL A   1      29.746  25.888  24.803  1.00  0.00     0.009 C 
ATOM     11  C   UNL A   1      30.973  26.783  24.634  1.00  0.00     0.002 C 
ATOM     12  C   UNL A   1      31.330  26.515  23.153  1.00  0.00     0.005 C 
BRANCH   7  13
ATOM     13  C   UNL A   1      31.387  23.745  26.517  1.00  0.00     0.229 C 
ATOM     14  N   UNL A   1      32.051  22.599  26.824  1.00  0.00    -0.317 N 
ATOM     15  H   UNL A   1      31.662  22.114  27.587  1.00  0.00     0.170 HD
ATOM     16  O   UNL A   1      30.418  24.020  27.233  1.00  0.00    -0.274 OA
BRANCH  14  17
ATOM     17  C   UNL A   1      33.153  21.982  26.287  1.00  0.00     0.110 A 
ATOM     18  C   UNL A   1      33.464  20.863  25.538  1.00  0.00     0.098 A 
ATOM     19  C   UNL A   1      34.899  20.710  25.417  1.00  0.00    -0.017 A 
ATOM     20  S   UNL A   1      34.539  22.941  26.610  1.00  0.00    -0.122 S 
ATOM     21  C   UNL A   1      35.578  21.796  25.926  1.00  0.00     0.011 A 
ATOM     22  C   UNL A   1      35.611  19.601  24.693  1.00  0.00     0.038 C 
ATOM     23  C   UNL A   1      37.060  21.996  25.869  1.00  0.00     0.047 C 
ATOM     24  C   UNL A   1      37.125  19.633  24.944  1.00  0.00     0.005 C 
ATOM     25  C   UNL A   1      37.684  21.056  24.825  1.00  0.00     0.006 C 
BRANCH  18  26
ATOM     26  C   UNL A   1      32.559  20.031  24.767  1.00  0.00     0.341 C 
ATOM     27  O   UNL A   1      32.236  20.301  23.617  1.00  0.00    -0.246 OA
BRANCH  26  28
ATOM     28  O   UNL A   1      32.250  18.872  25.409  1.00  0.00    -0.462 OA
BRANCH  28  29
ATOM     29  C   UNL A   1      32.470  17.652  24.684  1.00  0.00     0.230 C 
ATOM     30  C   UNL A   1      32.814  16.507  25.615  1.00  0.00     0.049 C 
ENDBRANCH  28  29
ENDBRANCH  26  28
ENDBRANCH  18  26
ENDBRANCH  14  17
ENDBRANCH   7  13
ENDBRANCH   3   6
ENDBRANCH   1   2
BRANCH   1  31
ATOM     31  C   UNL A   1      32.293  29.834  25.848  1.00  0.00     0.023 C 
BRANCH  31  32
ATOM     32  C   UNL A   1      31.811  31.111  26.541  1.00  0.00     0.023 C 
BRANCH  32  33
ATOM     33  C   UNL A   1      32.917  31.866  27.268  1.00  0.00     0.116 C 
BRANCH  33  34
ATOM     34  N   UNL A   1      32.564  33.252  27.548  1.00  0.00    -0.352 N 
ATOM     35  C   UNL A   1      33.148  34.166  28.392  1.00  0.00     0.251 C 
ATOM     36  H   UNL A   1      31.780  33.588  27.054  1.00  0.00     0.163 HD
ATOM     37  O   UNL A   1      32.637  35.272  28.546  1.00  0.00    -0.269 OA
BRANCH  35  38
ATOM     38  C   UNL A   1      34.360  33.813  29.168  1.00  0.00     0.039 A 
ATOM     39  C   UNL A   1      34.227  32.927  30.244  1.00  0.00     0.014 A 
ATOM     40  C   UNL A   1      35.618  34.323  28.843  1.00  0.00     0.014 A 
ATOM     41  C   UNL A   1      35.361  32.473  30.923  1.00  0.00     0.010 A 
ATOM     42  C   UNL A   1      36.754  33.821  29.476  1.00  0.00     0.010 A 
ATOM     43  C   UNL A   1      36.638  32.873  30.504  1.00  0.00    -0.014 A 
BRANCH  43  44
ATOM     44  C   UNL A   1      37.871  32.270  31.072  1.00  0.00     0.031 A 
ATOM     45  C   UNL A   1      38.598  31.183  30.334  1.00  0.00     0.074 A 
ATOM     46  C   UNL A   1      38.267  32.618  32.311  1.00  0.00     0.049 A 
ATOM     47  N   UNL A   1      39.562  30.403  30.753  1.00  0.00    -0.248 NA
ATOM     48  C   UNL A   1      38.163  30.918  28.955  1.00  0.00     0.031 C 
ATOM     49  C   UNL A   1      37.625  33.627  33.158  1.00  0.00     0.029 A 
ATOM     50  N   UNL A   1      39.291  32.138  33.090  1.00  0.00    -0.354 N 
ATOM     51  C   UNL A   1      39.815  29.523  29.710  1.00  0.00     0.074 A 
ATOM     52  C   UNL A   1      38.902  29.863  28.638  1.00  0.00     0.031 C 
ATOM     53  C   UNL A   1      38.272  33.696  34.331  1.00  0.00     0.029 A 
ATOM     54  C   UNL A   1      39.347  32.708  34.338  1.00  0.00     0.049 A 
ATOM     55  H   UNL A   1      39.925  31.451  32.782  1.00  0.00     0.167 HD
ATOM     56  C   UNL A   1      40.726  28.523  29.651  1.00  0.00     0.037 A 
ATOM     57  C   UNL A   1      40.155  32.451  35.382  1.00  0.00     0.037 A 
ATOM     58  C   UNL A   1      41.676  28.221  30.688  1.00  0.00     0.049 A 
ATOM     59  C   UNL A   1      41.189  31.371  35.273  1.00  0.00     0.074 A 
ATOM     60  C   UNL A   1      42.697  27.284  30.676  1.00  0.00     0.029 A 
ATOM     61  N   UNL A   1      41.728  28.855  31.917  1.00  0.00    -0.354 N 
ATOM     62  N   UNL A   1      41.435  30.566  34.269  1.00  0.00    -0.248 NA
ATOM     63  C   UNL A   1      42.052  31.156  36.444  1.00  0.00     0.031 C 
ATOM     64  C   UNL A   1      43.357  27.342  31.910  1.00  0.00     0.029 A 
ATOM     65  C   UNL A   1      42.758  28.325  32.679  1.00  0.00     0.049 A 
ATOM     66  H   UNL A   1      41.125  29.576  32.209  1.00  0.00     0.167 HD
ATOM     67  C   UNL A   1      42.481  29.754  34.684  1.00  0.00     0.074 A 
ATOM     68  C   UNL A   1      42.834  30.171  36.025  1.00  0.00     0.031 C 
ATOM     69  C   UNL A   1      43.092  28.749  34.012  1.00  0.00     0.037 A 
BRANCH  56  70
ATOM     70  C   UNL A   1      40.735  27.676  28.417  1.00  0.00     0.057 A 
ATOM     71  C   UNL A   1      39.995  26.492  28.329  1.00  0.00     0.134 A 
ATOM     72  C   UNL A   1      41.473  28.067  27.293  1.00  0.00     0.134 A 
ATOM     73  F   UNL A   1      39.278  26.059  29.378  1.00  0.00    -0.206 F 
ATOM     74  C   UNL A   1      40.002  25.713  27.170  1.00  0.00     0.040 A 
ATOM     75  C   UNL A   1      41.475  27.306  26.123  1.00  0.00     0.040 A 
ATOM     76  F   UNL A   1      42.201  29.193  27.314  1.00  0.00    -0.206 F 
ATOM     77  C   UNL A   1      40.741  26.124  26.061  1.00  0.00     0.006 A 
ENDBRANCH  56  70
BRANCH  57  78
ATOM     78  C   UNL A   1      40.014  33.234  36.631  1.00  0.00     0.057 A 
ATOM     79  C   UNL A   1      39.109  32.842  37.622  1.00  0.00     0.134 A 
ATOM     80  C   UNL A   1      40.781  34.380  36.866  1.00  0.00     0.134 A 
ATOM     81  F   UNL A   1      38.336  31.762  37.440  1.00  0.00    -0.206 F 
ATOM     82  C   UNL A   1      38.964  33.568  38.804  1.00  0.00     0.040 A 
ATOM     83  C   UNL A   1      40.658  35.108  38.050  1.00  0.00     0.040 A 
ATOM     84  F   UNL A   1      41.668  34.801  35.951  1.00  0.00    -0.206 F 
ATOM     85  C   UNL A   1      39.744  34.702  39.022  1.00  0.00     0.006 A 
ENDBRANCH  57  78
BRANCH  69  86
ATOM     86  C   UNL A   1      44.208  28.043  34.716  1.00  0.00     0.057 A 
ATOM     87  C   UNL A   1      45.520  28.525  34.666  1.00  0.00     0.134 A 
ATOM     88  C   UNL A   1      43.963  26.890  35.469  1.00  0.00     0.134 A 
ATOM     89  F   UNL A   1      45.817  29.618  33.946  1.00  0.00    -0.206 F 
ATOM     90  C   UNL A   1      46.557  27.878  35.339  1.00  0.00     0.040 A 
ATOM     91  C   UNL A   1      44.988  26.241  36.157  1.00  0.00     0.040 A 
ATOM     92  F   UNL A   1      42.724  26.381  35.552  1.00  0.00    -0.206 F 
ATOM     93  C   UNL A   1      46.291  26.734  36.090  1.00  0.00     0.006 A 
ENDBRANCH  69  86
ENDBRANCH  43  44
ENDBRANCH  35  38
ENDBRANCH  33  34
ENDBRANCH  32  33
ENDBRANCH  31  32
ENDBRANCH   1  31
TORSDOF 16
ENDMDL
