MODEL 1
REMARK VINA RESULT:      -8.8      0.000      0.000
REMARK SMILES O=C(C[NH2+]C[C@@H]1CCCO1)NCCCCNC(=O)c1ccc(-c2c3nc(c(-c4c(F)cccc4F)c4ccc([nH]4)c(-c4c(F)cccc4F)c4nc(c(-c5c(F)cccc5F)c5ccc2[nH]5)C=C4)C=C3)cc1
REMARK SMILES IDX 13 1 12 2 11 3 1 4 2 5 3 7 4 8 5 11 6 12 7 13 10 14 8 15
REMARK SMILES IDX 9 16 14 17 15 18 16 19 17 20 18 22 19 23 20 24 72 25 21 26
REMARK SMILES IDX 71 27 22 28 23 29 24 30 65 31 25 32 70 33 64 34 66 35 26 36
REMARK SMILES IDX 69 37 63 38 62 39 27 41 53 42 36 43 52 44 37 45 40 46 51 47
REMARK SMILES IDX 67 48 38 49 39 50 50 52 68 53 41 54 28 55 29 56 34 57 30 58
REMARK SMILES IDX 31 59 33 60 35 61 32 62 54 63 55 64 60 65 56 66 57 67 59 68
REMARK SMILES IDX 61 69 58 70 42 71 43 72 48 73 44 74 45 75 47 76 49 77 46 78
REMARK H PARENT 11 6 4 9 4 10 16 21 66 40 40 51
REMARK Flexibility Score: inf
ROOT
ATOM      1  C   UNL A   1      45.417  21.447  24.905  1.00  0.00     0.023 C 
ENDROOT
BRANCH   1   2
ATOM      2  C   UNL A   1      45.069  22.649  24.030  1.00  0.00     0.116 C 
BRANCH   2   3
ATOM      3  N   UNL A   1      45.355  23.904  24.689  1.00  0.00    -0.351 N 
ATOM      4  O   UNL A   1      47.421  24.221  23.735  1.00  0.00    -0.269 OA
ATOM      5  C   UNL A   1      46.531  24.595  24.492  1.00  0.00     0.275 C 
ATOM      6  H   UNL A   1      44.683  24.279  25.304  1.00  0.00     0.163 HD
BRANCH   5   7
ATOM      7  C   UNL A   1      46.658  25.855  25.359  1.00  0.00     0.361 C 
BRANCH   7   8
ATOM      8  N   UNL A   1      45.831  26.942  24.788  1.00  0.00    -0.336 N 
ATOM      9  H   UNL A   1      44.983  26.539  24.389  1.00  0.00     0.346 HD
ATOM     10  H   UNL A   1      46.378  27.418  24.072  1.00  0.00     0.346 HD
BRANCH   8  11
ATOM     11  C   UNL A   1      45.454  27.931  25.820  1.00  0.00     0.293 C 
BRANCH  11  12
ATOM     12  C   UNL A   1      43.960  27.871  26.210  1.00  0.00     0.173 C 
ATOM     13  C   UNL A   1      43.055  27.247  25.162  1.00  0.00     0.040 C 
ATOM     14  O   UNL A   1      43.448  29.206  26.414  1.00  0.00    -0.372 OA
ATOM     15  C   UNL A   1      41.718  27.854  25.520  1.00  0.00     0.031 C 
ATOM     16  C   UNL A   1      42.098  29.258  25.942  1.00  0.00     0.161 C 
ENDBRANCH  11  12
ENDBRANCH   8  11
ENDBRANCH   7   8
ENDBRANCH   5   7
ENDBRANCH   2   3
ENDBRANCH   1   2
BRANCH   1  17
ATOM     17  C   UNL A   1      44.794  20.124  24.454  1.00  0.00     0.023 C 
BRANCH  17  18
ATOM     18  C   UNL A   1      44.270  19.233  25.575  1.00  0.00     0.116 C 
BRANCH  18  19
ATOM     19  N   UNL A   1      42.854  18.925  25.443  1.00  0.00    -0.352 N 
ATOM     20  C   UNL A   1      41.762  19.629  25.888  1.00  0.00     0.251 C 
ATOM     21  H   UNL A   1      42.649  18.090  24.963  1.00  0.00     0.163 HD
ATOM     22  O   UNL A   1      40.637  19.139  25.802  1.00  0.00    -0.269 OA
BRANCH  20  23
ATOM     23  C   UNL A   1      41.933  20.964  26.504  1.00  0.00     0.039 A 
ATOM     24  C   UNL A   1      42.124  21.048  27.886  1.00  0.00     0.014 A 
ATOM     25  C   UNL A   1      41.907  22.128  25.731  1.00  0.00     0.014 A 
ATOM     26  C   UNL A   1      42.362  22.289  28.480  1.00  0.00     0.010 A 
ATOM     27  C   UNL A   1      42.220  23.355  26.313  1.00  0.00     0.010 A 
ATOM     28  C   UNL A   1      42.455  23.449  27.693  1.00  0.00    -0.014 A 
BRANCH  28  29
ATOM     29  C   UNL A   1      42.806  24.763  28.295  1.00  0.00     0.031 A 
ATOM     30  C   UNL A   1      41.747  25.807  28.518  1.00  0.00     0.074 A 
ATOM     31  C   UNL A   1      44.094  25.041  28.583  1.00  0.00     0.049 A 
ATOM     32  N   UNL A   1      41.874  27.031  28.965  1.00  0.00    -0.248 NA
ATOM     33  C   UNL A   1      40.366  25.435  28.172  1.00  0.00     0.031 C 
ATOM     34  C   UNL A   1      45.223  24.134  28.372  1.00  0.00     0.029 A 
ATOM     35  N   UNL A   1      44.671  26.172  29.104  1.00  0.00    -0.354 N 
ATOM     36  C   UNL A   1      40.595  27.576  28.945  1.00  0.00     0.074 A 
ATOM     37  C   UNL A   1      39.717  26.569  28.388  1.00  0.00     0.031 C 
ATOM     38  C   UNL A   1      46.353  24.736  28.779  1.00  0.00     0.029 A 
ATOM     39  C   UNL A   1      46.036  26.084  29.239  1.00  0.00     0.049 A 
ATOM     40  H   UNL A   1      44.156  26.973  29.359  1.00  0.00     0.167 HD
ATOM     41  C   UNL A   1      40.185  28.793  29.374  1.00  0.00     0.037 A 
ATOM     42  C   UNL A   1      46.934  26.990  29.671  1.00  0.00     0.037 A 
ATOM     43  C   UNL A   1      41.057  29.790  29.940  1.00  0.00     0.049 A 
ATOM     44  C   UNL A   1      46.456  28.344  30.119  1.00  0.00     0.074 A 
ATOM     45  C   UNL A   1      40.728  31.035  30.448  1.00  0.00     0.029 A 
ATOM     46  N   UNL A   1      42.432  29.657  30.069  1.00  0.00    -0.354 N 
ATOM     47  N   UNL A   1      45.236  28.820  30.154  1.00  0.00    -0.248 NA
ATOM     48  C   UNL A   1      47.481  29.285  30.593  1.00  0.00     0.031 C 
ATOM     49  C   UNL A   1      41.909  31.676  30.836  1.00  0.00     0.029 A 
ATOM     50  C   UNL A   1      42.968  30.807  30.626  1.00  0.00     0.049 A 
ATOM     51  H   UNL A   1      42.951  28.863  29.805  1.00  0.00     0.167 HD
ATOM     52  C   UNL A   1      45.341  30.101  30.683  1.00  0.00     0.074 A 
ATOM     53  C   UNL A   1      46.745  30.321  30.966  1.00  0.00     0.031 C 
ATOM     54  C   UNL A   1      44.365  31.013  30.911  1.00  0.00     0.037 A 
BRANCH  41  55
ATOM     55  C   UNL A   1      38.723  29.116  29.249  1.00  0.00     0.057 A 
ATOM     56  C   UNL A   1      37.856  29.051  30.348  1.00  0.00     0.134 A 
ATOM     57  C   UNL A   1      38.183  29.536  28.027  1.00  0.00     0.134 A 
ATOM     58  F   UNL A   1      38.306  28.647  31.546  1.00  0.00    -0.206 F 
ATOM     59  C   UNL A   1      36.500  29.364  30.229  1.00  0.00     0.040 A 
ATOM     60  C   UNL A   1      36.836  29.880  27.903  1.00  0.00     0.040 A 
ATOM     61  F   UNL A   1      38.957  29.630  26.935  1.00  0.00    -0.206 F 
ATOM     62  C   UNL A   1      35.989  29.788  29.005  1.00  0.00     0.006 A 
ENDBRANCH  41  55
BRANCH  42  63
ATOM     63  C   UNL A   1      48.379  26.647  29.710  1.00  0.00     0.057 A 
ATOM     64  C   UNL A   1      49.227  26.960  28.641  1.00  0.00     0.134 A 
ATOM     65  C   UNL A   1      48.944  25.986  30.808  1.00  0.00     0.134 A 
ATOM     66  F   UNL A   1      48.742  27.576  27.552  1.00  0.00    -0.206 F 
ATOM     67  C   UNL A   1      50.577  26.606  28.649  1.00  0.00     0.040 A 
ATOM     68  C   UNL A   1      50.299  25.652  30.842  1.00  0.00     0.040 A 
ATOM     69  F   UNL A   1      48.189  25.665  31.868  1.00  0.00    -0.206 F 
ATOM     70  C   UNL A   1      51.118  25.955  29.755  1.00  0.00     0.006 A 
ENDBRANCH  42  63
BRANCH  54  71
ATOM     71  C   UNL A   1      44.771  32.317  31.536  1.00  0.00     0.057 A 
ATOM     72  C   UNL A   1      44.827  32.489  32.925  1.00  0.00     0.134 A 
ATOM     73  C   UNL A   1      45.147  33.403  30.735  1.00  0.00     0.134 A 
ATOM     74  F   UNL A   1      44.467  31.493  33.749  1.00  0.00    -0.206 F 
ATOM     75  C   UNL A   1      45.218  33.702  33.495  1.00  0.00     0.040 A 
ATOM     76  C   UNL A   1      45.570  34.610  31.292  1.00  0.00     0.040 A 
ATOM     77  F   UNL A   1      45.127  33.303  29.397  1.00  0.00    -0.206 F 
ATOM     78  C   UNL A   1      45.599  34.765  32.677  1.00  0.00     0.006 A 
ENDBRANCH  54  71
ENDBRANCH  28  29
ENDBRANCH  20  23
ENDBRANCH  18  19
ENDBRANCH  17  18
ENDBRANCH   1  17
TORSDOF 14
ENDMDL
MODEL 2
REMARK VINA RESULT:      -8.3      3.936      9.897
REMARK SMILES O=C(C[NH2+]C[C@@H]1CCCO1)NCCCCNC(=O)c1ccc(-c2c3nc(c(-c4c(F)cccc4F)c4ccc([nH]4)c(-c4c(F)cccc4F)c4nc(c(-c5c(F)cccc5F)c5ccc2[nH]5)C=C4)C=C3)cc1
REMARK SMILES IDX 13 1 12 2 11 3 1 4 2 5 3 7 4 8 5 11 6 12 7 13 10 14 8 15
REMARK SMILES IDX 9 16 14 17 15 18 16 19 17 20 18 22 19 23 20 24 72 25 21 26
REMARK SMILES IDX 71 27 22 28 23 29 24 30 65 31 25 32 70 33 64 34 66 35 26 36
REMARK SMILES IDX 69 37 63 38 62 39 27 41 53 42 36 43 52 44 37 45 40 46 51 47
REMARK SMILES IDX 67 48 38 49 39 50 50 52 68 53 41 54 28 55 29 56 34 57 30 58
REMARK SMILES IDX 31 59 33 60 35 61 32 62 54 63 55 64 60 65 56 66 57 67 59 68
REMARK SMILES IDX 61 69 58 70 42 71 43 72 48 73 44 74 45 75 47 76 49 77 46 78
REMARK H PARENT 11 6 4 9 4 10 16 21 66 40 40 51
REMARK Flexibility Score: inf
ROOT
ATOM      1  C   UNL A   1      34.467  34.807  28.236  1.00  0.00     0.023 C 
ENDROOT
BRANCH   1   2
ATOM      2  C   UNL A   1      33.221  34.829  29.120  1.00  0.00     0.116 C 
BRANCH   2   3
ATOM      3  N   UNL A   1      33.545  35.057  30.510  1.00  0.00    -0.351 N 
ATOM      4  O   UNL A   1      32.643  37.167  30.633  1.00  0.00    -0.269 OA
ATOM      5  C   UNL A   1      33.232  36.230  31.163  1.00  0.00     0.275 C 
ATOM      6  H   UNL A   1      34.007  34.346  31.011  1.00  0.00     0.163 HD
BRANCH   5   7
ATOM      7  C   UNL A   1      33.746  36.288  32.607  1.00  0.00     0.361 C 
BRANCH   7   8
ATOM      8  N   UNL A   1      35.143  35.801  32.662  1.00  0.00    -0.336 N 
ATOM      9  H   UNL A   1      35.756  36.578  32.909  1.00  0.00     0.346 HD
ATOM     10  H   UNL A   1      35.387  35.423  31.748  1.00  0.00     0.346 HD
BRANCH   8  11
ATOM     11  C   UNL A   1      35.300  34.728  33.667  1.00  0.00     0.293 C 
BRANCH  11  12
ATOM     12  C   UNL A   1      36.371  33.682  33.285  1.00  0.00     0.173 C 
ATOM     13  C   UNL A   1      36.792  33.707  31.826  1.00  0.00     0.040 C 
ATOM     14  O   UNL A   1      35.865  32.348  33.515  1.00  0.00    -0.372 OA
ATOM     15  C   UNL A   1      37.313  32.301  31.639  1.00  0.00     0.031 C 
ATOM     16  C   UNL A   1      36.363  31.484  32.490  1.00  0.00     0.161 C 
ENDBRANCH  11  12
ENDBRANCH   8  11
ENDBRANCH   7   8
ENDBRANCH   5   7
ENDBRANCH   2   3
ENDBRANCH   1   2
BRANCH   1  17
ATOM     17  C   UNL A   1      35.101  33.425  28.056  1.00  0.00     0.023 C 
BRANCH  17  18
ATOM     18  C   UNL A   1      34.630  32.359  29.039  1.00  0.00     0.116 C 
BRANCH  18  19
ATOM     19  N   UNL A   1      34.056  31.194  28.383  1.00  0.00    -0.352 N 
ATOM     20  C   UNL A   1      34.672  30.052  27.933  1.00  0.00     0.251 C 
ATOM     21  H   UNL A   1      33.082  31.229  28.241  1.00  0.00     0.163 HD
ATOM     22  O   UNL A   1      34.038  29.229  27.275  1.00  0.00    -0.269 OA
BRANCH  20  23
ATOM     23  C   UNL A   1      36.108  29.820  28.207  1.00  0.00     0.039 A 
ATOM     24  C   UNL A   1      36.483  29.328  29.460  1.00  0.00     0.014 A 
ATOM     25  C   UNL A   1      37.083  30.081  27.240  1.00  0.00     0.014 A 
ATOM     26  C   UNL A   1      37.823  29.031  29.718  1.00  0.00     0.010 A 
ATOM     27  C   UNL A   1      38.406  29.712  27.471  1.00  0.00     0.010 A 
ATOM     28  C   UNL A   1      38.791  29.180  28.711  1.00  0.00    -0.014 A 
BRANCH  28  29
ATOM     29  C   UNL A   1      40.204  28.774  28.934  1.00  0.00     0.031 A 
ATOM     30  C   UNL A   1      41.193  29.745  29.520  1.00  0.00     0.074 A 
ATOM     31  C   UNL A   1      40.614  27.549  28.550  1.00  0.00     0.049 A 
ATOM     32  N   UNL A   1      42.478  29.595  29.723  1.00  0.00    -0.248 NA
ATOM     33  C   UNL A   1      40.674  31.066  29.908  1.00  0.00     0.031 C 
ATOM     34  C   UNL A   1      39.768  26.529  27.927  1.00  0.00     0.029 A 
ATOM     35  N   UNL A   1      41.852  26.956  28.615  1.00  0.00    -0.354 N 
ATOM     36  C   UNL A   1      42.920  30.801  30.252  1.00  0.00     0.074 A 
ATOM     37  C   UNL A   1      41.779  31.691  30.284  1.00  0.00     0.031 C 
ATOM     38  C   UNL A   1      40.505  25.432  27.687  1.00  0.00     0.029 A 
ATOM     39  C   UNL A   1      41.883  25.684  28.098  1.00  0.00     0.049 A 
ATOM     40  H   UNL A   1      42.643  27.401  28.997  1.00  0.00     0.167 HD
ATOM     41  C   UNL A   1      44.158  31.131  30.693  1.00  0.00     0.037 A 
ATOM     42  C   UNL A   1      42.907  24.820  27.957  1.00  0.00     0.037 A 
ATOM     43  C   UNL A   1      45.290  30.241  30.674  1.00  0.00     0.049 A 
ATOM     44  C   UNL A   1      44.277  25.218  28.433  1.00  0.00     0.074 A 
ATOM     45  C   UNL A   1      46.573  30.467  31.143  1.00  0.00     0.029 A 
ATOM     46  N   UNL A   1      45.276  28.956  30.152  1.00  0.00    -0.354 N 
ATOM     47  N   UNL A   1      44.665  26.340  28.990  1.00  0.00    -0.248 NA
ATOM     48  C   UNL A   1      45.350  24.229  28.266  1.00  0.00     0.031 C 
ATOM     49  C   UNL A   1      47.348  29.339  30.858  1.00  0.00     0.029 A 
ATOM     50  C   UNL A   1      46.535  28.386  30.266  1.00  0.00     0.049 A 
ATOM     51  H   UNL A   1      44.490  28.513  29.759  1.00  0.00     0.167 HD
ATOM     52  C   UNL A   1      46.017  26.179  29.269  1.00  0.00     0.074 A 
ATOM     53  C   UNL A   1      46.376  24.845  28.832  1.00  0.00     0.031 C 
ATOM     54  C   UNL A   1      46.881  27.056  29.834  1.00  0.00     0.037 A 
BRANCH  41  55
ATOM     55  C   UNL A   1      44.353  32.517  31.241  1.00  0.00     0.057 A 
ATOM     56  C   UNL A   1      44.730  33.589  30.421  1.00  0.00     0.134 A 
ATOM     57  C   UNL A   1      44.122  32.792  32.595  1.00  0.00     0.134 A 
ATOM     58  F   UNL A   1      44.976  33.393  29.117  1.00  0.00    -0.206 F 
ATOM     59  C   UNL A   1      44.899  34.877  30.933  1.00  0.00     0.040 A 
ATOM     60  C   UNL A   1      44.258  34.081  33.112  1.00  0.00     0.040 A 
ATOM     61  F   UNL A   1      43.750  31.815  33.436  1.00  0.00    -0.206 F 
ATOM     62  C   UNL A   1      44.654  35.127  32.281  1.00  0.00     0.006 A 
ENDBRANCH  41  55
BRANCH  42  63
ATOM     63  C   UNL A   1      42.677  23.485  27.345  1.00  0.00     0.057 A 
ATOM     64  C   UNL A   1      42.799  23.291  25.964  1.00  0.00     0.134 A 
ATOM     65  C   UNL A   1      42.317  22.377  28.122  1.00  0.00     0.134 A 
ATOM     66  F   UNL A   1      43.122  24.318  25.165  1.00  0.00    -0.206 F 
ATOM     67  C   UNL A   1      42.546  22.052  25.374  1.00  0.00     0.040 A 
ATOM     68  C   UNL A   1      42.090  21.125  27.549  1.00  0.00     0.040 A 
ATOM     69  F   UNL A   1      42.191  22.493  29.452  1.00  0.00    -0.206 F 
ATOM     70  C   UNL A   1      42.195  20.963  26.168  1.00  0.00     0.006 A 
ENDBRANCH  42  63
BRANCH  54  71
ATOM     71  C   UNL A   1      48.292  26.590  30.053  1.00  0.00     0.057 A 
ATOM     72  C   UNL A   1      49.299  26.800  29.103  1.00  0.00     0.134 A 
ATOM     73  C   UNL A   1      48.654  25.957  31.250  1.00  0.00     0.134 A 
ATOM     74  F   UNL A   1      49.017  27.388  27.931  1.00  0.00    -0.206 F 
ATOM     75  C   UNL A   1      50.610  26.374  29.323  1.00  0.00     0.040 A 
ATOM     76  C   UNL A   1      49.967  25.554  31.494  1.00  0.00     0.040 A 
ATOM     77  F   UNL A   1      47.741  25.734  32.207  1.00  0.00    -0.206 F 
ATOM     78  C   UNL A   1      50.949  25.756  30.526  1.00  0.00     0.006 A 
ENDBRANCH  54  71
ENDBRANCH  28  29
ENDBRANCH  20  23
ENDBRANCH  18  19
ENDBRANCH  17  18
ENDBRANCH   1  17
TORSDOF 14
ENDMDL
MODEL 3
REMARK VINA RESULT:      -8.3      3.576      8.675
REMARK SMILES O=C(C[NH2+]C[C@@H]1CCCO1)NCCCCNC(=O)c1ccc(-c2c3nc(c(-c4c(F)cccc4F)c4ccc([nH]4)c(-c4c(F)cccc4F)c4nc(c(-c5c(F)cccc5F)c5ccc2[nH]5)C=C4)C=C3)cc1
REMARK SMILES IDX 13 1 12 2 11 3 1 4 2 5 3 7 4 8 5 11 6 12 7 13 10 14 8 15
REMARK SMILES IDX 9 16 14 17 15 18 16 19 17 20 18 22 19 23 20 24 72 25 21 26
REMARK SMILES IDX 71 27 22 28 23 29 24 30 65 31 25 32 70 33 64 34 66 35 26 36
REMARK SMILES IDX 69 37 63 38 62 39 27 41 53 42 36 43 52 44 37 45 40 46 51 47
REMARK SMILES IDX 67 48 38 49 39 50 50 52 68 53 41 54 28 55 29 56 34 57 30 58
REMARK SMILES IDX 31 59 33 60 35 61 32 62 54 63 55 64 60 65 56 66 57 67 59 68
REMARK SMILES IDX 61 69 58 70 42 71 43 72 48 73 44 74 45 75 47 76 49 77 46 78
REMARK H PARENT 11 6 4 9 4 10 16 21 66 40 40 51
REMARK Flexibility Score: inf
ROOT
ATOM      1  C   UNL A   1      37.446  21.170  24.542  1.00  0.00     0.023 C 
ENDROOT
BRANCH   1   2
ATOM      2  C   UNL A   1      37.004  21.990  25.753  1.00  0.00     0.116 C 
BRANCH   2   3
ATOM      3  N   UNL A   1      35.724  21.555  26.266  1.00  0.00    -0.351 N 
ATOM      4  O   UNL A   1      34.717  23.619  26.202  1.00  0.00    -0.269 OA
ATOM      5  C   UNL A   1      34.669  22.421  26.461  1.00  0.00     0.275 C 
ATOM      6  H   UNL A   1      35.601  20.603  26.485  1.00  0.00     0.163 HD
BRANCH   5   7
ATOM      7  C   UNL A   1      33.438  21.760  27.094  1.00  0.00     0.361 C 
BRANCH   7   8
ATOM      8  N   UNL A   1      33.442  20.309  26.802  1.00  0.00    -0.336 N 
ATOM      9  H   UNL A   1      33.039  19.810  27.596  1.00  0.00     0.346 HD
ATOM     10  H   UNL A   1      34.405  20.017  26.641  1.00  0.00     0.346 HD
BRANCH   8  11
ATOM     11  C   UNL A   1      32.653  20.001  25.590  1.00  0.00     0.293 C 
BRANCH  11  12
ATOM     12  C   UNL A   1      32.944  18.600  25.008  1.00  0.00     0.173 C 
ATOM     13  C   UNL A   1      34.372  18.392  24.536  1.00  0.00     0.040 C 
ATOM     14  O   UNL A   1      32.117  18.365  23.847  1.00  0.00    -0.372 OA
ATOM     15  C   UNL A   1      34.198  17.273  23.537  1.00  0.00     0.031 C 
ATOM     16  C   UNL A   1      32.871  17.612  22.891  1.00  0.00     0.161 C 
ENDBRANCH  11  12
ENDBRANCH   8  11
ENDBRANCH   7   8
ENDBRANCH   5   7
ENDBRANCH   2   3
ENDBRANCH   1   2
BRANCH   1  17
ATOM     17  C   UNL A   1      38.213  19.889  24.881  1.00  0.00     0.023 C 
BRANCH  17  18
ATOM     18  C   UNL A   1      39.174  19.996  26.060  1.00  0.00     0.116 C 
BRANCH  18  19
ATOM     19  N   UNL A   1      40.291  19.067  25.970  1.00  0.00    -0.352 N 
ATOM     20  C   UNL A   1      41.637  19.305  26.101  1.00  0.00     0.251 C 
ATOM     21  H   UNL A   1      40.044  18.131  25.789  1.00  0.00     0.163 HD
ATOM     22  O   UNL A   1      42.446  18.411  25.855  1.00  0.00    -0.269 OA
BRANCH  20  23
ATOM     23  C   UNL A   1      42.125  20.642  26.506  1.00  0.00     0.039 A 
ATOM     24  C   UNL A   1      42.481  21.558  25.512  1.00  0.00     0.014 A 
ATOM     25  C   UNL A   1      42.233  20.998  27.853  1.00  0.00     0.014 A 
ATOM     26  C   UNL A   1      42.873  22.850  25.865  1.00  0.00     0.010 A 
ATOM     27  C   UNL A   1      42.550  22.309  28.201  1.00  0.00     0.010 A 
ATOM     28  C   UNL A   1      42.871  23.251  27.211  1.00  0.00    -0.014 A 
BRANCH  28  29
ATOM     29  C   UNL A   1      43.188  24.651  27.599  1.00  0.00     0.031 A 
ATOM     30  C   UNL A   1      44.617  25.109  27.701  1.00  0.00     0.074 A 
ATOM     31  C   UNL A   1      42.188  25.496  27.922  1.00  0.00     0.049 A 
ATOM     32  N   UNL A   1      45.089  26.267  28.090  1.00  0.00    -0.248 NA
ATOM     33  C   UNL A   1      45.654  24.129  27.341  1.00  0.00     0.031 C 
ATOM     34  C   UNL A   1      40.762  25.165  27.910  1.00  0.00     0.029 A 
ATOM     35  N   UNL A   1      42.220  26.805  28.336  1.00  0.00    -0.354 N 
ATOM     36  C   UNL A   1      46.472  26.151  28.029  1.00  0.00     0.074 A 
ATOM     37  C   UNL A   1      46.765  24.793  27.623  1.00  0.00     0.031 C 
ATOM     38  C   UNL A   1      40.056  26.247  28.277  1.00  0.00     0.029 A 
ATOM     39  C   UNL A   1      40.978  27.334  28.593  1.00  0.00     0.049 A 
ATOM     40  H   UNL A   1      43.055  27.318  28.440  1.00  0.00     0.167 HD
ATOM     41  C   UNL A   1      47.414  27.095  28.267  1.00  0.00     0.037 A 
ATOM     42  C   UNL A   1      40.620  28.551  29.045  1.00  0.00     0.037 A 
ATOM     43  C   UNL A   1      47.122  28.451  28.658  1.00  0.00     0.049 A 
ATOM     44  C   UNL A   1      41.685  29.576  29.324  1.00  0.00     0.074 A 
ATOM     45  C   UNL A   1      48.006  29.494  28.875  1.00  0.00     0.029 A 
ATOM     46  N   UNL A   1      45.850  28.949  28.897  1.00  0.00    -0.354 N 
ATOM     47  N   UNL A   1      42.986  29.470  29.200  1.00  0.00    -0.248 NA
ATOM     48  C   UNL A   1      41.233  30.890  29.801  1.00  0.00     0.031 C 
ATOM     49  C   UNL A   1      47.273  30.609  29.295  1.00  0.00     0.029 A 
ATOM     50  C   UNL A   1      45.928  30.278  29.281  1.00  0.00     0.049 A 
ATOM     51  H   UNL A   1      45.016  28.436  28.806  1.00  0.00     0.167 HD
ATOM     52  C   UNL A   1      43.504  30.711  29.552  1.00  0.00     0.074 A 
ATOM     53  C   UNL A   1      42.374  31.556  29.879  1.00  0.00     0.031 C 
ATOM     54  C   UNL A   1      44.797  31.113  29.599  1.00  0.00     0.037 A 
BRANCH  41  55
ATOM     55  C   UNL A   1      48.853  26.696  28.106  1.00  0.00     0.057 A 
ATOM     56  C   UNL A   1      49.610  26.211  29.182  1.00  0.00     0.134 A 
ATOM     57  C   UNL A   1      49.480  26.758  26.855  1.00  0.00     0.134 A 
ATOM     58  F   UNL A   1      49.075  26.135  30.409  1.00  0.00    -0.206 F 
ATOM     59  C   UNL A   1      50.944  25.831  29.024  1.00  0.00     0.040 A 
ATOM     60  C   UNL A   1      50.803  26.352  26.678  1.00  0.00     0.040 A 
ATOM     61  F   UNL A   1      48.812  27.204  25.779  1.00  0.00    -0.206 F 
ATOM     62  C   UNL A   1      51.542  25.893  27.767  1.00  0.00     0.006 A 
ENDBRANCH  41  55
BRANCH  42  63
ATOM     63  C   UNL A   1      39.185  28.876  29.254  1.00  0.00     0.057 A 
ATOM     64  C   UNL A   1      38.416  29.450  28.234  1.00  0.00     0.134 A 
ATOM     65  C   UNL A   1      38.552  28.636  30.480  1.00  0.00     0.134 A 
ATOM     66  F   UNL A   1      38.970  29.722  27.044  1.00  0.00    -0.206 F 
ATOM     67  C   UNL A   1      37.079  29.797  28.433  1.00  0.00     0.040 A 
ATOM     68  C   UNL A   1      37.207  28.951  30.683  1.00  0.00     0.040 A 
ATOM     69  F   UNL A   1      39.230  28.082  31.496  1.00  0.00    -0.206 F 
ATOM     70  C   UNL A   1      36.470  29.542  29.660  1.00  0.00     0.006 A 
ENDBRANCH  42  63
BRANCH  54  71
ATOM     71  C   UNL A   1      45.062  32.541  29.980  1.00  0.00     0.057 A 
ATOM     72  C   UNL A   1      45.052  33.576  29.036  1.00  0.00     0.134 A 
ATOM     73  C   UNL A   1      45.293  32.889  31.317  1.00  0.00     0.134 A 
ATOM     74  F   UNL A   1      44.851  33.309  27.736  1.00  0.00    -0.206 F 
ATOM     75  C   UNL A   1      45.287  34.902  29.403  1.00  0.00     0.040 A 
ATOM     76  C   UNL A   1      45.498  34.215  31.702  1.00  0.00     0.040 A 
ATOM     77  F   UNL A   1      45.306  31.950  32.274  1.00  0.00    -0.206 F 
ATOM     78  C   UNL A   1      45.503  35.225  30.742  1.00  0.00     0.006 A 
ENDBRANCH  54  71
ENDBRANCH  28  29
ENDBRANCH  20  23
ENDBRANCH  18  19
ENDBRANCH  17  18
ENDBRANCH   1  17
TORSDOF 14
ENDMDL
