MODEL 1
REMARK VINA RESULT:     -12.0      0.000      0.000
REMARK SMILES Cc1ccc([C@H](CC2CCCC2)C(=O)NCCCCNC(=O)c2ccc(-c3c4nc(c(-c5c(F)cccc5F)c5ccc([nH]5)c(-c5c(F)cccc5F)c5nc(c(-c6c(F)cccc6F)c6ccc3[nH]6)C=C5)C=C4)cc2)cc1
REMARK SMILES IDX 17 1 16 2 15 3 13 4 14 5 6 7 5 8 1 9 2 10 3 11 78 12 4 13
REMARK SMILES IDX 77 14 7 15 8 16 9 17 12 18 10 19 11 20 18 21 19 22 20 23
REMARK SMILES IDX 21 24 22 26 23 27 24 28 76 29 25 30 75 31 26 32 27 33 28 34
REMARK SMILES IDX 69 35 29 36 74 37 68 38 70 39 30 40 73 41 67 42 66 43 31 45
REMARK SMILES IDX 57 46 40 47 56 48 41 49 44 50 55 51 71 52 42 53 43 54 54 56
REMARK SMILES IDX 72 57 45 58 32 59 33 60 38 61 34 62 35 63 37 64 39 65 36 66
REMARK SMILES IDX 58 67 59 68 64 69 60 70 61 71 63 72 65 73 62 74 46 75 47 76
REMARK SMILES IDX 52 77 48 78 49 79 51 80 53 81 50 82
REMARK H PARENT 15 6 20 25 70 44 44 55
REMARK Flexibility Score: inf
ROOT
ATOM      1  C   UNL A   1      33.970  28.742  25.528  1.00  0.00     0.023 C 
ENDROOT
BRANCH   1   2
ATOM      2  C   UNL A   1      32.925  27.956  24.733  1.00  0.00     0.116 C 
BRANCH   2   3
ATOM      3  N   UNL A   1      33.415  27.513  23.437  1.00  0.00    -0.356 N 
ATOM      4  C   UNL A   1      33.572  26.262  22.917  1.00  0.00     0.227 C 
ATOM      5  O   UNL A   1      33.863  26.199  21.717  1.00  0.00    -0.274 OA
ATOM      6  H   UNL A   1      33.678  28.243  22.829  1.00  0.00     0.163 HD
BRANCH   4   7
ATOM      7  C   UNL A   1      33.426  24.981  23.747  1.00  0.00     0.109 C 
BRANCH   7   8
ATOM      8  C   UNL A   1      34.729  24.243  24.079  1.00  0.00    -0.036 A 
ATOM      9  C   UNL A   1      38.091  21.866  25.428  1.00  0.00     0.044 C 
ATOM     10  C   UNL A   1      36.957  22.720  24.947  1.00  0.00    -0.051 A 
ATOM     11  C   UNL A   1      36.409  23.703  25.772  1.00  0.00     0.004 A 
ATOM     12  C   UNL A   1      36.460  22.581  23.649  1.00  0.00     0.004 A 
ATOM     13  C   UNL A   1      35.312  24.453  25.343  1.00  0.00     0.005 A 
ATOM     14  C   UNL A   1      35.371  23.346  23.215  1.00  0.00     0.005 A 
ENDBRANCH   7   8
BRANCH   7  15
ATOM     15  C   UNL A   1      32.350  24.014  23.189  1.00  0.00     0.022 C 
BRANCH  15  16
ATOM     16  C   UNL A   1      31.274  23.587  24.195  1.00  0.00    -0.010 C 
ATOM     17  C   UNL A   1      31.670  22.449  25.131  1.00  0.00     0.003 C 
ATOM     18  C   UNL A   1      30.980  24.719  25.186  1.00  0.00     0.003 C 
ATOM     19  C   UNL A   1      30.697  22.572  26.300  1.00  0.00     0.000 C 
ATOM     20  C   UNL A   1      30.282  24.041  26.357  1.00  0.00     0.000 C 
ENDBRANCH  15  16
ENDBRANCH   7  15
ENDBRANCH   4   7
ENDBRANCH   2   3
ENDBRANCH   1   2
BRANCH   1  21
ATOM     21  C   UNL A   1      33.493  30.079  26.101  1.00  0.00     0.023 C 
BRANCH  21  22
ATOM     22  C   UNL A   1      33.453  30.139  27.621  1.00  0.00     0.116 C 
BRANCH  22  23
ATOM     23  N   UNL A   1      34.221  31.226  28.222  1.00  0.00    -0.352 N 
ATOM     24  C   UNL A   1      35.446  31.216  28.856  1.00  0.00     0.251 C 
ATOM     25  H   UNL A   1      33.794  32.112  28.165  1.00  0.00     0.163 HD
ATOM     26  O   UNL A   1      35.850  32.236  29.385  1.00  0.00    -0.269 OA
BRANCH  24  27
ATOM     27  C   UNL A   1      36.350  30.026  28.774  1.00  0.00     0.039 A 
ATOM     28  C   UNL A   1      36.628  29.330  29.961  1.00  0.00     0.014 A 
ATOM     29  C   UNL A   1      37.067  29.715  27.625  1.00  0.00     0.014 A 
ATOM     30  C   UNL A   1      37.779  28.547  30.054  1.00  0.00     0.010 A 
ATOM     31  C   UNL A   1      38.268  29.049  27.744  1.00  0.00     0.010 A 
ATOM     32  C   UNL A   1      38.657  28.520  28.976  1.00  0.00    -0.014 A 
BRANCH  32  33
ATOM     33  C   UNL A   1      40.049  28.093  29.057  1.00  0.00     0.031 A 
ATOM     34  C   UNL A   1      40.487  26.809  28.474  1.00  0.00     0.074 A 
ATOM     35  C   UNL A   1      40.970  28.976  29.502  1.00  0.00     0.049 A 
ATOM     36  N   UNL A   1      41.604  26.233  28.758  1.00  0.00    -0.248 NA
ATOM     37  C   UNL A   1      39.679  26.060  27.519  1.00  0.00     0.031 C 
ATOM     38  C   UNL A   1      42.419  28.914  29.335  1.00  0.00     0.029 A 
ATOM     39  N   UNL A   1      40.772  30.044  30.386  1.00  0.00    -0.354 N 
ATOM     40  C   UNL A   1      41.791  25.212  27.857  1.00  0.00     0.074 A 
ATOM     41  C   UNL A   1      40.544  25.118  27.132  1.00  0.00     0.031 C 
ATOM     42  C   UNL A   1      42.996  29.672  30.279  1.00  0.00     0.029 A 
ATOM     43  C   UNL A   1      41.945  30.120  31.173  1.00  0.00     0.049 A 
ATOM     44  H   UNL A   1      39.978  30.624  30.448  1.00  0.00     0.167 HD
ATOM     45  C   UNL A   1      43.019  24.633  27.740  1.00  0.00     0.037 A 
ATOM     46  C   UNL A   1      41.891  29.861  32.514  1.00  0.00     0.037 A 
ATOM     47  C   UNL A   1      43.975  25.190  28.692  1.00  0.00     0.049 A 
ATOM     48  C   UNL A   1      42.685  28.649  32.959  1.00  0.00     0.074 A 
ATOM     49  C   UNL A   1      44.963  26.160  28.618  1.00  0.00     0.029 A 
ATOM     50  N   UNL A   1      43.777  24.952  30.038  1.00  0.00    -0.354 N 
ATOM     51  N   UNL A   1      43.332  27.854  32.153  1.00  0.00    -0.248 NA
ATOM     52  C   UNL A   1      42.734  28.186  34.349  1.00  0.00     0.031 C 
ATOM     53  C   UNL A   1      45.331  26.521  29.945  1.00  0.00     0.029 A 
ATOM     54  C   UNL A   1      44.570  25.767  30.819  1.00  0.00     0.049 A 
ATOM     55  H   UNL A   1      43.148  24.284  30.395  1.00  0.00     0.167 HD
ATOM     56  C   UNL A   1      43.797  26.776  32.855  1.00  0.00     0.074 A 
ATOM     57  C   UNL A   1      43.418  27.036  34.231  1.00  0.00     0.031 C 
ATOM     58  C   UNL A   1      44.416  25.719  32.262  1.00  0.00     0.037 A 
BRANCH  45  59
ATOM     59  C   UNL A   1      43.399  23.719  26.605  1.00  0.00     0.057 A 
ATOM     60  C   UNL A   1      43.239  22.324  26.713  1.00  0.00     0.134 A 
ATOM     61  C   UNL A   1      43.958  24.151  25.391  1.00  0.00     0.134 A 
ATOM     62  F   UNL A   1      42.630  21.765  27.767  1.00  0.00    -0.206 F 
ATOM     63  C   UNL A   1      43.702  21.429  25.742  1.00  0.00     0.040 A 
ATOM     64  C   UNL A   1      44.480  23.267  24.436  1.00  0.00     0.040 A 
ATOM     65  F   UNL A   1      43.982  25.448  25.055  1.00  0.00    -0.206 F 
ATOM     66  C   UNL A   1      44.364  21.896  24.617  1.00  0.00     0.006 A 
ENDBRANCH  45  59
BRANCH  46  67
ATOM     67  C   UNL A   1      40.613  30.315  33.124  1.00  0.00     0.057 A 
ATOM     68  C   UNL A   1      40.422  31.695  33.326  1.00  0.00     0.134 A 
ATOM     69  C   UNL A   1      39.475  29.505  33.128  1.00  0.00     0.134 A 
ATOM     70  F   UNL A   1      41.474  32.529  33.329  1.00  0.00    -0.206 F 
ATOM     71  C   UNL A   1      39.145  32.258  33.398  1.00  0.00     0.040 A 
ATOM     72  C   UNL A   1      38.192  30.057  33.217  1.00  0.00     0.040 A 
ATOM     73  F   UNL A   1      39.576  28.185  32.918  1.00  0.00    -0.206 F 
ATOM     74  C   UNL A   1      38.024  31.438  33.308  1.00  0.00     0.006 A 
ENDBRANCH  46  67
BRANCH  58  75
ATOM     75  C   UNL A   1      44.935  24.539  33.020  1.00  0.00     0.057 A 
ATOM     76  C   UNL A   1      44.236  23.326  33.070  1.00  0.00     0.134 A 
ATOM     77  C   UNL A   1      46.073  24.636  33.842  1.00  0.00     0.134 A 
ATOM     78  F   UNL A   1      43.124  23.145  32.343  1.00  0.00    -0.206 F 
ATOM     79  C   UNL A   1      44.649  22.269  33.888  1.00  0.00     0.040 A 
ATOM     80  C   UNL A   1      46.468  23.606  34.696  1.00  0.00     0.040 A 
ATOM     81  F   UNL A   1      46.847  25.732  33.834  1.00  0.00    -0.206 F 
ATOM     82  C   UNL A   1      45.757  22.414  34.719  1.00  0.00     0.006 A 
ENDBRANCH  58  75
ENDBRANCH  32  33
ENDBRANCH  24  27
ENDBRANCH  22  23
ENDBRANCH  21  22
ENDBRANCH   1  21
TORSDOF 14
ENDMDL
MODEL 2
REMARK VINA RESULT:     -12.0      1.693      3.185
REMARK SMILES Cc1ccc([C@H](CC2CCCC2)C(=O)NCCCCNC(=O)c2ccc(-c3c4nc(c(-c5c(F)cccc5F)c5ccc([nH]5)c(-c5c(F)cccc5F)c5nc(c(-c6c(F)cccc6F)c6ccc3[nH]6)C=C5)C=C4)cc2)cc1
REMARK SMILES IDX 17 1 16 2 15 3 13 4 14 5 6 7 5 8 1 9 2 10 3 11 78 12 4 13
REMARK SMILES IDX 77 14 7 15 8 16 9 17 12 18 10 19 11 20 18 21 19 22 20 23
REMARK SMILES IDX 21 24 22 26 23 27 24 28 76 29 25 30 75 31 26 32 27 33 28 34
REMARK SMILES IDX 69 35 29 36 74 37 68 38 70 39 30 40 73 41 67 42 66 43 31 45
REMARK SMILES IDX 57 46 40 47 56 48 41 49 44 50 55 51 71 52 42 53 43 54 54 56
REMARK SMILES IDX 72 57 45 58 32 59 33 60 38 61 34 62 35 63 37 64 39 65 36 66
REMARK SMILES IDX 58 67 59 68 64 69 60 70 61 71 63 72 65 73 62 74 46 75 47 76
REMARK SMILES IDX 52 77 48 78 49 79 51 80 53 81 50 82
REMARK H PARENT 15 6 20 25 70 44 44 55
REMARK Flexibility Score: inf
ROOT
ATOM      1  C   UNL A   1      31.691  29.372  26.209  1.00  0.00     0.023 C 
ENDROOT
BRANCH   1   2
ATOM      2  C   UNL A   1      32.203  27.960  26.506  1.00  0.00     0.116 C 
BRANCH   2   3
ATOM      3  N   UNL A   1      31.130  27.004  26.730  1.00  0.00    -0.356 N 
ATOM      4  C   UNL A   1      30.532  26.113  25.887  1.00  0.00     0.227 C 
ATOM      5  O   UNL A   1      29.747  25.310  26.404  1.00  0.00    -0.274 OA
ATOM      6  H   UNL A   1      30.773  26.998  27.648  1.00  0.00     0.163 HD
BRANCH   4   7
ATOM      7  C   UNL A   1      30.778  26.091  24.373  1.00  0.00     0.109 C 
BRANCH   7   8
ATOM      8  C   UNL A   1      30.101  27.207  23.566  1.00  0.00    -0.036 A 
ATOM      9  C   UNL A   1      28.013  30.574  21.814  1.00  0.00     0.044 C 
ATOM     10  C   UNL A   1      28.730  29.386  22.381  1.00  0.00    -0.051 A 
ATOM     11  C   UNL A   1      28.018  28.358  23.001  1.00  0.00     0.004 A 
ATOM     12  C   UNL A   1      30.115  29.263  22.258  1.00  0.00     0.004 A 
ATOM     13  C   UNL A   1      28.695  27.284  23.583  1.00  0.00     0.005 A 
ATOM     14  C   UNL A   1      30.790  28.177  22.828  1.00  0.00     0.005 A 
ENDBRANCH   7   8
BRANCH   7  15
ATOM     15  C   UNL A   1      30.531  24.699  23.737  1.00  0.00     0.022 C 
BRANCH  15  16
ATOM     16  C   UNL A   1      31.777  24.021  23.152  1.00  0.00    -0.010 C 
ATOM     17  C   UNL A   1      33.091  24.760  23.385  1.00  0.00     0.003 C 
ATOM     18  C   UNL A   1      32.043  22.682  23.849  1.00  0.00     0.003 C 
ATOM     19  C   UNL A   1      34.160  23.689  23.191  1.00  0.00     0.000 C 
ATOM     20  C   UNL A   1      33.494  22.356  23.526  1.00  0.00     0.000 C 
ENDBRANCH  15  16
ENDBRANCH   7  15
ENDBRANCH   4   7
ENDBRANCH   2   3
ENDBRANCH   1   2
BRANCH   1  21
ATOM     21  C   UNL A   1      32.551  30.513  26.756  1.00  0.00     0.023 C 
BRANCH  21  22
ATOM     22  C   UNL A   1      33.650  30.076  27.714  1.00  0.00     0.116 C 
BRANCH  22  23
ATOM     23  N   UNL A   1      34.412  31.163  28.324  1.00  0.00    -0.352 N 
ATOM     24  C   UNL A   1      35.647  31.159  28.938  1.00  0.00     0.251 C 
ATOM     25  H   UNL A   1      33.971  32.043  28.291  1.00  0.00     0.163 HD
ATOM     26  O   UNL A   1      36.044  32.174  29.481  1.00  0.00    -0.269 OA
BRANCH  24  27
ATOM     27  C   UNL A   1      36.567  29.984  28.819  1.00  0.00     0.039 A 
ATOM     28  C   UNL A   1      36.820  29.228  29.975  1.00  0.00     0.014 A 
ATOM     29  C   UNL A   1      37.318  29.741  27.676  1.00  0.00     0.014 A 
ATOM     30  C   UNL A   1      37.977  28.453  30.058  1.00  0.00     0.010 A 
ATOM     31  C   UNL A   1      38.523  29.082  27.792  1.00  0.00     0.010 A 
ATOM     32  C   UNL A   1      38.884  28.493  29.005  1.00  0.00    -0.014 A 
BRANCH  32  33
ATOM     33  C   UNL A   1      40.278  28.076  29.102  1.00  0.00     0.031 A 
ATOM     34  C   UNL A   1      40.739  26.812  28.494  1.00  0.00     0.074 A 
ATOM     35  C   UNL A   1      41.182  28.955  29.589  1.00  0.00     0.049 A 
ATOM     36  N   UNL A   1      41.857  26.238  28.785  1.00  0.00    -0.248 NA
ATOM     37  C   UNL A   1      39.958  26.082  27.503  1.00  0.00     0.031 C 
ATOM     38  C   UNL A   1      42.635  28.909  29.449  1.00  0.00     0.029 A 
ATOM     39  N   UNL A   1      40.957  29.997  30.498  1.00  0.00    -0.354 N 
ATOM     40  C   UNL A   1      42.071  25.244  27.860  1.00  0.00     0.074 A 
ATOM     41  C   UNL A   1      40.839  25.159  27.108  1.00  0.00     0.031 C 
ATOM     42  C   UNL A   1      43.186  29.647  30.424  1.00  0.00     0.029 A 
ATOM     43  C   UNL A   1      42.113  30.061  31.310  1.00  0.00     0.049 A 
ATOM     44  H   UNL A   1      40.157  30.567  30.559  1.00  0.00     0.167 HD
ATOM     45  C   UNL A   1      43.306  24.679  27.752  1.00  0.00     0.037 A 
ATOM     46  C   UNL A   1      42.036  29.766  32.642  1.00  0.00     0.037 A 
ATOM     47  C   UNL A   1      44.238  25.219  28.737  1.00  0.00     0.049 A 
ATOM     48  C   UNL A   1      42.832  28.549  33.070  1.00  0.00     0.074 A 
ATOM     49  C   UNL A   1      45.218  26.199  28.709  1.00  0.00     0.029 A 
ATOM     50  N   UNL A   1      44.016  24.943  30.072  1.00  0.00    -0.354 N 
ATOM     51  N   UNL A   1      43.502  27.782  32.256  1.00  0.00    -0.248 NA
ATOM     52  C   UNL A   1      42.858  28.049  34.447  1.00  0.00     0.031 C 
ATOM     53  C   UNL A   1      45.556  26.527  30.052  1.00  0.00     0.029 A 
ATOM     54  C   UNL A   1      44.786  25.743  30.891  1.00  0.00     0.049 A 
ATOM     55  H   UNL A   1      43.387  24.260  30.399  1.00  0.00     0.167 HD
ATOM     56  C   UNL A   1      43.964  26.690  32.938  1.00  0.00     0.074 A 
ATOM     57  C   UNL A   1      43.556  26.909  34.312  1.00  0.00     0.031 C 
ATOM     58  C   UNL A   1      44.604  25.654  32.328  1.00  0.00     0.037 A 
BRANCH  45  59
ATOM     59  C   UNL A   1      43.717  23.800  26.601  1.00  0.00     0.057 A 
ATOM     60  C   UNL A   1      43.452  22.417  26.614  1.00  0.00     0.134 A 
ATOM     61  C   UNL A   1      44.406  24.252  25.462  1.00  0.00     0.134 A 
ATOM     62  F   UNL A   1      42.719  21.850  27.582  1.00  0.00    -0.206 F 
ATOM     63  C   UNL A   1      43.933  21.542  25.634  1.00  0.00     0.040 A 
ATOM     64  C   UNL A   1      44.944  23.382  24.504  1.00  0.00     0.040 A 
ATOM     65  F   UNL A   1      44.547  25.559  25.205  1.00  0.00    -0.206 F 
ATOM     66  C   UNL A   1      44.718  22.016  24.595  1.00  0.00     0.006 A 
ENDBRANCH  45  59
BRANCH  46  67
ATOM     67  C   UNL A   1      40.742  30.192  33.238  1.00  0.00     0.057 A 
ATOM     68  C   UNL A   1      40.539  31.562  33.487  1.00  0.00     0.134 A 
ATOM     69  C   UNL A   1      39.607  29.378  33.185  1.00  0.00     0.134 A 
ATOM     70  F   UNL A   1      41.587  32.399  33.546  1.00  0.00    -0.206 F 
ATOM     71  C   UNL A   1      39.259  32.117  33.551  1.00  0.00     0.040 A 
ATOM     72  C   UNL A   1      38.320  29.921  33.265  1.00  0.00     0.040 A 
ATOM     73  F   UNL A   1      39.720  28.067  32.928  1.00  0.00    -0.206 F 
ATOM     74  C   UNL A   1      38.144  31.297  33.404  1.00  0.00     0.006 A 
ENDBRANCH  46  67
BRANCH  58  75
ATOM     75  C   UNL A   1      45.119  24.459  33.065  1.00  0.00     0.057 A 
ATOM     76  C   UNL A   1      44.338  23.312  33.251  1.00  0.00     0.134 A 
ATOM     77  C   UNL A   1      46.356  24.486  33.735  1.00  0.00     0.134 A 
ATOM     78  F   UNL A   1      43.132  23.202  32.674  1.00  0.00    -0.206 F 
ATOM     79  C   UNL A   1      44.765  22.250  34.054  1.00  0.00     0.040 A 
ATOM     80  C   UNL A   1      46.773  23.452  34.575  1.00  0.00     0.040 A 
ATOM     81  F   UNL A   1      47.208  25.511  33.586  1.00  0.00    -0.206 F 
ATOM     82  C   UNL A   1      45.977  22.326  34.735  1.00  0.00     0.006 A 
ENDBRANCH  58  75
ENDBRANCH  32  33
ENDBRANCH  24  27
ENDBRANCH  22  23
ENDBRANCH  21  22
ENDBRANCH   1  21
TORSDOF 14
ENDMDL
MODEL 3
REMARK VINA RESULT:     -11.8      1.492      1.979
REMARK SMILES Cc1ccc([C@H](CC2CCCC2)C(=O)NCCCCNC(=O)c2ccc(-c3c4nc(c(-c5c(F)cccc5F)c5ccc([nH]5)c(-c5c(F)cccc5F)c5nc(c(-c6c(F)cccc6F)c6ccc3[nH]6)C=C5)C=C4)cc2)cc1
REMARK SMILES IDX 17 1 16 2 15 3 13 4 14 5 6 7 5 8 1 9 2 10 3 11 78 12 4 13
REMARK SMILES IDX 77 14 7 15 8 16 9 17 12 18 10 19 11 20 18 21 19 22 20 23
REMARK SMILES IDX 21 24 22 26 23 27 24 28 76 29 25 30 75 31 26 32 27 33 28 34
REMARK SMILES IDX 69 35 29 36 74 37 68 38 70 39 30 40 73 41 67 42 66 43 31 45
REMARK SMILES IDX 57 46 40 47 56 48 41 49 44 50 55 51 71 52 42 53 43 54 54 56
REMARK SMILES IDX 72 57 45 58 32 59 33 60 38 61 34 62 35 63 37 64 39 65 36 66
REMARK SMILES IDX 58 67 59 68 64 69 60 70 61 71 63 72 65 73 62 74 46 75 47 76
REMARK SMILES IDX 52 77 48 78 49 79 51 80 53 81 50 82
REMARK H PARENT 15 6 20 25 70 44 44 55
REMARK Flexibility Score: inf
ROOT
ATOM      1  C   UNL A   1      31.959  30.188  26.822  1.00  0.00     0.023 C 
ENDROOT
BRANCH   1   2
ATOM      2  C   UNL A   1      31.733  29.762  25.369  1.00  0.00     0.116 C 
BRANCH   2   3
ATOM      3  N   UNL A   1      32.971  29.645  24.614  1.00  0.00    -0.356 N 
ATOM      4  C   UNL A   1      33.435  28.654  23.800  1.00  0.00     0.227 C 
ATOM      5  O   UNL A   1      34.462  28.905  23.160  1.00  0.00    -0.274 OA
ATOM      6  H   UNL A   1      33.579  30.415  24.706  1.00  0.00     0.163 HD
BRANCH   4   7
ATOM      7  C   UNL A   1      32.759  27.283  23.674  1.00  0.00     0.109 C 
BRANCH   7   8
ATOM      8  C   UNL A   1      33.632  26.070  24.018  1.00  0.00    -0.036 A 
ATOM      9  C   UNL A   1      35.635  22.453  25.317  1.00  0.00     0.044 C 
ATOM     10  C   UNL A   1      34.982  23.724  24.862  1.00  0.00    -0.051 A 
ATOM     11  C   UNL A   1      34.711  24.748  25.771  1.00  0.00     0.004 A 
ATOM     12  C   UNL A   1      34.678  23.927  23.514  1.00  0.00     0.004 A 
ATOM     13  C   UNL A   1      34.047  25.903  25.354  1.00  0.00     0.005 A 
ATOM     14  C   UNL A   1      34.027  25.093  23.095  1.00  0.00     0.005 A 
ENDBRANCH   7   8
BRANCH   7  15
ATOM     15  C   UNL A   1      32.024  27.089  22.323  1.00  0.00     0.022 C 
BRANCH  15  16
ATOM     16  C   UNL A   1      30.513  27.351  22.361  1.00  0.00    -0.010 C 
ATOM     17  C   UNL A   1      29.818  26.968  23.664  1.00  0.00     0.003 C 
ATOM     18  C   UNL A   1      30.221  28.854  22.282  1.00  0.00     0.003 C 
ATOM     19  C   UNL A   1      28.519  27.769  23.643  1.00  0.00     0.000 C 
ATOM     20  C   UNL A   1      28.792  29.002  22.783  1.00  0.00     0.000 C 
ENDBRANCH  15  16
ENDBRANCH   7  15
ENDBRANCH   4   7
ENDBRANCH   2   3
ENDBRANCH   1   2
BRANCH   1  21
ATOM     21  C   UNL A   1      33.133  31.143  27.054  1.00  0.00     0.023 C 
BRANCH  21  22
ATOM     22  C   UNL A   1      34.367  30.494  27.663  1.00  0.00     0.116 C 
BRANCH  22  23
ATOM     23  N   UNL A   1      35.168  31.365  28.520  1.00  0.00    -0.352 N 
ATOM     24  C   UNL A   1      36.302  31.100  29.260  1.00  0.00     0.251 C 
ATOM     25  H   UNL A   1      34.845  32.293  28.580  1.00  0.00     0.163 HD
ATOM     26  O   UNL A   1      36.744  31.960  29.999  1.00  0.00    -0.269 OA
BRANCH  24  27
ATOM     27  C   UNL A   1      37.081  29.837  29.057  1.00  0.00     0.039 A 
ATOM     28  C   UNL A   1      37.214  28.965  30.150  1.00  0.00     0.014 A 
ATOM     29  C   UNL A   1      37.827  29.600  27.910  1.00  0.00     0.014 A 
ATOM     30  C   UNL A   1      38.270  28.054  30.187  1.00  0.00     0.010 A 
ATOM     31  C   UNL A   1      38.943  28.795  27.991  1.00  0.00     0.010 A 
ATOM     32  C   UNL A   1      39.202  28.071  29.155  1.00  0.00    -0.014 A 
BRANCH  32  33
ATOM     33  C   UNL A   1      40.534  27.484  29.239  1.00  0.00     0.031 A 
ATOM     34  C   UNL A   1      40.791  26.107  28.775  1.00  0.00     0.074 A 
ATOM     35  C   UNL A   1      41.572  28.286  29.568  1.00  0.00     0.049 A 
ATOM     36  N   UNL A   1      41.841  25.426  29.085  1.00  0.00    -0.248 NA
ATOM     37  C   UNL A   1      39.861  25.375  27.923  1.00  0.00     0.031 C 
ATOM     38  C   UNL A   1      42.995  28.029  29.367  1.00  0.00     0.029 A 
ATOM     39  N   UNL A   1      41.539  29.450  30.347  1.00  0.00    -0.354 N 
ATOM     40  C   UNL A   1      41.868  24.309  28.284  1.00  0.00     0.074 A 
ATOM     41  C   UNL A   1      40.590  24.301  27.607  1.00  0.00     0.031 C 
ATOM     42  C   UNL A   1      43.697  28.797  30.214  1.00  0.00     0.029 A 
ATOM     43  C   UNL A   1      42.743  29.455  31.089  1.00  0.00     0.049 A 
ATOM     44  H   UNL A   1      40.824  30.126  30.372  1.00  0.00     0.167 HD
ATOM     45  C   UNL A   1      43.012  23.574  28.191  1.00  0.00     0.037 A 
ATOM     46  C   UNL A   1      42.713  29.334  32.450  1.00  0.00     0.037 A 
ATOM     47  C   UNL A   1      44.065  24.097  29.056  1.00  0.00     0.049 A 
ATOM     48  C   UNL A   1      43.372  28.081  32.991  1.00  0.00     0.074 A 
ATOM     49  C   UNL A   1      45.158  24.926  28.857  1.00  0.00     0.029 A 
ATOM     50  N   UNL A   1      43.894  24.016  30.424  1.00  0.00    -0.354 N 
ATOM     51  N   UNL A   1      43.886  27.139  32.251  1.00  0.00    -0.248 NA
ATOM     52  C   UNL A   1      43.421  27.751  34.418  1.00  0.00     0.031 C 
ATOM     53  C   UNL A   1      45.620  25.364  30.131  1.00  0.00     0.029 A 
ATOM     54  C   UNL A   1      44.810  24.797  31.097  1.00  0.00     0.049 A 
ATOM     55  H   UNL A   1      43.205  23.467  30.863  1.00  0.00     0.167 HD
ATOM     56  C   UNL A   1      44.246  26.084  33.043  1.00  0.00     0.074 A 
ATOM     57  C   UNL A   1      43.957  26.519  34.397  1.00  0.00     0.031 C 
ATOM     58  C   UNL A   1      44.709  24.906  32.541  1.00  0.00     0.037 A 
BRANCH  45  59
ATOM     59  C   UNL A   1      43.233  22.516  27.143  1.00  0.00     0.057 A 
ATOM     60  C   UNL A   1      42.484  21.324  27.147  1.00  0.00     0.134 A 
ATOM     61  C   UNL A   1      44.193  22.600  26.120  1.00  0.00     0.134 A 
ATOM     62  F   UNL A   1      41.466  21.134  27.997  1.00  0.00    -0.206 F 
ATOM     63  C   UNL A   1      42.748  20.258  26.279  1.00  0.00     0.040 A 
ATOM     64  C   UNL A   1      44.508  21.521  25.282  1.00  0.00     0.040 A 
ATOM     65  F   UNL A   1      44.835  23.746  25.858  1.00  0.00    -0.206 F 
ATOM     66  C   UNL A   1      43.790  20.337  25.369  1.00  0.00     0.006 A 
ENDBRANCH  45  59
BRANCH  46  67
ATOM     67  C   UNL A   1      41.524  29.999  33.047  1.00  0.00     0.057 A 
ATOM     68  C   UNL A   1      41.535  31.400  33.172  1.00  0.00     0.134 A 
ATOM     69  C   UNL A   1      40.283  29.361  33.109  1.00  0.00     0.134 A 
ATOM     70  F   UNL A   1      42.695  32.074  33.117  1.00  0.00    -0.206 F 
ATOM     71  C   UNL A   1      40.353  32.143  33.227  1.00  0.00     0.040 A 
ATOM     72  C   UNL A   1      39.093  30.095  33.181  1.00  0.00     0.040 A 
ATOM     73  F   UNL A   1      40.191  28.030  32.973  1.00  0.00    -0.206 F 
ATOM     74  C   UNL A   1      39.125  31.488  33.196  1.00  0.00     0.006 A 
ENDBRANCH  46  67
BRANCH  58  75
ATOM     75  C   UNL A   1      45.112  23.749  33.399  1.00  0.00     0.057 A 
ATOM     76  C   UNL A   1      44.194  22.773  33.804  1.00  0.00     0.134 A 
ATOM     77  C   UNL A   1      46.398  23.666  33.963  1.00  0.00     0.134 A 
ATOM     78  F   UNL A   1      42.934  22.782  33.342  1.00  0.00    -0.206 F 
ATOM     79  C   UNL A   1      44.536  21.769  34.716  1.00  0.00     0.040 A 
ATOM     80  C   UNL A   1      46.739  22.696  34.907  1.00  0.00     0.040 A 
ATOM     81  F   UNL A   1      47.373  24.516  33.606  1.00  0.00    -0.206 F 
ATOM     82  C   UNL A   1      45.807  21.740  35.285  1.00  0.00     0.006 A 
ENDBRANCH  58  75
ENDBRANCH  32  33
ENDBRANCH  24  27
ENDBRANCH  22  23
ENDBRANCH  21  22
ENDBRANCH   1  21
TORSDOF 14
ENDMDL
