MODEL 1
REMARK VINA RESULT:     -12.7      0.000      0.000
REMARK SMILES CN1C(=O)/C(=C\c2ccc(-c3ccccc3C(=O)NCCCCNC(=O)c3ccc(-c4c5nc(c(-c6c(F)cccc6F)c6ccc([nH]6)c(-c6c(F)cccc6F)c6nc(c(-c7c(F)cccc7F)c7ccc4[nH]7)C=C6)C=C5)cc3)o2)C(=O)[NH+]=C1S
REMARK SMILES IDX 21 1 20 2 19 3 17 4 18 5 16 7 11 8 12 9 13 10 15 11 14 12
REMARK SMILES IDX 10 13 7 14 8 15 81 16 9 17 6 18 1 19 2 20 3 21 85 22 4 23
REMARK SMILES IDX 5 24 84 25 82 26 83 28 86 29 22 31 23 32 24 33 25 34 26 36
REMARK SMILES IDX 27 37 28 38 80 39 29 40 79 41 30 42 31 43 32 44 73 45 33 46
REMARK SMILES IDX 78 47 72 48 74 49 34 50 77 51 71 52 70 53 35 55 61 56 44 57
REMARK SMILES IDX 60 58 45 59 48 60 59 61 75 62 46 63 47 64 58 66 76 67 49 68
REMARK SMILES IDX 36 69 37 70 42 71 38 72 39 73 41 74 43 75 40 76 62 77 63 78
REMARK SMILES IDX 68 79 64 80 65 81 67 82 69 83 66 84 50 85 51 86 56 87 52 88
REMARK SMILES IDX 53 89 55 90 57 91 54 92
REMARK H PARENT 19 6 84 27 86 30 24 35 74 54 48 65
REMARK Flexibility Score: inf
ROOT
ATOM      1  C   UNL A   1      37.028  21.978  24.227  1.00  0.00     0.023 C 
ENDROOT
BRANCH   1   2
ATOM      2  C   UNL A   1      36.141  23.051  24.829  1.00  0.00     0.116 C 
BRANCH   2   3
ATOM      3  N   UNL A   1      35.359  22.749  25.990  1.00  0.00    -0.352 N 
ATOM      4  C   UNL A   1      34.368  21.803  26.155  1.00  0.00     0.252 C 
ATOM      5  O   UNL A   1      33.984  21.660  27.323  1.00  0.00    -0.269 OA
ATOM      6  H   UNL A   1      35.556  23.297  26.785  1.00  0.00     0.163 HD
BRANCH   4   7
ATOM      7  C   UNL A   1      33.658  21.002  25.074  1.00  0.00     0.050 A 
ATOM      8  C   UNL A   1      32.683  21.372  24.113  1.00  0.00     0.030 A 
ATOM      9  C   UNL A   1      32.178  20.393  23.219  1.00  0.00     0.013 A 
ATOM     10  C   UNL A   1      32.650  19.084  23.210  1.00  0.00     0.001 A 
ATOM     11  C   UNL A   1      34.116  19.657  25.028  1.00  0.00     0.014 A 
ATOM     12  C   UNL A   1      33.634  18.717  24.110  1.00  0.00     0.001 A 
BRANCH   8  13
ATOM     13  C   UNL A   1      32.162  22.705  23.871  1.00  0.00     0.135 A 
ATOM     14  C   UNL A   1      32.453  24.919  23.696  1.00  0.00     0.128 A 
ATOM     15  C   UNL A   1      31.150  24.605  23.311  1.00  0.00     0.051 A 
ATOM     16  O   UNL A   1      33.038  23.733  24.092  1.00  0.00    -0.457 OA
ATOM     17  C   UNL A   1      30.955  23.209  23.458  1.00  0.00     0.051 A 
BRANCH  14  18
ATOM     18  C   UNL A   1      33.202  26.132  23.591  1.00  0.00     0.071 C 
ATOM     19  C   UNL A   1      31.502  28.215  27.590  1.00  0.00     0.301 C 
ATOM     20  N   UNL A   1      32.408  28.246  26.453  1.00  0.00    -0.189 N 
ATOM     21  C   UNL A   1      32.685  27.040  25.858  1.00  0.00     0.349 C 
ATOM     22  C   UNL A   1      33.085  29.361  26.035  1.00  0.00     0.318 C 
ATOM     23  O   UNL A   1      32.548  25.968  26.443  1.00  0.00    -0.240 OA
ATOM     24  C   UNL A   1      33.248  27.129  24.500  1.00  0.00     0.157 C 
ATOM     25  N   UNL A   1      33.810  29.445  24.978  1.00  0.00    -0.200 N 
ATOM     26  C   UNL A   1      33.852  28.419  24.074  1.00  0.00     0.347 C 
ATOM     27  H   UNL A   1      34.342  30.259  24.817  1.00  0.00     0.316 HD
ATOM     28  O   UNL A   1      34.345  28.554  22.963  1.00  0.00    -0.241 OA
BRANCH  22  29
ATOM     29  S   UNL A   1      33.036  30.783  27.054  1.00  0.00    -0.055 SA
ATOM     30  H   UNL A   1      33.157  30.411  28.357  1.00  0.00     0.116 HD
ENDBRANCH  22  29
ENDBRANCH  14  18
ENDBRANCH   8  13
ENDBRANCH   4   7
ENDBRANCH   2   3
ENDBRANCH   1   2
BRANCH   1  31
ATOM     31  C   UNL A   1      37.564  20.886  25.141  1.00  0.00     0.023 C 
BRANCH  31  32
ATOM     32  C   UNL A   1      38.968  21.050  25.712  1.00  0.00     0.116 C 
BRANCH  32  33
ATOM     33  N   UNL A   1      39.831  19.876  25.624  1.00  0.00    -0.352 N 
ATOM     34  C   UNL A   1      41.141  19.730  26.037  1.00  0.00     0.251 C 
ATOM     35  H   UNL A   1      39.423  19.080  25.213  1.00  0.00     0.163 HD
ATOM     36  O   UNL A   1      41.715  18.651  25.934  1.00  0.00    -0.269 OA
BRANCH  34  37
ATOM     37  C   UNL A   1      41.864  20.909  26.559  1.00  0.00     0.039 A 
ATOM     38  C   UNL A   1      42.394  21.836  25.658  1.00  0.00     0.014 A 
ATOM     39  C   UNL A   1      41.886  21.160  27.931  1.00  0.00     0.014 A 
ATOM     40  C   UNL A   1      42.821  23.080  26.129  1.00  0.00     0.010 A 
ATOM     41  C   UNL A   1      42.208  22.435  28.381  1.00  0.00     0.010 A 
ATOM     42  C   UNL A   1      42.659  23.416  27.483  1.00  0.00    -0.014 A 
BRANCH  42  43
ATOM     43  C   UNL A   1      42.920  24.793  27.980  1.00  0.00     0.031 A 
ATOM     44  C   UNL A   1      44.315  25.201  28.360  1.00  0.00     0.074 A 
ATOM     45  C   UNL A   1      41.890  25.642  28.172  1.00  0.00     0.049 A 
ATOM     46  N   UNL A   1      44.735  26.323  28.889  1.00  0.00    -0.248 NA
ATOM     47  C   UNL A   1      45.378  24.202  28.152  1.00  0.00     0.031 C 
ATOM     48  C   UNL A   1      40.481  25.342  27.904  1.00  0.00     0.029 A 
ATOM     49  N   UNL A   1      41.865  26.928  28.650  1.00  0.00    -0.354 N 
ATOM     50  C   UNL A   1      46.100  26.157  29.089  1.00  0.00     0.074 A 
ATOM     51  C   UNL A   1      46.426  24.806  28.689  1.00  0.00     0.031 C 
ATOM     52  C   UNL A   1      39.736  26.424  28.186  1.00  0.00     0.029 A 
ATOM     53  C   UNL A   1      40.605  27.478  28.699  1.00  0.00     0.049 A 
ATOM     54  H   UNL A   1      42.674  27.414  28.931  1.00  0.00     0.167 HD
ATOM     55  C   UNL A   1      47.006  27.058  29.536  1.00  0.00     0.037 A 
ATOM     56  C   UNL A   1      40.195  28.692  29.115  1.00  0.00     0.037 A 
ATOM     57  C   UNL A   1      46.677  28.407  29.911  1.00  0.00     0.049 A 
ATOM     58  C   UNL A   1      41.220  29.673  29.616  1.00  0.00     0.074 A 
ATOM     59  C   UNL A   1      47.528  29.419  30.321  1.00  0.00     0.029 A 
ATOM     60  N   UNL A   1      45.393  28.931  29.928  1.00  0.00    -0.354 N 
ATOM     61  N   UNL A   1      42.520  29.529  29.724  1.00  0.00    -0.248 NA
ATOM     62  C   UNL A   1      40.725  30.987  30.048  1.00  0.00     0.031 C 
ATOM     63  C   UNL A   1      46.752  30.538  30.636  1.00  0.00     0.029 A 
ATOM     64  C   UNL A   1      45.425  30.245  30.365  1.00  0.00     0.049 A 
ATOM     65  H   UNL A   1      44.580  28.441  29.667  1.00  0.00     0.167 HD
ATOM     66  C   UNL A   1      42.999  30.742  30.204  1.00  0.00     0.074 A 
ATOM     67  C   UNL A   1      41.853  31.614  30.351  1.00  0.00     0.031 C 
ATOM     68  C   UNL A   1      44.273  31.101  30.496  1.00  0.00     0.037 A 
BRANCH  55  69
ATOM     69  C   UNL A   1      48.436  26.608  29.640  1.00  0.00     0.057 A 
ATOM     70  C   UNL A   1      49.352  26.806  28.598  1.00  0.00     0.134 A 
ATOM     71  C   UNL A   1      48.907  25.988  30.803  1.00  0.00     0.134 A 
ATOM     72  F   UNL A   1      48.963  27.381  27.450  1.00  0.00    -0.206 F 
ATOM     73  C   UNL A   1      50.676  26.376  28.696  1.00  0.00     0.040 A 
ATOM     74  C   UNL A   1      50.238  25.581  30.926  1.00  0.00     0.040 A 
ATOM     75  F   UNL A   1      48.087  25.770  31.841  1.00  0.00    -0.206 F 
ATOM     76  C   UNL A   1      51.124  25.766  29.867  1.00  0.00     0.006 A 
ENDBRANCH  55  69
BRANCH  56  77
ATOM     77  C   UNL A   1      38.756  29.062  29.056  1.00  0.00     0.057 A 
ATOM     78  C   UNL A   1      38.182  29.546  27.873  1.00  0.00     0.134 A 
ATOM     79  C   UNL A   1      37.924  28.959  30.176  1.00  0.00     0.134 A 
ATOM     80  F   UNL A   1      38.930  29.687  26.769  1.00  0.00    -0.206 F 
ATOM     81  C   UNL A   1      36.842  29.936  27.814  1.00  0.00     0.040 A 
ATOM     82  C   UNL A   1      36.575  29.319  30.124  1.00  0.00     0.040 A 
ATOM     83  F   UNL A   1      38.408  28.497  31.339  1.00  0.00    -0.206 F 
ATOM     84  C   UNL A   1      36.034  29.818  28.942  1.00  0.00     0.006 A 
ENDBRANCH  56  77
BRANCH  68  85
ATOM     85  C   UNL A   1      44.500  32.509  30.964  1.00  0.00     0.057 A 
ATOM     86  C   UNL A   1      44.514  32.848  32.324  1.00  0.00     0.134 A 
ATOM     87  C   UNL A   1      44.755  33.532  30.041  1.00  0.00     0.134 A 
ATOM     88  F   UNL A   1      44.267  31.919  33.259  1.00  0.00    -0.206 F 
ATOM     89  C   UNL A   1      44.746  34.158  32.745  1.00  0.00     0.040 A 
ATOM     90  C   UNL A   1      45.019  34.838  30.451  1.00  0.00     0.040 A 
ATOM     91  F   UNL A   1      44.767  33.273  28.724  1.00  0.00    -0.206 F 
ATOM     92  C   UNL A   1      45.008  35.156  31.807  1.00  0.00     0.006 A 
ENDBRANCH  68  85
ENDBRANCH  42  43
ENDBRANCH  34  37
ENDBRANCH  32  33
ENDBRANCH  31  32
ENDBRANCH   1  31
TORSDOF 14
ENDMDL
MODEL 2
REMARK VINA RESULT:     -12.6      3.817      7.933
REMARK SMILES CN1C(=O)/C(=C\c2ccc(-c3ccccc3C(=O)NCCCCNC(=O)c3ccc(-c4c5nc(c(-c6c(F)cccc6F)c6ccc([nH]6)c(-c6c(F)cccc6F)c6nc(c(-c7c(F)cccc7F)c7ccc4[nH]7)C=C6)C=C5)cc3)o2)C(=O)[NH+]=C1S
REMARK SMILES IDX 21 1 20 2 19 3 17 4 18 5 16 7 11 8 12 9 13 10 15 11 14 12
REMARK SMILES IDX 10 13 7 14 8 15 81 16 9 17 6 18 1 19 2 20 3 21 85 22 4 23
REMARK SMILES IDX 5 24 84 25 82 26 83 28 86 29 22 31 23 32 24 33 25 34 26 36
REMARK SMILES IDX 27 37 28 38 80 39 29 40 79 41 30 42 31 43 32 44 73 45 33 46
REMARK SMILES IDX 78 47 72 48 74 49 34 50 77 51 71 52 70 53 35 55 61 56 44 57
REMARK SMILES IDX 60 58 45 59 48 60 59 61 75 62 46 63 47 64 58 66 76 67 49 68
REMARK SMILES IDX 36 69 37 70 42 71 38 72 39 73 41 74 43 75 40 76 62 77 63 78
REMARK SMILES IDX 68 79 64 80 65 81 67 82 69 83 66 84 50 85 51 86 56 87 52 88
REMARK SMILES IDX 53 89 55 90 57 91 54 92
REMARK H PARENT 19 6 84 27 86 30 24 35 74 54 48 65
REMARK Flexibility Score: inf
ROOT
ATOM      1  C   UNL A   1      32.332  27.964  26.845  1.00  0.00     0.023 C 
ENDROOT
BRANCH   1   2
ATOM      2  C   UNL A   1      33.740  27.875  26.288  1.00  0.00     0.116 C 
BRANCH   2   3
ATOM      3  N   UNL A   1      34.023  26.948  25.234  1.00  0.00    -0.352 N 
ATOM      4  C   UNL A   1      33.315  26.695  24.078  1.00  0.00     0.252 C 
ATOM      5  O   UNL A   1      33.894  25.954  23.272  1.00  0.00    -0.269 OA
ATOM      6  H   UNL A   1      34.842  26.413  25.353  1.00  0.00     0.163 HD
BRANCH   4   7
ATOM      7  C   UNL A   1      31.902  27.145  23.736  1.00  0.00     0.050 A 
ATOM      8  C   UNL A   1      30.633  26.626  24.097  1.00  0.00     0.030 A 
ATOM      9  C   UNL A   1      29.458  27.254  23.612  1.00  0.00     0.013 A 
ATOM     10  C   UNL A   1      29.502  28.407  22.834  1.00  0.00     0.001 A 
ATOM     11  C   UNL A   1      31.903  28.326  22.943  1.00  0.00     0.014 A 
ATOM     12  C   UNL A   1      30.731  28.954  22.510  1.00  0.00     0.001 A 
BRANCH   8  13
ATOM     13  C   UNL A   1      30.371  25.521  25.002  1.00  0.00     0.135 A 
ATOM     14  C   UNL A   1      30.691  23.401  25.649  1.00  0.00     0.128 A 
ATOM     15  C   UNL A   1      29.921  24.053  26.611  1.00  0.00     0.051 A 
ATOM     16  O   UNL A   1      30.908  24.316  24.637  1.00  0.00    -0.457 OA
ATOM     17  C   UNL A   1      29.686  25.383  26.182  1.00  0.00     0.051 A 
BRANCH  14  18
ATOM     18  C   UNL A   1      31.332  22.122  25.659  1.00  0.00     0.071 C 
ATOM     19  C   UNL A   1      35.846  23.730  25.142  1.00  0.00     0.301 C 
ATOM     20  N   UNL A   1      34.930  22.619  25.348  1.00  0.00    -0.189 N 
ATOM     21  C   UNL A   1      33.687  22.933  25.838  1.00  0.00     0.349 C 
ATOM     22  C   UNL A   1      35.274  21.300  25.208  1.00  0.00     0.318 C 
ATOM     23  O   UNL A   1      33.462  23.971  26.455  1.00  0.00    -0.240 OA
ATOM     24  C   UNL A   1      32.662  21.891  25.652  1.00  0.00     0.157 C 
ATOM     25  N   UNL A   1      34.466  20.304  25.283  1.00  0.00    -0.200 N 
ATOM     26  C   UNL A   1      33.115  20.502  25.375  1.00  0.00     0.347 C 
ATOM     27  H   UNL A   1      34.825  19.387  25.274  1.00  0.00     0.316 HD
ATOM     28  O   UNL A   1      32.315  19.591  25.221  1.00  0.00    -0.241 OA
BRANCH  22  29
ATOM     29  S   UNL A   1      36.965  20.910  24.987  1.00  0.00    -0.055 SA
ATOM     30  H   UNL A   1      37.716  21.648  25.847  1.00  0.00     0.116 HD
ENDBRANCH  22  29
ENDBRANCH  14  18
ENDBRANCH   8  13
ENDBRANCH   4   7
ENDBRANCH   2   3
ENDBRANCH   1   2
BRANCH   1  31
ATOM     31  C   UNL A   1      31.575  29.275  26.690  1.00  0.00     0.023 C 
BRANCH  31  32
ATOM     32  C   UNL A   1      32.321  30.475  26.118  1.00  0.00     0.116 C 
BRANCH  32  33
ATOM     33  N   UNL A   1      32.036  31.760  26.748  1.00  0.00    -0.352 N 
ATOM     34  C   UNL A   1      32.880  32.573  27.478  1.00  0.00     0.251 C 
ATOM     35  H   UNL A   1      31.116  32.091  26.636  1.00  0.00     0.163 HD
ATOM     36  O   UNL A   1      32.495  33.658  27.902  1.00  0.00    -0.269 OA
BRANCH  34  37
ATOM     37  C   UNL A   1      34.244  32.097  27.789  1.00  0.00     0.039 A 
ATOM     38  C   UNL A   1      35.272  33.030  27.945  1.00  0.00     0.014 A 
ATOM     39  C   UNL A   1      34.464  30.747  28.063  1.00  0.00     0.014 A 
ATOM     40  C   UNL A   1      36.482  32.625  28.513  1.00  0.00     0.010 A 
ATOM     41  C   UNL A   1      35.625  30.371  28.726  1.00  0.00     0.010 A 
ATOM     42  C   UNL A   1      36.640  31.309  28.978  1.00  0.00    -0.014 A 
BRANCH  42  43
ATOM     43  C   UNL A   1      37.836  30.897  29.759  1.00  0.00     0.031 A 
ATOM     44  C   UNL A   1      38.855  29.981  29.142  1.00  0.00     0.074 A 
ATOM     45  C   UNL A   1      37.957  31.275  31.048  1.00  0.00     0.049 A 
ATOM     46  N   UNL A   1      39.918  29.442  29.682  1.00  0.00    -0.248 NA
ATOM     47  C   UNL A   1      38.629  29.587  27.741  1.00  0.00     0.031 C 
ATOM     48  C   UNL A   1      37.001  32.109  31.782  1.00  0.00     0.029 A 
ATOM     49  N   UNL A   1      38.929  30.997  31.976  1.00  0.00    -0.354 N 
ATOM     50  C   UNL A   1      40.476  28.639  28.695  1.00  0.00     0.074 A 
ATOM     51  C   UNL A   1      39.599  28.706  27.548  1.00  0.00     0.031 C 
ATOM     52  C   UNL A   1      37.452  32.305  33.032  1.00  0.00     0.029 A 
ATOM     53  C   UNL A   1      38.703  31.573  33.205  1.00  0.00     0.049 A 
ATOM     54  H   UNL A   1      39.716  30.438  31.781  1.00  0.00     0.167 HD
ATOM     55  C   UNL A   1      41.630  27.933  28.730  1.00  0.00     0.037 A 
ATOM     56  C   UNL A   1      39.420  31.514  34.344  1.00  0.00     0.037 A 
ATOM     57  C   UNL A   1      42.510  27.889  29.867  1.00  0.00     0.049 A 
ATOM     58  C   UNL A   1      40.696  30.716  34.360  1.00  0.00     0.074 A 
ATOM     59  C   UNL A   1      43.733  27.253  29.986  1.00  0.00     0.029 A 
ATOM     60  N   UNL A   1      42.256  28.501  31.086  1.00  0.00    -0.354 N 
ATOM     61  N   UNL A   1      41.252  30.026  33.393  1.00  0.00    -0.248 NA
ATOM     62  C   UNL A   1      41.447  30.692  35.622  1.00  0.00     0.031 C 
ATOM     63  C   UNL A   1      44.193  27.437  31.293  1.00  0.00     0.029 A 
ATOM     64  C   UNL A   1      43.288  28.238  31.971  1.00  0.00     0.049 A 
ATOM     65  H   UNL A   1      41.460  29.044  31.290  1.00  0.00     0.167 HD
ATOM     66  C   UNL A   1      42.431  29.514  33.919  1.00  0.00     0.074 A 
ATOM     67  C   UNL A   1      42.517  29.986  35.285  1.00  0.00     0.031 C 
ATOM     68  C   UNL A   1      43.360  28.725  33.325  1.00  0.00     0.037 A 
BRANCH  55  69
ATOM     69  C   UNL A   1      42.004  27.157  27.499  1.00  0.00     0.057 A 
ATOM     70  C   UNL A   1      42.696  27.747  26.432  1.00  0.00     0.134 A 
ATOM     71  C   UNL A   1      41.685  25.798  27.387  1.00  0.00     0.134 A 
ATOM     72  F   UNL A   1      43.019  29.048  26.467  1.00  0.00    -0.206 F 
ATOM     73  C   UNL A   1      43.030  27.022  25.287  1.00  0.00     0.040 A 
ATOM     74  C   UNL A   1      42.042  25.054  26.260  1.00  0.00     0.040 A 
ATOM     75  F   UNL A   1      41.028  25.168  28.372  1.00  0.00    -0.206 F 
ATOM     76  C   UNL A   1      42.708  25.669  25.201  1.00  0.00     0.006 A 
ENDBRANCH  55  69
BRANCH  56  77
ATOM     77  C   UNL A   1      38.968  32.247  35.557  1.00  0.00     0.057 A 
ATOM     78  C   UNL A   1      39.297  33.595  35.751  1.00  0.00     0.134 A 
ATOM     79  C   UNL A   1      38.216  31.620  36.557  1.00  0.00     0.134 A 
ATOM     80  F   UNL A   1      40.031  34.248  34.839  1.00  0.00    -0.206 F 
ATOM     81  C   UNL A   1      38.914  34.285  36.904  1.00  0.00     0.040 A 
ATOM     82  C   UNL A   1      37.802  32.305  37.702  1.00  0.00     0.040 A 
ATOM     83  F   UNL A   1      37.862  30.333  36.431  1.00  0.00    -0.206 F 
ATOM     84  C   UNL A   1      38.160  33.639  37.881  1.00  0.00     0.006 A 
ENDBRANCH  56  77
BRANCH  68  85
ATOM     85  C   UNL A   1      44.568  28.356  34.135  1.00  0.00     0.057 A 
ATOM     86  C   UNL A   1      44.630  27.174  34.885  1.00  0.00     0.134 A 
ATOM     87  C   UNL A   1      45.705  29.176  34.127  1.00  0.00     0.134 A 
ATOM     88  F   UNL A   1      43.572  26.351  34.944  1.00  0.00    -0.206 F 
ATOM     89  C   UNL A   1      45.768  26.835  35.618  1.00  0.00     0.040 A 
ATOM     90  C   UNL A   1      46.859  28.832  34.830  1.00  0.00     0.040 A 
ATOM     91  F   UNL A   1      45.717  30.317  33.421  1.00  0.00    -0.206 F 
ATOM     92  C   UNL A   1      46.890  27.661  35.585  1.00  0.00     0.006 A 
ENDBRANCH  68  85
ENDBRANCH  42  43
ENDBRANCH  34  37
ENDBRANCH  32  33
ENDBRANCH  31  32
ENDBRANCH   1  31
TORSDOF 14
ENDMDL
MODEL 3
REMARK VINA RESULT:     -12.6      3.823      8.765
REMARK SMILES CN1C(=O)/C(=C\c2ccc(-c3ccccc3C(=O)NCCCCNC(=O)c3ccc(-c4c5nc(c(-c6c(F)cccc6F)c6ccc([nH]6)c(-c6c(F)cccc6F)c6nc(c(-c7c(F)cccc7F)c7ccc4[nH]7)C=C6)C=C5)cc3)o2)C(=O)[NH+]=C1S
REMARK SMILES IDX 21 1 20 2 19 3 17 4 18 5 16 7 11 8 12 9 13 10 15 11 14 12
REMARK SMILES IDX 10 13 7 14 8 15 81 16 9 17 6 18 1 19 2 20 3 21 85 22 4 23
REMARK SMILES IDX 5 24 84 25 82 26 83 28 86 29 22 31 23 32 24 33 25 34 26 36
REMARK SMILES IDX 27 37 28 38 80 39 29 40 79 41 30 42 31 43 32 44 73 45 33 46
REMARK SMILES IDX 78 47 72 48 74 49 34 50 77 51 71 52 70 53 35 55 61 56 44 57
REMARK SMILES IDX 60 58 45 59 48 60 59 61 75 62 46 63 47 64 58 66 76 67 49 68
REMARK SMILES IDX 36 69 37 70 42 71 38 72 39 73 41 74 43 75 40 76 62 77 63 78
REMARK SMILES IDX 68 79 64 80 65 81 67 82 69 83 66 84 50 85 51 86 56 87 52 88
REMARK SMILES IDX 53 89 55 90 57 91 54 92
REMARK H PARENT 19 6 84 27 86 30 24 35 74 54 48 65
REMARK Flexibility Score: inf
ROOT
ATOM      1  C   UNL A   1      32.460  27.847  26.737  1.00  0.00     0.023 C 
ENDROOT
BRANCH   1   2
ATOM      2  C   UNL A   1      33.835  27.742  26.106  1.00  0.00     0.116 C 
BRANCH   2   3
ATOM      3  N   UNL A   1      34.046  26.831  25.023  1.00  0.00    -0.352 N 
ATOM      4  C   UNL A   1      33.292  26.636  23.884  1.00  0.00     0.252 C 
ATOM      5  O   UNL A   1      33.814  25.892  23.043  1.00  0.00    -0.269 OA
ATOM      6  H   UNL A   1      34.845  26.260  25.103  1.00  0.00     0.163 HD
BRANCH   4   7
ATOM      7  C   UNL A   1      31.891  27.153  23.597  1.00  0.00     0.050 A 
ATOM      8  C   UNL A   1      30.614  26.699  24.014  1.00  0.00     0.030 A 
ATOM      9  C   UNL A   1      29.452  27.382  23.574  1.00  0.00     0.013 A 
ATOM     10  C   UNL A   1      29.519  28.528  22.787  1.00  0.00     0.001 A 
ATOM     11  C   UNL A   1      31.916  28.329  22.797  1.00  0.00     0.014 A 
ATOM     12  C   UNL A   1      30.758  29.012  22.408  1.00  0.00     0.001 A 
BRANCH   8  13
ATOM     13  C   UNL A   1      30.335  25.613  24.937  1.00  0.00     0.135 A 
ATOM     14  C   UNL A   1      30.615  23.495  25.610  1.00  0.00     0.128 A 
ATOM     15  C   UNL A   1      29.869  24.177  26.570  1.00  0.00     0.051 A 
ATOM     16  O   UNL A   1      30.841  24.391  24.584  1.00  0.00    -0.457 OA
ATOM     17  C   UNL A   1      29.660  25.506  26.126  1.00  0.00     0.051 A 
BRANCH  14  18
ATOM     18  C   UNL A   1      31.227  22.203  25.632  1.00  0.00     0.071 C 
ATOM     19  C   UNL A   1      35.779  23.706  25.134  1.00  0.00     0.301 C 
ATOM     20  N   UNL A   1      34.837  22.617  25.341  1.00  0.00    -0.189 N 
ATOM     21  C   UNL A   1      33.598  22.961  25.821  1.00  0.00     0.349 C 
ATOM     22  C   UNL A   1      35.152  21.290  25.211  1.00  0.00     0.318 C 
ATOM     23  O   UNL A   1      33.393  24.008  26.431  1.00  0.00    -0.240 OA
ATOM     24  C   UNL A   1      32.551  21.942  25.634  1.00  0.00     0.157 C 
ATOM     25  N   UNL A   1      34.322  20.313  25.286  1.00  0.00    -0.200 N 
ATOM     26  C   UNL A   1      32.975  20.541  25.368  1.00  0.00     0.347 C 
ATOM     27  H   UNL A   1      34.659  19.387  25.285  1.00  0.00     0.316 HD
ATOM     28  O   UNL A   1      32.155  19.648  25.214  1.00  0.00    -0.241 OA
BRANCH  22  29
ATOM     29  S   UNL A   1      36.835  20.861  25.002  1.00  0.00    -0.055 SA
ATOM     30  H   UNL A   1      37.507  21.085  26.164  1.00  0.00     0.116 HD
ENDBRANCH  22  29
ENDBRANCH  14  18
ENDBRANCH   8  13
ENDBRANCH   4   7
ENDBRANCH   2   3
ENDBRANCH   1   2
BRANCH   1  31
ATOM     31  C   UNL A   1      31.817  29.221  26.847  1.00  0.00     0.023 C 
BRANCH  31  32
ATOM     32  C   UNL A   1      32.508  30.396  26.164  1.00  0.00     0.116 C 
BRANCH  32  33
ATOM     33  N   UNL A   1      32.354  31.691  26.818  1.00  0.00    -0.352 N 
ATOM     34  C   UNL A   1      33.278  32.401  27.561  1.00  0.00     0.251 C 
ATOM     35  H   UNL A   1      31.473  32.116  26.716  1.00  0.00     0.163 HD
ATOM     36  O   UNL A   1      33.005  33.511  28.006  1.00  0.00    -0.269 OA
BRANCH  34  37
ATOM     37  C   UNL A   1      34.587  31.783  27.858  1.00  0.00     0.039 A 
ATOM     38  C   UNL A   1      35.705  32.605  28.024  1.00  0.00     0.014 A 
ATOM     39  C   UNL A   1      34.668  30.414  28.112  1.00  0.00     0.014 A 
ATOM     40  C   UNL A   1      36.870  32.069  28.579  1.00  0.00     0.010 A 
ATOM     41  C   UNL A   1      35.788  29.911  28.764  1.00  0.00     0.010 A 
ATOM     42  C   UNL A   1      36.893  30.738  29.024  1.00  0.00    -0.014 A 
BRANCH  42  43
ATOM     43  C   UNL A   1      38.043  30.194  29.794  1.00  0.00     0.031 A 
ATOM     44  C   UNL A   1      38.262  30.622  31.218  1.00  0.00     0.074 A 
ATOM     45  C   UNL A   1      38.937  29.389  29.184  1.00  0.00     0.049 A 
ATOM     46  N   UNL A   1      39.246  30.328  32.029  1.00  0.00    -0.248 NA
ATOM     47  C   UNL A   1      37.258  31.531  31.798  1.00  0.00     0.031 C 
ATOM     48  C   UNL A   1      38.873  28.954  27.786  1.00  0.00     0.029 A 
ATOM     49  N   UNL A   1      40.083  28.800  29.657  1.00  0.00    -0.354 N 
ATOM     50  C   UNL A   1      38.987  31.026  33.203  1.00  0.00     0.074 A 
ATOM     51  C   UNL A   1      37.794  31.810  32.976  1.00  0.00     0.031 C 
ATOM     52  C   UNL A   1      39.910  28.140  27.527  1.00  0.00     0.029 A 
ATOM     53  C   UNL A   1      40.739  28.032  28.723  1.00  0.00     0.049 A 
ATOM     54  H   UNL A   1      40.406  28.915  30.581  1.00  0.00     0.167 HD
ATOM     55  C   UNL A   1      39.666  30.994  34.374  1.00  0.00     0.037 A 
ATOM     56  C   UNL A   1      41.881  27.325  28.818  1.00  0.00     0.037 A 
ATOM     57  C   UNL A   1      40.840  30.194  34.599  1.00  0.00     0.049 A 
ATOM     58  C   UNL A   1      42.622  27.312  30.128  1.00  0.00     0.074 A 
ATOM     59  C   UNL A   1      41.568  30.043  35.766  1.00  0.00     0.029 A 
ATOM     60  N   UNL A   1      41.462  29.415  33.634  1.00  0.00    -0.354 N 
ATOM     61  N   UNL A   1      42.321  27.914  31.255  1.00  0.00    -0.248 NA
ATOM     62  C   UNL A   1      43.857  26.518  30.184  1.00  0.00     0.031 C 
ATOM     63  C   UNL A   1      42.661  29.214  35.492  1.00  0.00     0.029 A 
ATOM     64  C   UNL A   1      42.580  28.800  34.172  1.00  0.00     0.049 A 
ATOM     65  H   UNL A   1      41.153  29.315  32.704  1.00  0.00     0.167 HD
ATOM     66  C   UNL A   1      43.309  27.545  32.159  1.00  0.00     0.074 A 
ATOM     67  C   UNL A   1      44.209  26.656  31.454  1.00  0.00     0.031 C 
ATOM     68  C   UNL A   1      43.459  27.910  33.456  1.00  0.00     0.037 A 
BRANCH  55  69
ATOM     69  C   UNL A   1      39.148  31.847  35.497  1.00  0.00     0.057 A 
ATOM     70  C   UNL A   1      38.264  31.345  36.462  1.00  0.00     0.134 A 
ATOM     71  C   UNL A   1      39.553  33.180  35.626  1.00  0.00     0.134 A 
ATOM     72  F   UNL A   1      37.824  30.080  36.389  1.00  0.00    -0.206 F 
ATOM     73  C   UNL A   1      37.778  32.146  37.496  1.00  0.00     0.040 A 
ATOM     74  C   UNL A   1      39.099  33.984  36.675  1.00  0.00     0.040 A 
ATOM     75  F   UNL A   1      40.401  33.725  34.741  1.00  0.00    -0.206 F 
ATOM     76  C   UNL A   1      38.201  33.469  37.608  1.00  0.00     0.006 A 
ENDBRANCH  55  69
BRANCH  56  77
ATOM     77  C   UNL A   1      42.387  26.552  27.652  1.00  0.00     0.057 A 
ATOM     78  C   UNL A   1      42.047  25.205  27.476  1.00  0.00     0.134 A 
ATOM     79  C   UNL A   1      43.234  27.130  26.699  1.00  0.00     0.134 A 
ATOM     80  F   UNL A   1      41.254  24.588  28.364  1.00  0.00    -0.206 F 
ATOM     81  C   UNL A   1      42.547  24.456  26.408  1.00  0.00     0.040 A 
ATOM     82  C   UNL A   1      43.720  26.400  25.611  1.00  0.00     0.040 A 
ATOM     83  F   UNL A   1      43.594  28.417  26.805  1.00  0.00    -0.206 F 
ATOM     84  C   UNL A   1      43.383  25.056  25.470  1.00  0.00     0.006 A 
ENDBRANCH  56  77
BRANCH  68  85
ATOM     85  C   UNL A   1      44.613  27.315  34.209  1.00  0.00     0.057 A 
ATOM     86  C   UNL A   1      45.852  27.963  34.305  1.00  0.00     0.134 A 
ATOM     87  C   UNL A   1      44.466  26.097  34.886  1.00  0.00     0.134 A 
ATOM     88  F   UNL A   1      46.062  29.126  33.671  1.00  0.00    -0.206 F 
ATOM     89  C   UNL A   1      46.910  27.407  35.025  1.00  0.00     0.040 A 
ATOM     90  C   UNL A   1      45.506  25.548  35.635  1.00  0.00     0.040 A 
ATOM     91  F   UNL A   1      43.303  25.430  34.845  1.00  0.00    -0.206 F 
ATOM     92  C   UNL A   1      46.736  26.199  35.699  1.00  0.00     0.006 A 
ENDBRANCH  68  85
ENDBRANCH  42  43
ENDBRANCH  34  37
ENDBRANCH  32  33
ENDBRANCH  31  32
ENDBRANCH   1  31
TORSDOF 14
ENDMDL
