MODEL 1
REMARK VINA RESULT:     -10.3      0.000      0.000
REMARK SMILES C[C@@H](SC1CCOCC1)c1ccc(C(=O)NCCCCNC(=O)c2ccc(-c3c4nc(c(-c5c(F)cccc5F)c5ccc([nH]5)c(-c5c(F)cccc5F)c5nc(c(-c6c(F)cccc6F)c6ccc3[nH]6)C=C5)C=C4)cc2)o1
REMARK SMILES IDX 18 1 17 2 16 3 14 4 15 5 13 7 10 8 11 9 78 10 12 11 2 12
REMARK SMILES IDX 1 13 3 14 4 15 5 16 9 17 6 18 8 19 7 20 19 21 20 22 21 23
REMARK SMILES IDX 22 24 23 26 24 27 25 28 77 29 26 30 76 31 27 32 28 33 29 34
REMARK SMILES IDX 70 35 30 36 75 37 69 38 71 39 31 40 74 41 68 42 67 43 32 45
REMARK SMILES IDX 58 46 41 47 57 48 42 49 45 50 56 51 72 52 43 53 44 54 55 56
REMARK SMILES IDX 73 57 46 58 33 59 34 60 39 61 35 62 36 63 38 64 40 65 37 66
REMARK SMILES IDX 59 67 60 68 65 69 61 70 62 71 64 72 66 73 63 74 47 75 48 76
REMARK SMILES IDX 53 77 49 78 50 79 52 80 54 81 51 82
REMARK H PARENT 16 6 21 25 71 44 45 55
REMARK Flexibility Score: inf
ROOT
ATOM      1  C   UNL A   1      42.664  19.701  26.432  1.00  0.00     0.023 C 
ENDROOT
BRANCH   1   2
ATOM      2  C   UNL A   1      43.254  19.037  25.187  1.00  0.00     0.116 C 
BRANCH   2   3
ATOM      3  N   UNL A   1      44.671  18.792  25.344  1.00  0.00    -0.349 N 
ATOM      4  C   UNL A   1      45.743  19.658  25.315  1.00  0.00     0.286 C 
ATOM      5  O   UNL A   1      46.841  19.153  25.559  1.00  0.00    -0.266 OA
ATOM      6  H   UNL A   1      44.910  17.849  25.496  1.00  0.00     0.163 HD
BRANCH   4   7
ATOM      7  C   UNL A   1      45.566  21.072  25.028  1.00  0.00     0.191 A 
ATOM      8  C   UNL A   1      45.518  23.209  25.629  1.00  0.00     0.117 A 
ATOM      9  C   UNL A   1      45.186  23.173  24.292  1.00  0.00     0.047 A 
ATOM     10  O   UNL A   1      45.762  21.945  26.076  1.00  0.00    -0.455 OA
ATOM     11  C   UNL A   1      45.254  21.816  23.903  1.00  0.00     0.056 A 
BRANCH   8  12
ATOM     12  C   UNL A   1      45.664  24.326  26.618  1.00  0.00     0.110 C 
ATOM     13  C   UNL A   1      45.030  23.909  27.949  1.00  0.00     0.028 C 
BRANCH  12  14
ATOM     14  S   UNL A   1      47.464  24.710  26.758  1.00  0.00    -0.147 SA
BRANCH  14  15
ATOM     15  C   UNL A   1      47.629  26.234  25.759  1.00  0.00     0.052 C 
ATOM     16  C   UNL A   1      46.288  26.676  25.173  1.00  0.00     0.043 C 
ATOM     17  C   UNL A   1      48.632  25.955  24.639  1.00  0.00     0.043 C 
ATOM     18  C   UNL A   1      46.510  27.844  24.216  1.00  0.00     0.161 C 
ATOM     19  C   UNL A   1      48.727  27.160  23.715  1.00  0.00     0.161 C 
ATOM     20  O   UNL A   1      47.444  27.496  23.193  1.00  0.00    -0.381 OA
ENDBRANCH  14  15
ENDBRANCH  12  14
ENDBRANCH   8  12
ENDBRANCH   4   7
ENDBRANCH   2   3
ENDBRANCH   1   2
BRANCH   1  21
ATOM     21  C   UNL A   1      41.989  21.051  26.163  1.00  0.00     0.023 C 
BRANCH  21  22
ATOM     22  C   UNL A   1      40.897  21.440  27.156  1.00  0.00     0.116 C 
BRANCH  22  23
ATOM     23  N   UNL A   1      39.599  21.655  26.538  1.00  0.00    -0.352 N 
ATOM     24  C   UNL A   1      38.891  22.830  26.413  1.00  0.00     0.251 C 
ATOM     25  H   UNL A   1      39.168  20.854  26.159  1.00  0.00     0.163 HD
ATOM     26  O   UNL A   1      37.764  22.830  25.949  1.00  0.00    -0.269 OA
BRANCH  24  27
ATOM     27  C   UNL A   1      39.501  24.088  26.894  1.00  0.00     0.039 A 
ATOM     28  C   UNL A   1      40.094  24.943  25.961  1.00  0.00     0.014 A 
ATOM     29  C   UNL A   1      39.457  24.436  28.246  1.00  0.00     0.014 A 
ATOM     30  C   UNL A   1      40.578  26.186  26.377  1.00  0.00     0.010 A 
ATOM     31  C   UNL A   1      39.882  25.698  28.647  1.00  0.00     0.010 A 
ATOM     32  C   UNL A   1      40.440  26.587  27.715  1.00  0.00    -0.014 A 
BRANCH  32  33
ATOM     33  C   UNL A   1      40.861  27.939  28.158  1.00  0.00     0.031 A 
ATOM     34  C   UNL A   1      42.317  28.308  28.177  1.00  0.00     0.074 A 
ATOM     35  C   UNL A   1      39.937  28.807  28.614  1.00  0.00     0.049 A 
ATOM     36  N   UNL A   1      42.887  29.407  28.604  1.00  0.00    -0.248 NA
ATOM     37  C   UNL A   1      43.262  27.299  27.672  1.00  0.00     0.031 C 
ATOM     38  C   UNL A   1      38.497  28.548  28.695  1.00  0.00     0.029 A 
ATOM     39  N   UNL A   1      40.073  30.080  29.109  1.00  0.00    -0.354 N 
ATOM     40  C   UNL A   1      44.251  29.214  28.438  1.00  0.00     0.074 A 
ATOM     41  C   UNL A   1      44.430  27.878  27.912  1.00  0.00     0.031 C 
ATOM     42  C   UNL A   1      37.884  29.635  29.192  1.00  0.00     0.029 A 
ATOM     43  C   UNL A   1      38.885  30.651  29.495  1.00  0.00     0.049 A 
ATOM     44  H   UNL A   1      40.941  30.540  29.180  1.00  0.00     0.167 HD
ATOM     45  C   UNL A   1      45.263  30.081  28.681  1.00  0.00     0.037 A 
ATOM     46  C   UNL A   1      38.633  31.857  30.038  1.00  0.00     0.037 A 
ATOM     47  C   UNL A   1      45.081  31.421  29.171  1.00  0.00     0.049 A 
ATOM     48  C   UNL A   1      39.774  32.803  30.287  1.00  0.00     0.074 A 
ATOM     49  C   UNL A   1      46.039  32.397  29.386  1.00  0.00     0.029 A 
ATOM     50  N   UNL A   1      43.859  31.973  29.521  1.00  0.00    -0.354 N 
ATOM     51  N   UNL A   1      41.054  32.633  30.060  1.00  0.00    -0.248 NA
ATOM     52  C   UNL A   1      39.435  34.114  30.864  1.00  0.00     0.031 C 
ATOM     53  C   UNL A   1      45.399  33.530  29.899  1.00  0.00     0.029 A 
ATOM     54  C   UNL A   1      44.040  33.273  29.966  1.00  0.00     0.049 A 
ATOM     55  H   UNL A   1      42.991  31.512  29.462  1.00  0.00     0.167 HD
ATOM     56  C   UNL A   1      41.668  33.820  30.436  1.00  0.00     0.074 A 
ATOM     57  C   UNL A   1      40.620  34.708  30.895  1.00  0.00     0.031 C 
ATOM     58  C   UNL A   1      42.982  34.147  30.404  1.00  0.00     0.037 A 
BRANCH  45  59
ATOM     59  C   UNL A   1      46.660  29.609  28.409  1.00  0.00     0.057 A 
ATOM     60  C   UNL A   1      47.309  29.886  27.198  1.00  0.00     0.134 A 
ATOM     61  C   UNL A   1      47.382  28.908  29.383  1.00  0.00     0.134 A 
ATOM     62  F   UNL A   1      46.668  30.542  26.218  1.00  0.00    -0.206 F 
ATOM     63  C   UNL A   1      48.617  29.466  26.958  1.00  0.00     0.040 A 
ATOM     64  C   UNL A   1      48.701  28.505  29.165  1.00  0.00     0.040 A 
ATOM     65  F   UNL A   1      46.822  28.615  30.566  1.00  0.00    -0.206 F 
ATOM     66  C   UNL A   1      49.320  28.779  27.947  1.00  0.00     0.006 A 
ENDBRANCH  45  59
BRANCH  46  67
ATOM     67  C   UNL A   1      37.241  32.252  30.365  1.00  0.00     0.057 A 
ATOM     68  C   UNL A   1      36.677  31.942  31.609  1.00  0.00     0.134 A 
ATOM     69  C   UNL A   1      36.435  32.928  29.443  1.00  0.00     0.134 A 
ATOM     70  F   UNL A   1      37.394  31.277  32.527  1.00  0.00    -0.206 F 
ATOM     71  C   UNL A   1      35.355  32.268  31.915  1.00  0.00     0.040 A 
ATOM     72  C   UNL A   1      35.119  33.282  29.744  1.00  0.00     0.040 A 
ATOM     73  F   UNL A   1      36.918  33.261  28.237  1.00  0.00    -0.206 F 
ATOM     74  C   UNL A   1      34.572  32.943  30.981  1.00  0.00     0.006 A 
ENDBRANCH  46  67
BRANCH  58  75
ATOM     75  C   UNL A   1      43.357  35.532  30.839  1.00  0.00     0.057 A 
ATOM     76  C   UNL A   1      43.655  35.831  32.174  1.00  0.00     0.134 A 
ATOM     77  C   UNL A   1      43.456  36.570  29.904  1.00  0.00     0.134 A 
ATOM     78  F   UNL A   1      43.564  34.885  33.121  1.00  0.00    -0.206 F 
ATOM     79  C   UNL A   1      44.022  37.120  32.567  1.00  0.00     0.040 A 
ATOM     80  C   UNL A   1      43.846  37.855  30.279  1.00  0.00     0.040 A 
ATOM     81  F   UNL A   1      43.191  36.345  28.608  1.00  0.00    -0.206 F 
ATOM     82  C   UNL A   1      44.125  38.134  31.616  1.00  0.00     0.006 A 
ENDBRANCH  58  75
ENDBRANCH  32  33
ENDBRANCH  24  27
ENDBRANCH  22  23
ENDBRANCH  21  22
ENDBRANCH   1  21
TORSDOF 14
ENDMDL
MODEL 2
REMARK VINA RESULT:     -10.3      6.604     12.140
REMARK SMILES C[C@@H](SC1CCOCC1)c1ccc(C(=O)NCCCCNC(=O)c2ccc(-c3c4nc(c(-c5c(F)cccc5F)c5ccc([nH]5)c(-c5c(F)cccc5F)c5nc(c(-c6c(F)cccc6F)c6ccc3[nH]6)C=C5)C=C4)cc2)o1
REMARK SMILES IDX 18 1 17 2 16 3 14 4 15 5 13 7 10 8 11 9 78 10 12 11 2 12
REMARK SMILES IDX 1 13 3 14 4 15 5 16 9 17 6 18 8 19 7 20 19 21 20 22 21 23
REMARK SMILES IDX 22 24 23 26 24 27 25 28 77 29 26 30 76 31 27 32 28 33 29 34
REMARK SMILES IDX 70 35 30 36 75 37 69 38 71 39 31 40 74 41 68 42 67 43 32 45
REMARK SMILES IDX 58 46 41 47 57 48 42 49 45 50 56 51 72 52 43 53 44 54 55 56
REMARK SMILES IDX 73 57 46 58 33 59 34 60 39 61 35 62 36 63 38 64 40 65 37 66
REMARK SMILES IDX 59 67 60 68 65 69 61 70 62 71 64 72 66 73 63 74 47 75 48 76
REMARK SMILES IDX 53 77 49 78 50 79 52 80 54 81 51 82
REMARK H PARENT 16 6 21 25 71 44 45 55
REMARK Flexibility Score: inf
ROOT
ATOM      1  C   UNL A   1      34.359  33.455  28.541  1.00  0.00     0.023 C 
ENDROOT
BRANCH   1   2
ATOM      2  C   UNL A   1      33.958  32.082  27.999  1.00  0.00     0.116 C 
BRANCH   2   3
ATOM      3  N   UNL A   1      35.056  31.143  28.083  1.00  0.00    -0.349 N 
ATOM      4  C   UNL A   1      35.172  29.851  27.615  1.00  0.00     0.286 C 
ATOM      5  O   UNL A   1      36.275  29.325  27.777  1.00  0.00    -0.266 OA
ATOM      6  H   UNL A   1      35.852  31.482  28.552  1.00  0.00     0.163 HD
BRANCH   4   7
ATOM      7  C   UNL A   1      34.060  29.178  26.964  1.00  0.00     0.191 A 
ATOM      8  C   UNL A   1      32.764  28.770  25.208  1.00  0.00     0.117 A 
ATOM      9  C   UNL A   1      32.254  28.026  26.249  1.00  0.00     0.047 A 
ATOM     10  O   UNL A   1      33.863  29.458  25.629  1.00  0.00    -0.455 OA
ATOM     11  C   UNL A   1      33.103  28.258  27.356  1.00  0.00     0.056 A 
BRANCH   8  12
ATOM     12  C   UNL A   1      32.359  28.938  23.775  1.00  0.00     0.110 C 
ATOM     13  C   UNL A   1      33.581  28.724  22.875  1.00  0.00     0.028 C 
BRANCH  12  14
ATOM     14  S   UNL A   1      30.992  27.744  23.442  1.00  0.00    -0.147 SA
BRANCH  14  15
ATOM     15  C   UNL A   1      29.625  28.836  22.906  1.00  0.00     0.052 C 
ATOM     16  C   UNL A   1      29.668  30.188  23.618  1.00  0.00     0.043 C 
ATOM     17  C   UNL A   1      28.307  28.119  23.204  1.00  0.00     0.043 C 
ATOM     18  C   UNL A   1      28.417  30.989  23.265  1.00  0.00     0.161 C 
ATOM     19  C   UNL A   1      27.135  29.030  22.872  1.00  0.00     0.161 C 
ATOM     20  O   UNL A   1      27.233  30.259  23.589  1.00  0.00    -0.381 OA
ENDBRANCH  14  15
ENDBRANCH  12  14
ENDBRANCH   8  12
ENDBRANCH   4   7
ENDBRANCH   2   3
ENDBRANCH   1   2
BRANCH   1  21
ATOM     21  C   UNL A   1      33.187  34.428  28.715  1.00  0.00     0.023 C 
BRANCH  21  22
ATOM     22  C   UNL A   1      33.531  35.741  29.412  1.00  0.00     0.116 C 
BRANCH  22  23
ATOM     23  N   UNL A   1      32.590  36.110  30.456  1.00  0.00    -0.352 N 
ATOM     24  C   UNL A   1      32.651  35.837  31.804  1.00  0.00     0.251 C 
ATOM     25  H   UNL A   1      31.802  36.623  30.159  1.00  0.00     0.163 HD
ATOM     26  O   UNL A   1      31.728  36.136  32.541  1.00  0.00    -0.269 OA
BRANCH  24  27
ATOM     27  C   UNL A   1      33.836  35.132  32.339  1.00  0.00     0.039 A 
ATOM     28  C   UNL A   1      33.676  33.833  32.830  1.00  0.00     0.014 A 
ATOM     29  C   UNL A   1      35.096  35.735  32.327  1.00  0.00     0.014 A 
ATOM     30  C   UNL A   1      34.798  33.109  33.238  1.00  0.00     0.010 A 
ATOM     31  C   UNL A   1      36.219  34.990  32.675  1.00  0.00     0.010 A 
ATOM     32  C   UNL A   1      36.080  33.669  33.128  1.00  0.00    -0.014 A 
BRANCH  32  33
ATOM     33  C   UNL A   1      37.293  32.884  33.467  1.00  0.00     0.031 A 
ATOM     34  C   UNL A   1      38.042  33.164  34.739  1.00  0.00     0.074 A 
ATOM     35  C   UNL A   1      37.760  31.971  32.593  1.00  0.00     0.049 A 
ATOM     36  N   UNL A   1      39.162  32.642  35.170  1.00  0.00    -0.248 NA
ATOM     37  C   UNL A   1      37.470  34.184  35.633  1.00  0.00     0.031 C 
ATOM     38  C   UNL A   1      37.151  31.645  31.301  1.00  0.00     0.029 A 
ATOM     39  N   UNL A   1      38.864  31.158  32.654  1.00  0.00    -0.354 N 
ATOM     40  C   UNL A   1      39.439  33.281  36.371  1.00  0.00     0.074 A 
ATOM     41  C   UNL A   1      38.394  34.260  36.581  1.00  0.00     0.031 C 
ATOM     42  C   UNL A   1      37.880  30.689  30.701  1.00  0.00     0.029 A 
ATOM     43  C   UNL A   1      39.022  30.360  31.547  1.00  0.00     0.049 A 
ATOM     44  H   UNL A   1      39.484  31.147  33.419  1.00  0.00     0.167 HD
ATOM     45  C   UNL A   1      40.459  33.057  37.233  1.00  0.00     0.037 A 
ATOM     46  C   UNL A   1      39.984  29.467  31.246  1.00  0.00     0.037 A 
ATOM     47  C   UNL A   1      41.477  32.060  37.040  1.00  0.00     0.049 A 
ATOM     48  C   UNL A   1      41.099  29.230  32.225  1.00  0.00     0.074 A 
ATOM     49  C   UNL A   1      42.515  31.713  37.887  1.00  0.00     0.029 A 
ATOM     50  N   UNL A   1      41.586  31.249  35.920  1.00  0.00    -0.354 N 
ATOM     51  N   UNL A   1      41.309  29.794  33.391  1.00  0.00    -0.248 NA
ATOM     52  C   UNL A   1      42.110  28.229  31.851  1.00  0.00     0.031 C 
ATOM     53  C   UNL A   1      43.272  30.714  37.265  1.00  0.00     0.029 A 
ATOM     54  C   UNL A   1      42.683  30.413  36.049  1.00  0.00     0.049 A 
ATOM     55  H   UNL A   1      40.974  31.265  35.149  1.00  0.00     0.167 HD
ATOM     56  C   UNL A   1      42.454  29.196  33.901  1.00  0.00     0.074 A 
ATOM     57  C   UNL A   1      42.888  28.219  32.924  1.00  0.00     0.031 C 
ATOM     58  C   UNL A   1      43.090  29.435  35.073  1.00  0.00     0.037 A 
BRANCH  45  59
ATOM     59  C   UNL A   1      40.518  33.900  38.472  1.00  0.00     0.057 A 
ATOM     60  C   UNL A   1      41.273  35.079  38.525  1.00  0.00     0.134 A 
ATOM     61  C   UNL A   1      39.776  33.555  39.609  1.00  0.00     0.134 A 
ATOM     62  F   UNL A   1      42.015  35.459  37.474  1.00  0.00    -0.206 F 
ATOM     63  C   UNL A   1      41.305  35.874  39.671  1.00  0.00     0.040 A 
ATOM     64  C   UNL A   1      39.781  34.355  40.753  1.00  0.00     0.040 A 
ATOM     65  F   UNL A   1      39.029  32.442  39.622  1.00  0.00    -0.206 F 
ATOM     66  C   UNL A   1      40.551  35.516  40.788  1.00  0.00     0.006 A 
ENDBRANCH  45  59
BRANCH  46  67
ATOM     67  C   UNL A   1      39.928  28.711  29.970  1.00  0.00     0.057 A 
ATOM     68  C   UNL A   1      40.557  29.197  28.817  1.00  0.00     0.134 A 
ATOM     69  C   UNL A   1      39.233  27.501  29.866  1.00  0.00     0.134 A 
ATOM     70  F   UNL A   1      41.221  30.361  28.850  1.00  0.00    -0.206 F 
ATOM     71  C   UNL A   1      40.476  28.519  27.600  1.00  0.00     0.040 A 
ATOM     72  C   UNL A   1      39.165  26.801  28.660  1.00  0.00     0.040 A 
ATOM     73  F   UNL A   1      38.617  26.979  30.935  1.00  0.00    -0.206 F 
ATOM     74  C   UNL A   1      39.780  27.315  27.519  1.00  0.00     0.006 A 
ENDBRANCH  46  67
BRANCH  58  75
ATOM     75  C   UNL A   1      44.297  28.600  35.382  1.00  0.00     0.057 A 
ATOM     76  C   UNL A   1      45.588  29.005  35.019  1.00  0.00     0.134 A 
ATOM     77  C   UNL A   1      44.168  27.397  36.086  1.00  0.00     0.134 A 
ATOM     78  F   UNL A   1      45.776  30.142  34.331  1.00  0.00    -0.206 F 
ATOM     79  C   UNL A   1      46.707  28.231  35.329  1.00  0.00     0.040 A 
ATOM     80  C   UNL A   1      45.281  26.627  36.424  1.00  0.00     0.040 A 
ATOM     81  F   UNL A   1      42.960  26.958  36.469  1.00  0.00    -0.206 F 
ATOM     82  C   UNL A   1      46.555  27.041  36.039  1.00  0.00     0.006 A 
ENDBRANCH  58  75
ENDBRANCH  32  33
ENDBRANCH  24  27
ENDBRANCH  22  23
ENDBRANCH  21  22
ENDBRANCH   1  21
TORSDOF 14
ENDMDL
MODEL 3
REMARK VINA RESULT:     -10.2      4.554     10.196
REMARK SMILES C[C@@H](SC1CCOCC1)c1ccc(C(=O)NCCCCNC(=O)c2ccc(-c3c4nc(c(-c5c(F)cccc5F)c5ccc([nH]5)c(-c5c(F)cccc5F)c5nc(c(-c6c(F)cccc6F)c6ccc3[nH]6)C=C5)C=C4)cc2)o1
REMARK SMILES IDX 18 1 17 2 16 3 14 4 15 5 13 7 10 8 11 9 78 10 12 11 2 12
REMARK SMILES IDX 1 13 3 14 4 15 5 16 9 17 6 18 8 19 7 20 19 21 20 22 21 23
REMARK SMILES IDX 22 24 23 26 24 27 25 28 77 29 26 30 76 31 27 32 28 33 29 34
REMARK SMILES IDX 70 35 30 36 75 37 69 38 71 39 31 40 74 41 68 42 67 43 32 45
REMARK SMILES IDX 58 46 41 47 57 48 42 49 45 50 56 51 72 52 43 53 44 54 55 56
REMARK SMILES IDX 73 57 46 58 33 59 34 60 39 61 35 62 36 63 38 64 40 65 37 66
REMARK SMILES IDX 59 67 60 68 65 69 61 70 62 71 64 72 66 73 63 74 47 75 48 76
REMARK SMILES IDX 53 77 49 78 50 79 52 80 54 81 51 82
REMARK H PARENT 16 6 21 25 71 44 45 55
REMARK Flexibility Score: inf
ROOT
ATOM      1  C   UNL A   1      32.944  27.661  25.008  1.00  0.00     0.023 C 
ENDROOT
BRANCH   1   2
ATOM      2  C   UNL A   1      33.455  26.241  24.754  1.00  0.00     0.116 C 
BRANCH   2   3
ATOM      3  N   UNL A   1      33.283  25.861  23.368  1.00  0.00    -0.349 N 
ATOM      4  C   UNL A   1      33.664  24.720  22.695  1.00  0.00     0.286 C 
ATOM      5  O   UNL A   1      33.305  24.653  21.517  1.00  0.00    -0.266 OA
ATOM      6  H   UNL A   1      32.817  26.528  22.814  1.00  0.00     0.163 HD
BRANCH   4   7
ATOM      7  C   UNL A   1      34.425  23.670  23.353  1.00  0.00     0.191 A 
ATOM      8  C   UNL A   1      34.578  21.826  24.579  1.00  0.00     0.117 A 
ATOM      9  C   UNL A   1      35.869  22.217  24.302  1.00  0.00     0.047 A 
ATOM     10  O   UNL A   1      33.700  22.692  23.998  1.00  0.00    -0.455 OA
ATOM     11  C   UNL A   1      35.769  23.370  23.489  1.00  0.00     0.056 A 
BRANCH   8  12
ATOM     12  C   UNL A   1      33.998  20.679  25.350  1.00  0.00     0.110 C 
ATOM     13  C   UNL A   1      33.721  21.125  26.790  1.00  0.00     0.028 C 
BRANCH  12  14
ATOM     14  S   UNL A   1      32.482  20.122  24.457  1.00  0.00    -0.147 SA
BRANCH  14  15
ATOM     15  C   UNL A   1      32.684  18.303  24.419  1.00  0.00     0.052 C 
ATOM     16  C   UNL A   1      32.483  17.682  25.802  1.00  0.00     0.043 C 
ATOM     17  C   UNL A   1      34.089  17.997  23.897  1.00  0.00     0.043 C 
ATOM     18  C   UNL A   1      32.829  16.196  25.748  1.00  0.00     0.161 C 
ATOM     19  C   UNL A   1      34.345  16.498  23.945  1.00  0.00     0.161 C 
ATOM     20  O   UNL A   1      34.160  15.998  25.268  1.00  0.00    -0.381 OA
ENDBRANCH  14  15
ENDBRANCH  12  14
ENDBRANCH   8  12
ENDBRANCH   4   7
ENDBRANCH   2   3
ENDBRANCH   1   2
BRANCH   1  21
ATOM     21  C   UNL A   1      33.941  28.563  25.744  1.00  0.00     0.023 C 
BRANCH  21  22
ATOM     22  C   UNL A   1      33.750  28.643  27.256  1.00  0.00     0.116 C 
BRANCH  22  23
ATOM     23  N   UNL A   1      33.695  30.004  27.764  1.00  0.00    -0.352 N 
ATOM     24  C   UNL A   1      34.685  30.728  28.390  1.00  0.00     0.251 C 
ATOM     25  H   UNL A   1      32.835  30.471  27.646  1.00  0.00     0.163 HD
ATOM     26  O   UNL A   1      34.453  31.834  28.847  1.00  0.00    -0.269 OA
BRANCH  24  27
ATOM     27  C   UNL A   1      36.027  30.124  28.544  1.00  0.00     0.039 A 
ATOM     28  C   UNL A   1      36.909  30.170  27.462  1.00  0.00     0.014 A 
ATOM     29  C   UNL A   1      36.420  29.548  29.754  1.00  0.00     0.014 A 
ATOM     30  C   UNL A   1      38.216  29.705  27.618  1.00  0.00     0.010 A 
ATOM     31  C   UNL A   1      37.739  29.143  29.927  1.00  0.00     0.010 A 
ATOM     32  C   UNL A   1      38.650  29.223  28.863  1.00  0.00    -0.014 A 
BRANCH  32  33
ATOM     33  C   UNL A   1      40.060  28.812  29.078  1.00  0.00     0.031 A 
ATOM     34  C   UNL A   1      41.044  29.774  29.682  1.00  0.00     0.074 A 
ATOM     35  C   UNL A   1      40.470  27.598  28.659  1.00  0.00     0.049 A 
ATOM     36  N   UNL A   1      42.330  29.629  29.874  1.00  0.00    -0.248 NA
ATOM     37  C   UNL A   1      40.516  31.082  30.102  1.00  0.00     0.031 C 
ATOM     38  C   UNL A   1      39.623  26.594  28.012  1.00  0.00     0.029 A 
ATOM     39  N   UNL A   1      41.708  27.008  28.705  1.00  0.00    -0.354 N 
ATOM     40  C   UNL A   1      42.768  30.829  30.418  1.00  0.00     0.074 A 
ATOM     41  C   UNL A   1      41.621  31.708  30.485  1.00  0.00     0.031 C 
ATOM     42  C   UNL A   1      40.362  25.507  27.737  1.00  0.00     0.029 A 
ATOM     43  C   UNL A   1      41.738  25.749  28.158  1.00  0.00     0.049 A 
ATOM     44  H   UNL A   1      42.499  27.445  29.095  1.00  0.00     0.167 HD
ATOM     45  C   UNL A   1      44.010  31.161  30.843  1.00  0.00     0.037 A 
ATOM     46  C   UNL A   1      42.763  24.889  28.006  1.00  0.00     0.037 A 
ATOM     47  C   UNL A   1      45.142  30.274  30.808  1.00  0.00     0.049 A 
ATOM     48  C   UNL A   1      44.129  25.278  28.497  1.00  0.00     0.074 A 
ATOM     49  C   UNL A   1      46.425  30.496  31.276  1.00  0.00     0.029 A 
ATOM     50  N   UNL A   1      45.125  28.995  30.274  1.00  0.00    -0.354 N 
ATOM     51  N   UNL A   1      44.513  26.392  29.073  1.00  0.00    -0.248 NA
ATOM     52  C   UNL A   1      45.204  24.290  28.322  1.00  0.00     0.031 C 
ATOM     53  C   UNL A   1      47.195  29.362  30.995  1.00  0.00     0.029 A 
ATOM     54  C   UNL A   1      46.381  28.420  30.388  1.00  0.00     0.049 A 
ATOM     55  H   UNL A   1      44.338  28.558  29.874  1.00  0.00     0.167 HD
ATOM     56  C   UNL A   1      45.863  26.226  29.356  1.00  0.00     0.074 A 
ATOM     57  C   UNL A   1      46.228  24.902  28.899  1.00  0.00     0.031 C 
ATOM     58  C   UNL A   1      46.722  27.095  29.942  1.00  0.00     0.037 A 
BRANCH  45  59
ATOM     59  C   UNL A   1      44.207  32.541  31.396  1.00  0.00     0.057 A 
ATOM     60  C   UNL A   1      44.517  33.629  30.568  1.00  0.00     0.134 A 
ATOM     61  C   UNL A   1      44.042  32.795  32.763  1.00  0.00     0.134 A 
ATOM     62  F   UNL A   1      44.701  33.450  29.251  1.00  0.00    -0.206 F 
ATOM     63  C   UNL A   1      44.675  34.916  31.083  1.00  0.00     0.040 A 
ATOM     64  C   UNL A   1      44.173  34.083  33.287  1.00  0.00     0.040 A 
ATOM     65  F   UNL A   1      43.740  31.800  33.610  1.00  0.00    -0.206 F 
ATOM     66  C   UNL A   1      44.496  35.147  32.446  1.00  0.00     0.006 A 
ENDBRANCH  45  59
BRANCH  46  67
ATOM     67  C   UNL A   1      42.537  23.561  27.381  1.00  0.00     0.057 A 
ATOM     68  C   UNL A   1      42.210  22.444  28.160  1.00  0.00     0.134 A 
ATOM     69  C   UNL A   1      42.662  23.371  26.000  1.00  0.00     0.134 A 
ATOM     70  F   UNL A   1      42.096  22.561  29.491  1.00  0.00    -0.206 F 
ATOM     71  C   UNL A   1      42.039  21.182  27.592  1.00  0.00     0.040 A 
ATOM     72  C   UNL A   1      42.469  22.118  25.416  1.00  0.00     0.040 A 
ATOM     73  F   UNL A   1      42.966  24.401  25.199  1.00  0.00    -0.206 F 
ATOM     74  C   UNL A   1      42.165  21.016  26.215  1.00  0.00     0.006 A 
ENDBRANCH  46  67
BRANCH  58  75
ATOM     75  C   UNL A   1      48.131  26.626  30.158  1.00  0.00     0.057 A 
ATOM     76  C   UNL A   1      49.144  26.878  29.226  1.00  0.00     0.134 A 
ATOM     77  C   UNL A   1      48.482  25.948  31.332  1.00  0.00     0.134 A 
ATOM     78  F   UNL A   1      48.869  27.510  28.075  1.00  0.00    -0.206 F 
ATOM     79  C   UNL A   1      50.456  26.454  29.446  1.00  0.00     0.040 A 
ATOM     80  C   UNL A   1      49.794  25.542  31.575  1.00  0.00     0.040 A 
ATOM     81  F   UNL A   1      47.558  25.683  32.268  1.00  0.00    -0.206 F 
ATOM     82  C   UNL A   1      50.785  25.790  30.627  1.00  0.00     0.006 A 
ENDBRANCH  58  75
ENDBRANCH  32  33
ENDBRANCH  24  27
ENDBRANCH  22  23
ENDBRANCH  21  22
ENDBRANCH   1  21
TORSDOF 14
ENDMDL
