MODEL 1
REMARK VINA RESULT:     -12.6      0.000      0.000
REMARK SMILES C[C@@]12CCC[C@](C)(C(=O)NCCCCNC(=O)c3ccc(-c4c5nc(c(-c6c(F)cccc6F)c6ccc([nH]6)c(-c6c(F)cccc6F)c6nc(c(-c7c(F)cccc7F)c7ccc4[nH]7)C=C6)C=C5)cc3)[C@H]1CC[C@@]13C=C(CO)[C@@H](CC[C@@H]12)C3
REMARK SMILES IDX 12 1 11 2 10 3 8 4 9 5 6 7 1 8 2 9 3 10 72 11 83 12 4 13
REMARK SMILES IDX 73 14 75 15 82 16 5 17 7 18 74 19 76 20 84 21 81 22 77 23
REMARK SMILES IDX 80 24 78 25 79 26 13 28 14 29 15 30 16 31 17 33 18 34 19 35
REMARK SMILES IDX 71 36 20 37 70 38 21 39 22 40 23 41 64 42 24 43 69 44 63 45
REMARK SMILES IDX 65 46 25 47 68 48 62 49 61 50 26 52 52 53 35 54 51 55 36 56
REMARK SMILES IDX 39 57 50 58 66 59 37 60 38 61 49 63 67 64 40 65 27 66 28 67
REMARK SMILES IDX 33 68 29 69 30 70 32 71 34 72 31 73 53 74 54 75 59 76 55 77
REMARK SMILES IDX 56 78 58 79 60 80 57 81 41 82 42 83 47 84 43 85 44 86 46 87
REMARK SMILES IDX 48 88 45 89
REMARK H PARENT 10 6 79 27 15 32 65 51 39 62
REMARK Flexibility Score: inf
ROOT
ATOM      1  C   UNL A   1      38.553  22.868  26.039  1.00  0.00     0.023 C 
ENDROOT
BRANCH   1   2
ATOM      2  C   UNL A   1      37.105  23.365  25.990  1.00  0.00     0.116 C 
BRANCH   2   3
ATOM      3  N   UNL A   1      36.189  22.336  26.452  1.00  0.00    -0.356 N 
ATOM      4  C   UNL A   1      34.925  21.974  26.079  1.00  0.00     0.226 C 
ATOM      5  O   UNL A   1      34.377  21.130  26.795  1.00  0.00    -0.274 OA
ATOM      6  H   UNL A   1      36.552  21.788  27.185  1.00  0.00     0.163 HD
BRANCH   4   7
ATOM      7  C   UNL A   1      34.238  22.521  24.794  1.00  0.00     0.050 C 
ATOM      8  C   UNL A   1      33.664  24.774  22.777  1.00  0.00     0.012 C 
ATOM      9  C   UNL A   1      32.563  24.305  23.795  1.00  0.00    -0.025 C 
ATOM     10  C   UNL A   1      31.728  23.157  23.181  1.00  0.00     0.007 C 
ATOM     11  C   UNL A   1      33.235  23.740  25.080  1.00  0.00     0.010 C 
ATOM     12  C   UNL A   1      31.668  25.573  24.041  1.00  0.00     0.005 C 
ATOM     13  C   UNL A   1      32.486  21.838  22.995  1.00  0.00     0.002 C 
ATOM     14  C   UNL A   1      33.726  24.844  26.012  1.00  0.00     0.006 C 
ATOM     15  C   UNL A   1      32.202  26.620  25.100  1.00  0.00    -0.008 C 
ATOM     16  C   UNL A   1      30.145  25.623  24.069  1.00  0.00     0.006 C 
ATOM     17  C   UNL A   1      33.289  21.405  24.231  1.00  0.00     0.017 C 
ATOM     18  C   UNL A   1      35.385  22.620  23.748  1.00  0.00     0.022 C 
ATOM     19  C   UNL A   1      32.735  25.946  26.339  1.00  0.00     0.012 C 
ATOM     20  C   UNL A   1      33.064  27.535  24.282  1.00  0.00    -0.018 C 
ATOM     21  C   UNL A   1      31.159  27.699  25.498  1.00  0.00     0.019 C 
ATOM     22  C   UNL A   1      29.788  27.085  23.580  1.00  0.00     0.008 C 
ATOM     23  C   UNL A   1      32.220  28.304  23.556  1.00  0.00    -0.045 C 
ATOM     24  C   UNL A   1      30.776  28.192  24.107  1.00  0.00     0.018 C 
BRANCH  23  25
ATOM     25  C   UNL A   1      32.611  29.107  22.364  1.00  0.00     0.187 C 
BRANCH  25  26
ATOM     26  O   UNL A   1      31.471  29.788  21.847  1.00  0.00    -0.392 OA
ATOM     27  H   UNL A   1      31.509  29.794  20.878  1.00  0.00     0.211 HD
ENDBRANCH  25  26
ENDBRANCH  23  25
ENDBRANCH   4   7
ENDBRANCH   2   3
ENDBRANCH   1   2
BRANCH   1  28
ATOM     28  C   UNL A   1      38.758  21.493  25.445  1.00  0.00     0.023 C 
BRANCH  28  29
ATOM     29  C   UNL A   1      39.266  20.482  26.448  1.00  0.00     0.116 C 
BRANCH  29  30
ATOM     30  N   UNL A   1      40.301  19.604  25.915  1.00  0.00    -0.352 N 
ATOM     31  C   UNL A   1      41.652  19.841  25.842  1.00  0.00     0.251 C 
ATOM     32  H   UNL A   1      39.995  18.736  25.565  1.00  0.00     0.163 HD
ATOM     33  O   UNL A   1      42.402  19.062  25.261  1.00  0.00    -0.269 OA
BRANCH  31  34
ATOM     34  C   UNL A   1      42.170  21.083  26.441  1.00  0.00     0.039 A 
ATOM     35  C   UNL A   1      42.459  22.166  25.615  1.00  0.00     0.014 A 
ATOM     36  C   UNL A   1      42.231  21.206  27.833  1.00  0.00     0.014 A 
ATOM     37  C   UNL A   1      42.740  23.402  26.194  1.00  0.00     0.010 A 
ATOM     38  C   UNL A   1      42.367  22.462  28.399  1.00  0.00     0.010 A 
ATOM     39  C   UNL A   1      42.651  23.568  27.588  1.00  0.00    -0.014 A 
BRANCH  39  40
ATOM     40  C   UNL A   1      42.880  24.893  28.211  1.00  0.00     0.031 A 
ATOM     41  C   UNL A   1      44.269  25.300  28.619  1.00  0.00     0.074 A 
ATOM     42  C   UNL A   1      41.834  25.712  28.434  1.00  0.00     0.049 A 
ATOM     43  N   UNL A   1      44.680  26.431  29.130  1.00  0.00    -0.248 NA
ATOM     44  C   UNL A   1      45.333  24.292  28.470  1.00  0.00     0.031 C 
ATOM     45  C   UNL A   1      40.429  25.388  28.169  1.00  0.00     0.029 A 
ATOM     46  N   UNL A   1      41.792  26.992  28.922  1.00  0.00    -0.354 N 
ATOM     47  C   UNL A   1      46.039  26.264  29.368  1.00  0.00     0.074 A 
ATOM     48  C   UNL A   1      46.366  24.899  29.031  1.00  0.00     0.031 C 
ATOM     49  C   UNL A   1      39.671  26.464  28.438  1.00  0.00     0.029 A 
ATOM     50  C   UNL A   1      40.531  27.539  28.919  1.00  0.00     0.049 A 
ATOM     51  H   UNL A   1      42.588  27.472  29.244  1.00  0.00     0.167 HD
ATOM     52  C   UNL A   1      46.943  27.178  29.787  1.00  0.00     0.037 A 
ATOM     53  C   UNL A   1      40.125  28.781  29.243  1.00  0.00     0.037 A 
ATOM     54  C   UNL A   1      46.616  28.543  30.092  1.00  0.00     0.049 A 
ATOM     55  C   UNL A   1      41.154  29.791  29.669  1.00  0.00     0.074 A 
ATOM     56  C   UNL A   1      47.461  29.572  30.467  1.00  0.00     0.029 A 
ATOM     57  N   UNL A   1      45.333  29.069  30.055  1.00  0.00    -0.354 N 
ATOM     58  N   UNL A   1      42.450  29.647  29.799  1.00  0.00    -0.248 NA
ATOM     59  C   UNL A   1      40.662  31.140  29.973  1.00  0.00     0.031 C 
ATOM     60  C   UNL A   1      46.681  30.711  30.697  1.00  0.00     0.029 A 
ATOM     61  C   UNL A   1      45.358  30.405  30.417  1.00  0.00     0.049 A 
ATOM     62  H   UNL A   1      44.523  28.566  29.808  1.00  0.00     0.167 HD
ATOM     63  C   UNL A   1      42.934  30.892  30.180  1.00  0.00     0.074 A 
ATOM     64  C   UNL A   1      41.792  31.784  30.229  1.00  0.00     0.031 C 
ATOM     65  C   UNL A   1      44.205  31.268  30.467  1.00  0.00     0.037 A 
BRANCH  52  66
ATOM     66  C   UNL A   1      48.369  26.721  29.921  1.00  0.00     0.057 A 
ATOM     67  C   UNL A   1      49.296  26.877  28.880  1.00  0.00     0.134 A 
ATOM     68  C   UNL A   1      48.822  26.119  31.101  1.00  0.00     0.134 A 
ATOM     69  F   UNL A   1      48.923  27.427  27.714  1.00  0.00    -0.206 F 
ATOM     70  C   UNL A   1      50.610  26.422  28.996  1.00  0.00     0.040 A 
ATOM     71  C   UNL A   1      50.142  25.688  31.240  1.00  0.00     0.040 A 
ATOM     72  F   UNL A   1      47.989  25.938  32.137  1.00  0.00    -0.206 F 
ATOM     73  C   UNL A   1      51.038  25.831  30.182  1.00  0.00     0.006 A 
ENDBRANCH  52  66
BRANCH  53  74
ATOM     74  C   UNL A   1      38.692  29.152  29.119  1.00  0.00     0.057 A 
ATOM     75  C   UNL A   1      37.833  29.096  30.224  1.00  0.00     0.134 A 
ATOM     76  C   UNL A   1      38.146  29.567  27.900  1.00  0.00     0.134 A 
ATOM     77  F   UNL A   1      38.295  28.693  31.417  1.00  0.00    -0.206 F 
ATOM     78  C   UNL A   1      36.479  29.418  30.117  1.00  0.00     0.040 A 
ATOM     79  C   UNL A   1      36.799  29.916  27.784  1.00  0.00     0.040 A 
ATOM     80  F   UNL A   1      38.917  29.653  26.806  1.00  0.00    -0.206 F 
ATOM     81  C   UNL A   1      35.960  29.834  28.892  1.00  0.00     0.006 A 
ENDBRANCH  53  74
BRANCH  65  82
ATOM     82  C   UNL A   1      44.418  32.706  30.838  1.00  0.00     0.057 A 
ATOM     83  C   UNL A   1      44.676  33.689  29.873  1.00  0.00     0.134 A 
ATOM     84  C   UNL A   1      44.359  33.113  32.177  1.00  0.00     0.134 A 
ATOM     85  F   UNL A   1      44.757  33.361  28.574  1.00  0.00    -0.206 F 
ATOM     86  C   UNL A   1      44.910  35.015  30.230  1.00  0.00     0.040 A 
ATOM     87  C   UNL A   1      44.559  34.444  32.543  1.00  0.00     0.040 A 
ATOM     88  F   UNL A   1      44.102  32.225  33.149  1.00  0.00    -0.206 F 
ATOM     89  C   UNL A   1      44.848  35.398  31.569  1.00  0.00     0.006 A 
ENDBRANCH  65  82
ENDBRANCH  39  40
ENDBRANCH  31  34
ENDBRANCH  29  30
ENDBRANCH  28  29
ENDBRANCH   1  28
TORSDOF 13
ENDMDL
MODEL 2
REMARK VINA RESULT:     -12.6      2.753      7.932
REMARK SMILES C[C@@]12CCC[C@](C)(C(=O)NCCCCNC(=O)c3ccc(-c4c5nc(c(-c6c(F)cccc6F)c6ccc([nH]6)c(-c6c(F)cccc6F)c6nc(c(-c7c(F)cccc7F)c7ccc4[nH]7)C=C6)C=C5)cc3)[C@H]1CC[C@@]13C=C(CO)[C@@H](CC[C@@H]12)C3
REMARK SMILES IDX 12 1 11 2 10 3 8 4 9 5 6 7 1 8 2 9 3 10 72 11 83 12 4 13
REMARK SMILES IDX 73 14 75 15 82 16 5 17 7 18 74 19 76 20 84 21 81 22 77 23
REMARK SMILES IDX 80 24 78 25 79 26 13 28 14 29 15 30 16 31 17 33 18 34 19 35
REMARK SMILES IDX 71 36 20 37 70 38 21 39 22 40 23 41 64 42 24 43 69 44 63 45
REMARK SMILES IDX 65 46 25 47 68 48 62 49 61 50 26 52 52 53 35 54 51 55 36 56
REMARK SMILES IDX 39 57 50 58 66 59 37 60 38 61 49 63 67 64 40 65 27 66 28 67
REMARK SMILES IDX 33 68 29 69 30 70 32 71 34 72 31 73 53 74 54 75 59 76 55 77
REMARK SMILES IDX 56 78 58 79 60 80 57 81 41 82 42 83 47 84 43 85 44 86 46 87
REMARK SMILES IDX 48 88 45 89
REMARK H PARENT 10 6 79 27 15 32 65 51 39 62
REMARK Flexibility Score: inf
ROOT
ATOM      1  C   UNL A   1      32.279  29.535  26.922  1.00  0.00     0.023 C 
ENDROOT
BRANCH   1   2
ATOM      2  C   UNL A   1      32.249  30.078  25.491  1.00  0.00     0.116 C 
BRANCH   2   3
ATOM      3  N   UNL A   1      30.972  29.798  24.857  1.00  0.00    -0.356 N 
ATOM      4  C   UNL A   1      30.587  28.929  23.874  1.00  0.00     0.226 C 
ATOM      5  O   UNL A   1      29.427  29.058  23.471  1.00  0.00    -0.274 OA
ATOM      6  H   UNL A   1      30.233  30.346  25.206  1.00  0.00     0.163 HD
BRANCH   4   7
ATOM      7  C   UNL A   1      31.512  27.796  23.343  1.00  0.00     0.050 C 
ATOM      8  C   UNL A   1      32.137  24.827  22.822  1.00  0.00     0.012 C 
ATOM      9  C   UNL A   1      32.886  25.621  23.952  1.00  0.00    -0.025 C 
ATOM     10  C   UNL A   1      34.161  26.283  23.378  1.00  0.00     0.007 C 
ATOM     11  C   UNL A   1      31.980  26.769  24.484  1.00  0.00     0.010 C 
ATOM     12  C   UNL A   1      33.258  24.543  25.031  1.00  0.00     0.005 C 
ATOM     13  C   UNL A   1      33.904  27.424  22.387  1.00  0.00     0.002 C 
ATOM     14  C   UNL A   1      30.912  26.266  25.449  1.00  0.00     0.006 C 
ATOM     15  C   UNL A   1      32.123  24.152  26.061  1.00  0.00    -0.008 C 
ATOM     16  C   UNL A   1      34.599  24.387  25.741  1.00  0.00     0.006 C 
ATOM     17  C   UNL A   1      32.862  28.443  22.872  1.00  0.00     0.017 C 
ATOM     18  C   UNL A   1      30.831  27.318  22.028  1.00  0.00     0.022 C 
ATOM     19  C   UNL A   1      31.386  25.363  26.574  1.00  0.00     0.012 C 
ATOM     20  C   UNL A   1      31.396  23.035  25.370  1.00  0.00    -0.018 C 
ATOM     21  C   UNL A   1      32.624  23.297  27.256  1.00  0.00     0.019 C 
ATOM     22  C   UNL A   1      34.699  22.841  26.063  1.00  0.00     0.008 C 
ATOM     23  C   UNL A   1      32.202  21.952  25.446  1.00  0.00    -0.045 C 
ATOM     24  C   UNL A   1      33.329  22.188  26.484  1.00  0.00     0.018 C 
BRANCH  23  25
ATOM     25  C   UNL A   1      32.060  20.725  24.615  1.00  0.00     0.187 C 
BRANCH  25  26
ATOM     26  O   UNL A   1      32.052  19.573  25.456  1.00  0.00    -0.392 OA
ATOM     27  H   UNL A   1      32.961  19.357  25.716  1.00  0.00     0.211 HD
ENDBRANCH  25  26
ENDBRANCH  23  25
ENDBRANCH   4   7
ENDBRANCH   2   3
ENDBRANCH   1   2
BRANCH   1  28
ATOM     28  C   UNL A   1      33.359  28.508  27.174  1.00  0.00     0.023 C 
BRANCH  28  29
ATOM     29  C   UNL A   1      34.731  29.119  27.347  1.00  0.00     0.116 C 
BRANCH  29  30
ATOM     30  N   UNL A   1      34.788  30.135  28.391  1.00  0.00    -0.352 N 
ATOM     31  C   UNL A   1      35.853  30.455  29.199  1.00  0.00     0.251 C 
ATOM     32  H   UNL A   1      33.965  30.655  28.535  1.00  0.00     0.163 HD
ATOM     33  O   UNL A   1      35.731  31.255  30.121  1.00  0.00    -0.269 OA
BRANCH  31  34
ATOM     34  C   UNL A   1      37.136  29.773  28.955  1.00  0.00     0.039 A 
ATOM     35  C   UNL A   1      37.749  29.904  27.713  1.00  0.00     0.014 A 
ATOM     36  C   UNL A   1      37.783  29.124  30.011  1.00  0.00     0.014 A 
ATOM     37  C   UNL A   1      39.055  29.444  27.552  1.00  0.00     0.010 A 
ATOM     38  C   UNL A   1      39.124  28.800  29.889  1.00  0.00     0.010 A 
ATOM     39  C   UNL A   1      39.766  28.930  28.651  1.00  0.00    -0.014 A 
BRANCH  39  40
ATOM     40  C   UNL A   1      41.177  28.501  28.510  1.00  0.00     0.031 A 
ATOM     41  C   UNL A   1      41.495  27.073  28.158  1.00  0.00     0.074 A 
ATOM     42  C   UNL A   1      42.167  29.388  28.727  1.00  0.00     0.049 A 
ATOM     43  N   UNL A   1      42.658  26.517  27.940  1.00  0.00    -0.248 NA
ATOM     44  C   UNL A   1      40.361  26.136  28.076  1.00  0.00     0.031 C 
ATOM     45  C   UNL A   1      41.984  30.775  29.167  1.00  0.00     0.029 A 
ATOM     46  N   UNL A   1      43.524  29.260  28.594  1.00  0.00    -0.354 N 
ATOM     47  C   UNL A   1      42.393  25.174  27.707  1.00  0.00     0.074 A 
ATOM     48  C   UNL A   1      40.976  24.978  27.896  1.00  0.00     0.031 C 
ATOM     49  C   UNL A   1      43.180  31.385  29.205  1.00  0.00     0.029 A 
ATOM     50  C   UNL A   1      44.211  30.428  28.821  1.00  0.00     0.049 A 
ATOM     51  H   UNL A   1      43.965  28.412  28.358  1.00  0.00     0.167 HD
ATOM     52  C   UNL A   1      43.248  24.197  27.325  1.00  0.00     0.037 A 
ATOM     53  C   UNL A   1      45.525  30.699  28.704  1.00  0.00     0.037 A 
ATOM     54  C   UNL A   1      44.653  24.405  27.109  1.00  0.00     0.049 A 
ATOM     55  C   UNL A   1      46.449  29.608  28.239  1.00  0.00     0.074 A 
ATOM     56  C   UNL A   1      45.603  23.504  26.663  1.00  0.00     0.029 A 
ATOM     57  N   UNL A   1      45.310  25.608  27.326  1.00  0.00    -0.354 N 
ATOM     58  N   UNL A   1      46.172  28.364  27.930  1.00  0.00    -0.248 NA
ATOM     59  C   UNL A   1      47.865  29.967  28.090  1.00  0.00     0.031 C 
ATOM     60  C   UNL A   1      46.843  24.151  26.650  1.00  0.00     0.029 A 
ATOM     61  C   UNL A   1      46.658  25.469  27.040  1.00  0.00     0.049 A 
ATOM     62  H   UNL A   1      44.882  26.437  27.638  1.00  0.00     0.167 HD
ATOM     63  C   UNL A   1      47.375  27.796  27.529  1.00  0.00     0.074 A 
ATOM     64  C   UNL A   1      48.374  28.843  27.607  1.00  0.00     0.031 C 
ATOM     65  C   UNL A   1      47.633  26.524  27.135  1.00  0.00     0.037 A 
BRANCH  52  66
ATOM     66  C   UNL A   1      42.671  22.827  27.105  1.00  0.00     0.057 A 
ATOM     67  C   UNL A   1      42.445  22.317  25.818  1.00  0.00     0.134 A 
ATOM     68  C   UNL A   1      42.336  22.007  28.190  1.00  0.00     0.134 A 
ATOM     69  F   UNL A   1      42.723  23.058  24.735  1.00  0.00    -0.206 F 
ATOM     70  C   UNL A   1      41.877  21.058  25.619  1.00  0.00     0.040 A 
ATOM     71  C   UNL A   1      41.797  20.733  28.002  1.00  0.00     0.040 A 
ATOM     72  F   UNL A   1      42.525  22.431  29.449  1.00  0.00    -0.206 F 
ATOM     73  C   UNL A   1      41.558  20.259  26.714  1.00  0.00     0.006 A 
ENDBRANCH  52  66
BRANCH  53  74
ATOM     74  C   UNL A   1      46.030  32.070  28.970  1.00  0.00     0.057 A 
ATOM     75  C   UNL A   1      46.470  32.442  30.247  1.00  0.00     0.134 A 
ATOM     76  C   UNL A   1      46.084  33.039  27.963  1.00  0.00     0.134 A 
ATOM     77  F   UNL A   1      46.430  31.560  31.257  1.00  0.00    -0.206 F 
ATOM     78  C   UNL A   1      46.924  33.733  30.518  1.00  0.00     0.040 A 
ATOM     79  C   UNL A   1      46.560  34.328  28.214  1.00  0.00     0.040 A 
ATOM     80  F   UNL A   1      45.688  32.744  26.716  1.00  0.00    -0.206 F 
ATOM     81  C   UNL A   1      46.973  34.680  29.497  1.00  0.00     0.006 A 
ENDBRANCH  53  74
BRANCH  65  82
ATOM     82  C   UNL A   1      49.048  26.213  26.743  1.00  0.00     0.057 A 
ATOM     83  C   UNL A   1      49.950  25.622  27.637  1.00  0.00     0.134 A 
ATOM     84  C   UNL A   1      49.511  26.506  25.453  1.00  0.00     0.134 A 
ATOM     85  F   UNL A   1      49.571  25.328  28.890  1.00  0.00    -0.206 F 
ATOM     86  C   UNL A   1      51.273  25.372  27.276  1.00  0.00     0.040 A 
ATOM     87  C   UNL A   1      50.824  26.230  25.071  1.00  0.00     0.040 A 
ATOM     88  F   UNL A   1      48.695  27.061  24.544  1.00  0.00    -0.206 F 
ATOM     89  C   UNL A   1      51.713  25.673  25.988  1.00  0.00     0.006 A 
ENDBRANCH  65  82
ENDBRANCH  39  40
ENDBRANCH  31  34
ENDBRANCH  29  30
ENDBRANCH  28  29
ENDBRANCH   1  28
TORSDOF 13
ENDMDL
MODEL 3
REMARK VINA RESULT:     -12.3      4.005      7.938
REMARK SMILES C[C@@]12CCC[C@](C)(C(=O)NCCCCNC(=O)c3ccc(-c4c5nc(c(-c6c(F)cccc6F)c6ccc([nH]6)c(-c6c(F)cccc6F)c6nc(c(-c7c(F)cccc7F)c7ccc4[nH]7)C=C6)C=C5)cc3)[C@H]1CC[C@@]13C=C(CO)[C@@H](CC[C@@H]12)C3
REMARK SMILES IDX 12 1 11 2 10 3 8 4 9 5 6 7 1 8 2 9 3 10 72 11 83 12 4 13
REMARK SMILES IDX 73 14 75 15 82 16 5 17 7 18 74 19 76 20 84 21 81 22 77 23
REMARK SMILES IDX 80 24 78 25 79 26 13 28 14 29 15 30 16 31 17 33 18 34 19 35
REMARK SMILES IDX 71 36 20 37 70 38 21 39 22 40 23 41 64 42 24 43 69 44 63 45
REMARK SMILES IDX 65 46 25 47 68 48 62 49 61 50 26 52 52 53 35 54 51 55 36 56
REMARK SMILES IDX 39 57 50 58 66 59 37 60 38 61 49 63 67 64 40 65 27 66 28 67
REMARK SMILES IDX 33 68 29 69 30 70 32 71 34 72 31 73 53 74 54 75 59 76 55 77
REMARK SMILES IDX 56 78 58 79 60 80 57 81 41 82 42 83 47 84 43 85 44 86 46 87
REMARK SMILES IDX 48 88 45 89
REMARK H PARENT 10 6 79 27 15 32 65 51 39 62
REMARK Flexibility Score: inf
ROOT
ATOM      1  C   UNL A   1      37.162  22.191  24.625  1.00  0.00     0.023 C 
ENDROOT
BRANCH   1   2
ATOM      2  C   UNL A   1      36.424  21.207  25.537  1.00  0.00     0.116 C 
BRANCH   2   3
ATOM      3  N   UNL A   1      35.456  20.428  24.783  1.00  0.00    -0.356 N 
ATOM      4  C   UNL A   1      34.091  20.447  24.714  1.00  0.00     0.226 C 
ATOM      5  O   UNL A   1      33.576  19.531  24.065  1.00  0.00    -0.274 OA
ATOM      6  H   UNL A   1      35.868  19.746  24.203  1.00  0.00     0.163 HD
BRANCH   4   7
ATOM      7  C   UNL A   1      33.233  21.583  25.340  1.00  0.00     0.050 C 
ATOM      8  C   UNL A   1      31.175  23.863  25.119  1.00  0.00     0.012 C 
ATOM      9  C   UNL A   1      32.698  24.172  25.356  1.00  0.00    -0.025 C 
ATOM     10  C   UNL A   1      33.001  24.211  26.872  1.00  0.00     0.007 C 
ATOM     11  C   UNL A   1      33.570  23.036  24.748  1.00  0.00     0.010 C 
ATOM     12  C   UNL A   1      32.934  25.582  24.706  1.00  0.00     0.005 C 
ATOM     13  C   UNL A   1      32.899  22.858  27.584  1.00  0.00     0.002 C 
ATOM     14  C   UNL A   1      33.709  23.157  23.234  1.00  0.00     0.006 C 
ATOM     15  C   UNL A   1      33.172  25.609  23.142  1.00  0.00    -0.008 C 
ATOM     16  C   UNL A   1      33.708  26.748  25.311  1.00  0.00     0.006 C 
ATOM     17  C   UNL A   1      33.623  21.717  26.854  1.00  0.00     0.017 C 
ATOM     18  C   UNL A   1      31.784  21.015  25.361  1.00  0.00     0.022 C 
ATOM     19  C   UNL A   1      34.113  24.518  22.697  1.00  0.00     0.012 C 
ATOM     20  C   UNL A   1      31.785  25.715  22.580  1.00  0.00    -0.018 C 
ATOM     21  C   UNL A   1      33.665  26.979  22.604  1.00  0.00     0.019 C 
ATOM     22  C   UNL A   1      33.023  28.037  24.702  1.00  0.00     0.008 C 
ATOM     23  C   UNL A   1      31.380  26.986  22.805  1.00  0.00    -0.045 C 
ATOM     24  C   UNL A   1      32.586  27.877  23.197  1.00  0.00     0.018 C 
BRANCH  23  25
ATOM     25  C   UNL A   1      29.968  27.455  22.734  1.00  0.00     0.187 C 
BRANCH  25  26
ATOM     26  O   UNL A   1      29.904  28.679  22.006  1.00  0.00    -0.392 OA
ATOM     27  H   UNL A   1      29.165  28.645  21.380  1.00  0.00     0.211 HD
ENDBRANCH  25  26
ENDBRANCH  23  25
ENDBRANCH   4   7
ENDBRANCH   2   3
ENDBRANCH   1   2
BRANCH   1  28
ATOM     28  C   UNL A   1      37.016  23.640  25.027  1.00  0.00     0.023 C 
BRANCH  28  29
ATOM     29  C   UNL A   1      37.853  24.010  26.231  1.00  0.00     0.116 C 
BRANCH  29  30
ATOM     30  N   UNL A   1      39.257  23.640  26.099  1.00  0.00    -0.352 N 
ATOM     31  C   UNL A   1      40.353  24.297  26.606  1.00  0.00     0.251 C 
ATOM     32  H   UNL A   1      39.443  22.821  25.585  1.00  0.00     0.163 HD
ATOM     33  O   UNL A   1      41.493  23.941  26.321  1.00  0.00    -0.269 OA
BRANCH  31  34
ATOM     34  C   UNL A   1      40.120  25.472  27.463  1.00  0.00     0.039 A 
ATOM     35  C   UNL A   1      39.354  25.329  28.617  1.00  0.00     0.014 A 
ATOM     36  C   UNL A   1      40.782  26.671  27.185  1.00  0.00     0.014 A 
ATOM     37  C   UNL A   1      39.313  26.377  29.535  1.00  0.00     0.010 A 
ATOM     38  C   UNL A   1      40.855  27.650  28.162  1.00  0.00     0.010 A 
ATOM     39  C   UNL A   1      40.099  27.525  29.335  1.00  0.00    -0.014 A 
BRANCH  39  40
ATOM     40  C   UNL A   1      40.118  28.617  30.336  1.00  0.00     0.031 A 
ATOM     41  C   UNL A   1      39.109  29.729  30.252  1.00  0.00     0.074 A 
ATOM     42  C   UNL A   1      41.060  28.620  31.299  1.00  0.00     0.049 A 
ATOM     43  N   UNL A   1      38.930  30.743  31.059  1.00  0.00    -0.248 NA
ATOM     44  C   UNL A   1      38.205  29.726  29.089  1.00  0.00     0.031 C 
ATOM     45  C   UNL A   1      42.149  27.647  31.425  1.00  0.00     0.029 A 
ATOM     46  N   UNL A   1      41.244  29.462  32.364  1.00  0.00    -0.354 N 
ATOM     47  C   UNL A   1      37.905  31.494  30.496  1.00  0.00     0.074 A 
ATOM     48  C   UNL A   1      37.562  30.873  29.238  1.00  0.00     0.031 C 
ATOM     49  C   UNL A   1      42.848  27.912  32.542  1.00  0.00     0.029 A 
ATOM     50  C   UNL A   1      42.275  29.085  33.191  1.00  0.00     0.049 A 
ATOM     51  H   UNL A   1      40.691  30.261  32.521  1.00  0.00     0.167 HD
ATOM     52  C   UNL A   1      37.275  32.579  31.001  1.00  0.00     0.037 A 
ATOM     53  C   UNL A   1      42.689  29.614  34.357  1.00  0.00     0.037 A 
ATOM     54  C   UNL A   1      37.602  33.173  32.267  1.00  0.00     0.049 A 
ATOM     55  C   UNL A   1      41.948  30.795  34.919  1.00  0.00     0.074 A 
ATOM     56  C   UNL A   1      36.990  34.237  32.907  1.00  0.00     0.029 A 
ATOM     57  N   UNL A   1      38.636  32.750  33.089  1.00  0.00    -0.354 N 
ATOM     58  N   UNL A   1      40.919  31.439  34.423  1.00  0.00    -0.248 NA
ATOM     59  C   UNL A   1      42.415  31.309  36.212  1.00  0.00     0.031 C 
ATOM     60  C   UNL A   1      37.683  34.483  34.098  1.00  0.00     0.029 A 
ATOM     61  C   UNL A   1      38.693  33.541  34.224  1.00  0.00     0.049 A 
ATOM     62  H   UNL A   1      39.241  31.998  32.894  1.00  0.00     0.167 HD
ATOM     63  C   UNL A   1      40.602  32.421  35.352  1.00  0.00     0.074 A 
ATOM     64  C   UNL A   1      41.531  32.265  36.454  1.00  0.00     0.031 C 
ATOM     65  C   UNL A   1      39.634  33.370  35.302  1.00  0.00     0.037 A 
BRANCH  52  66
ATOM     66  C   UNL A   1      36.164  33.171  30.181  1.00  0.00     0.057 A 
ATOM     67  C   UNL A   1      36.418  34.006  29.083  1.00  0.00     0.134 A 
ATOM     68  C   UNL A   1      34.824  32.905  30.490  1.00  0.00     0.134 A 
ATOM     69  F   UNL A   1      37.679  34.318  28.745  1.00  0.00    -0.206 F 
ATOM     70  C   UNL A   1      35.383  34.581  28.346  1.00  0.00     0.040 A 
ATOM     71  C   UNL A   1      33.781  33.449  29.740  1.00  0.00     0.040 A 
ATOM     72  F   UNL A   1      34.507  32.115  31.527  1.00  0.00    -0.206 F 
ATOM     73  C   UNL A   1      34.059  34.297  28.669  1.00  0.00     0.006 A 
ENDBRANCH  52  66
BRANCH  53  74
ATOM     74  C   UNL A   1      43.818  28.996  35.097  1.00  0.00     0.057 A 
ATOM     75  C   UNL A   1      43.592  28.014  36.070  1.00  0.00     0.134 A 
ATOM     76  C   UNL A   1      45.145  29.369  34.855  1.00  0.00     0.134 A 
ATOM     77  F   UNL A   1      42.342  27.623  36.356  1.00  0.00    -0.206 F 
ATOM     78  C   UNL A   1      44.642  27.441  36.791  1.00  0.00     0.040 A 
ATOM     79  C   UNL A   1      46.206  28.786  35.551  1.00  0.00     0.040 A 
ATOM     80  F   UNL A   1      45.430  30.295  33.929  1.00  0.00    -0.206 F 
ATOM     81  C   UNL A   1      45.955  27.826  36.528  1.00  0.00     0.006 A 
ENDBRANCH  53  74
BRANCH  65  82
ATOM     82  C   UNL A   1      39.528  34.291  36.482  1.00  0.00     0.057 A 
ATOM     83  C   UNL A   1      38.846  33.922  37.650  1.00  0.00     0.134 A 
ATOM     84  C   UNL A   1      40.118  35.561  36.450  1.00  0.00     0.134 A 
ATOM     85  F   UNL A   1      38.249  32.723  37.738  1.00  0.00    -0.206 F 
ATOM     86  C   UNL A   1      38.720  34.798  38.726  1.00  0.00     0.040 A 
ATOM     87  C   UNL A   1      40.026  36.434  37.535  1.00  0.00     0.040 A 
ATOM     88  F   UNL A   1      40.796  35.971  35.368  1.00  0.00    -0.206 F 
ATOM     89  C   UNL A   1      39.314  36.058  38.673  1.00  0.00     0.006 A 
ENDBRANCH  65  82
ENDBRANCH  39  40
ENDBRANCH  31  34
ENDBRANCH  29  30
ENDBRANCH  28  29
ENDBRANCH   1  28
TORSDOF 13
ENDMDL
