MODEL 1
REMARK VINA RESULT:     -11.1      0.000      0.000
REMARK SMILES COc1cccc(-c2cc(OCC(=O)NCCCCNC(=O)c3ccc(-c4c5nc(c(-c6c(F)cccc6F)c6ccc([nH]6)c(-c6c(F)cccc6F)c6nc(c(-c7c(F)cccc7F)c7ccc4[nH]7)C=C6)C=C5)cc3)nc(Nc3ccccc3Br)n2)c1
REMARK SMILES IDX 16 1 15 2 13 3 14 4 12 6 11 7 10 8 8 9 9 10 87 11 78 12
REMARK SMILES IDX 77 13 7 14 3 15 4 16 88 17 5 18 6 19 2 20 1 21 79 22 80 24
REMARK SMILES IDX 81 25 85 26 82 27 84 28 86 29 83 30 17 31 18 32 19 33 20 34
REMARK SMILES IDX 21 35 22 37 23 38 24 39 76 40 25 41 75 42 26 43 27 44 28 45
REMARK SMILES IDX 69 46 29 47 74 48 68 49 70 50 30 51 73 52 67 53 66 54 31 56
REMARK SMILES IDX 57 57 40 58 56 59 41 60 44 61 55 62 71 63 42 64 43 65 54 67
REMARK SMILES IDX 72 68 45 69 32 70 33 71 38 72 34 73 35 74 37 75 39 76 36 77
REMARK SMILES IDX 58 78 59 79 64 80 60 81 61 82 63 83 65 84 62 85 46 86 47 87
REMARK SMILES IDX 52 88 48 89 49 90 51 91 53 92 50 93
REMARK H PARENT 15 5 79 23 20 36 70 55 44 66
REMARK Flexibility Score: inf
ROOT
ATOM      1  C   UNL A   1      44.118  19.017  24.918  1.00  0.00     0.116 C 
ENDROOT
BRANCH   1   2
ATOM      2  N   UNL A   1      43.578  18.695  26.223  1.00  0.00    -0.353 N 
ATOM      3  C   UNL A   1      42.465  19.207  26.822  1.00  0.00     0.258 C 
ATOM      4  O   UNL A   1      42.162  18.807  27.947  1.00  0.00    -0.271 OA
ATOM      5  H   UNL A   1      44.076  18.024  26.742  1.00  0.00     0.163 HD
BRANCH   3   6
ATOM      6  C   UNL A   1      41.613  20.251  26.085  1.00  0.00     0.331 C 
BRANCH   6   7
ATOM      7  O   UNL A   1      40.248  20.339  26.458  1.00  0.00    -0.467 OA
BRANCH   7   8
ATOM      8  C   UNL A   1      39.632  21.555  26.344  1.00  0.00     0.219 A 
ATOM      9  C   UNL A   1      37.969  23.058  25.702  1.00  0.00     0.080 A 
ATOM     10  C   UNL A   1      38.482  21.784  25.635  1.00  0.00     0.097 A 
ATOM     11  N   UNL A   1      38.581  24.044  26.371  1.00  0.00    -0.212 NA
ATOM     12  C   UNL A   1      39.708  23.743  27.030  1.00  0.00     0.231 A 
ATOM     13  N   UNL A   1      40.264  22.523  27.027  1.00  0.00    -0.177 NA
BRANCH   9  14
ATOM     14  C   UNL A   1      36.696  23.391  25.059  1.00  0.00     0.004 A 
ATOM     15  C   UNL A   1      34.414  24.237  25.233  1.00  0.00     0.119 A 
ATOM     16  C   UNL A   1      34.184  23.852  23.913  1.00  0.00     0.046 A 
ATOM     17  C   UNL A   1      35.665  24.000  25.802  1.00  0.00     0.056 A 
ATOM     18  C   UNL A   1      35.202  23.279  23.150  1.00  0.00     0.005 A 
ATOM     19  C   UNL A   1      36.456  23.059  23.719  1.00  0.00     0.010 A 
BRANCH  15  20
ATOM     20  O   UNL A   1      33.339  24.783  25.879  1.00  0.00    -0.497 OA
ATOM     21  C   UNL A   1      32.141  24.903  25.119  1.00  0.00     0.278 C 
ENDBRANCH  15  20
ENDBRANCH   9  14
BRANCH  12  22
ATOM     22  N   UNL A   1      40.383  24.739  27.732  1.00  0.00    -0.323 N 
ATOM     23  H   UNL A   1      40.638  24.519  28.656  1.00  0.00     0.170 HD
BRANCH  22  24
ATOM     24  C   UNL A   1      40.744  26.016  27.281  1.00  0.00     0.055 A 
ATOM     25  C   UNL A   1      41.551  26.109  26.136  1.00  0.00     0.027 A 
ATOM     26  C   UNL A   1      40.264  27.213  27.849  1.00  0.00     0.041 A 
ATOM     27  C   UNL A   1      41.844  27.347  25.555  1.00  0.00     0.002 A 
ATOM     28  C   UNL A   1      40.557  28.452  27.266  1.00  0.00     0.018 A 
ATOM     29  Br  UNL A   1      39.308  27.252  29.498  1.00  0.00    -0.049 Br
ATOM     30  C   UNL A   1      41.338  28.517  26.114  1.00  0.00     0.001 A 
ENDBRANCH  22  24
ENDBRANCH  12  22
ENDBRANCH   7   8
ENDBRANCH   6   7
ENDBRANCH   3   6
ENDBRANCH   1   2
BRANCH   1  31
ATOM     31  C   UNL A   1      45.519  19.618  25.007  1.00  0.00     0.023 C 
BRANCH  31  32
ATOM     32  C   UNL A   1      45.629  21.078  24.558  1.00  0.00     0.023 C 
BRANCH  32  33
ATOM     33  C   UNL A   1      45.792  22.101  25.677  1.00  0.00     0.116 C 
BRANCH  33  34
ATOM     34  N   UNL A   1      44.619  22.208  26.531  1.00  0.00    -0.352 N 
ATOM     35  C   UNL A   1      44.124  23.301  27.200  1.00  0.00     0.251 C 
ATOM     36  H   UNL A   1      44.105  21.376  26.646  1.00  0.00     0.163 HD
ATOM     37  O   UNL A   1      43.183  23.171  27.978  1.00  0.00    -0.269 OA
BRANCH  35  38
ATOM     38  C   UNL A   1      44.746  24.630  27.013  1.00  0.00     0.039 A 
ATOM     39  C   UNL A   1      45.179  25.334  28.140  1.00  0.00     0.014 A 
ATOM     40  C   UNL A   1      44.912  25.178  25.739  1.00  0.00     0.014 A 
ATOM     41  C   UNL A   1      45.843  26.552  27.984  1.00  0.00     0.010 A 
ATOM     42  C   UNL A   1      45.640  26.356  25.581  1.00  0.00     0.010 A 
ATOM     43  C   UNL A   1      46.117  27.054  26.701  1.00  0.00    -0.014 A 
BRANCH  43  44
ATOM     44  C   UNL A   1      46.913  28.295  26.512  1.00  0.00     0.031 A 
ATOM     45  C   UNL A   1      48.407  28.226  26.355  1.00  0.00     0.074 A 
ATOM     46  C   UNL A   1      46.297  29.493  26.551  1.00  0.00     0.049 A 
ATOM     47  N   UNL A   1      49.274  29.200  26.251  1.00  0.00    -0.248 NA
ATOM     48  C   UNL A   1      49.010  26.883  26.338  1.00  0.00     0.031 C 
ATOM     49  C   UNL A   1      44.860  29.701  26.746  1.00  0.00     0.029 A 
ATOM     50  N   UNL A   1      46.802  30.766  26.441  1.00  0.00    -0.354 N 
ATOM     51  C   UNL A   1      50.521  28.593  26.174  1.00  0.00     0.074 A 
ATOM     52  C   UNL A   1      50.303  27.168  26.292  1.00  0.00     0.031 C 
ATOM     53  C   UNL A   1      44.598  31.017  26.725  1.00  0.00     0.029 A 
ATOM     54  C   UNL A   1      45.850  31.750  26.559  1.00  0.00     0.049 A 
ATOM     55  H   UNL A   1      47.757  30.954  26.294  1.00  0.00     0.167 HD
ATOM     56  C   UNL A   1      51.734  29.169  25.999  1.00  0.00     0.037 A 
ATOM     57  C   UNL A   1      45.972  33.090  26.546  1.00  0.00     0.037 A 
ATOM     58  C   UNL A   1      51.946  30.586  25.858  1.00  0.00     0.049 A 
ATOM     59  C   UNL A   1      47.332  33.705  26.361  1.00  0.00     0.074 A 
ATOM     60  C   UNL A   1      53.129  31.259  25.609  1.00  0.00     0.029 A 
ATOM     61  N   UNL A   1      50.953  31.549  25.964  1.00  0.00    -0.354 N 
ATOM     62  N   UNL A   1      48.493  33.114  26.209  1.00  0.00    -0.248 NA
ATOM     63  C   UNL A   1      47.399  35.173  26.339  1.00  0.00     0.031 C 
ATOM     64  C   UNL A   1      52.863  32.631  25.618  1.00  0.00     0.029 A 
ATOM     65  C   UNL A   1      51.503  32.812  25.814  1.00  0.00     0.049 A 
ATOM     66  H   UNL A   1      50.000  31.363  26.122  1.00  0.00     0.167 HD
ATOM     67  C   UNL A   1      49.421  34.135  26.044  1.00  0.00     0.074 A 
ATOM     68  C   UNL A   1      48.686  35.381  26.099  1.00  0.00     0.031 C 
ATOM     69  C   UNL A   1      50.762  34.046  25.863  1.00  0.00     0.037 A 
BRANCH  56  70
ATOM     70  C   UNL A   1      52.934  28.266  25.954  1.00  0.00     0.057 A 
ATOM     71  C   UNL A   1      53.649  27.925  27.111  1.00  0.00     0.134 A 
ATOM     72  C   UNL A   1      53.352  27.693  24.747  1.00  0.00     0.134 A 
ATOM     73  F   UNL A   1      53.310  28.446  28.299  1.00  0.00    -0.206 F 
ATOM     74  C   UNL A   1      54.751  27.068  27.063  1.00  0.00     0.040 A 
ATOM     75  C   UNL A   1      54.432  26.811  24.690  1.00  0.00     0.040 A 
ATOM     76  F   UNL A   1      52.708  27.970  23.603  1.00  0.00    -0.206 F 
ATOM     77  C   UNL A   1      55.139  26.502  25.850  1.00  0.00     0.006 A 
ENDBRANCH  56  70
BRANCH  57  78
ATOM     78  C   UNL A   1      44.769  33.950  26.709  1.00  0.00     0.057 A 
ATOM     79  C   UNL A   1      44.322  34.337  27.979  1.00  0.00     0.134 A 
ATOM     80  C   UNL A   1      44.031  34.390  25.605  1.00  0.00     0.134 A 
ATOM     81  F   UNL A   1      44.976  33.931  29.077  1.00  0.00    -0.206 F 
ATOM     82  C   UNL A   1      43.170  35.108  28.145  1.00  0.00     0.040 A 
ATOM     83  C   UNL A   1      42.894  35.186  25.754  1.00  0.00     0.040 A 
ATOM     84  F   UNL A   1      44.410  34.061  24.362  1.00  0.00    -0.206 F 
ATOM     85  C   UNL A   1      42.455  35.539  27.029  1.00  0.00     0.006 A 
ENDBRANCH  57  78
BRANCH  69  86
ATOM     86  C   UNL A   1      51.518  35.329  25.671  1.00  0.00     0.057 A 
ATOM     87  C   UNL A   1      51.875  35.799  24.401  1.00  0.00     0.134 A 
ATOM     88  C   UNL A   1      51.853  36.128  26.773  1.00  0.00     0.134 A 
ATOM     89  F   UNL A   1      51.595  35.077  23.304  1.00  0.00    -0.206 F 
ATOM     90  C   UNL A   1      52.562  37.003  24.235  1.00  0.00     0.040 A 
ATOM     91  C   UNL A   1      52.513  37.346  26.618  1.00  0.00     0.040 A 
ATOM     92  F   UNL A   1      51.531  35.743  28.017  1.00  0.00    -0.206 F 
ATOM     93  C   UNL A   1      52.876  37.785  25.346  1.00  0.00     0.006 A 
ENDBRANCH  69  86
ENDBRANCH  43  44
ENDBRANCH  35  38
ENDBRANCH  33  34
ENDBRANCH  32  33
ENDBRANCH  31  32
ENDBRANCH   1  31
TORSDOF 17
ENDMDL
MODEL 2
REMARK VINA RESULT:     -11.0      3.302      6.275
REMARK SMILES COc1cccc(-c2cc(OCC(=O)NCCCCNC(=O)c3ccc(-c4c5nc(c(-c6c(F)cccc6F)c6ccc([nH]6)c(-c6c(F)cccc6F)c6nc(c(-c7c(F)cccc7F)c7ccc4[nH]7)C=C6)C=C5)cc3)nc(Nc3ccccc3Br)n2)c1
REMARK SMILES IDX 16 1 15 2 13 3 14 4 12 6 11 7 10 8 8 9 9 10 87 11 78 12
REMARK SMILES IDX 77 13 7 14 3 15 4 16 88 17 5 18 6 19 2 20 1 21 79 22 80 24
REMARK SMILES IDX 81 25 85 26 82 27 84 28 86 29 83 30 17 31 18 32 19 33 20 34
REMARK SMILES IDX 21 35 22 37 23 38 24 39 76 40 25 41 75 42 26 43 27 44 28 45
REMARK SMILES IDX 69 46 29 47 74 48 68 49 70 50 30 51 73 52 67 53 66 54 31 56
REMARK SMILES IDX 57 57 40 58 56 59 41 60 44 61 55 62 71 63 42 64 43 65 54 67
REMARK SMILES IDX 72 68 45 69 32 70 33 71 38 72 34 73 35 74 37 75 39 76 36 77
REMARK SMILES IDX 58 78 59 79 64 80 60 81 61 82 63 83 65 84 62 85 46 86 47 87
REMARK SMILES IDX 52 88 48 89 49 90 51 91 53 92 50 93
REMARK H PARENT 15 5 79 23 20 36 70 55 44 66
REMARK Flexibility Score: inf
ROOT
ATOM      1  C   UNL A   1      39.951  21.678  26.138  1.00  0.00     0.116 C 
ENDROOT
BRANCH   1   2
ATOM      2  N   UNL A   1      39.030  20.635  25.735  1.00  0.00    -0.353 N 
ATOM      3  C   UNL A   1      37.791  20.773  25.183  1.00  0.00     0.258 C 
ATOM      4  O   UNL A   1      37.150  19.758  24.906  1.00  0.00    -0.271 OA
ATOM      5  H   UNL A   1      39.337  19.710  25.879  1.00  0.00     0.163 HD
BRANCH   3   6
ATOM      6  C   UNL A   1      37.232  22.176  24.907  1.00  0.00     0.331 C 
BRANCH   6   7
ATOM      7  O   UNL A   1      36.653  22.859  26.007  1.00  0.00    -0.467 OA
BRANCH   7   8
ATOM      8  C   UNL A   1      35.321  23.166  25.938  1.00  0.00     0.219 A 
ATOM      9  C   UNL A   1      33.452  24.545  25.736  1.00  0.00     0.080 A 
ATOM     10  C   UNL A   1      34.815  24.438  25.882  1.00  0.00     0.097 A 
ATOM     11  N   UNL A   1      32.646  23.475  25.709  1.00  0.00    -0.212 NA
ATOM     12  C   UNL A   1      33.217  22.265  25.781  1.00  0.00     0.231 A 
ATOM     13  N   UNL A   1      34.538  22.075  25.908  1.00  0.00    -0.177 NA
BRANCH   9  14
ATOM     14  C   UNL A   1      32.814  25.852  25.571  1.00  0.00     0.004 A 
ATOM     15  C   UNL A   1      31.110  27.239  24.509  1.00  0.00     0.119 A 
ATOM     16  C   UNL A   1      31.695  28.371  25.076  1.00  0.00     0.046 A 
ATOM     17  C   UNL A   1      31.673  25.987  24.754  1.00  0.00     0.056 A 
ATOM     18  C   UNL A   1      32.802  28.255  25.916  1.00  0.00     0.005 A 
ATOM     19  C   UNL A   1      33.353  26.999  26.170  1.00  0.00     0.010 A 
BRANCH  15  20
ATOM     20  O   UNL A   1      30.033  27.480  23.701  1.00  0.00    -0.497 OA
ATOM     21  C   UNL A   1      29.841  28.829  23.290  1.00  0.00     0.278 C 
ENDBRANCH  15  20
ENDBRANCH   9  14
BRANCH  12  22
ATOM     22  N   UNL A   1      32.418  21.124  25.766  1.00  0.00    -0.323 N 
ATOM     23  H   UNL A   1      31.627  21.143  26.350  1.00  0.00     0.170 HD
BRANCH  22  24
ATOM     24  C   UNL A   1      32.603  19.953  25.019  1.00  0.00     0.055 A 
ATOM     25  C   UNL A   1      32.924  18.772  25.709  1.00  0.00     0.027 A 
ATOM     26  C   UNL A   1      32.390  19.867  23.628  1.00  0.00     0.041 A 
ATOM     27  C   UNL A   1      32.997  17.544  25.046  1.00  0.00     0.002 A 
ATOM     28  C   UNL A   1      32.463  18.635  22.966  1.00  0.00     0.018 A 
ATOM     29  Br  UNL A   1      32.123  21.407  22.537  1.00  0.00    -0.049 Br
ATOM     30  C   UNL A   1      32.756  17.474  23.677  1.00  0.00     0.001 A 
ENDBRANCH  22  24
ENDBRANCH  12  22
ENDBRANCH   7   8
ENDBRANCH   6   7
ENDBRANCH   3   6
ENDBRANCH   1   2
BRANCH   1  31
ATOM     31  C   UNL A   1      41.392  21.178  26.212  1.00  0.00     0.023 C 
BRANCH  31  32
ATOM     32  C   UNL A   1      41.570  19.673  25.994  1.00  0.00     0.023 C 
BRANCH  32  33
ATOM     33  C   UNL A   1      42.958  19.122  26.299  1.00  0.00     0.116 C 
BRANCH  33  34
ATOM     34  N   UNL A   1      43.698  18.740  25.106  1.00  0.00    -0.352 N 
ATOM     35  C   UNL A   1      44.519  19.500  24.308  1.00  0.00     0.251 C 
ATOM     36  H   UNL A   1      43.596  17.800  24.831  1.00  0.00     0.163 HD
ATOM     37  O   UNL A   1      44.965  19.033  23.264  1.00  0.00    -0.269 OA
BRANCH  35  38
ATOM     38  C   UNL A   1      44.838  20.894  24.685  1.00  0.00     0.039 A 
ATOM     39  C   UNL A   1      44.480  21.925  23.812  1.00  0.00     0.014 A 
ATOM     40  C   UNL A   1      45.474  21.188  25.894  1.00  0.00     0.014 A 
ATOM     41  C   UNL A   1      44.697  23.254  24.184  1.00  0.00     0.010 A 
ATOM     42  C   UNL A   1      45.620  22.515  26.295  1.00  0.00     0.010 A 
ATOM     43  C   UNL A   1      45.230  23.562  25.446  1.00  0.00    -0.014 A 
BRANCH  43  44
ATOM     44  C   UNL A   1      45.370  24.971  25.900  1.00  0.00     0.031 A 
ATOM     45  C   UNL A   1      46.713  25.647  25.878  1.00  0.00     0.074 A 
ATOM     46  C   UNL A   1      44.299  25.620  26.397  1.00  0.00     0.049 A 
ATOM     47  N   UNL A   1      47.044  26.842  26.298  1.00  0.00    -0.248 NA
ATOM     48  C   UNL A   1      47.839  24.869  25.336  1.00  0.00     0.031 C 
ATOM     49  C   UNL A   1      42.951  25.061  26.519  1.00  0.00     0.029 A 
ATOM     50  N   UNL A   1      44.177  26.890  26.906  1.00  0.00    -0.354 N 
ATOM     51  C   UNL A   1      48.413  26.953  26.088  1.00  0.00     0.074 A 
ATOM     52  C   UNL A   1      48.860  25.687  25.549  1.00  0.00     0.031 C 
ATOM     53  C   UNL A   1      42.136  25.986  27.049  1.00  0.00     0.029 A 
ATOM     54  C   UNL A   1      42.909  27.188  27.346  1.00  0.00     0.049 A 
ATOM     55  H   UNL A   1      44.927  27.526  26.952  1.00  0.00     0.167 HD
ATOM     56  C   UNL A   1      49.220  28.018  26.305  1.00  0.00     0.037 A 
ATOM     57  C   UNL A   1      42.426  28.299  27.933  1.00  0.00     0.037 A 
ATOM     58  C   UNL A   1      48.769  29.285  26.819  1.00  0.00     0.049 A 
ATOM     59  C   UNL A   1      43.345  29.466  28.171  1.00  0.00     0.074 A 
ATOM     60  C   UNL A   1      49.497  30.447  27.009  1.00  0.00     0.029 A 
ATOM     61  N   UNL A   1      47.473  29.554  27.236  1.00  0.00    -0.354 N 
ATOM     62  N   UNL A   1      44.622  29.583  27.894  1.00  0.00    -0.248 NA
ATOM     63  C   UNL A   1      42.757  30.657  28.801  1.00  0.00     0.031 C 
ATOM     64  C   UNL A   1      48.657  31.401  27.591  1.00  0.00     0.029 A 
ATOM     65  C   UNL A   1      47.390  30.853  27.709  1.00  0.00     0.049 A 
ATOM     66  H   UNL A   1      46.724  28.917  27.200  1.00  0.00     0.167 HD
ATOM     67  C   UNL A   1      44.980  30.867  28.285  1.00  0.00     0.074 A 
ATOM     68  C   UNL A   1      43.783  31.495  28.805  1.00  0.00     0.031 C 
ATOM     69  C   UNL A   1      46.192  31.471  28.218  1.00  0.00     0.037 A 
BRANCH  56  70
ATOM     70  C   UNL A   1      50.680  27.863  25.990  1.00  0.00     0.057 A 
ATOM     71  C   UNL A   1      51.622  27.540  26.978  1.00  0.00     0.134 A 
ATOM     72  C   UNL A   1      51.145  27.989  24.675  1.00  0.00     0.134 A 
ATOM     73  F   UNL A   1      51.247  27.414  28.259  1.00  0.00    -0.206 F 
ATOM     74  C   UNL A   1      52.974  27.376  26.672  1.00  0.00     0.040 A 
ATOM     75  C   UNL A   1      52.489  27.798  24.351  1.00  0.00     0.040 A 
ATOM     76  F   UNL A   1      50.297  28.288  23.679  1.00  0.00    -0.206 F 
ATOM     77  C   UNL A   1      53.410  27.497  25.353  1.00  0.00     0.006 A 
ENDBRANCH  56  70
BRANCH  57  78
ATOM     78  C   UNL A   1      40.996  28.370  28.334  1.00  0.00     0.057 A 
ATOM     79  C   UNL A   1      40.023  28.877  27.463  1.00  0.00     0.134 A 
ATOM     80  C   UNL A   1      40.571  27.949  29.599  1.00  0.00     0.134 A 
ATOM     81  F   UNL A   1      40.371  29.313  26.244  1.00  0.00    -0.206 F 
ATOM     82  C   UNL A   1      38.685  28.987  27.845  1.00  0.00     0.040 A 
ATOM     83  C   UNL A   1      39.231  28.026  29.985  1.00  0.00     0.040 A 
ATOM     84  F   UNL A   1      41.451  27.447  30.478  1.00  0.00    -0.206 F 
ATOM     85  C   UNL A   1      38.286  28.556  29.109  1.00  0.00     0.006 A 
ENDBRANCH  57  78
BRANCH  69  86
ATOM     86  C   UNL A   1      46.278  32.897  28.683  1.00  0.00     0.057 A 
ATOM     87  C   UNL A   1      46.044  33.975  27.821  1.00  0.00     0.134 A 
ATOM     88  C   UNL A   1      46.557  33.191  30.025  1.00  0.00     0.134 A 
ATOM     89  F   UNL A   1      45.784  33.764  26.521  1.00  0.00    -0.206 F 
ATOM     90  C   UNL A   1      46.110  35.295  28.270  1.00  0.00     0.040 A 
ATOM     91  C   UNL A   1      46.596  34.504  30.492  1.00  0.00     0.040 A 
ATOM     92  F   UNL A   1      46.781  32.204  30.906  1.00  0.00    -0.206 F 
ATOM     93  C   UNL A   1      46.378  35.562  29.612  1.00  0.00     0.006 A 
ENDBRANCH  69  86
ENDBRANCH  43  44
ENDBRANCH  35  38
ENDBRANCH  33  34
ENDBRANCH  32  33
ENDBRANCH  31  32
ENDBRANCH   1  31
TORSDOF 17
ENDMDL
MODEL 3
REMARK VINA RESULT:     -10.5      7.333      9.903
REMARK SMILES COc1cccc(-c2cc(OCC(=O)NCCCCNC(=O)c3ccc(-c4c5nc(c(-c6c(F)cccc6F)c6ccc([nH]6)c(-c6c(F)cccc6F)c6nc(c(-c7c(F)cccc7F)c7ccc4[nH]7)C=C6)C=C5)cc3)nc(Nc3ccccc3Br)n2)c1
REMARK SMILES IDX 16 1 15 2 13 3 14 4 12 6 11 7 10 8 8 9 9 10 87 11 78 12
REMARK SMILES IDX 77 13 7 14 3 15 4 16 88 17 5 18 6 19 2 20 1 21 79 22 80 24
REMARK SMILES IDX 81 25 85 26 82 27 84 28 86 29 83 30 17 31 18 32 19 33 20 34
REMARK SMILES IDX 21 35 22 37 23 38 24 39 76 40 25 41 75 42 26 43 27 44 28 45
REMARK SMILES IDX 69 46 29 47 74 48 68 49 70 50 30 51 73 52 67 53 66 54 31 56
REMARK SMILES IDX 57 57 40 58 56 59 41 60 44 61 55 62 71 63 42 64 43 65 54 67
REMARK SMILES IDX 72 68 45 69 32 70 33 71 38 72 34 73 35 74 37 75 39 76 36 77
REMARK SMILES IDX 58 78 59 79 64 80 60 81 61 82 63 83 65 84 62 85 46 86 47 87
REMARK SMILES IDX 52 88 48 89 49 90 51 91 53 92 50 93
REMARK H PARENT 15 5 79 23 20 36 70 55 44 66
REMARK Flexibility Score: inf
ROOT
ATOM      1  C   UNL A   1      38.449  21.209  25.870  1.00  0.00     0.116 C 
ENDROOT
BRANCH   1   2
ATOM      2  N   UNL A   1      37.833  21.539  24.601  1.00  0.00    -0.353 N 
ATOM      3  C   UNL A   1      37.053  22.616  24.299  1.00  0.00     0.258 C 
ATOM      4  O   UNL A   1      36.615  22.726  23.153  1.00  0.00    -0.271 OA
ATOM      5  H   UNL A   1      37.997  20.907  23.865  1.00  0.00     0.163 HD
BRANCH   3   6
ATOM      6  C   UNL A   1      36.753  23.667  25.379  1.00  0.00     0.331 C 
BRANCH   6   7
ATOM      7  O   UNL A   1      35.770  23.327  26.343  1.00  0.00    -0.467 OA
BRANCH   7   8
ATOM      8  C   UNL A   1      34.457  23.385  25.964  1.00  0.00     0.219 A 
ATOM      9  C   UNL A   1      32.493  24.386  25.201  1.00  0.00     0.080 A 
ATOM     10  C   UNL A   1      33.789  24.536  25.635  1.00  0.00     0.097 A 
ATOM     11  N   UNL A   1      31.886  23.192  25.153  1.00  0.00    -0.212 NA
ATOM     12  C   UNL A   1      32.603  22.115  25.501  1.00  0.00     0.231 A 
ATOM     13  N   UNL A   1      33.875  22.175  25.920  1.00  0.00    -0.177 NA
BRANCH   9  14
ATOM     14  C   UNL A   1      31.718  25.537  24.737  1.00  0.00     0.004 A 
ATOM     15  C   UNL A   1      31.485  27.954  24.500  1.00  0.00     0.119 A 
ATOM     16  C   UNL A   1      30.178  27.772  24.048  1.00  0.00     0.046 A 
ATOM     17  C   UNL A   1      32.246  26.839  24.847  1.00  0.00     0.056 A 
ATOM     18  C   UNL A   1      29.649  26.490  23.898  1.00  0.00     0.005 A 
ATOM     19  C   UNL A   1      30.420  25.377  24.232  1.00  0.00     0.010 A 
BRANCH  15  20
ATOM     20  O   UNL A   1      31.889  29.257  24.609  1.00  0.00    -0.497 OA
ATOM     21  C   UNL A   1      33.073  29.489  25.363  1.00  0.00     0.278 C 
ENDBRANCH  15  20
ENDBRANCH   9  14
BRANCH  12  22
ATOM     22  N   UNL A   1      32.010  20.855  25.475  1.00  0.00    -0.323 N 
ATOM     23  H   UNL A   1      31.193  20.750  26.013  1.00  0.00     0.170 HD
BRANCH  22  24
ATOM     24  C   UNL A   1      32.434  19.718  24.775  1.00  0.00     0.055 A 
ATOM     25  C   UNL A   1      32.878  18.611  25.518  1.00  0.00     0.027 A 
ATOM     26  C   UNL A   1      32.350  19.581  23.375  1.00  0.00     0.041 A 
ATOM     27  C   UNL A   1      33.194  17.400  24.894  1.00  0.00     0.002 A 
ATOM     28  C   UNL A   1      32.667  18.368  22.752  1.00  0.00     0.018 A 
ATOM     29  Br  UNL A   1      31.937  21.046  22.227  1.00  0.00    -0.049 Br
ATOM     30  C   UNL A   1      33.078  17.276  23.513  1.00  0.00     0.001 A 
ENDBRANCH  22  24
ENDBRANCH  12  22
ENDBRANCH   7   8
ENDBRANCH   6   7
ENDBRANCH   3   6
ENDBRANCH   1   2
BRANCH   1  31
ATOM     31  C   UNL A   1      39.519  20.130  25.728  1.00  0.00     0.023 C 
BRANCH  31  32
ATOM     32  C   UNL A   1      40.942  20.575  26.078  1.00  0.00     0.023 C 
BRANCH  32  33
ATOM     33  C   UNL A   1      41.176  22.082  26.097  1.00  0.00     0.116 C 
BRANCH  33  34
ATOM     34  N   UNL A   1      42.357  22.487  25.350  1.00  0.00    -0.352 N 
ATOM     35  C   UNL A   1      43.017  23.692  25.351  1.00  0.00     0.251 C 
ATOM     36  H   UNL A   1      42.739  21.798  24.759  1.00  0.00     0.163 HD
ATOM     37  O   UNL A   1      43.933  23.891  24.557  1.00  0.00    -0.269 OA
BRANCH  35  38
ATOM     38  C   UNL A   1      42.605  24.765  26.282  1.00  0.00     0.039 A 
ATOM     39  C   UNL A   1      41.635  24.481  27.246  1.00  0.00     0.014 A 
ATOM     40  C   UNL A   1      43.177  26.038  26.215  1.00  0.00     0.014 A 
ATOM     41  C   UNL A   1      41.289  25.453  28.188  1.00  0.00     0.010 A 
ATOM     42  C   UNL A   1      42.886  26.980  27.201  1.00  0.00     0.010 A 
ATOM     43  C   UNL A   1      41.942  26.697  28.200  1.00  0.00    -0.014 A 
BRANCH  43  44
ATOM     44  C   UNL A   1      41.663  27.704  29.257  1.00  0.00     0.031 A 
ATOM     45  C   UNL A   1      42.489  27.738  30.513  1.00  0.00     0.074 A 
ATOM     46  C   UNL A   1      40.620  28.545  29.116  1.00  0.00     0.049 A 
ATOM     47  N   UNL A   1      42.352  28.494  31.573  1.00  0.00    -0.248 NA
ATOM     48  C   UNL A   1      43.602  26.779  30.601  1.00  0.00     0.031 C 
ATOM     49  C   UNL A   1      39.710  28.581  27.969  1.00  0.00     0.029 A 
ATOM     50  N   UNL A   1      40.138  29.524  29.951  1.00  0.00    -0.354 N 
ATOM     51  C   UNL A   1      43.345  28.092  32.457  1.00  0.00     0.074 A 
ATOM     52  C   UNL A   1      44.047  26.993  31.831  1.00  0.00     0.031 C 
ATOM     53  C   UNL A   1      38.794  29.543  28.163  1.00  0.00     0.029 A 
ATOM     54  C   UNL A   1      39.021  30.162  29.465  1.00  0.00     0.049 A 
ATOM     55  H   UNL A   1      40.552  29.746  30.815  1.00  0.00     0.167 HD
ATOM     56  C   UNL A   1      43.658  28.606  33.671  1.00  0.00     0.037 A 
ATOM     57  C   UNL A   1      38.260  31.129  30.011  1.00  0.00     0.037 A 
ATOM     58  C   UNL A   1      42.973  29.716  34.281  1.00  0.00     0.049 A 
ATOM     59  C   UNL A   1      38.623  31.676  31.365  1.00  0.00     0.074 A 
ATOM     60  C   UNL A   1      43.259  30.352  35.477  1.00  0.00     0.029 A 
ATOM     61  N   UNL A   1      41.859  30.348  33.749  1.00  0.00    -0.354 N 
ATOM     62  N   UNL A   1      39.614  31.339  32.155  1.00  0.00    -0.248 NA
ATOM     63  C   UNL A   1      37.764  32.741  31.902  1.00  0.00     0.031 C 
ATOM     64  C   UNL A   1      42.287  31.332  35.695  1.00  0.00     0.029 A 
ATOM     65  C   UNL A   1      41.429  31.347  34.607  1.00  0.00     0.049 A 
ATOM     66  H   UNL A   1      41.436  30.121  32.890  1.00  0.00     0.167 HD
ATOM     67  C   UNL A   1      39.516  32.169  33.264  1.00  0.00     0.074 A 
ATOM     68  C   UNL A   1      38.378  33.036  33.039  1.00  0.00     0.031 C 
ATOM     69  C   UNL A   1      40.300  32.210  34.370  1.00  0.00     0.037 A 
BRANCH  56  70
ATOM     70  C   UNL A   1      44.790  27.971  34.426  1.00  0.00     0.057 A 
ATOM     71  C   UNL A   1      44.587  26.890  35.296  1.00  0.00     0.134 A 
ATOM     72  C   UNL A   1      46.106  28.415  34.246  1.00  0.00     0.134 A 
ATOM     73  F   UNL A   1      43.351  26.421  35.522  1.00  0.00    -0.206 F 
ATOM     74  C   UNL A   1      45.649  26.292  35.977  1.00  0.00     0.040 A 
ATOM     75  C   UNL A   1      47.180  27.806  34.898  1.00  0.00     0.040 A 
ATOM     76  F   UNL A   1      46.372  29.440  33.423  1.00  0.00    -0.206 F 
ATOM     77  C   UNL A   1      46.951  26.745  35.772  1.00  0.00     0.006 A 
ENDBRANCH  56  70
BRANCH  57  78
ATOM     78  C   UNL A   1      37.077  31.651  29.277  1.00  0.00     0.057 A 
ATOM     79  C   UNL A   1      37.118  32.892  28.628  1.00  0.00     0.134 A 
ATOM     80  C   UNL A   1      35.877  30.934  29.221  1.00  0.00     0.134 A 
ATOM     81  F   UNL A   1      38.233  33.635  28.661  1.00  0.00    -0.206 F 
ATOM     82  C   UNL A   1      36.000  33.410  27.972  1.00  0.00     0.040 A 
ATOM     83  C   UNL A   1      34.760  31.427  28.544  1.00  0.00     0.040 A 
ATOM     84  F   UNL A   1      35.775  29.737  29.816  1.00  0.00    -0.206 F 
ATOM     85  C   UNL A   1      34.818  32.674  27.925  1.00  0.00     0.006 A 
ENDBRANCH  57  78
BRANCH  69  86
ATOM     86  C   UNL A   1      39.978  33.250  35.405  1.00  0.00     0.057 A 
ATOM     87  C   UNL A   1      40.514  34.543  35.350  1.00  0.00     0.134 A 
ATOM     88  C   UNL A   1      39.085  32.964  36.446  1.00  0.00     0.134 A 
ATOM     89  F   UNL A   1      41.385  34.879  34.386  1.00  0.00    -0.206 F 
ATOM     90  C   UNL A   1      40.193  35.506  36.308  1.00  0.00     0.040 A 
ATOM     91  C   UNL A   1      38.734  33.927  37.392  1.00  0.00     0.040 A 
ATOM     92  F   UNL A   1      38.527  31.748  36.551  1.00  0.00    -0.206 F 
ATOM     93  C   UNL A   1      39.293  35.201  37.329  1.00  0.00     0.006 A 
ENDBRANCH  69  86
ENDBRANCH  43  44
ENDBRANCH  35  38
ENDBRANCH  33  34
ENDBRANCH  32  33
ENDBRANCH  31  32
ENDBRANCH   1  31
TORSDOF 17
ENDMDL
