MODEL 1
REMARK VINA RESULT:     -13.7      0.000      0.000
REMARK SMILES O=C(CCN1C(=O)[C@@H]2[C@@H](C1=O)[C@H]1c3ccccc3[C@]2(Br)c2ccccc21)NCCCCNC(=O)c1ccc(-c2c3nc(c(-c4c(F)cccc4F)c4ccc([nH]4)c(-c4c(F)cccc4F)c4nc(c(-c5c(F)cccc5F)c5ccc2[nH]5)C=C4)C=C3)cc1
REMARK SMILES IDX 29 1 28 2 27 3 1 4 2 5 3 7 4 8 5 9 6 10 10 11 7 12 8 13 9 14
REMARK SMILES IDX 11 15 19 16 12 17 21 18 20 19 18 20 26 21 13 22 22 23 17 24
REMARK SMILES IDX 25 25 14 26 23 27 16 28 24 29 15 30 30 31 31 32 32 33 33 34
REMARK SMILES IDX 34 36 35 37 36 38 88 39 37 40 87 41 38 42 39 43 40 44 81 45
REMARK SMILES IDX 41 46 86 47 80 48 82 49 42 50 85 51 79 52 78 53 43 55 69 56
REMARK SMILES IDX 52 57 68 58 53 59 56 60 67 61 83 62 54 63 55 64 66 66 84 67
REMARK SMILES IDX 57 68 44 69 45 70 50 71 46 72 47 73 49 74 51 75 48 76 70 77
REMARK SMILES IDX 71 78 76 79 72 80 73 81 75 82 77 83 74 84 58 85 59 86 64 87
REMARK SMILES IDX 60 88 61 89 63 90 65 91 62 92
REMARK H PARENT 27 6 32 35 82 54 56 65
REMARK Flexibility Score: inf
ROOT
ATOM      1  C   UNL A   1      38.978  21.649  25.870  1.00  0.00     0.023 C 
ENDROOT
BRANCH   1   2
ATOM      2  C   UNL A   1      37.789  21.177  25.018  1.00  0.00     0.116 C 
BRANCH   2   3
ATOM      3  N   UNL A   1      37.187  22.220  24.196  1.00  0.00    -0.356 N 
ATOM      4  O   UNL A   1      35.019  21.698  24.777  1.00  0.00    -0.275 OA
ATOM      5  C   UNL A   1      35.820  22.433  24.203  1.00  0.00     0.221 C 
ATOM      6  H   UNL A   1      37.762  22.780  23.626  1.00  0.00     0.163 HD
BRANCH   5   7
ATOM      7  C   UNL A   1      35.342  23.665  23.459  1.00  0.00     0.122 C 
BRANCH   7   8
ATOM      8  C   UNL A   1      34.031  23.397  22.712  1.00  0.00     0.138 C 
BRANCH   8   9
ATOM      9  N   UNL A   1      33.049  24.442  22.948  1.00  0.00    -0.281 N 
ATOM     10  C   UNL A   1      32.149  24.431  24.011  1.00  0.00     0.235 C 
ATOM     11  C   UNL A   1      33.039  25.657  22.256  1.00  0.00     0.234 C 
ATOM     12  O   UNL A   1      32.064  23.613  24.905  1.00  0.00    -0.274 OA
ATOM     13  C   UNL A   1      31.266  25.620  23.777  1.00  0.00     0.118 C 
ATOM     14  C   UNL A   1      32.343  26.559  23.211  1.00  0.00     0.105 C 
ATOM     15  O   UNL A   1      33.660  25.976  21.263  1.00  0.00    -0.274 OA
ATOM     16  C   UNL A   1      30.456  26.423  24.808  1.00  0.00     0.088 C 
ATOM     17  C   UNL A   1      31.819  27.998  23.132  1.00  0.00     0.063 C 
ATOM     18  C   UNL A   1      29.545  27.279  23.886  1.00  0.00    -0.022 A 
ATOM     19  Br  UNL A   1      29.463  25.264  25.990  1.00  0.00    -0.074 Br
ATOM     20  C   UNL A   1      31.372  27.452  25.510  1.00  0.00    -0.022 A 
ATOM     21  C   UNL A   1      30.300  28.084  22.969  1.00  0.00    -0.035 A 
ATOM     22  C   UNL A   1      32.032  28.365  24.618  1.00  0.00    -0.035 A 
ATOM     23  C   UNL A   1      28.157  27.410  23.939  1.00  0.00     0.006 A 
ATOM     24  C   UNL A   1      31.661  27.543  26.848  1.00  0.00     0.006 A 
ATOM     25  C   UNL A   1      29.665  29.036  22.178  1.00  0.00     0.005 A 
ATOM     26  C   UNL A   1      32.915  29.342  25.064  1.00  0.00     0.005 A 
ATOM     27  C   UNL A   1      27.531  28.355  23.125  1.00  0.00     0.000 A 
ATOM     28  C   UNL A   1      32.594  28.490  27.293  1.00  0.00     0.000 A 
ATOM     29  C   UNL A   1      28.279  29.167  22.263  1.00  0.00     0.000 A 
ATOM     30  C   UNL A   1      33.202  29.389  26.418  1.00  0.00     0.000 A 
ENDBRANCH   8   9
ENDBRANCH   7   8
ENDBRANCH   5   7
ENDBRANCH   2   3
ENDBRANCH   1   2
BRANCH   1  31
ATOM     31  C   UNL A   1      40.089  20.607  26.108  1.00  0.00     0.023 C 
BRANCH  31  32
ATOM     32  C   UNL A   1      41.425  21.177  26.631  1.00  0.00     0.116 C 
BRANCH  32  33
ATOM     33  N   UNL A   1      42.245  21.838  25.621  1.00  0.00    -0.352 N 
ATOM     34  C   UNL A   1      42.626  23.148  25.394  1.00  0.00     0.251 C 
ATOM     35  H   UNL A   1      42.609  21.213  24.953  1.00  0.00     0.163 HD
ATOM     36  O   UNL A   1      43.392  23.368  24.454  1.00  0.00    -0.269 OA
BRANCH  34  37
ATOM     37  C   UNL A   1      42.105  24.325  26.148  1.00  0.00     0.039 A 
ATOM     38  C   UNL A   1      42.497  25.640  25.926  1.00  0.00     0.014 A 
ATOM     39  C   UNL A   1      41.107  24.103  27.106  1.00  0.00     0.014 A 
ATOM     40  C   UNL A   1      42.079  26.668  26.814  1.00  0.00     0.010 A 
ATOM     41  C   UNL A   1      40.630  25.148  27.928  1.00  0.00     0.010 A 
ATOM     42  C   UNL A   1      41.189  26.436  27.885  1.00  0.00    -0.014 A 
BRANCH  42  43
ATOM     43  C   UNL A   1      40.931  27.451  28.998  1.00  0.00     0.031 A 
ATOM     44  C   UNL A   1      41.818  27.501  30.251  1.00  0.00     0.074 A 
ATOM     45  C   UNL A   1      39.961  28.396  28.941  1.00  0.00     0.049 A 
ATOM     46  N   UNL A   1      41.671  28.195  31.362  1.00  0.00    -0.248 NA
ATOM     47  C   UNL A   1      43.028  26.664  30.255  1.00  0.00     0.031 C 
ATOM     48  C   UNL A   1      39.016  28.598  27.846  1.00  0.00     0.029 A 
ATOM     49  N   UNL A   1      39.620  29.389  29.845  1.00  0.00    -0.354 N 
ATOM     50  C   UNL A   1      42.729  27.837  32.198  1.00  0.00     0.074 A 
ATOM     51  C   UNL A   1      43.509  26.858  31.475  1.00  0.00     0.031 C 
ATOM     52  C   UNL A   1      38.258  29.677  28.104  1.00  0.00     0.029 A 
ATOM     53  C   UNL A   1      38.579  30.191  29.434  1.00  0.00     0.049 A 
ATOM     54  H   UNL A   1      40.080  29.511  30.706  1.00  0.00     0.167 HD
ATOM     55  C   UNL A   1      43.052  28.273  33.444  1.00  0.00     0.037 A 
ATOM     56  C   UNL A   1      37.909  31.193  30.046  1.00  0.00     0.037 A 
ATOM     57  C   UNL A   1      42.366  29.294  34.194  1.00  0.00     0.049 A 
ATOM     58  C   UNL A   1      38.220  31.595  31.464  1.00  0.00     0.074 A 
ATOM     59  C   UNL A   1      42.668  29.786  35.456  1.00  0.00     0.029 A 
ATOM     60  N   UNL A   1      41.258  29.995  33.756  1.00  0.00    -0.354 N 
ATOM     61  N   UNL A   1      39.180  31.189  32.253  1.00  0.00    -0.248 NA
ATOM     62  C   UNL A   1      37.315  32.579  32.088  1.00  0.00     0.031 C 
ATOM     63  C   UNL A   1      41.721  30.755  35.799  1.00  0.00     0.029 A 
ATOM     64  C   UNL A   1      40.854  30.897  34.732  1.00  0.00     0.049 A 
ATOM     65  H   UNL A   1      40.821  29.874  32.882  1.00  0.00     0.167 HD
ATOM     66  C   UNL A   1      39.002  31.872  33.453  1.00  0.00     0.074 A 
ATOM     67  C   UNL A   1      37.859  32.739  33.286  1.00  0.00     0.031 C 
ATOM     68  C   UNL A   1      39.723  31.773  34.594  1.00  0.00     0.037 A 
BRANCH  55  69
ATOM     69  C   UNL A   1      44.226  27.626  34.126  1.00  0.00     0.057 A 
ATOM     70  C   UNL A   1      44.036  26.492  34.929  1.00  0.00     0.134 A 
ATOM     71  C   UNL A   1      45.511  28.177  34.074  1.00  0.00     0.134 A 
ATOM     72  F   UNL A   1      42.824  25.928  35.035  1.00  0.00    -0.206 F 
ATOM     73  C   UNL A   1      45.083  25.935  35.665  1.00  0.00     0.040 A 
ATOM     74  C   UNL A   1      46.571  27.616  34.789  1.00  0.00     0.040 A 
ATOM     75  F   UNL A   1      45.758  29.258  33.319  1.00  0.00    -0.206 F 
ATOM     76  C   UNL A   1      46.356  26.498  35.595  1.00  0.00     0.006 A 
ENDBRANCH  55  69
BRANCH  56  77
ATOM     77  C   UNL A   1      36.782  31.873  29.350  1.00  0.00     0.057 A 
ATOM     78  C   UNL A   1      36.951  33.128  28.753  1.00  0.00     0.134 A 
ATOM     79  C   UNL A   1      35.541  31.243  29.191  1.00  0.00     0.134 A 
ATOM     80  F   UNL A   1      38.122  33.773  28.852  1.00  0.00    -0.206 F 
ATOM     81  C   UNL A   1      35.923  33.741  28.038  1.00  0.00     0.040 A 
ATOM     82  C   UNL A   1      34.515  31.831  28.450  1.00  0.00     0.040 A 
ATOM     83  F   UNL A   1      35.334  30.019  29.699  1.00  0.00    -0.206 F 
ATOM     84  C   UNL A   1      34.704  33.088  27.877  1.00  0.00     0.006 A 
ENDBRANCH  56  77
BRANCH  68  85
ATOM     85  C   UNL A   1      39.325  32.640  35.754  1.00  0.00     0.057 A 
ATOM     86  C   UNL A   1      39.847  33.932  35.901  1.00  0.00     0.134 A 
ATOM     87  C   UNL A   1      38.428  32.195  36.735  1.00  0.00     0.134 A 
ATOM     88  F   UNL A   1      40.716  34.422  35.004  1.00  0.00    -0.206 F 
ATOM     89  C   UNL A   1      39.486  34.750  36.975  1.00  0.00     0.040 A 
ATOM     90  C   UNL A   1      38.043  33.011  37.801  1.00  0.00     0.040 A 
ATOM     91  F   UNL A   1      37.881  30.973  36.649  1.00  0.00    -0.206 F 
ATOM     92  C   UNL A   1      38.576  34.292  37.925  1.00  0.00     0.006 A 
ENDBRANCH  68  85
ENDBRANCH  42  43
ENDBRANCH  34  37
ENDBRANCH  32  33
ENDBRANCH  31  32
ENDBRANCH   1  31
TORSDOF 13
ENDMDL
MODEL 2
REMARK VINA RESULT:     -13.6      4.302      9.473
REMARK SMILES O=C(CCN1C(=O)[C@@H]2[C@@H](C1=O)[C@H]1c3ccccc3[C@]2(Br)c2ccccc21)NCCCCNC(=O)c1ccc(-c2c3nc(c(-c4c(F)cccc4F)c4ccc([nH]4)c(-c4c(F)cccc4F)c4nc(c(-c5c(F)cccc5F)c5ccc2[nH]5)C=C4)C=C3)cc1
REMARK SMILES IDX 29 1 28 2 27 3 1 4 2 5 3 7 4 8 5 9 6 10 10 11 7 12 8 13 9 14
REMARK SMILES IDX 11 15 19 16 12 17 21 18 20 19 18 20 26 21 13 22 22 23 17 24
REMARK SMILES IDX 25 25 14 26 23 27 16 28 24 29 15 30 30 31 31 32 32 33 33 34
REMARK SMILES IDX 34 36 35 37 36 38 88 39 37 40 87 41 38 42 39 43 40 44 81 45
REMARK SMILES IDX 41 46 86 47 80 48 82 49 42 50 85 51 79 52 78 53 43 55 69 56
REMARK SMILES IDX 52 57 68 58 53 59 56 60 67 61 83 62 54 63 55 64 66 66 84 67
REMARK SMILES IDX 57 68 44 69 45 70 50 71 46 72 47 73 49 74 51 75 48 76 70 77
REMARK SMILES IDX 71 78 76 79 72 80 73 81 75 82 77 83 74 84 58 85 59 86 64 87
REMARK SMILES IDX 60 88 61 89 63 90 65 91 62 92
REMARK H PARENT 27 6 32 35 82 54 56 65
REMARK Flexibility Score: inf
ROOT
ATOM      1  C   UNL A   1      33.634  31.364  27.626  1.00  0.00     0.023 C 
ENDROOT
BRANCH   1   2
ATOM      2  C   UNL A   1      32.500  30.675  26.850  1.00  0.00     0.116 C 
BRANCH   2   3
ATOM      3  N   UNL A   1      32.262  29.289  27.238  1.00  0.00    -0.356 N 
ATOM      4  O   UNL A   1      31.398  28.663  25.195  1.00  0.00    -0.275 OA
ATOM      5  C   UNL A   1      31.779  28.368  26.325  1.00  0.00     0.221 C 
ATOM      6  H   UNL A   1      32.446  29.006  28.162  1.00  0.00     0.163 HD
BRANCH   5   7
ATOM      7  C   UNL A   1      31.759  26.926  26.796  1.00  0.00     0.122 C 
BRANCH   7   8
ATOM      8  C   UNL A   1      30.718  26.101  26.031  1.00  0.00     0.138 C 
BRANCH   8   9
ATOM      9  N   UNL A   1      31.260  24.831  25.577  1.00  0.00    -0.281 N 
ATOM     10  C   UNL A   1      31.737  24.613  24.287  1.00  0.00     0.235 C 
ATOM     11  C   UNL A   1      31.545  23.765  26.435  1.00  0.00     0.234 C 
ATOM     12  O   UNL A   1      31.822  25.417  23.378  1.00  0.00    -0.274 OA
ATOM     13  C   UNL A   1      32.069  23.151  24.243  1.00  0.00     0.118 C 
ATOM     14  C   UNL A   1      32.590  23.023  25.683  1.00  0.00     0.105 C 
ATOM     15  O   UNL A   1      31.231  23.616  27.599  1.00  0.00    -0.274 OA
ATOM     16  C   UNL A   1      33.070  22.428  23.328  1.00  0.00     0.088 C 
ATOM     17  C   UNL A   1      33.299  21.678  25.884  1.00  0.00     0.063 C 
ATOM     18  C   UNL A   1      32.694  20.941  23.571  1.00  0.00    -0.022 A 
ATOM     19  Br  UNL A   1      32.870  22.969  21.486  1.00  0.00    -0.074 Br
ATOM     20  C   UNL A   1      34.500  22.564  23.903  1.00  0.00    -0.022 A 
ATOM     21  C   UNL A   1      32.784  20.575  24.956  1.00  0.00    -0.035 A 
ATOM     22  C   UNL A   1      34.649  22.071  25.244  1.00  0.00    -0.035 A 
ATOM     23  C   UNL A   1      32.400  19.967  22.617  1.00  0.00     0.006 A 
ATOM     24  C   UNL A   1      35.592  23.144  23.308  1.00  0.00     0.006 A 
ATOM     25  C   UNL A   1      32.644  19.248  25.345  1.00  0.00     0.005 A 
ATOM     26  C   UNL A   1      35.853  22.134  25.936  1.00  0.00     0.005 A 
ATOM     27  C   UNL A   1      32.241  18.641  23.025  1.00  0.00     0.000 A 
ATOM     28  C   UNL A   1      36.792  23.258  24.025  1.00  0.00     0.000 A 
ATOM     29  C   UNL A   1      32.374  18.285  24.372  1.00  0.00     0.000 A 
ATOM     30  C   UNL A   1      36.928  22.747  25.314  1.00  0.00     0.000 A 
ENDBRANCH   8   9
ENDBRANCH   7   8
ENDBRANCH   5   7
ENDBRANCH   2   3
ENDBRANCH   1   2
BRANCH   1  31
ATOM     31  C   UNL A   1      33.389  32.837  28.008  1.00  0.00     0.023 C 
BRANCH  31  32
ATOM     32  C   UNL A   1      34.460  33.466  28.924  1.00  0.00     0.116 C 
BRANCH  32  33
ATOM     33  N   UNL A   1      34.324  33.137  30.340  1.00  0.00    -0.352 N 
ATOM     34  C   UNL A   1      35.030  32.331  31.214  1.00  0.00     0.251 C 
ATOM     35  H   UNL A   1      33.561  33.588  30.767  1.00  0.00     0.163 HD
ATOM     36  O   UNL A   1      34.674  32.315  32.394  1.00  0.00    -0.269 OA
BRANCH  34  37
ATOM     37  C   UNL A   1      36.134  31.412  30.816  1.00  0.00     0.039 A 
ATOM     38  C   UNL A   1      36.758  30.510  31.671  1.00  0.00     0.014 A 
ATOM     39  C   UNL A   1      36.535  31.408  29.472  1.00  0.00     0.014 A 
ATOM     40  C   UNL A   1      37.917  29.808  31.244  1.00  0.00     0.010 A 
ATOM     41  C   UNL A   1      37.635  30.638  29.034  1.00  0.00     0.010 A 
ATOM     42  C   UNL A   1      38.431  29.908  29.933  1.00  0.00    -0.014 A 
BRANCH  42  43
ATOM     43  C   UNL A   1      39.805  29.377  29.526  1.00  0.00     0.031 A 
ATOM     44  C   UNL A   1      41.050  30.275  29.573  1.00  0.00     0.074 A 
ATOM     45  C   UNL A   1      40.034  28.093  29.158  1.00  0.00     0.049 A 
ATOM     46  N   UNL A   1      42.272  30.047  29.134  1.00  0.00    -0.248 NA
ATOM     47  C   UNL A   1      40.904  31.600  30.193  1.00  0.00     0.031 C 
ATOM     48  C   UNL A   1      39.039  27.027  29.077  1.00  0.00     0.029 A 
ATOM     49  N   UNL A   1      41.210  27.461  28.788  1.00  0.00    -0.354 N 
ATOM     50  C   UNL A   1      43.007  31.207  29.379  1.00  0.00     0.074 A 
ATOM     51  C   UNL A   1      42.097  32.145  29.997  1.00  0.00     0.031 C 
ATOM     52  C   UNL A   1      39.646  25.873  28.757  1.00  0.00     0.029 A 
ATOM     53  C   UNL A   1      41.063  26.123  28.497  1.00  0.00     0.049 A 
ATOM     54  H   UNL A   1      42.076  27.926  28.736  1.00  0.00     0.167 HD
ATOM     55  C   UNL A   1      44.314  31.488  29.137  1.00  0.00     0.037 A 
ATOM     56  C   UNL A   1      41.928  25.195  28.030  1.00  0.00     0.037 A 
ATOM     57  C   UNL A   1      45.294  30.583  28.593  1.00  0.00     0.049 A 
ATOM     58  C   UNL A   1      43.348  25.553  27.676  1.00  0.00     0.074 A 
ATOM     59  C   UNL A   1      46.640  30.817  28.347  1.00  0.00     0.029 A 
ATOM     60  N   UNL A   1      45.051  29.273  28.228  1.00  0.00    -0.354 N 
ATOM     61  N   UNL A   1      43.994  26.676  27.853  1.00  0.00    -0.248 NA
ATOM     62  C   UNL A   1      44.151  24.505  27.016  1.00  0.00     0.031 C 
ATOM     63  C   UNL A   1      47.202  29.661  27.796  1.00  0.00     0.029 A 
ATOM     64  C   UNL A   1      46.216  28.695  27.738  1.00  0.00     0.049 A 
ATOM     65  H   UNL A   1      44.182  28.816  28.303  1.00  0.00     0.167 HD
ATOM     66  C   UNL A   1      45.270  26.467  27.340  1.00  0.00     0.074 A 
ATOM     67  C   UNL A   1      45.324  25.103  26.868  1.00  0.00     0.031 C 
ATOM     68  C   UNL A   1      46.300  27.342  27.262  1.00  0.00     0.037 A 
BRANCH  55  69
ATOM     69  C   UNL A   1      44.797  32.879  29.446  1.00  0.00     0.057 A 
ATOM     70  C   UNL A   1      44.728  33.882  28.467  1.00  0.00     0.134 A 
ATOM     71  C   UNL A   1      45.416  33.198  30.659  1.00  0.00     0.134 A 
ATOM     72  F   UNL A   1      44.163  33.632  27.276  1.00  0.00    -0.206 F 
ATOM     73  C   UNL A   1      45.269  35.149  28.682  1.00  0.00     0.040 A 
ATOM     74  C   UNL A   1      45.942  34.470  30.894  1.00  0.00     0.040 A 
ATOM     75  F   UNL A   1      45.507  32.284  31.637  1.00  0.00    -0.206 F 
ATOM     76  C   UNL A   1      45.877  35.446  29.900  1.00  0.00     0.006 A 
ENDBRANCH  55  69
BRANCH  56  77
ATOM     77  C   UNL A   1      41.466  23.803  27.777  1.00  0.00     0.057 A 
ATOM     78  C   UNL A   1      40.682  23.492  26.659  1.00  0.00     0.134 A 
ATOM     79  C   UNL A   1      41.873  22.742  28.596  1.00  0.00     0.134 A 
ATOM     80  F   UNL A   1      40.278  24.461  25.825  1.00  0.00    -0.206 F 
ATOM     81  C   UNL A   1      40.304  22.181  26.373  1.00  0.00     0.040 A 
ATOM     82  C   UNL A   1      41.529  21.422  28.303  1.00  0.00     0.040 A 
ATOM     83  F   UNL A   1      42.664  22.971  29.655  1.00  0.00    -0.206 F 
ATOM     84  C   UNL A   1      40.736  21.140  27.192  1.00  0.00     0.006 A 
ENDBRANCH  56  77
BRANCH  68  85
ATOM     85  C   UNL A   1      47.591  26.855  26.669  1.00  0.00     0.057 A 
ATOM     86  C   UNL A   1      48.575  26.262  27.471  1.00  0.00     0.134 A 
ATOM     87  C   UNL A   1      47.868  26.980  25.301  1.00  0.00     0.134 A 
ATOM     88  F   UNL A   1      48.382  26.115  28.790  1.00  0.00    -0.206 F 
ATOM     89  C   UNL A   1      49.781  25.804  26.933  1.00  0.00     0.040 A 
ATOM     90  C   UNL A   1      49.061  26.508  24.748  1.00  0.00     0.040 A 
ATOM     91  F   UNL A   1      46.965  27.527  24.473  1.00  0.00    -0.206 F 
ATOM     92  C   UNL A   1      50.023  25.921  25.566  1.00  0.00     0.006 A 
ENDBRANCH  68  85
ENDBRANCH  42  43
ENDBRANCH  34  37
ENDBRANCH  32  33
ENDBRANCH  31  32
ENDBRANCH   1  31
TORSDOF 13
ENDMDL
MODEL 3
REMARK VINA RESULT:     -13.1      2.805      8.332
REMARK SMILES O=C(CCN1C(=O)[C@@H]2[C@@H](C1=O)[C@H]1c3ccccc3[C@]2(Br)c2ccccc21)NCCCCNC(=O)c1ccc(-c2c3nc(c(-c4c(F)cccc4F)c4ccc([nH]4)c(-c4c(F)cccc4F)c4nc(c(-c5c(F)cccc5F)c5ccc2[nH]5)C=C4)C=C3)cc1
REMARK SMILES IDX 29 1 28 2 27 3 1 4 2 5 3 7 4 8 5 9 6 10 10 11 7 12 8 13 9 14
REMARK SMILES IDX 11 15 19 16 12 17 21 18 20 19 18 20 26 21 13 22 22 23 17 24
REMARK SMILES IDX 25 25 14 26 23 27 16 28 24 29 15 30 30 31 31 32 32 33 33 34
REMARK SMILES IDX 34 36 35 37 36 38 88 39 37 40 87 41 38 42 39 43 40 44 81 45
REMARK SMILES IDX 41 46 86 47 80 48 82 49 42 50 85 51 79 52 78 53 43 55 69 56
REMARK SMILES IDX 52 57 68 58 53 59 56 60 67 61 83 62 54 63 55 64 66 66 84 67
REMARK SMILES IDX 57 68 44 69 45 70 50 71 46 72 47 73 49 74 51 75 48 76 70 77
REMARK SMILES IDX 71 78 76 79 72 80 73 81 75 82 77 83 74 84 58 85 59 86 64 87
REMARK SMILES IDX 60 88 61 89 63 90 65 91 62 92
REMARK H PARENT 27 6 32 35 82 54 56 65
REMARK Flexibility Score: inf
ROOT
ATOM      1  C   UNL A   1      30.929  31.280  25.705  1.00  0.00     0.023 C 
ENDROOT
BRANCH   1   2
ATOM      2  C   UNL A   1      31.851  30.091  25.393  1.00  0.00     0.116 C 
BRANCH   2   3
ATOM      3  N   UNL A   1      31.567  28.889  26.169  1.00  0.00    -0.356 N 
ATOM      4  O   UNL A   1      31.037  27.596  24.336  1.00  0.00    -0.275 OA
ATOM      5  C   UNL A   1      31.240  27.699  25.544  1.00  0.00     0.221 C 
ATOM      6  H   UNL A   1      31.607  28.927  27.152  1.00  0.00     0.163 HD
BRANCH   5   7
ATOM      7  C   UNL A   1      31.158  26.484  26.448  1.00  0.00     0.122 C 
BRANCH   7   8
ATOM      8  C   UNL A   1      30.162  25.451  25.909  1.00  0.00     0.138 C 
BRANCH   8   9
ATOM      9  N   UNL A   1      30.821  24.213  25.523  1.00  0.00    -0.281 N 
ATOM     10  C   UNL A   1      31.306  23.964  24.242  1.00  0.00     0.235 C 
ATOM     11  C   UNL A   1      31.214  23.233  26.440  1.00  0.00     0.234 C 
ATOM     12  O   UNL A   1      31.306  24.715  23.287  1.00  0.00    -0.274 OA
ATOM     13  C   UNL A   1      31.776  22.541  24.281  1.00  0.00     0.118 C 
ATOM     14  C   UNL A   1      32.319  22.550  25.719  1.00  0.00     0.105 C 
ATOM     15  O   UNL A   1      30.924  23.125  27.614  1.00  0.00    -0.274 OA
ATOM     16  C   UNL A   1      32.835  21.863  23.397  1.00  0.00     0.088 C 
ATOM     17  C   UNL A   1      33.156  21.294  25.989  1.00  0.00     0.063 C 
ATOM     18  C   UNL A   1      32.605  20.364  23.733  1.00  0.00    -0.022 A 
ATOM     19  Br  UNL A   1      32.569  22.269  21.529  1.00  0.00    -0.074 Br
ATOM     20  C   UNL A   1      34.250  22.169  23.943  1.00  0.00    -0.022 A 
ATOM     21  C   UNL A   1      32.742  20.092  25.136  1.00  0.00    -0.035 A 
ATOM     22  C   UNL A   1      34.457  21.774  25.309  1.00  0.00    -0.035 A 
ATOM     23  C   UNL A   1      32.400  19.310  22.842  1.00  0.00     0.006 A 
ATOM     24  C   UNL A   1      35.276  22.813  23.300  1.00  0.00     0.006 A 
ATOM     25  C   UNL A   1      32.733  18.784  25.605  1.00  0.00     0.005 A 
ATOM     26  C   UNL A   1      35.655  21.994  25.979  1.00  0.00     0.005 A 
ATOM     27  C   UNL A   1      32.372  18.002  23.331  1.00  0.00     0.000 A 
ATOM     28  C   UNL A   1      36.465  23.085  23.991  1.00  0.00     0.000 A 
ATOM     29  C   UNL A   1      32.549  17.743  24.695  1.00  0.00     0.000 A 
ATOM     30  C   UNL A   1      36.661  22.668  25.307  1.00  0.00     0.000 A 
ENDBRANCH   8   9
ENDBRANCH   7   8
ENDBRANCH   5   7
ENDBRANCH   2   3
ENDBRANCH   1   2
BRANCH   1  31
ATOM     31  C   UNL A   1      31.341  32.153  26.907  1.00  0.00     0.023 C 
BRANCH  31  32
ATOM     32  C   UNL A   1      32.101  33.448  26.550  1.00  0.00     0.116 C 
BRANCH  32  33
ATOM     33  N   UNL A   1      32.291  34.373  27.663  1.00  0.00    -0.352 N 
ATOM     34  C   UNL A   1      33.269  34.535  28.626  1.00  0.00     0.251 C 
ATOM     35  H   UNL A   1      31.560  35.028  27.747  1.00  0.00     0.163 HD
ATOM     36  O   UNL A   1      33.151  35.476  29.412  1.00  0.00    -0.269 OA
BRANCH  34  37
ATOM     37  C   UNL A   1      34.411  33.599  28.840  1.00  0.00     0.039 A 
ATOM     38  C   UNL A   1      34.290  32.218  28.948  1.00  0.00     0.014 A 
ATOM     39  C   UNL A   1      35.705  34.137  28.875  1.00  0.00     0.014 A 
ATOM     40  C   UNL A   1      35.410  31.432  29.330  1.00  0.00     0.010 A 
ATOM     41  C   UNL A   1      36.829  33.333  29.168  1.00  0.00     0.010 A 
ATOM     42  C   UNL A   1      36.697  31.979  29.522  1.00  0.00    -0.014 A 
BRANCH  42  43
ATOM     43  C   UNL A   1      37.848  31.215  30.177  1.00  0.00     0.031 A 
ATOM     44  C   UNL A   1      38.182  31.403  31.664  1.00  0.00     0.074 A 
ATOM     45  C   UNL A   1      38.602  30.295  29.529  1.00  0.00     0.049 A 
ATOM     46  N   UNL A   1      39.204  30.952  32.363  1.00  0.00    -0.248 NA
ATOM     47  C   UNL A   1      37.247  32.203  32.470  1.00  0.00     0.031 C 
ATOM     48  C   UNL A   1      38.462  29.893  28.132  1.00  0.00     0.029 A 
ATOM     49  N   UNL A   1      39.651  29.512  29.983  1.00  0.00    -0.354 N 
ATOM     50  C   UNL A   1      39.056  31.452  33.656  1.00  0.00     0.074 A 
ATOM     51  C   UNL A   1      37.851  32.251  33.650  1.00  0.00     0.031 C 
ATOM     52  C   UNL A   1      39.328  28.902  27.863  1.00  0.00     0.029 A 
ATOM     53  C   UNL A   1      40.171  28.662  29.033  1.00  0.00     0.049 A 
ATOM     54  H   UNL A   1      39.995  29.559  30.903  1.00  0.00     0.167 HD
ATOM     55  C   UNL A   1      39.823  31.272  34.763  1.00  0.00     0.037 A 
ATOM     56  C   UNL A   1      41.226  27.817  29.052  1.00  0.00     0.037 A 
ATOM     57  C   UNL A   1      40.992  30.435  34.862  1.00  0.00     0.049 A 
ATOM     58  C   UNL A   1      42.121  27.705  30.259  1.00  0.00     0.074 A 
ATOM     59  C   UNL A   1      41.793  30.204  35.972  1.00  0.00     0.029 A 
ATOM     60  N   UNL A   1      41.520  29.680  33.833  1.00  0.00    -0.354 N 
ATOM     61  N   UNL A   1      41.995  28.244  31.443  1.00  0.00    -0.248 NA
ATOM     62  C   UNL A   1      43.338  26.883  30.107  1.00  0.00     0.031 C 
ATOM     63  C   UNL A   1      42.830  29.340  35.603  1.00  0.00     0.029 A 
ATOM     64  C   UNL A   1      42.649  29.002  34.277  1.00  0.00     0.049 A 
ATOM     65  H   UNL A   1      41.152  29.630  32.922  1.00  0.00     0.167 HD
ATOM     66  C   UNL A   1      43.101  27.821  32.174  1.00  0.00     0.074 A 
ATOM     67  C   UNL A   1      43.878  26.958  31.315  1.00  0.00     0.031 C 
ATOM     68  C   UNL A   1      43.441  28.136  33.446  1.00  0.00     0.037 A 
BRANCH  55  69
ATOM     69  C   UNL A   1      39.438  32.022  36.009  1.00  0.00     0.057 A 
ATOM     70  C   UNL A   1      38.402  31.544  36.826  1.00  0.00     0.134 A 
ATOM     71  C   UNL A   1      40.012  33.253  36.342  1.00  0.00     0.134 A 
ATOM     72  F   UNL A   1      37.799  30.379  36.549  1.00  0.00    -0.206 F 
ATOM     73  C   UNL A   1      37.945  32.272  37.924  1.00  0.00     0.040 A 
ATOM     74  C   UNL A   1      39.577  33.981  37.451  1.00  0.00     0.040 A 
ATOM     75  F   UNL A   1      41.010  33.760  35.603  1.00  0.00    -0.206 F 
ATOM     76  C   UNL A   1      38.534  33.495  38.240  1.00  0.00     0.006 A 
ENDBRANCH  55  69
BRANCH  56  77
ATOM     77  C   UNL A   1      41.576  27.030  27.837  1.00  0.00     0.057 A 
ATOM     78  C   UNL A   1      41.057  25.746  27.632  1.00  0.00     0.134 A 
ATOM     79  C   UNL A   1      42.362  27.581  26.817  1.00  0.00     0.134 A 
ATOM     80  F   UNL A   1      40.280  25.172  28.562  1.00  0.00    -0.206 F 
ATOM     81  C   UNL A   1      41.320  25.030  26.465  1.00  0.00     0.040 A 
ATOM     82  C   UNL A   1      42.607  26.888  25.631  1.00  0.00     0.040 A 
ATOM     83  F   UNL A   1      42.848  28.825  26.936  1.00  0.00    -0.206 F 
ATOM     84  C   UNL A   1      42.090  25.605  25.456  1.00  0.00     0.006 A 
ENDBRANCH  56  77
BRANCH  68  85
ATOM     85  C   UNL A   1      44.693  27.529  34.010  1.00  0.00     0.057 A 
ATOM     86  C   UNL A   1      44.669  26.273  34.631  1.00  0.00     0.134 A 
ATOM     87  C   UNL A   1      45.927  28.190  33.946  1.00  0.00     0.134 A 
ATOM     88  F   UNL A   1      43.522  25.585  34.734  1.00  0.00    -0.206 F 
ATOM     89  C   UNL A   1      45.826  25.695  35.160  1.00  0.00     0.040 A 
ATOM     90  C   UNL A   1      47.095  27.613  34.452  1.00  0.00     0.040 A 
ATOM     91  F   UNL A   1      46.024  29.389  33.354  1.00  0.00    -0.206 F 
ATOM     92  C   UNL A   1      47.045  26.363  35.065  1.00  0.00     0.006 A 
ENDBRANCH  68  85
ENDBRANCH  42  43
ENDBRANCH  34  37
ENDBRANCH  32  33
ENDBRANCH  31  32
ENDBRANCH   1  31
TORSDOF 13
ENDMDL
