MODEL 1
REMARK VINA RESULT:     -13.3      0.000      0.000
REMARK SMILES O=C(NCCCCNC(=O)c1ccc(N2C(=O)[C@@H]3N=NC(c4ccccc4)=C3[C@H]2c2cccc(Br)c2)cc1)c1ccc(-c2c3nc(c(-c4c(F)cccc4F)c4ccc([nH]4)c(-c4c(F)cccc4F)c4nc(c(-c5c(F)cccc5F)c5ccc2[nH]5)C=C4)C=C3)cc1
REMARK SMILES IDX 5 1 4 2 3 3 1 4 2 5 39 7 40 8 92 9 41 10 91 11 42 12 43 13
REMARK SMILES IDX 44 14 85 15 45 16 90 17 84 18 86 19 46 20 89 21 83 22 82 23
REMARK SMILES IDX 47 25 73 26 56 27 72 28 57 29 60 30 71 31 87 32 58 33 59 34
REMARK SMILES IDX 70 36 88 37 61 38 48 39 49 40 54 41 50 42 51 43 53 44 55 45
REMARK SMILES IDX 52 46 74 47 75 48 80 49 76 50 77 51 79 52 81 53 78 54 62 55
REMARK SMILES IDX 63 56 68 57 64 58 65 59 67 60 69 61 66 62 6 63 7 64 8 65
REMARK SMILES IDX 9 66 10 68 11 69 12 70 38 71 13 72 37 73 14 74 15 75 16 76
REMARK SMILES IDX 29 77 18 78 17 79 28 80 19 81 21 82 20 83 30 84 31 85 36 86
REMARK SMILES IDX 32 87 34 88 33 89 35 90 22 91 23 92 27 93 24 94 26 95 25 96
REMARK H PARENT 3 6 86 24 60 35 8 67
REMARK Flexibility Score: inf
ROOT
ATOM      1  C   UNL A   1      38.663  21.273  25.894  1.00  0.00     0.023 C 
ENDROOT
BRANCH   1   2
ATOM      2  C   UNL A   1      39.604  22.322  26.483  1.00  0.00     0.116 C 
BRANCH   2   3
ATOM      3  N   UNL A   1      40.831  22.537  25.743  1.00  0.00    -0.352 N 
ATOM      4  O   UNL A   1      42.854  23.210  25.160  1.00  0.00    -0.269 OA
ATOM      5  C   UNL A   1      41.822  23.479  25.782  1.00  0.00     0.251 C 
ATOM      6  H   UNL A   1      40.986  21.849  25.056  1.00  0.00     0.163 HD
BRANCH   5   7
ATOM      7  C   UNL A   1      41.710  24.813  26.430  1.00  0.00     0.039 A 
ATOM      8  C   UNL A   1      41.083  25.937  25.891  1.00  0.00     0.014 A 
ATOM      9  C   UNL A   1      42.328  24.925  27.691  1.00  0.00     0.014 A 
ATOM     10  C   UNL A   1      41.157  27.164  26.549  1.00  0.00     0.010 A 
ATOM     11  C   UNL A   1      42.400  26.143  28.355  1.00  0.00     0.010 A 
ATOM     12  C   UNL A   1      41.839  27.271  27.766  1.00  0.00    -0.014 A 
BRANCH  12  13
ATOM     13  C   UNL A   1      41.722  28.516  28.525  1.00  0.00     0.031 A 
ATOM     14  C   UNL A   1      42.864  29.443  28.277  1.00  0.00     0.074 A 
ATOM     15  C   UNL A   1      40.625  28.874  29.227  1.00  0.00     0.049 A 
ATOM     16  N   UNL A   1      43.728  29.885  29.131  1.00  0.00    -0.248 NA
ATOM     17  C   UNL A   1      43.175  29.800  26.880  1.00  0.00     0.031 C 
ATOM     18  C   UNL A   1      39.352  28.156  29.297  1.00  0.00     0.029 A 
ATOM     19  N   UNL A   1      40.370  30.007  29.949  1.00  0.00    -0.354 N 
ATOM     20  C   UNL A   1      44.548  30.759  28.416  1.00  0.00     0.074 A 
ATOM     21  C   UNL A   1      44.295  30.508  27.025  1.00  0.00     0.031 C 
ATOM     22  C   UNL A   1      38.403  28.970  29.814  1.00  0.00     0.029 A 
ATOM     23  C   UNL A   1      39.018  30.223  30.218  1.00  0.00     0.049 A 
ATOM     24  H   UNL A   1      41.079  30.620  30.252  1.00  0.00     0.167 HD
ATOM     25  C   UNL A   1      45.119  31.828  29.035  1.00  0.00     0.037 A 
ATOM     26  C   UNL A   1      38.438  31.363  30.682  1.00  0.00     0.037 A 
ATOM     27  C   UNL A   1      45.182  31.618  30.461  1.00  0.00     0.049 A 
ATOM     28  C   UNL A   1      39.504  32.201  31.273  1.00  0.00     0.074 A 
ATOM     29  C   UNL A   1      45.742  30.679  31.304  1.00  0.00     0.029 A 
ATOM     30  N   UNL A   1      44.274  32.307  31.223  1.00  0.00    -0.354 N 
ATOM     31  N   UNL A   1      40.125  31.921  32.381  1.00  0.00    -0.248 NA
ATOM     32  C   UNL A   1      40.172  33.158  30.406  1.00  0.00     0.031 C 
ATOM     33  C   UNL A   1      44.827  30.559  32.394  1.00  0.00     0.029 A 
ATOM     34  C   UNL A   1      43.796  31.476  32.193  1.00  0.00     0.049 A 
ATOM     35  H   UNL A   1      44.011  33.247  31.091  1.00  0.00     0.167 HD
ATOM     36  C   UNL A   1      41.442  32.272  32.134  1.00  0.00     0.074 A 
ATOM     37  C   UNL A   1      41.388  33.137  30.957  1.00  0.00     0.031 C 
ATOM     38  C   UNL A   1      42.461  31.586  32.730  1.00  0.00     0.037 A 
BRANCH  25  39
ATOM     39  C   UNL A   1      45.124  33.230  28.438  1.00  0.00     0.057 A 
ATOM     40  C   UNL A   1      43.895  33.786  28.030  1.00  0.00     0.134 A 
ATOM     41  C   UNL A   1      46.265  33.887  27.928  1.00  0.00     0.134 A 
ATOM     42  F   UNL A   1      42.732  33.268  28.450  1.00  0.00    -0.206 F 
ATOM     43  C   UNL A   1      43.811  34.814  27.082  1.00  0.00     0.040 A 
ATOM     44  C   UNL A   1      46.190  34.946  27.020  1.00  0.00     0.040 A 
ATOM     45  F   UNL A   1      47.515  33.496  28.193  1.00  0.00    -0.206 F 
ATOM     46  C   UNL A   1      44.961  35.385  26.557  1.00  0.00     0.006 A 
ENDBRANCH  25  39
BRANCH  26  47
ATOM     47  C   UNL A   1      37.088  31.926  30.415  1.00  0.00     0.057 A 
ATOM     48  C   UNL A   1      36.038  31.773  31.338  1.00  0.00     0.134 A 
ATOM     49  C   UNL A   1      36.873  32.874  29.400  1.00  0.00     0.134 A 
ATOM     50  F   UNL A   1      36.155  30.926  32.371  1.00  0.00    -0.206 F 
ATOM     51  C   UNL A   1      34.864  32.537  31.274  1.00  0.00     0.040 A 
ATOM     52  C   UNL A   1      35.701  33.637  29.321  1.00  0.00     0.040 A 
ATOM     53  F   UNL A   1      37.828  33.162  28.507  1.00  0.00    -0.206 F 
ATOM     54  C   UNL A   1      34.697  33.483  30.268  1.00  0.00     0.006 A 
ENDBRANCH  26  47
BRANCH  38  55
ATOM     55  C   UNL A   1      42.124  30.717  33.908  1.00  0.00     0.057 A 
ATOM     56  C   UNL A   1      41.706  29.380  33.825  1.00  0.00     0.134 A 
ATOM     57  C   UNL A   1      42.339  31.237  35.189  1.00  0.00     0.134 A 
ATOM     58  F   UNL A   1      41.569  28.764  32.644  1.00  0.00    -0.206 F 
ATOM     59  C   UNL A   1      41.462  28.616  34.971  1.00  0.00     0.040 A 
ATOM     60  C   UNL A   1      42.135  30.474  36.339  1.00  0.00     0.040 A 
ATOM     61  F   UNL A   1      42.786  32.493  35.343  1.00  0.00    -0.206 F 
ATOM     62  C   UNL A   1      41.681  29.162  36.233  1.00  0.00     0.006 A 
ENDBRANCH  38  55
ENDBRANCH  12  13
ENDBRANCH   5   7
ENDBRANCH   2   3
ENDBRANCH   1   2
BRANCH   1  63
ATOM     63  C   UNL A   1      37.568  21.805  24.961  1.00  0.00     0.023 C 
BRANCH  63  64
ATOM     64  C   UNL A   1      36.345  20.910  24.755  1.00  0.00     0.116 C 
BRANCH  64  65
ATOM     65  N   UNL A   1      35.535  20.765  25.949  1.00  0.00    -0.352 N 
ATOM     66  C   UNL A   1      34.475  21.528  26.389  1.00  0.00     0.251 C 
ATOM     67  H   UNL A   1      35.778  20.010  26.532  1.00  0.00     0.163 HD
ATOM     68  O   UNL A   1      33.995  21.315  27.490  1.00  0.00    -0.269 OA
BRANCH  66  69
ATOM     69  C   UNL A   1      33.942  22.645  25.562  1.00  0.00     0.039 A 
ATOM     70  C   UNL A   1      32.762  22.408  24.862  1.00  0.00     0.016 A 
ATOM     71  C   UNL A   1      34.581  23.887  25.430  1.00  0.00     0.016 A 
ATOM     72  C   UNL A   1      32.190  23.430  24.100  1.00  0.00     0.027 A 
ATOM     73  C   UNL A   1      34.001  24.921  24.660  1.00  0.00     0.027 A 
ATOM     74  C   UNL A   1      32.786  24.708  24.006  1.00  0.00     0.045 A 
BRANCH  74  75
ATOM     75  N   UNL A   1      32.052  25.791  23.380  1.00  0.00    -0.299 N 
ATOM     76  C   UNL A   1      32.732  26.271  22.199  1.00  0.00     0.259 C 
ATOM     77  C   UNL A   1      31.620  26.947  24.219  1.00  0.00     0.152 C 
ATOM     78  C   UNL A   1      32.881  27.756  22.313  1.00  0.00     0.248 C 
ATOM     79  O   UNL A   1      33.191  25.580  21.298  1.00  0.00    -0.271 OA
ATOM     80  C   UNL A   1      32.646  27.894  23.764  1.00  0.00     0.021 C 
ATOM     81  N   UNL A   1      34.233  28.324  22.192  1.00  0.00    -0.170 NA
ATOM     82  C   UNL A   1      33.576  28.710  24.237  1.00  0.00     0.097 C 
ATOM     83  N   UNL A   1      34.507  28.975  23.252  1.00  0.00    -0.154 NA
BRANCH  77  84
ATOM     84  C   UNL A   1      30.226  27.594  23.993  1.00  0.00    -0.020 A 
ATOM     85  C   UNL A   1      29.038  26.805  24.035  1.00  0.00     0.006 A 
ATOM     86  C   UNL A   1      30.084  28.898  23.496  1.00  0.00     0.022 A 
ATOM     87  C   UNL A   1      27.811  27.238  23.534  1.00  0.00     0.002 A 
ATOM     88  C   UNL A   1      28.841  29.330  22.988  1.00  0.00     0.018 A 
ATOM     89  C   UNL A   1      27.717  28.500  22.981  1.00  0.00     0.016 A 
ATOM     90  Br  UNL A   1      28.677  31.050  22.214  1.00  0.00    -0.051 Br
ENDBRANCH  77  84
BRANCH  82  91
ATOM     91  C   UNL A   1      33.759  29.198  25.601  1.00  0.00     0.002 A 
ATOM     92  C   UNL A   1      32.960  30.237  26.105  1.00  0.00     0.010 A 
ATOM     93  C   UNL A   1      34.861  28.762  26.341  1.00  0.00     0.010 A 
ATOM     94  C   UNL A   1      33.330  30.897  27.281  1.00  0.00     0.001 A 
ATOM     95  C   UNL A   1      35.224  29.420  27.517  1.00  0.00     0.001 A 
ATOM     96  C   UNL A   1      34.478  30.507  27.969  1.00  0.00     0.000 A 
ENDBRANCH  82  91
ENDBRANCH  74  75
ENDBRANCH  66  69
ENDBRANCH  64  65
ENDBRANCH  63  64
ENDBRANCH   1  63
TORSDOF 14
ENDMDL
MODEL 2
REMARK VINA RESULT:     -13.3      3.729      8.313
REMARK SMILES O=C(NCCCCNC(=O)c1ccc(N2C(=O)[C@@H]3N=NC(c4ccccc4)=C3[C@H]2c2cccc(Br)c2)cc1)c1ccc(-c2c3nc(c(-c4c(F)cccc4F)c4ccc([nH]4)c(-c4c(F)cccc4F)c4nc(c(-c5c(F)cccc5F)c5ccc2[nH]5)C=C4)C=C3)cc1
REMARK SMILES IDX 5 1 4 2 3 3 1 4 2 5 39 7 40 8 92 9 41 10 91 11 42 12 43 13
REMARK SMILES IDX 44 14 85 15 45 16 90 17 84 18 86 19 46 20 89 21 83 22 82 23
REMARK SMILES IDX 47 25 73 26 56 27 72 28 57 29 60 30 71 31 87 32 58 33 59 34
REMARK SMILES IDX 70 36 88 37 61 38 48 39 49 40 54 41 50 42 51 43 53 44 55 45
REMARK SMILES IDX 52 46 74 47 75 48 80 49 76 50 77 51 79 52 81 53 78 54 62 55
REMARK SMILES IDX 63 56 68 57 64 58 65 59 67 60 69 61 66 62 6 63 7 64 8 65
REMARK SMILES IDX 9 66 10 68 11 69 12 70 38 71 13 72 37 73 14 74 15 75 16 76
REMARK SMILES IDX 29 77 18 78 17 79 28 80 19 81 21 82 20 83 30 84 31 85 36 86
REMARK SMILES IDX 32 87 34 88 33 89 35 90 22 91 23 92 27 93 24 94 26 95 25 96
REMARK H PARENT 3 6 86 24 60 35 8 67
REMARK Flexibility Score: inf
ROOT
ATOM      1  C   UNL A   1      33.839  29.622  26.459  1.00  0.00     0.023 C 
ENDROOT
BRANCH   1   2
ATOM      2  C   UNL A   1      35.072  29.102  27.194  1.00  0.00     0.116 C 
BRANCH   2   3
ATOM      3  N   UNL A   1      35.198  29.531  28.572  1.00  0.00    -0.352 N 
ATOM      4  O   UNL A   1      35.977  30.400  30.450  1.00  0.00    -0.269 OA
ATOM      5  C   UNL A   1      36.253  29.823  29.393  1.00  0.00     0.251 C 
ATOM      6  H   UNL A   1      34.327  29.637  29.018  1.00  0.00     0.163 HD
BRANCH   5   7
ATOM      7  C   UNL A   1      37.664  29.422  29.149  1.00  0.00     0.039 A 
ATOM      8  C   UNL A   1      38.482  29.885  28.119  1.00  0.00     0.014 A 
ATOM      9  C   UNL A   1      38.183  28.465  30.044  1.00  0.00     0.014 A 
ATOM     10  C   UNL A   1      39.749  29.334  27.928  1.00  0.00     0.010 A 
ATOM     11  C   UNL A   1      39.446  27.917  29.863  1.00  0.00     0.010 A 
ATOM     12  C   UNL A   1      40.217  28.332  28.783  1.00  0.00    -0.014 A 
BRANCH  12  13
ATOM     13  C   UNL A   1      41.619  27.925  28.681  1.00  0.00     0.031 A 
ATOM     14  C   UNL A   1      41.783  26.613  27.989  1.00  0.00     0.074 A 
ATOM     15  C   UNL A   1      42.663  28.718  29.005  1.00  0.00     0.049 A 
ATOM     16  N   UNL A   1      42.283  25.521  28.465  1.00  0.00    -0.248 NA
ATOM     17  C   UNL A   1      41.174  26.454  26.654  1.00  0.00     0.031 C 
ATOM     18  C   UNL A   1      42.606  30.119  29.427  1.00  0.00     0.029 A 
ATOM     19  N   UNL A   1      44.008  28.482  28.932  1.00  0.00    -0.354 N 
ATOM     20  C   UNL A   1      42.263  24.608  27.410  1.00  0.00     0.074 A 
ATOM     21  C   UNL A   1      41.395  25.164  26.409  1.00  0.00     0.031 C 
ATOM     22  C   UNL A   1      43.840  30.665  29.343  1.00  0.00     0.029 A 
ATOM     23  C   UNL A   1      44.795  29.633  28.975  1.00  0.00     0.049 A 
ATOM     24  H   UNL A   1      44.389  27.577  28.855  1.00  0.00     0.167 HD
ATOM     25  C   UNL A   1      43.211  23.636  27.322  1.00  0.00     0.037 A 
ATOM     26  C   UNL A   1      46.118  29.743  28.675  1.00  0.00     0.037 A 
ATOM     27  C   UNL A   1      43.816  23.396  28.610  1.00  0.00     0.049 A 
ATOM     28  C   UNL A   1      46.702  28.385  28.716  1.00  0.00     0.074 A 
ATOM     29  C   UNL A   1      43.372  23.016  29.860  1.00  0.00     0.029 A 
ATOM     30  N   UNL A   1      45.076  23.900  28.800  1.00  0.00    -0.354 N 
ATOM     31  N   UNL A   1      46.882  27.698  29.807  1.00  0.00    -0.248 NA
ATOM     32  C   UNL A   1      46.713  27.614  27.483  1.00  0.00     0.031 C 
ATOM     33  C   UNL A   1      44.203  23.719  30.784  1.00  0.00     0.029 A 
ATOM     34  C   UNL A   1      45.150  24.436  30.052  1.00  0.00     0.049 A 
ATOM     35  H   UNL A   1      45.807  23.878  28.140  1.00  0.00     0.167 HD
ATOM     36  C   UNL A   1      46.548  26.401  29.453  1.00  0.00     0.074 A 
ATOM     37  C   UNL A   1      46.573  26.388  27.992  1.00  0.00     0.031 C 
ATOM     38  C   UNL A   1      45.998  25.557  30.375  1.00  0.00     0.037 A 
BRANCH  25  39
ATOM     39  C   UNL A   1      43.941  23.302  26.027  1.00  0.00     0.057 A 
ATOM     40  C   UNL A   1      44.128  21.945  25.697  1.00  0.00     0.134 A 
ATOM     41  C   UNL A   1      44.755  24.201  25.303  1.00  0.00     0.134 A 
ATOM     42  F   UNL A   1      43.411  20.985  26.300  1.00  0.00    -0.206 F 
ATOM     43  C   UNL A   1      45.139  21.512  24.829  1.00  0.00     0.040 A 
ATOM     44  C   UNL A   1      45.732  23.780  24.397  1.00  0.00     0.040 A 
ATOM     45  F   UNL A   1      44.728  25.524  25.488  1.00  0.00    -0.206 F 
ATOM     46  C   UNL A   1      45.960  22.431  24.190  1.00  0.00     0.006 A 
ENDBRANCH  25  39
BRANCH  26  47
ATOM     47  C   UNL A   1      46.872  30.877  28.080  1.00  0.00     0.057 A 
ATOM     48  C   UNL A   1      46.371  31.587  26.974  1.00  0.00     0.134 A 
ATOM     49  C   UNL A   1      47.949  31.480  28.753  1.00  0.00     0.134 A 
ATOM     50  F   UNL A   1      45.318  31.124  26.285  1.00  0.00    -0.206 F 
ATOM     51  C   UNL A   1      46.885  32.833  26.585  1.00  0.00     0.040 A 
ATOM     52  C   UNL A   1      48.476  32.719  28.368  1.00  0.00     0.040 A 
ATOM     53  F   UNL A   1      48.463  30.936  29.863  1.00  0.00    -0.206 F 
ATOM     54  C   UNL A   1      47.936  33.409  27.292  1.00  0.00     0.006 A 
ENDBRANCH  26  47
BRANCH  38  55
ATOM     55  C   UNL A   1      46.108  25.936  31.824  1.00  0.00     0.057 A 
ATOM     56  C   UNL A   1      47.232  25.704  32.631  1.00  0.00     0.134 A 
ATOM     57  C   UNL A   1      45.059  26.667  32.393  1.00  0.00     0.134 A 
ATOM     58  F   UNL A   1      48.325  25.100  32.146  1.00  0.00    -0.206 F 
ATOM     59  C   UNL A   1      47.282  26.135  33.960  1.00  0.00     0.040 A 
ATOM     60  C   UNL A   1      45.112  27.136  33.705  1.00  0.00     0.040 A 
ATOM     61  F   UNL A   1      43.972  26.969  31.664  1.00  0.00    -0.206 F 
ATOM     62  C   UNL A   1      46.221  26.858  34.499  1.00  0.00     0.006 A 
ENDBRANCH  38  55
ENDBRANCH  12  13
ENDBRANCH   5   7
ENDBRANCH   2   3
ENDBRANCH   1   2
BRANCH   1  63
ATOM     63  C   UNL A   1      32.547  28.822  26.670  1.00  0.00     0.023 C 
BRANCH  63  64
ATOM     64  C   UNL A   1      31.455  28.986  25.610  1.00  0.00     0.116 C 
BRANCH  64  65
ATOM     65  N   UNL A   1      31.977  29.315  24.298  1.00  0.00    -0.352 N 
ATOM     66  C   UNL A   1      32.425  28.481  23.297  1.00  0.00     0.251 C 
ATOM     67  H   UNL A   1      32.017  30.277  24.092  1.00  0.00     0.163 HD
ATOM     68  O   UNL A   1      32.942  28.959  22.301  1.00  0.00    -0.269 OA
BRANCH  66  69
ATOM     69  C   UNL A   1      32.336  27.002  23.437  1.00  0.00     0.039 A 
ATOM     70  C   UNL A   1      33.449  26.347  23.959  1.00  0.00     0.016 A 
ATOM     71  C   UNL A   1      31.221  26.251  23.039  1.00  0.00     0.016 A 
ATOM     72  C   UNL A   1      33.412  24.963  24.153  1.00  0.00     0.027 A 
ATOM     73  C   UNL A   1      31.184  24.851  23.236  1.00  0.00     0.027 A 
ATOM     74  C   UNL A   1      32.272  24.197  23.817  1.00  0.00     0.045 A 
BRANCH  74  75
ATOM     75  N   UNL A   1      32.203  22.809  24.227  1.00  0.00    -0.299 N 
ATOM     76  C   UNL A   1      31.636  22.680  25.549  1.00  0.00     0.259 C 
ATOM     77  C   UNL A   1      33.428  21.964  24.118  1.00  0.00     0.152 C 
ATOM     78  C   UNL A   1      32.565  21.851  26.381  1.00  0.00     0.248 C 
ATOM     79  O   UNL A   1      30.618  23.226  25.956  1.00  0.00    -0.271 OA
ATOM     80  C   UNL A   1      33.776  21.966  25.545  1.00  0.00     0.021 C 
ATOM     81  N   UNL A   1      33.045  22.419  27.650  1.00  0.00    -0.170 NA
ATOM     82  C   UNL A   1      34.791  22.223  26.357  1.00  0.00     0.097 C 
ATOM     83  N   UNL A   1      34.318  22.464  27.631  1.00  0.00    -0.154 NA
BRANCH  77  84
ATOM     84  C   UNL A   1      33.316  20.487  23.647  1.00  0.00    -0.020 A 
ATOM     85  C   UNL A   1      32.310  20.091  22.716  1.00  0.00     0.006 A 
ATOM     86  C   UNL A   1      34.008  19.449  24.286  1.00  0.00     0.022 A 
ATOM     87  C   UNL A   1      31.946  18.764  22.497  1.00  0.00     0.002 A 
ATOM     88  C   UNL A   1      33.634  18.107  24.064  1.00  0.00     0.018 A 
ATOM     89  C   UNL A   1      32.593  17.765  23.197  1.00  0.00     0.016 A 
ATOM     90  Br  UNL A   1      34.493  16.712  25.013  1.00  0.00    -0.051 Br
ENDBRANCH  77  84
BRANCH  82  91
ATOM     91  C   UNL A   1      36.205  22.387  26.032  1.00  0.00     0.002 A 
ATOM     92  C   UNL A   1      36.988  21.284  25.655  1.00  0.00     0.010 A 
ATOM     93  C   UNL A   1      36.827  23.612  26.283  1.00  0.00     0.010 A 
ATOM     94  C   UNL A   1      38.382  21.386  25.640  1.00  0.00     0.001 A 
ATOM     95  C   UNL A   1      38.218  23.713  26.263  1.00  0.00     0.001 A 
ATOM     96  C   UNL A   1      38.996  22.593  25.972  1.00  0.00     0.000 A 
ENDBRANCH  82  91
ENDBRANCH  74  75
ENDBRANCH  66  69
ENDBRANCH  64  65
ENDBRANCH  63  64
ENDBRANCH   1  63
TORSDOF 14
ENDMDL
MODEL 3
REMARK VINA RESULT:     -13.2      3.964      8.858
REMARK SMILES O=C(NCCCCNC(=O)c1ccc(N2C(=O)[C@@H]3N=NC(c4ccccc4)=C3[C@H]2c2cccc(Br)c2)cc1)c1ccc(-c2c3nc(c(-c4c(F)cccc4F)c4ccc([nH]4)c(-c4c(F)cccc4F)c4nc(c(-c5c(F)cccc5F)c5ccc2[nH]5)C=C4)C=C3)cc1
REMARK SMILES IDX 5 1 4 2 3 3 1 4 2 5 39 7 40 8 92 9 41 10 91 11 42 12 43 13
REMARK SMILES IDX 44 14 85 15 45 16 90 17 84 18 86 19 46 20 89 21 83 22 82 23
REMARK SMILES IDX 47 25 73 26 56 27 72 28 57 29 60 30 71 31 87 32 58 33 59 34
REMARK SMILES IDX 70 36 88 37 61 38 48 39 49 40 54 41 50 42 51 43 53 44 55 45
REMARK SMILES IDX 52 46 74 47 75 48 80 49 76 50 77 51 79 52 81 53 78 54 62 55
REMARK SMILES IDX 63 56 68 57 64 58 65 59 67 60 69 61 66 62 6 63 7 64 8 65
REMARK SMILES IDX 9 66 10 68 11 69 12 70 38 71 13 72 37 73 14 74 15 75 16 76
REMARK SMILES IDX 29 77 18 78 17 79 28 80 19 81 21 82 20 83 30 84 31 85 36 86
REMARK SMILES IDX 32 87 34 88 33 89 35 90 22 91 23 92 27 93 24 94 26 95 25 96
REMARK H PARENT 3 6 86 24 60 35 8 67
REMARK Flexibility Score: inf
ROOT
ATOM      1  C   UNL A   1      33.800  30.342  27.352  1.00  0.00     0.023 C 
ENDROOT
BRANCH   1   2
ATOM      2  C   UNL A   1      35.272  30.254  27.751  1.00  0.00     0.116 C 
BRANCH   2   3
ATOM      3  N   UNL A   1      35.655  31.070  28.885  1.00  0.00    -0.352 N 
ATOM      4  O   UNL A   1      36.836  32.260  30.327  1.00  0.00    -0.269 OA
ATOM      5  C   UNL A   1      36.832  31.306  29.542  1.00  0.00     0.251 C 
ATOM      6  H   UNL A   1      34.898  31.565  29.270  1.00  0.00     0.163 HD
BRANCH   5   7
ATOM      7  C   UNL A   1      38.050  30.458  29.449  1.00  0.00     0.039 A 
ATOM      8  C   UNL A   1      39.358  30.916  29.285  1.00  0.00     0.014 A 
ATOM      9  C   UNL A   1      37.825  29.068  29.507  1.00  0.00     0.014 A 
ATOM     10  C   UNL A   1      40.399  30.010  29.087  1.00  0.00     0.010 A 
ATOM     11  C   UNL A   1      38.858  28.161  29.316  1.00  0.00     0.010 A 
ATOM     12  C   UNL A   1      40.143  28.635  29.074  1.00  0.00    -0.014 A 
BRANCH  12  13
ATOM     13  C   UNL A   1      41.279  27.713  29.070  1.00  0.00     0.031 A 
ATOM     14  C   UNL A   1      42.085  27.796  30.322  1.00  0.00     0.074 A 
ATOM     15  C   UNL A   1      41.480  26.764  28.130  1.00  0.00     0.049 A 
ATOM     16  N   UNL A   1      43.326  28.135  30.447  1.00  0.00    -0.248 NA
ATOM     17  C   UNL A   1      41.382  27.632  31.609  1.00  0.00     0.031 C 
ATOM     18  C   UNL A   1      40.590  26.425  27.018  1.00  0.00     0.029 A 
ATOM     19  N   UNL A   1      42.469  25.827  28.019  1.00  0.00    -0.354 N 
ATOM     20  C   UNL A   1      43.617  27.998  31.805  1.00  0.00     0.074 A 
ATOM     21  C   UNL A   1      42.354  27.893  32.482  1.00  0.00     0.031 C 
ATOM     22  C   UNL A   1      40.954  25.230  26.499  1.00  0.00     0.029 A 
ATOM     23  C   UNL A   1      42.165  24.772  27.158  1.00  0.00     0.049 A 
ATOM     24  H   UNL A   1      43.323  25.890  28.505  1.00  0.00     0.167 HD
ATOM     25  C   UNL A   1      44.872  27.662  32.210  1.00  0.00     0.037 A 
ATOM     26  C   UNL A   1      42.821  23.586  27.038  1.00  0.00     0.037 A 
ATOM     27  C   UNL A   1      45.839  27.976  31.187  1.00  0.00     0.049 A 
ATOM     28  C   UNL A   1      44.162  23.752  27.640  1.00  0.00     0.074 A 
ATOM     29  C   UNL A   1      46.233  29.111  30.507  1.00  0.00     0.029 A 
ATOM     30  N   UNL A   1      46.337  26.920  30.468  1.00  0.00    -0.354 N 
ATOM     31  N   UNL A   1      45.114  24.472  27.120  1.00  0.00    -0.248 NA
ATOM     32  C   UNL A   1      44.315  23.439  29.051  1.00  0.00     0.031 C 
ATOM     33  C   UNL A   1      46.558  28.666  29.190  1.00  0.00     0.029 A 
ATOM     34  C   UNL A   1      46.410  27.280  29.154  1.00  0.00     0.049 A 
ATOM     35  H   UNL A   1      46.599  26.046  30.840  1.00  0.00     0.167 HD
ATOM     36  C   UNL A   1      45.706  25.092  28.207  1.00  0.00     0.074 A 
ATOM     37  C   UNL A   1      45.258  24.329  29.370  1.00  0.00     0.031 C 
ATOM     38  C   UNL A   1      46.255  26.336  28.075  1.00  0.00     0.037 A 
BRANCH  25  39
ATOM     39  C   UNL A   1      45.148  26.596  33.263  1.00  0.00     0.057 A 
ATOM     40  C   UNL A   1      46.095  26.880  34.268  1.00  0.00     0.134 A 
ATOM     41  C   UNL A   1      44.817  25.229  33.137  1.00  0.00     0.134 A 
ATOM     42  F   UNL A   1      46.491  28.139  34.505  1.00  0.00    -0.206 F 
ATOM     43  C   UNL A   1      46.761  25.875  34.982  1.00  0.00     0.040 A 
ATOM     44  C   UNL A   1      45.440  24.224  33.880  1.00  0.00     0.040 A 
ATOM     45  F   UNL A   1      43.949  24.768  32.231  1.00  0.00    -0.206 F 
ATOM     46  C   UNL A   1      46.448  24.539  34.775  1.00  0.00     0.006 A 
ENDBRANCH  25  39
BRANCH  26  47
ATOM     47  C   UNL A   1      42.302  22.234  26.701  1.00  0.00     0.057 A 
ATOM     48  C   UNL A   1      43.013  21.370  25.850  1.00  0.00     0.134 A 
ATOM     49  C   UNL A   1      41.255  21.645  27.430  1.00  0.00     0.134 A 
ATOM     50  F   UNL A   1      44.058  21.819  25.139  1.00  0.00    -0.206 F 
ATOM     51  C   UNL A   1      42.723  20.001  25.756  1.00  0.00     0.040 A 
ATOM     52  C   UNL A   1      40.950  20.281  27.339  1.00  0.00     0.040 A 
ATOM     53  F   UNL A   1      40.553  22.348  28.328  1.00  0.00    -0.206 F 
ATOM     54  C   UNL A   1      41.695  19.449  26.512  1.00  0.00     0.006 A 
ENDBRANCH  26  47
BRANCH  38  55
ATOM     55  C   UNL A   1      46.526  26.836  26.685  1.00  0.00     0.057 A 
ATOM     56  C   UNL A   1      45.593  27.504  25.877  1.00  0.00     0.134 A 
ATOM     57  C   UNL A   1      47.829  26.725  26.189  1.00  0.00     0.134 A 
ATOM     58  F   UNL A   1      44.347  27.747  26.305  1.00  0.00    -0.206 F 
ATOM     59  C   UNL A   1      45.934  27.990  24.611  1.00  0.00     0.040 A 
ATOM     60  C   UNL A   1      48.192  27.239  24.944  1.00  0.00     0.040 A 
ATOM     61  F   UNL A   1      48.786  26.142  26.928  1.00  0.00    -0.206 F 
ATOM     62  C   UNL A   1      47.239  27.862  24.143  1.00  0.00     0.006 A 
ENDBRANCH  38  55
ENDBRANCH  12  13
ENDBRANCH   5   7
ENDBRANCH   2   3
ENDBRANCH   1   2
BRANCH   1  63
ATOM     63  C   UNL A   1      33.185  29.059  26.779  1.00  0.00     0.023 C 
BRANCH  63  64
ATOM     64  C   UNL A   1      32.038  29.232  25.781  1.00  0.00     0.116 C 
BRANCH  64  65
ATOM     65  N   UNL A   1      32.490  29.555  24.441  1.00  0.00    -0.352 N 
ATOM     66  C   UNL A   1      32.785  28.717  23.388  1.00  0.00     0.251 C 
ATOM     67  H   UNL A   1      32.604  30.516  24.257  1.00  0.00     0.163 HD
ATOM     68  O   UNL A   1      33.269  29.178  22.368  1.00  0.00    -0.269 OA
BRANCH  66  69
ATOM     69  C   UNL A   1      32.571  27.248  23.497  1.00  0.00     0.039 A 
ATOM     70  C   UNL A   1      33.632  26.487  23.982  1.00  0.00     0.016 A 
ATOM     71  C   UNL A   1      31.387  26.605  23.107  1.00  0.00     0.016 A 
ATOM     72  C   UNL A   1      33.478  25.107  24.146  1.00  0.00     0.027 A 
ATOM     73  C   UNL A   1      31.232  25.210  23.273  1.00  0.00     0.027 A 
ATOM     74  C   UNL A   1      32.271  24.451  23.817  1.00  0.00     0.045 A 
BRANCH  74  75
ATOM     75  N   UNL A   1      32.089  23.064  24.198  1.00  0.00    -0.299 N 
ATOM     76  C   UNL A   1      31.409  22.954  25.468  1.00  0.00     0.259 C 
ATOM     77  C   UNL A   1      33.269  22.150  24.175  1.00  0.00     0.152 C 
ATOM     78  C   UNL A   1      32.218  22.063  26.358  1.00  0.00     0.248 C 
ATOM     79  O   UNL A   1      30.394  23.554  25.799  1.00  0.00    -0.271 OA
ATOM     80  C   UNL A   1      33.498  22.116  25.626  1.00  0.00     0.021 C 
ATOM     81  N   UNL A   1      32.623  22.587  27.672  1.00  0.00    -0.170 NA
ATOM     82  C   UNL A   1      34.456  22.305  26.521  1.00  0.00     0.097 C 
ATOM     83  N   UNL A   1      33.894  22.558  27.756  1.00  0.00    -0.154 NA
BRANCH  77  84
ATOM     84  C   UNL A   1      33.111  20.688  23.673  1.00  0.00    -0.020 A 
ATOM     85  C   UNL A   1      32.282  20.385  22.552  1.00  0.00     0.006 A 
ATOM     86  C   UNL A   1      33.555  19.592  24.427  1.00  0.00     0.022 A 
ATOM     87  C   UNL A   1      31.842  19.098  22.249  1.00  0.00     0.002 A 
ATOM     88  C   UNL A   1      33.104  18.292  24.117  1.00  0.00     0.018 A 
ATOM     89  C   UNL A   1      32.234  18.046  23.053  1.00  0.00     0.016 A 
ATOM     90  Br  UNL A   1      33.614  16.827  25.203  1.00  0.00    -0.051 Br
ENDBRANCH  77  84
BRANCH  82  91
ATOM     91  C   UNL A   1      35.898  22.389  26.315  1.00  0.00     0.002 A 
ATOM     92  C   UNL A   1      36.570  23.618  26.428  1.00  0.00     0.010 A 
ATOM     93  C   UNL A   1      36.584  21.280  25.813  1.00  0.00     0.010 A 
ATOM     94  C   UNL A   1      37.874  23.751  25.941  1.00  0.00     0.001 A 
ATOM     95  C   UNL A   1      37.887  21.415  25.333  1.00  0.00     0.001 A 
ATOM     96  C   UNL A   1      38.519  22.657  25.368  1.00  0.00     0.000 A 
ENDBRANCH  82  91
ENDBRANCH  74  75
ENDBRANCH  66  69
ENDBRANCH  64  65
ENDBRANCH  63  64
ENDBRANCH   1  63
TORSDOF 14
ENDMDL
