MODEL 1
REMARK VINA RESULT:     -10.4      0.000      0.000
REMARK SMILES CC(C)c1c(C(=O)NCCCCNC(=O)c2ccc(-c3c4nc(c(-c5c(F)cccc5F)c5ccc([nH]5)c(-c5c(F)cccc5F)c5nc(c(-c6c(F)cccc6F)c6ccc3[nH]6)C=C5)C=C4)cc2)cnn1CCC#N
REMARK SMILES IDX 10 1 9 2 8 3 6 4 7 5 5 7 4 8 72 9 70 10 71 11 2 12 1 13 3 14
REMARK SMILES IDX 73 15 74 16 75 17 76 18 11 19 12 20 13 21 14 22 15 24 16 25
REMARK SMILES IDX 17 26 69 27 18 28 68 29 19 30 20 31 21 32 62 33 22 34 67 35
REMARK SMILES IDX 61 36 63 37 23 38 66 39 60 40 59 41 24 43 50 44 33 45 49 46
REMARK SMILES IDX 34 47 37 48 48 49 64 50 35 51 36 52 47 54 65 55 38 56 25 57
REMARK SMILES IDX 26 58 31 59 27 60 28 61 30 62 32 63 29 64 51 65 52 66 57 67
REMARK SMILES IDX 53 68 54 69 56 70 58 71 55 72 39 73 40 74 45 75 41 76 42 77
REMARK SMILES IDX 44 78 46 79 43 80
REMARK H PARENT 8 6 13 23 63 42 37 53
REMARK Flexibility Score: inf
ROOT
ATOM      1  C   UNL A   1      40.643  21.535  26.235  1.00  0.00     0.023 C 
ENDROOT
BRANCH   1   2
ATOM      2  C   UNL A   1      39.125  21.561  26.414  1.00  0.00     0.116 C 
BRANCH   2   3
ATOM      3  N   UNL A   1      38.504  22.585  25.598  1.00  0.00    -0.352 N 
ATOM      4  C   UNL A   1      37.383  22.691  24.812  1.00  0.00     0.254 C 
ATOM      5  O   UNL A   1      37.362  23.732  24.155  1.00  0.00    -0.269 OA
ATOM      6  H   UNL A   1      39.021  23.423  25.609  1.00  0.00     0.163 HD
BRANCH   4   7
ATOM      7  C   UNL A   1      36.297  21.705  24.785  1.00  0.00     0.081 A 
ATOM      8  C   UNL A   1      34.890  21.899  24.715  1.00  0.00     0.054 A 
ATOM      9  N   UNL A   1      34.356  20.622  24.805  1.00  0.00    -0.267 N 
ATOM     10  C   UNL A   1      36.419  20.303  24.872  1.00  0.00     0.149 A 
ATOM     11  N   UNL A   1      35.266  19.676  25.000  1.00  0.00    -0.180 NA
BRANCH   8  12
ATOM     12  C   UNL A   1      33.949  23.101  24.614  1.00  0.00     0.032 C 
ATOM     13  C   UNL A   1      34.141  24.221  25.629  1.00  0.00     0.014 C 
ATOM     14  C   UNL A   1      33.965  23.744  23.218  1.00  0.00     0.014 C 
ENDBRANCH   8  12
BRANCH   9  15
ATOM     15  C   UNL A   1      32.996  20.125  24.647  1.00  0.00     0.159 C 
BRANCH  15  16
ATOM     16  C   UNL A   1      32.977  18.598  24.509  1.00  0.00     0.144 C 
BRANCH  16  17
ATOM     17  C   UNL A   1      32.612  18.190  23.091  1.00  0.00     0.064 C 
ATOM     18  N   UNL A   1      32.309  17.850  21.915  1.00  0.00    -0.198 NA
ENDBRANCH  16  17
ENDBRANCH  15  16
ENDBRANCH   9  15
ENDBRANCH   4   7
ENDBRANCH   2   3
ENDBRANCH   1   2
BRANCH   1  19
ATOM     19  C   UNL A   1      41.237  20.152  25.929  1.00  0.00     0.023 C 
BRANCH  19  20
ATOM     20  C   UNL A   1      42.567  19.853  26.615  1.00  0.00     0.116 C 
BRANCH  20  21
ATOM     21  N   UNL A   1      43.679  19.706  25.675  1.00  0.00    -0.352 N 
ATOM     22  C   UNL A   1      44.284  20.690  24.919  1.00  0.00     0.251 C 
ATOM     23  H   UNL A   1      44.038  18.796  25.567  1.00  0.00     0.163 HD
ATOM     24  O   UNL A   1      44.904  20.412  23.893  1.00  0.00    -0.269 OA
BRANCH  22  25
ATOM     25  C   UNL A   1      44.203  22.085  25.376  1.00  0.00     0.039 A 
ATOM     26  C   UNL A   1      43.431  23.042  24.713  1.00  0.00     0.014 A 
ATOM     27  C   UNL A   1      44.919  22.419  26.522  1.00  0.00     0.014 A 
ATOM     28  C   UNL A   1      43.328  24.317  25.266  1.00  0.00     0.010 A 
ATOM     29  C   UNL A   1      44.688  23.611  27.152  1.00  0.00     0.010 A 
ATOM     30  C   UNL A   1      43.948  24.586  26.498  1.00  0.00    -0.014 A 
BRANCH  30  31
ATOM     31  C   UNL A   1      43.716  25.836  27.211  1.00  0.00     0.031 A 
ATOM     32  C   UNL A   1      44.676  26.911  26.839  1.00  0.00     0.074 A 
ATOM     33  C   UNL A   1      42.596  26.068  27.931  1.00  0.00     0.049 A 
ATOM     34  N   UNL A   1      45.606  27.420  27.574  1.00  0.00    -0.248 NA
ATOM     35  C   UNL A   1      44.726  27.348  25.432  1.00  0.00     0.031 C 
ATOM     36  C   UNL A   1      41.428  25.192  28.099  1.00  0.00     0.029 A 
ATOM     37  N   UNL A   1      42.210  27.194  28.593  1.00  0.00    -0.354 N 
ATOM     38  C   UNL A   1      46.191  28.420  26.802  1.00  0.00     0.074 A 
ATOM     39  C   UNL A   1      45.777  28.173  25.448  1.00  0.00     0.031 C 
ATOM     40  C   UNL A   1      40.393  25.898  28.606  1.00  0.00     0.029 A 
ATOM     41  C   UNL A   1      40.863  27.223  28.959  1.00  0.00     0.049 A 
ATOM     42  H   UNL A   1      42.832  27.930  28.797  1.00  0.00     0.167 HD
ATOM     43  C   UNL A   1      46.708  29.532  27.394  1.00  0.00     0.037 A 
ATOM     44  C   UNL A   1      40.189  28.273  29.496  1.00  0.00     0.037 A 
ATOM     45  C   UNL A   1      46.904  29.309  28.808  1.00  0.00     0.049 A 
ATOM     46  C   UNL A   1      41.203  29.205  30.046  1.00  0.00     0.074 A 
ATOM     47  C   UNL A   1      47.624  28.406  29.568  1.00  0.00     0.029 A 
ATOM     48  N   UNL A   1      45.973  29.852  29.659  1.00  0.00    -0.354 N 
ATOM     49  N   UNL A   1      41.954  28.931  31.074  1.00  0.00    -0.248 NA
ATOM     50  C   UNL A   1      41.704  30.243  29.159  1.00  0.00     0.031 C 
ATOM     51  C   UNL A   1      46.783  28.109  30.682  1.00  0.00     0.029 A 
ATOM     52  C   UNL A   1      45.642  28.906  30.591  1.00  0.00     0.049 A 
ATOM     53  H   UNL A   1      45.606  30.765  29.606  1.00  0.00     0.167 HD
ATOM     54  C   UNL A   1      43.207  29.409  30.725  1.00  0.00     0.074 A 
ATOM     55  C   UNL A   1      42.974  30.283  29.575  1.00  0.00     0.031 C 
ATOM     56  C   UNL A   1      44.339  28.816  31.207  1.00  0.00     0.037 A 
BRANCH  43  57
ATOM     57  C   UNL A   1      46.607  30.932  26.822  1.00  0.00     0.057 A 
ATOM     58  C   UNL A   1      47.754  31.750  26.840  1.00  0.00     0.134 A 
ATOM     59  C   UNL A   1      45.399  31.613  26.561  1.00  0.00     0.134 A 
ATOM     60  F   UNL A   1      48.967  31.229  27.074  1.00  0.00    -0.206 F 
ATOM     61  C   UNL A   1      47.688  33.144  26.721  1.00  0.00     0.040 A 
ATOM     62  C   UNL A   1      45.329  32.998  26.390  1.00  0.00     0.040 A 
ATOM     63  F   UNL A   1      44.208  31.005  26.554  1.00  0.00    -0.206 F 
ATOM     64  C   UNL A   1      46.469  33.774  26.508  1.00  0.00     0.006 A 
ENDBRANCH  43  57
BRANCH  44  65
ATOM     65  C   UNL A   1      38.775  28.683  29.319  1.00  0.00     0.057 A 
ATOM     66  C   UNL A   1      37.887  28.720  30.406  1.00  0.00     0.134 A 
ATOM     67  C   UNL A   1      38.342  29.336  28.152  1.00  0.00     0.134 A 
ATOM     68  F   UNL A   1      38.223  28.161  31.578  1.00  0.00    -0.206 F 
ATOM     69  C   UNL A   1      36.660  29.396  30.350  1.00  0.00     0.040 A 
ATOM     70  C   UNL A   1      37.118  30.011  28.080  1.00  0.00     0.040 A 
ATOM     71  F   UNL A   1      39.136  29.422  27.074  1.00  0.00    -0.206 F 
ATOM     72  C   UNL A   1      36.278  30.057  29.187  1.00  0.00     0.006 A 
ENDBRANCH  44  65
BRANCH  56  73
ATOM     73  C   UNL A   1      44.190  27.828  32.333  1.00  0.00     0.057 A 
ATOM     74  C   UNL A   1      44.008  28.175  33.681  1.00  0.00     0.134 A 
ATOM     75  C   UNL A   1      44.083  26.471  32.012  1.00  0.00     0.134 A 
ATOM     76  F   UNL A   1      44.001  29.454  34.076  1.00  0.00    -0.206 F 
ATOM     77  C   UNL A   1      43.770  27.210  34.667  1.00  0.00     0.040 A 
ATOM     78  C   UNL A   1      43.812  25.502  32.980  1.00  0.00     0.040 A 
ATOM     79  F   UNL A   1      44.195  26.069  30.736  1.00  0.00    -0.206 F 
ATOM     80  C   UNL A   1      43.664  25.868  34.313  1.00  0.00     0.006 A 
ENDBRANCH  56  73
ENDBRANCH  30  31
ENDBRANCH  22  25
ENDBRANCH  20  21
ENDBRANCH  19  20
ENDBRANCH   1  19
TORSDOF 15
ENDMDL
MODEL 2
REMARK VINA RESULT:     -10.2      2.428      3.683
REMARK SMILES CC(C)c1c(C(=O)NCCCCNC(=O)c2ccc(-c3c4nc(c(-c5c(F)cccc5F)c5ccc([nH]5)c(-c5c(F)cccc5F)c5nc(c(-c6c(F)cccc6F)c6ccc3[nH]6)C=C5)C=C4)cc2)cnn1CCC#N
REMARK SMILES IDX 10 1 9 2 8 3 6 4 7 5 5 7 4 8 72 9 70 10 71 11 2 12 1 13 3 14
REMARK SMILES IDX 73 15 74 16 75 17 76 18 11 19 12 20 13 21 14 22 15 24 16 25
REMARK SMILES IDX 17 26 69 27 18 28 68 29 19 30 20 31 21 32 62 33 22 34 67 35
REMARK SMILES IDX 61 36 63 37 23 38 66 39 60 40 59 41 24 43 50 44 33 45 49 46
REMARK SMILES IDX 34 47 37 48 48 49 64 50 35 51 36 52 47 54 65 55 38 56 25 57
REMARK SMILES IDX 26 58 31 59 27 60 28 61 30 62 32 63 29 64 51 65 52 66 57 67
REMARK SMILES IDX 53 68 54 69 56 70 58 71 55 72 39 73 40 74 45 75 41 76 42 77
REMARK SMILES IDX 44 78 46 79 43 80
REMARK H PARENT 8 6 13 23 63 42 37 53
REMARK Flexibility Score: inf
ROOT
ATOM      1  C   UNL A   1      38.370  23.294  26.567  1.00  0.00     0.023 C 
ENDROOT
BRANCH   1   2
ATOM      2  C   UNL A   1      37.067  23.679  25.867  1.00  0.00     0.116 C 
BRANCH   2   3
ATOM      3  N   UNL A   1      37.114  23.394  24.446  1.00  0.00    -0.352 N 
ATOM      4  C   UNL A   1      36.204  23.165  23.444  1.00  0.00     0.254 C 
ATOM      5  O   UNL A   1      36.734  22.782  22.401  1.00  0.00    -0.269 OA
ATOM      6  H   UNL A   1      38.040  23.352  24.114  1.00  0.00     0.163 HD
BRANCH   4   7
ATOM      7  C   UNL A   1      34.760  23.396  23.571  1.00  0.00     0.081 A 
ATOM      8  C   UNL A   1      33.779  22.665  24.296  1.00  0.00     0.054 A 
ATOM      9  N   UNL A   1      32.580  23.288  23.987  1.00  0.00    -0.267 N 
ATOM     10  C   UNL A   1      34.002  24.404  22.940  1.00  0.00     0.149 A 
ATOM     11  N   UNL A   1      32.700  24.266  23.098  1.00  0.00    -0.180 NA
BRANCH   8  12
ATOM     12  C   UNL A   1      33.775  21.440  25.212  1.00  0.00     0.032 C 
ATOM     13  C   UNL A   1      34.752  20.320  24.880  1.00  0.00     0.014 C 
ATOM     14  C   UNL A   1      33.992  21.811  26.689  1.00  0.00     0.014 C 
ENDBRANCH   8  12
BRANCH   9  15
ATOM     15  C   UNL A   1      31.233  23.120  24.515  1.00  0.00     0.159 C 
BRANCH  15  16
ATOM     16  C   UNL A   1      30.959  24.104  25.658  1.00  0.00     0.144 C 
BRANCH  16  17
ATOM     17  C   UNL A   1      30.205  23.422  26.788  1.00  0.00     0.064 C 
ATOM     18  N   UNL A   1      29.579  22.855  27.725  1.00  0.00    -0.198 NA
ENDBRANCH  16  17
ENDBRANCH  15  16
ENDBRANCH   9  15
ENDBRANCH   4   7
ENDBRANCH   2   3
ENDBRANCH   1   2
BRANCH   1  19
ATOM     19  C   UNL A   1      39.130  22.123  25.925  1.00  0.00     0.023 C 
BRANCH  19  20
ATOM     20  C   UNL A   1      40.359  21.650  26.697  1.00  0.00     0.116 C 
BRANCH  20  21
ATOM     21  N   UNL A   1      41.612  21.874  25.974  1.00  0.00    -0.352 N 
ATOM     22  C   UNL A   1      42.258  23.074  25.752  1.00  0.00     0.251 C 
ATOM     23  H   UNL A   1      42.047  21.073  25.601  1.00  0.00     0.163 HD
ATOM     24  O   UNL A   1      43.050  23.206  24.818  1.00  0.00    -0.269 OA
BRANCH  22  25
ATOM     25  C   UNL A   1      42.009  24.194  26.671  1.00  0.00     0.039 A 
ATOM     26  C   UNL A   1      42.550  24.237  27.958  1.00  0.00     0.014 A 
ATOM     27  C   UNL A   1      41.219  25.238  26.196  1.00  0.00     0.014 A 
ATOM     28  C   UNL A   1      42.349  25.380  28.730  1.00  0.00     0.010 A 
ATOM     29  C   UNL A   1      41.161  26.420  26.883  1.00  0.00     0.010 A 
ATOM     30  C   UNL A   1      41.666  26.475  28.174  1.00  0.00    -0.014 A 
BRANCH  30  31
ATOM     31  C   UNL A   1      41.594  27.757  28.864  1.00  0.00     0.031 A 
ATOM     32  C   UNL A   1      42.690  28.689  28.486  1.00  0.00     0.074 A 
ATOM     33  C   UNL A   1      40.508  28.147  29.568  1.00  0.00     0.049 A 
ATOM     34  N   UNL A   1      43.673  29.084  29.222  1.00  0.00    -0.248 NA
ATOM     35  C   UNL A   1      42.810  29.091  27.073  1.00  0.00     0.031 C 
ATOM     36  C   UNL A   1      39.233  27.435  29.737  1.00  0.00     0.029 A 
ATOM     37  N   UNL A   1      40.267  29.325  30.207  1.00  0.00    -0.354 N 
ATOM     38  C   UNL A   1      44.391  29.985  28.441  1.00  0.00     0.074 A 
ATOM     39  C   UNL A   1      43.960  29.770  27.087  1.00  0.00     0.031 C 
ATOM     40  C   UNL A   1      38.295  28.279  30.222  1.00  0.00     0.029 A 
ATOM     41  C   UNL A   1      38.933  29.537  30.558  1.00  0.00     0.049 A 
ATOM     42  H   UNL A   1      40.979  29.976  30.406  1.00  0.00     0.167 HD
ATOM     43  C   UNL A   1      45.045  31.030  29.021  1.00  0.00     0.037 A 
ATOM     44  C   UNL A   1      38.398  30.676  31.070  1.00  0.00     0.037 A 
ATOM     45  C   UNL A   1      45.197  30.807  30.440  1.00  0.00     0.049 A 
ATOM     46  C   UNL A   1      39.521  31.476  31.616  1.00  0.00     0.074 A 
ATOM     47  C   UNL A   1      45.785  29.832  31.223  1.00  0.00     0.029 A 
ATOM     48  N   UNL A   1      44.338  31.483  31.271  1.00  0.00    -0.354 N 
ATOM     49  N   UNL A   1      40.220  31.124  32.657  1.00  0.00    -0.248 NA
ATOM     50  C   UNL A   1      40.163  32.423  30.718  1.00  0.00     0.031 C 
ATOM     51  C   UNL A   1      44.902  29.668  32.332  1.00  0.00     0.029 A 
ATOM     52  C   UNL A   1      43.877  30.606  32.215  1.00  0.00     0.049 A 
ATOM     53  H   UNL A   1      44.095  32.435  31.200  1.00  0.00     0.167 HD
ATOM     54  C   UNL A   1      41.529  31.427  32.314  1.00  0.00     0.074 A 
ATOM     55  C   UNL A   1      41.422  32.303  31.147  1.00  0.00     0.031 C 
ATOM     56  C   UNL A   1      42.568  30.699  32.818  1.00  0.00     0.037 A 
BRANCH  43  57
ATOM     57  C   UNL A   1      45.134  32.420  28.425  1.00  0.00     0.057 A 
ATOM     58  C   UNL A   1      43.937  33.114  28.155  1.00  0.00     0.134 A 
ATOM     59  C   UNL A   1      46.284  32.968  27.819  1.00  0.00     0.134 A 
ATOM     60  F   UNL A   1      42.770  32.700  28.672  1.00  0.00    -0.206 F 
ATOM     61  C   UNL A   1      43.876  34.193  27.265  1.00  0.00     0.040 A 
ATOM     62  C   UNL A   1      46.240  34.076  26.968  1.00  0.00     0.040 A 
ATOM     63  F   UNL A   1      47.496  32.414  27.926  1.00  0.00    -0.206 F 
ATOM     64  C   UNL A   1      45.029  34.669  26.657  1.00  0.00     0.006 A 
ENDBRANCH  43  57
BRANCH  44  65
ATOM     65  C   UNL A   1      37.053  31.265  30.870  1.00  0.00     0.057 A 
ATOM     66  C   UNL A   1      36.208  31.536  31.960  1.00  0.00     0.134 A 
ATOM     67  C   UNL A   1      36.685  31.856  29.649  1.00  0.00     0.134 A 
ATOM     68  F   UNL A   1      36.493  31.051  33.178  1.00  0.00    -0.206 F 
ATOM     69  C   UNL A   1      35.087  32.371  31.851  1.00  0.00     0.040 A 
ATOM     70  C   UNL A   1      35.566  32.689  29.525  1.00  0.00     0.040 A 
ATOM     71  F   UNL A   1      37.453  31.722  28.558  1.00  0.00    -0.206 F 
ATOM     72  C   UNL A   1      34.772  32.964  30.632  1.00  0.00     0.006 A 
ENDBRANCH  44  65
BRANCH  56  73
ATOM     73  C   UNL A   1      42.280  29.759  33.958  1.00  0.00     0.057 A 
ATOM     74  C   UNL A   1      41.922  28.410  33.810  1.00  0.00     0.134 A 
ATOM     75  C   UNL A   1      42.517  30.208  35.261  1.00  0.00     0.134 A 
ATOM     76  F   UNL A   1      41.763  27.860  32.600  1.00  0.00    -0.206 F 
ATOM     77  C   UNL A   1      41.771  27.560  34.912  1.00  0.00     0.040 A 
ATOM     78  C   UNL A   1      42.403  29.363  36.367  1.00  0.00     0.040 A 
ATOM     79  F   UNL A   1      42.912  31.473  35.477  1.00  0.00    -0.206 F 
ATOM     80  C   UNL A   1      42.020  28.037  36.196  1.00  0.00     0.006 A 
ENDBRANCH  56  73
ENDBRANCH  30  31
ENDBRANCH  22  25
ENDBRANCH  20  21
ENDBRANCH  19  20
ENDBRANCH   1  19
TORSDOF 15
ENDMDL
MODEL 3
REMARK VINA RESULT:     -10.1      3.320      8.211
REMARK SMILES CC(C)c1c(C(=O)NCCCCNC(=O)c2ccc(-c3c4nc(c(-c5c(F)cccc5F)c5ccc([nH]5)c(-c5c(F)cccc5F)c5nc(c(-c6c(F)cccc6F)c6ccc3[nH]6)C=C5)C=C4)cc2)cnn1CCC#N
REMARK SMILES IDX 10 1 9 2 8 3 6 4 7 5 5 7 4 8 72 9 70 10 71 11 2 12 1 13 3 14
REMARK SMILES IDX 73 15 74 16 75 17 76 18 11 19 12 20 13 21 14 22 15 24 16 25
REMARK SMILES IDX 17 26 69 27 18 28 68 29 19 30 20 31 21 32 62 33 22 34 67 35
REMARK SMILES IDX 61 36 63 37 23 38 66 39 60 40 59 41 24 43 50 44 33 45 49 46
REMARK SMILES IDX 34 47 37 48 48 49 64 50 35 51 36 52 47 54 65 55 38 56 25 57
REMARK SMILES IDX 26 58 31 59 27 60 28 61 30 62 32 63 29 64 51 65 52 66 57 67
REMARK SMILES IDX 53 68 54 69 56 70 58 71 55 72 39 73 40 74 45 75 41 76 42 77
REMARK SMILES IDX 44 78 46 79 43 80
REMARK H PARENT 8 6 13 23 63 42 37 53
REMARK Flexibility Score: inf
ROOT
ATOM      1  C   UNL A   1      32.993  30.038  26.512  1.00  0.00     0.023 C 
ENDROOT
BRANCH   1   2
ATOM      2  C   UNL A   1      33.401  29.451  25.161  1.00  0.00     0.116 C 
BRANCH   2   3
ATOM      3  N   UNL A   1      32.311  29.492  24.206  1.00  0.00    -0.352 N 
ATOM      4  C   UNL A   1      31.881  28.727  23.150  1.00  0.00     0.254 C 
ATOM      5  O   UNL A   1      30.982  29.269  22.507  1.00  0.00    -0.269 OA
ATOM      6  H   UNL A   1      31.729  30.273  24.351  1.00  0.00     0.163 HD
BRANCH   4   7
ATOM      7  C   UNL A   1      32.390  27.386  22.840  1.00  0.00     0.081 A 
ATOM      8  C   UNL A   1      32.177  26.151  23.513  1.00  0.00     0.054 A 
ATOM      9  N   UNL A   1      32.966  25.239  22.827  1.00  0.00    -0.267 N 
ATOM     10  C   UNL A   1      33.268  27.030  21.795  1.00  0.00     0.149 A 
ATOM     11  N   UNL A   1      33.695  25.784  21.862  1.00  0.00    -0.180 NA
BRANCH   8  12
ATOM     12  C   UNL A   1      31.377  25.686  24.731  1.00  0.00     0.032 C 
ATOM     13  C   UNL A   1      31.903  26.088  26.103  1.00  0.00     0.014 C 
ATOM     14  C   UNL A   1      29.903  26.115  24.664  1.00  0.00     0.014 C 
ENDBRANCH   8  12
BRANCH   9  15
ATOM     15  C   UNL A   1      33.078  23.790  22.920  1.00  0.00     0.159 C 
BRANCH  15  16
ATOM     16  C   UNL A   1      34.107  23.381  23.981  1.00  0.00     0.144 C 
BRANCH  16  17
ATOM     17  C   UNL A   1      35.462  23.116  23.344  1.00  0.00     0.064 C 
ATOM     18  N   UNL A   1      36.585  22.896  22.816  1.00  0.00    -0.198 NA
ENDBRANCH  16  17
ENDBRANCH  15  16
ENDBRANCH   9  15
ENDBRANCH   4   7
ENDBRANCH   2   3
ENDBRANCH   1   2
BRANCH   1  19
ATOM     19  C   UNL A   1      34.100  30.040  27.579  1.00  0.00     0.023 C 
BRANCH  19  20
ATOM     20  C   UNL A   1      34.940  31.313  27.635  1.00  0.00     0.116 C 
BRANCH  20  21
ATOM     21  N   UNL A   1      34.665  32.131  28.817  1.00  0.00    -0.352 N 
ATOM     22  C   UNL A   1      35.138  31.950  30.100  1.00  0.00     0.251 C 
ATOM     23  H   UNL A   1      34.069  32.904  28.680  1.00  0.00     0.163 HD
ATOM     24  O   UNL A   1      34.544  32.423  31.070  1.00  0.00    -0.269 OA
BRANCH  22  25
ATOM     25  C   UNL A   1      36.389  31.203  30.296  1.00  0.00     0.039 A 
ATOM     26  C   UNL A   1      36.406  29.829  30.541  1.00  0.00     0.014 A 
ATOM     27  C   UNL A   1      37.577  31.924  30.207  1.00  0.00     0.014 A 
ATOM     28  C   UNL A   1      37.636  29.178  30.616  1.00  0.00     0.010 A 
ATOM     29  C   UNL A   1      38.773  31.266  30.115  1.00  0.00     0.010 A 
ATOM     30  C   UNL A   1      38.815  29.905  30.384  1.00  0.00    -0.014 A 
BRANCH  30  31
ATOM     31  C   UNL A   1      40.108  29.242  30.262  1.00  0.00     0.031 A 
ATOM     32  C   UNL A   1      40.802  29.066  31.565  1.00  0.00     0.074 A 
ATOM     33  C   UNL A   1      40.507  28.624  29.127  1.00  0.00     0.049 A 
ATOM     34  N   UNL A   1      41.875  29.659  31.968  1.00  0.00    -0.248 NA
ATOM     35  C   UNL A   1      40.134  28.275  32.614  1.00  0.00     0.031 C 
ATOM     36  C   UNL A   1      39.757  28.455  27.875  1.00  0.00     0.029 A 
ATOM     37  N   UNL A   1      41.643  27.916  28.881  1.00  0.00    -0.354 N 
ATOM     38  C   UNL A   1      42.155  29.122  33.221  1.00  0.00     0.074 A 
ATOM     39  C   UNL A   1      40.949  28.470  33.654  1.00  0.00     0.031 C 
ATOM     40  C   UNL A   1      40.349  27.514  27.106  1.00  0.00     0.029 A 
ATOM     41  C   UNL A   1      41.605  27.135  27.724  1.00  0.00     0.049 A 
ATOM     42  H   UNL A   1      42.430  27.951  29.472  1.00  0.00     0.167 HD
ATOM     43  C   UNL A   1      43.443  29.002  33.647  1.00  0.00     0.037 A 
ATOM     44  C   UNL A   1      42.537  26.232  27.322  1.00  0.00     0.037 A 
ATOM     45  C   UNL A   1      44.320  29.827  32.848  1.00  0.00     0.049 A 
ATOM     46  C   UNL A   1      43.788  26.542  28.054  1.00  0.00     0.074 A 
ATOM     47  C   UNL A   1      44.401  31.175  32.556  1.00  0.00     0.029 A 
ATOM     48  N   UNL A   1      45.065  29.192  31.885  1.00  0.00    -0.354 N 
ATOM     49  N   UNL A   1      44.491  27.622  27.859  1.00  0.00    -0.248 NA
ATOM     50  C   UNL A   1      43.994  25.881  29.333  1.00  0.00     0.031 C 
ATOM     51  C   UNL A   1      44.779  31.232  31.180  1.00  0.00     0.029 A 
ATOM     52  C   UNL A   1      44.993  29.928  30.734  1.00  0.00     0.049 A 
ATOM     53  H   UNL A   1      45.564  28.351  32.003  1.00  0.00     0.167 HD
ATOM     54  C   UNL A   1      44.864  28.028  29.131  1.00  0.00     0.074 A 
ATOM     55  C   UNL A   1      44.604  26.871  29.989  1.00  0.00     0.031 C 
ATOM     56  C   UNL A   1      45.058  29.349  29.412  1.00  0.00     0.037 A 
BRANCH  43  57
ATOM     57  C   UNL A   1      43.974  27.830  34.448  1.00  0.00     0.057 A 
ATOM     58  C   UNL A   1      44.722  28.096  35.613  1.00  0.00     0.134 A 
ATOM     59  C   UNL A   1      44.067  26.504  33.976  1.00  0.00     0.134 A 
ATOM     60  F   UNL A   1      44.720  29.317  36.168  1.00  0.00    -0.206 F 
ATOM     61  C   UNL A   1      45.577  27.151  36.191  1.00  0.00     0.040 A 
ATOM     62  C   UNL A   1      44.879  25.538  34.577  1.00  0.00     0.040 A 
ATOM     63  F   UNL A   1      43.464  26.086  32.859  1.00  0.00    -0.206 F 
ATOM     64  C   UNL A   1      45.668  25.870  35.665  1.00  0.00     0.006 A 
ENDBRANCH  43  57
BRANCH  44  65
ATOM     65  C   UNL A   1      42.364  24.954  26.590  1.00  0.00     0.057 A 
ATOM     66  C   UNL A   1      43.132  24.659  25.451  1.00  0.00     0.134 A 
ATOM     67  C   UNL A   1      41.670  23.872  27.157  1.00  0.00     0.134 A 
ATOM     68  F   UNL A   1      43.864  25.615  24.858  1.00  0.00    -0.206 F 
ATOM     69  C   UNL A   1      43.234  23.362  24.930  1.00  0.00     0.040 A 
ATOM     70  C   UNL A   1      41.759  22.572  26.645  1.00  0.00     0.040 A 
ATOM     71  F   UNL A   1      40.960  24.022  28.285  1.00  0.00    -0.206 F 
ATOM     72  C   UNL A   1      42.557  22.309  25.537  1.00  0.00     0.006 A 
ENDBRANCH  44  65
BRANCH  56  73
ATOM     73  C   UNL A   1      45.134  30.310  28.255  1.00  0.00     0.057 A 
ATOM     74  C   UNL A   1      44.032  30.979  27.699  1.00  0.00     0.134 A 
ATOM     75  C   UNL A   1      46.398  30.679  27.784  1.00  0.00     0.134 A 
ATOM     76  F   UNL A   1      42.789  30.764  28.146  1.00  0.00    -0.206 F 
ATOM     77  C   UNL A   1      44.182  31.941  26.694  1.00  0.00     0.040 A 
ATOM     78  C   UNL A   1      46.565  31.661  26.806  1.00  0.00     0.040 A 
ATOM     79  F   UNL A   1      47.501  30.119  28.305  1.00  0.00    -0.206 F 
ATOM     80  C   UNL A   1      45.455  32.289  26.250  1.00  0.00     0.006 A 
ENDBRANCH  56  73
ENDBRANCH  30  31
ENDBRANCH  22  25
ENDBRANCH  20  21
ENDBRANCH  19  20
ENDBRANCH   1  19
TORSDOF 15
ENDMDL
