MODEL 1
REMARK VINA RESULT:     -11.2      0.000      0.000
REMARK SMILES CN(CC(=O)NCCCCNC(=O)c1ccc(-c2c3nc(c(-c4c(F)cccc4F)c4ccc([nH]4)c(-c4c(F)cccc4F)c4nc(c(-c5c(F)cccc5F)c5ccc2[nH]5)C=C4)C=C3)cc1)C(=O)N[C@@H]1C[C@H]1c1ccccc1
REMARK SMILES IDX 7 1 6 2 4 3 5 4 3 6 2 7 1 8 68 9 69 10 70 11 71 13 72 14
REMARK SMILES IDX 73 15 74 16 75 17 79 18 76 19 78 20 77 21 8 22 9 23 10 24
REMARK SMILES IDX 11 25 12 26 13 28 14 29 15 30 67 31 16 32 66 33 17 34 18 35
REMARK SMILES IDX 19 36 60 37 20 38 65 39 59 40 61 41 21 42 64 43 58 44 57 45
REMARK SMILES IDX 22 47 48 48 31 49 47 50 32 51 35 52 46 53 62 54 33 55 34 56
REMARK SMILES IDX 45 58 63 59 36 60 23 61 24 62 29 63 25 64 26 65 28 66 30 67
REMARK SMILES IDX 27 68 49 69 50 70 55 71 51 72 52 73 54 74 56 75 53 76 37 77
REMARK SMILES IDX 38 78 43 79 39 80 40 81 42 82 44 83 41 84
REMARK H PARENT 6 5 70 12 11 27 61 46 35 57
REMARK Flexibility Score: inf
ROOT
ATOM      1  C   UNL A   1      33.260  29.975  26.819  1.00  0.00     0.116 C 
ENDROOT
BRANCH   1   2
ATOM      2  N   UNL A   1      33.867  29.704  25.541  1.00  0.00    -0.355 N 
ATOM      3  C   UNL A   1      33.849  28.512  24.884  1.00  0.00     0.239 C 
ATOM      4  O   UNL A   1      33.843  28.568  23.651  1.00  0.00    -0.273 OA
ATOM      5  H   UNL A   1      34.341  30.449  25.105  1.00  0.00     0.163 HD
BRANCH   3   6
ATOM      6  C   UNL A   1      33.629  27.192  25.653  1.00  0.00     0.220 C 
BRANCH   6   7
ATOM      7  N   UNL A   1      32.593  26.261  25.173  1.00  0.00    -0.319 N 
ATOM      8  C   UNL A   1      31.998  25.437  26.225  1.00  0.00     0.149 C 
BRANCH   7   9
ATOM      9  C   UNL A   1      31.989  26.102  23.957  1.00  0.00     0.317 C 
ATOM     10  O   UNL A   1      32.352  25.164  23.225  1.00  0.00    -0.249 OA
ATOM     11  N   UNL A   1      31.022  26.837  23.383  1.00  0.00    -0.335 N 
ATOM     12  H   UNL A   1      30.941  26.558  22.442  1.00  0.00     0.165 HD
BRANCH  11  13
ATOM     13  C   UNL A   1      30.065  27.873  23.624  1.00  0.00     0.092 C 
ATOM     14  C   UNL A   1      28.601  27.536  23.500  1.00  0.00     0.036 C 
ATOM     15  C   UNL A   1      29.239  28.580  22.627  1.00  0.00     0.044 C 
BRANCH  15  16
ATOM     16  C   UNL A   1      28.706  29.968  22.563  1.00  0.00    -0.043 A 
ATOM     17  C   UNL A   1      28.277  30.421  21.300  1.00  0.00     0.004 A 
ATOM     18  C   UNL A   1      28.910  30.920  23.567  1.00  0.00     0.004 A 
ATOM     19  C   UNL A   1      28.143  31.775  21.015  1.00  0.00     0.000 A 
ATOM     20  C   UNL A   1      28.762  32.284  23.288  1.00  0.00     0.000 A 
ATOM     21  C   UNL A   1      28.405  32.710  22.008  1.00  0.00     0.000 A 
ENDBRANCH  15  16
ENDBRANCH  11  13
ENDBRANCH   7   9
ENDBRANCH   6   7
ENDBRANCH   3   6
ENDBRANCH   1   2
BRANCH   1  22
ATOM     22  C   UNL A   1      31.772  30.271  26.721  1.00  0.00     0.023 C 
BRANCH  22  23
ATOM     23  C   UNL A   1      31.390  31.744  26.869  1.00  0.00     0.023 C 
BRANCH  23  24
ATOM     24  C   UNL A   1      32.507  32.749  26.617  1.00  0.00     0.116 C 
BRANCH  24  25
ATOM     25  N   UNL A   1      32.388  33.967  27.403  1.00  0.00    -0.352 N 
ATOM     26  C   UNL A   1      33.176  34.417  28.436  1.00  0.00     0.251 C 
ATOM     27  H   UNL A   1      31.635  34.553  27.161  1.00  0.00     0.163 HD
ATOM     28  O   UNL A   1      32.909  35.457  29.011  1.00  0.00    -0.269 OA
BRANCH  26  29
ATOM     29  C   UNL A   1      34.318  33.591  28.876  1.00  0.00     0.039 A 
ATOM     30  C   UNL A   1      35.605  34.107  28.711  1.00  0.00     0.014 A 
ATOM     31  C   UNL A   1      34.121  32.349  29.483  1.00  0.00     0.014 A 
ATOM     32  C   UNL A   1      36.696  33.406  29.222  1.00  0.00     0.010 A 
ATOM     33  C   UNL A   1      35.202  31.688  30.057  1.00  0.00     0.010 A 
ATOM     34  C   UNL A   1      36.498  32.211  29.932  1.00  0.00    -0.014 A 
BRANCH  34  35
ATOM     35  C   UNL A   1      37.641  31.489  30.543  1.00  0.00     0.031 A 
ATOM     36  C   UNL A   1      38.030  31.771  31.967  1.00  0.00     0.074 A 
ATOM     37  C   UNL A   1      38.350  30.616  29.803  1.00  0.00     0.049 A 
ATOM     38  N   UNL A   1      39.033  31.295  32.659  1.00  0.00    -0.248 NA
ATOM     39  C   UNL A   1      37.196  32.735  32.702  1.00  0.00     0.031 C 
ATOM     40  C   UNL A   1      38.091  30.284  28.400  1.00  0.00     0.029 A 
ATOM     41  N   UNL A   1      39.441  29.850  30.128  1.00  0.00    -0.354 N 
ATOM     42  C   UNL A   1      38.950  31.901  33.906  1.00  0.00     0.074 A 
ATOM     43  C   UNL A   1      37.840  32.827  33.855  1.00  0.00     0.031 C 
ATOM     44  C   UNL A   1      38.980  29.362  27.995  1.00  0.00     0.029 A 
ATOM     45  C   UNL A   1      39.894  29.067  29.093  1.00  0.00     0.049 A 
ATOM     46  H   UNL A   1      39.860  29.860  31.019  1.00  0.00     0.167 HD
ATOM     47  C   UNL A   1      39.711  31.684  35.004  1.00  0.00     0.037 A 
ATOM     48  C   UNL A   1      40.932  28.213  29.039  1.00  0.00     0.037 A 
ATOM     49  C   UNL A   1      40.805  30.750  35.057  1.00  0.00     0.049 A 
ATOM     50  C   UNL A   1      41.782  28.015  30.266  1.00  0.00     0.074 A 
ATOM     51  C   UNL A   1      41.625  30.442  36.127  1.00  0.00     0.029 A 
ATOM     52  N   UNL A   1      41.226  29.970  33.991  1.00  0.00    -0.354 N 
ATOM     53  N   UNL A   1      41.663  28.561  31.451  1.00  0.00    -0.248 NA
ATOM     54  C   UNL A   1      42.906  27.076  30.146  1.00  0.00     0.031 C 
ATOM     55  C   UNL A   1      42.564  29.498  35.700  1.00  0.00     0.029 A 
ATOM     56  C   UNL A   1      42.301  29.187  34.376  1.00  0.00     0.049 A 
ATOM     57  H   UNL A   1      40.821  29.974  33.093  1.00  0.00     0.167 HD
ATOM     58  C   UNL A   1      42.671  28.005  32.228  1.00  0.00     0.074 A 
ATOM     59  C   UNL A   1      43.385  27.071  31.381  1.00  0.00     0.031 C 
ATOM     60  C   UNL A   1      42.982  28.245  33.525  1.00  0.00     0.037 A 
BRANCH  47  61
ATOM     61  C   UNL A   1      39.371  32.458  36.243  1.00  0.00     0.057 A 
ATOM     62  C   UNL A   1      39.997  33.675  36.542  1.00  0.00     0.134 A 
ATOM     63  C   UNL A   1      38.385  32.004  37.128  1.00  0.00     0.134 A 
ATOM     64  F   UNL A   1      40.961  34.158  35.744  1.00  0.00    -0.206 F 
ATOM     65  C   UNL A   1      39.673  34.401  37.688  1.00  0.00     0.040 A 
ATOM     66  C   UNL A   1      38.032  32.736  38.264  1.00  0.00     0.040 A 
ATOM     67  F   UNL A   1      37.743  30.849  36.899  1.00  0.00    -0.206 F 
ATOM     68  C   UNL A   1      38.680  33.935  38.549  1.00  0.00     0.006 A 
ENDBRANCH  47  61
BRANCH  48  69
ATOM     69  C   UNL A   1      41.224  27.458  27.793  1.00  0.00     0.057 A 
ATOM     70  C   UNL A   1      42.010  28.019  26.779  1.00  0.00     0.134 A 
ATOM     71  C   UNL A   1      40.697  26.181  27.567  1.00  0.00     0.134 A 
ATOM     72  F   UNL A   1      42.527  29.248  26.929  1.00  0.00    -0.206 F 
ATOM     73  C   UNL A   1      42.235  27.353  25.573  1.00  0.00     0.040 A 
ATOM     74  C   UNL A   1      40.937  25.492  26.377  1.00  0.00     0.040 A 
ATOM     75  F   UNL A   1      39.943  25.584  28.501  1.00  0.00    -0.206 F 
ATOM     76  C   UNL A   1      41.699  26.084  25.371  1.00  0.00     0.006 A 
ENDBRANCH  48  69
BRANCH  60  77
ATOM     77  C   UNL A   1      44.104  27.449  34.121  1.00  0.00     0.057 A 
ATOM     78  C   UNL A   1      43.897  26.186  34.690  1.00  0.00     0.134 A 
ATOM     79  C   UNL A   1      45.416  27.940  34.091  1.00  0.00     0.134 A 
ATOM     80  F   UNL A   1      42.662  25.667  34.761  1.00  0.00    -0.206 F 
ATOM     81  C   UNL A   1      44.952  25.451  35.232  1.00  0.00     0.040 A 
ATOM     82  C   UNL A   1      46.482  27.202  34.605  1.00  0.00     0.040 A 
ATOM     83  F   UNL A   1      45.682  29.138  33.551  1.00  0.00    -0.206 F 
ATOM     84  C   UNL A   1      46.250  25.956  35.184  1.00  0.00     0.006 A 
ENDBRANCH  60  77
ENDBRANCH  34  35
ENDBRANCH  26  29
ENDBRANCH  24  25
ENDBRANCH  23  24
ENDBRANCH  22  23
ENDBRANCH   1  22
TORSDOF 15
ENDMDL
MODEL 2
REMARK VINA RESULT:     -11.1      1.167      6.407
REMARK SMILES CN(CC(=O)NCCCCNC(=O)c1ccc(-c2c3nc(c(-c4c(F)cccc4F)c4ccc([nH]4)c(-c4c(F)cccc4F)c4nc(c(-c5c(F)cccc5F)c5ccc2[nH]5)C=C4)C=C3)cc1)C(=O)N[C@@H]1C[C@H]1c1ccccc1
REMARK SMILES IDX 7 1 6 2 4 3 5 4 3 6 2 7 1 8 68 9 69 10 70 11 71 13 72 14
REMARK SMILES IDX 73 15 74 16 75 17 79 18 76 19 78 20 77 21 8 22 9 23 10 24
REMARK SMILES IDX 11 25 12 26 13 28 14 29 15 30 67 31 16 32 66 33 17 34 18 35
REMARK SMILES IDX 19 36 60 37 20 38 65 39 59 40 61 41 21 42 64 43 58 44 57 45
REMARK SMILES IDX 22 47 48 48 31 49 47 50 32 51 35 52 46 53 62 54 33 55 34 56
REMARK SMILES IDX 45 58 63 59 36 60 23 61 24 62 29 63 25 64 26 65 28 66 30 67
REMARK SMILES IDX 27 68 49 69 50 70 55 71 51 72 52 73 54 74 56 75 53 76 37 77
REMARK SMILES IDX 38 78 43 79 39 80 40 81 42 82 44 83 41 84
REMARK H PARENT 6 5 70 12 11 27 61 46 35 57
REMARK Flexibility Score: inf
ROOT
ATOM      1  C   UNL A   1      32.522  29.816  25.763  1.00  0.00     0.116 C 
ENDROOT
BRANCH   1   2
ATOM      2  N   UNL A   1      33.279  29.702  24.544  1.00  0.00    -0.355 N 
ATOM      3  C   UNL A   1      33.698  28.542  23.968  1.00  0.00     0.239 C 
ATOM      4  O   UNL A   1      33.768  28.537  22.735  1.00  0.00    -0.273 OA
ATOM      5  H   UNL A   1      33.517  30.541  24.085  1.00  0.00     0.163 HD
BRANCH   3   6
ATOM      6  C   UNL A   1      33.860  27.258  24.809  1.00  0.00     0.220 C 
BRANCH   6   7
ATOM      7  N   UNL A   1      32.766  26.272  24.808  1.00  0.00    -0.319 N 
ATOM      8  C   UNL A   1      32.455  25.724  26.128  1.00  0.00     0.149 C 
BRANCH   7   9
ATOM      9  C   UNL A   1      31.899  25.858  23.835  1.00  0.00     0.317 C 
ATOM     10  O   UNL A   1      32.126  24.785  23.247  1.00  0.00    -0.249 OA
ATOM     11  N   UNL A   1      30.787  26.454  23.374  1.00  0.00    -0.335 N 
ATOM     12  H   UNL A   1      30.500  25.981  22.560  1.00  0.00     0.165 HD
BRANCH  11  13
ATOM     13  C   UNL A   1      29.862  27.518  23.622  1.00  0.00     0.092 C 
ATOM     14  C   UNL A   1      28.389  27.207  23.579  1.00  0.00     0.036 C 
ATOM     15  C   UNL A   1      29.004  28.205  22.639  1.00  0.00     0.044 C 
BRANCH  15  16
ATOM     16  C   UNL A   1      28.495  29.601  22.550  1.00  0.00    -0.043 A 
ATOM     17  C   UNL A   1      29.154  30.455  21.644  1.00  0.00     0.004 A 
ATOM     18  C   UNL A   1      27.660  30.181  23.509  1.00  0.00     0.004 A 
ATOM     19  C   UNL A   1      29.062  31.839  21.744  1.00  0.00     0.000 A 
ATOM     20  C   UNL A   1      27.553  31.573  23.604  1.00  0.00     0.000 A 
ATOM     21  C   UNL A   1      28.273  32.399  22.739  1.00  0.00     0.000 A 
ENDBRANCH  15  16
ENDBRANCH  11  13
ENDBRANCH   7   9
ENDBRANCH   6   7
ENDBRANCH   3   6
ENDBRANCH   1   2
BRANCH   1  22
ATOM     22  C   UNL A   1      31.176  30.497  25.568  1.00  0.00     0.023 C 
BRANCH  22  23
ATOM     23  C   UNL A   1      31.028  31.853  26.258  1.00  0.00     0.023 C 
BRANCH  23  24
ATOM     24  C   UNL A   1      32.326  32.537  26.667  1.00  0.00     0.116 C 
BRANCH  24  25
ATOM     25  N   UNL A   1      32.132  33.831  27.302  1.00  0.00    -0.352 N 
ATOM     26  C   UNL A   1      32.902  34.460  28.252  1.00  0.00     0.251 C 
ATOM     27  H   UNL A   1      31.335  34.329  27.010  1.00  0.00     0.163 HD
ATOM     28  O   UNL A   1      32.570  35.541  28.702  1.00  0.00    -0.269 OA
BRANCH  26  29
ATOM     29  C   UNL A   1      34.109  33.777  28.760  1.00  0.00     0.039 A 
ATOM     30  C   UNL A   1      35.355  34.237  28.331  1.00  0.00     0.014 A 
ATOM     31  C   UNL A   1      34.014  32.730  29.681  1.00  0.00     0.014 A 
ATOM     32  C   UNL A   1      36.514  33.693  28.881  1.00  0.00     0.010 A 
ATOM     33  C   UNL A   1      35.169  32.241  30.282  1.00  0.00     0.010 A 
ATOM     34  C   UNL A   1      36.429  32.719  29.888  1.00  0.00    -0.014 A 
BRANCH  34  35
ATOM     35  C   UNL A   1      37.650  32.180  30.534  1.00  0.00     0.031 A 
ATOM     36  C   UNL A   1      38.341  30.982  29.949  1.00  0.00     0.074 A 
ATOM     37  C   UNL A   1      38.108  32.745  31.669  1.00  0.00     0.049 A 
ATOM     38  N   UNL A   1      39.379  30.325  30.399  1.00  0.00    -0.248 NA
ATOM     39  C   UNL A   1      37.776  30.435  28.705  1.00  0.00     0.031 C 
ATOM     40  C   UNL A   1      37.503  33.890  32.352  1.00  0.00     0.029 A 
ATOM     41  N   UNL A   1      39.188  32.425  32.452  1.00  0.00    -0.354 N 
ATOM     42  C   UNL A   1      39.588  29.290  29.497  1.00  0.00     0.074 A 
ATOM     43  C   UNL A   1      38.532  29.366  28.511  1.00  0.00     0.031 C 
ATOM     44  C   UNL A   1      38.237  34.193  33.436  1.00  0.00     0.029 A 
ATOM     45  C   UNL A   1      39.339  33.243  33.546  1.00  0.00     0.049 A 
ATOM     46  H   UNL A   1      39.798  31.679  32.249  1.00  0.00     0.167 HD
ATOM     47  C   UNL A   1      40.587  28.376  29.475  1.00  0.00     0.037 A 
ATOM     48  C   UNL A   1      40.259  33.222  34.527  1.00  0.00     0.037 A 
ATOM     49  C   UNL A   1      41.644  28.312  30.448  1.00  0.00     0.049 A 
ATOM     50  C   UNL A   1      41.339  32.174  34.495  1.00  0.00     0.074 A 
ATOM     51  C   UNL A   1      42.715  27.437  30.503  1.00  0.00     0.029 A 
ATOM     52  N   UNL A   1      41.766  29.163  31.536  1.00  0.00    -0.354 N 
ATOM     53  N   UNL A   1      41.551  31.231  33.611  1.00  0.00    -0.248 NA
ATOM     54  C   UNL A   1      42.312  32.195  35.596  1.00  0.00     0.031 C 
ATOM     55  C   UNL A   1      43.467  27.738  31.642  1.00  0.00     0.029 A 
ATOM     56  C   UNL A   1      42.889  28.828  32.273  1.00  0.00     0.049 A 
ATOM     57  H   UNL A   1      41.145  29.897  31.751  1.00  0.00     0.167 HD
ATOM     58  C   UNL A   1      42.699  30.570  34.027  1.00  0.00     0.074 A 
ATOM     59  C   UNL A   1      43.145  31.230  35.237  1.00  0.00     0.031 C 
ATOM     60  C   UNL A   1      43.330  29.513  33.461  1.00  0.00     0.037 A 
BRANCH  47  61
ATOM     61  C   UNL A   1      40.589  27.385  28.349  1.00  0.00     0.057 A 
ATOM     62  C   UNL A   1      39.830  26.208  28.406  1.00  0.00     0.134 A 
ATOM     63  C   UNL A   1      41.327  27.621  27.182  1.00  0.00     0.134 A 
ATOM     64  F   UNL A   1      39.113  25.914  29.501  1.00  0.00    -0.206 F 
ATOM     65  C   UNL A   1      39.823  25.292  27.354  1.00  0.00     0.040 A 
ATOM     66  C   UNL A   1      41.306  26.725  26.112  1.00  0.00     0.040 A 
ATOM     67  F   UNL A   1      42.072  28.730  27.060  1.00  0.00    -0.206 F 
ATOM     68  C   UNL A   1      40.557  25.554  26.199  1.00  0.00     0.006 A 
ENDBRANCH  47  61
BRANCH  48  69
ATOM     69  C   UNL A   1      40.224  34.232  35.616  1.00  0.00     0.057 A 
ATOM     70  C   UNL A   1      39.499  33.999  36.791  1.00  0.00     0.134 A 
ATOM     71  C   UNL A   1      40.877  35.464  35.496  1.00  0.00     0.134 A 
ATOM     72  F   UNL A   1      38.836  32.844  36.956  1.00  0.00    -0.206 F 
ATOM     73  C   UNL A   1      39.397  34.965  37.793  1.00  0.00     0.040 A 
ATOM     74  C   UNL A   1      40.806  36.429  36.503  1.00  0.00     0.040 A 
ATOM     75  F   UNL A   1      41.595  35.748  34.400  1.00  0.00    -0.206 F 
ATOM     76  C   UNL A   1      40.054  36.185  37.650  1.00  0.00     0.006 A 
ENDBRANCH  48  69
BRANCH  60  77
ATOM     77  C   UNL A   1      44.595  29.040  34.112  1.00  0.00     0.057 A 
ATOM     78  C   UNL A   1      45.846  29.574  33.777  1.00  0.00     0.134 A 
ATOM     79  C   UNL A   1      44.555  28.060  35.112  1.00  0.00     0.134 A 
ATOM     80  F   UNL A   1      45.953  30.505  32.818  1.00  0.00    -0.206 F 
ATOM     81  C   UNL A   1      47.015  29.132  34.399  1.00  0.00     0.040 A 
ATOM     82  C   UNL A   1      45.714  27.630  35.759  1.00  0.00     0.040 A 
ATOM     83  F   UNL A   1      43.387  27.515  35.485  1.00  0.00    -0.206 F 
ATOM     84  C   UNL A   1      46.949  28.162  35.397  1.00  0.00     0.006 A 
ENDBRANCH  60  77
ENDBRANCH  34  35
ENDBRANCH  26  29
ENDBRANCH  24  25
ENDBRANCH  23  24
ENDBRANCH  22  23
ENDBRANCH   1  22
TORSDOF 15
ENDMDL
MODEL 3
REMARK VINA RESULT:     -10.9      3.699      4.963
REMARK SMILES CN(CC(=O)NCCCCNC(=O)c1ccc(-c2c3nc(c(-c4c(F)cccc4F)c4ccc([nH]4)c(-c4c(F)cccc4F)c4nc(c(-c5c(F)cccc5F)c5ccc2[nH]5)C=C4)C=C3)cc1)C(=O)N[C@@H]1C[C@H]1c1ccccc1
REMARK SMILES IDX 7 1 6 2 4 3 5 4 3 6 2 7 1 8 68 9 69 10 70 11 71 13 72 14
REMARK SMILES IDX 73 15 74 16 75 17 79 18 76 19 78 20 77 21 8 22 9 23 10 24
REMARK SMILES IDX 11 25 12 26 13 28 14 29 15 30 67 31 16 32 66 33 17 34 18 35
REMARK SMILES IDX 19 36 60 37 20 38 65 39 59 40 61 41 21 42 64 43 58 44 57 45
REMARK SMILES IDX 22 47 48 48 31 49 47 50 32 51 35 52 46 53 62 54 33 55 34 56
REMARK SMILES IDX 45 58 63 59 36 60 23 61 24 62 29 63 25 64 26 65 28 66 30 67
REMARK SMILES IDX 27 68 49 69 50 70 55 71 51 72 52 73 54 74 56 75 53 76 37 77
REMARK SMILES IDX 38 78 43 79 39 80 40 81 42 82 44 83 41 84
REMARK H PARENT 6 5 70 12 11 27 61 46 35 57
REMARK Flexibility Score: inf
ROOT
ATOM      1  C   UNL A   1      31.029  26.636  26.217  1.00  0.00     0.116 C 
ENDROOT
BRANCH   1   2
ATOM      2  N   UNL A   1      31.511  25.285  26.339  1.00  0.00    -0.355 N 
ATOM      3  C   UNL A   1      32.697  24.814  25.864  1.00  0.00     0.239 C 
ATOM      4  O   UNL A   1      33.227  23.910  26.518  1.00  0.00    -0.273 OA
ATOM      5  H   UNL A   1      30.929  24.643  26.806  1.00  0.00     0.163 HD
BRANCH   3   6
ATOM      6  C   UNL A   1      33.422  25.530  24.705  1.00  0.00     0.220 C 
BRANCH   6   7
ATOM      7  N   UNL A   1      32.863  25.419  23.347  1.00  0.00    -0.319 N 
ATOM      8  C   UNL A   1      32.093  24.196  23.117  1.00  0.00     0.149 C 
BRANCH   7   9
ATOM      9  C   UNL A   1      32.816  26.291  22.296  1.00  0.00     0.317 C 
ATOM     10  O   UNL A   1      33.476  26.033  21.273  1.00  0.00    -0.249 OA
ATOM     11  N   UNL A   1      32.149  27.451  22.180  1.00  0.00    -0.335 N 
ATOM     12  H   UNL A   1      32.469  27.911  21.371  1.00  0.00     0.165 HD
BRANCH  11  13
ATOM     13  C   UNL A   1      31.146  28.270  22.790  1.00  0.00     0.092 C 
ATOM     14  C   UNL A   1      29.818  27.642  23.126  1.00  0.00     0.036 C 
ATOM     15  C   UNL A   1      29.917  28.795  22.167  1.00  0.00     0.044 C 
BRANCH  15  16
ATOM     16  C   UNL A   1      29.137  30.046  22.375  1.00  0.00    -0.043 A 
ATOM     17  C   UNL A   1      28.563  30.628  21.228  1.00  0.00     0.004 A 
ATOM     18  C   UNL A   1      29.220  30.823  23.534  1.00  0.00     0.004 A 
ATOM     19  C   UNL A   1      28.170  31.962  21.204  1.00  0.00     0.000 A 
ATOM     20  C   UNL A   1      28.811  32.161  23.519  1.00  0.00     0.000 A 
ATOM     21  C   UNL A   1      28.312  32.735  22.349  1.00  0.00     0.000 A 
ENDBRANCH  15  16
ENDBRANCH  11  13
ENDBRANCH   7   9
ENDBRANCH   6   7
ENDBRANCH   3   6
ENDBRANCH   1   2
BRANCH   1  22
ATOM     22  C   UNL A   1      31.764  27.616  27.118  1.00  0.00     0.023 C 
BRANCH  22  23
ATOM     23  C   UNL A   1      32.650  28.628  26.392  1.00  0.00     0.023 C 
BRANCH  23  24
ATOM     24  C   UNL A   1      33.948  29.003  27.096  1.00  0.00     0.116 C 
BRANCH  24  25
ATOM     25  N   UNL A   1      33.860  30.230  27.873  1.00  0.00    -0.352 N 
ATOM     26  C   UNL A   1      34.823  30.849  28.635  1.00  0.00     0.251 C 
ATOM     27  H   UNL A   1      32.986  30.682  27.849  1.00  0.00     0.163 HD
ATOM     28  O   UNL A   1      34.564  31.866  29.252  1.00  0.00    -0.269 OA
BRANCH  26  29
ATOM     29  C   UNL A   1      36.159  30.229  28.740  1.00  0.00     0.039 A 
ATOM     30  C   UNL A   1      36.984  30.250  27.614  1.00  0.00     0.014 A 
ATOM     31  C   UNL A   1      36.609  29.679  29.943  1.00  0.00     0.014 A 
ATOM     32  C   UNL A   1      38.292  29.781  27.713  1.00  0.00     0.010 A 
ATOM     33  C   UNL A   1      37.936  29.281  30.059  1.00  0.00     0.010 A 
ATOM     34  C   UNL A   1      38.790  29.329  28.946  1.00  0.00    -0.014 A 
BRANCH  34  35
ATOM     35  C   UNL A   1      40.200  28.892  29.086  1.00  0.00     0.031 A 
ATOM     36  C   UNL A   1      41.223  29.835  29.651  1.00  0.00     0.074 A 
ATOM     37  C   UNL A   1      40.563  27.665  28.663  1.00  0.00     0.049 A 
ATOM     38  N   UNL A   1      42.513  29.667  29.794  1.00  0.00    -0.248 NA
ATOM     39  C   UNL A   1      40.737  31.152  30.093  1.00  0.00     0.031 C 
ATOM     40  C   UNL A   1      39.668  26.673  28.065  1.00  0.00     0.029 A 
ATOM     41  N   UNL A   1      41.787  27.046  28.668  1.00  0.00    -0.354 N 
ATOM     42  C   UNL A   1      42.989  30.852  30.339  1.00  0.00     0.074 A 
ATOM     43  C   UNL A   1      41.863  31.755  30.440  1.00  0.00     0.031 C 
ATOM     44  C   UNL A   1      40.367  25.561  27.786  1.00  0.00     0.029 A 
ATOM     45  C   UNL A   1      41.764  25.774  28.149  1.00  0.00     0.049 A 
ATOM     46  H   UNL A   1      42.606  27.473  29.011  1.00  0.00     0.167 HD
ATOM     47  C   UNL A   1      44.245  31.152  30.746  1.00  0.00     0.037 A 
ATOM     48  C   UNL A   1      42.760  24.885  27.981  1.00  0.00     0.037 A 
ATOM     49  C   UNL A   1      45.359  30.246  30.658  1.00  0.00     0.049 A 
ATOM     50  C   UNL A   1      44.154  25.257  28.412  1.00  0.00     0.074 A 
ATOM     51  C   UNL A   1      46.667  30.447  31.062  1.00  0.00     0.029 A 
ATOM     52  N   UNL A   1      45.293  28.964  30.134  1.00  0.00    -0.354 N 
ATOM     53  N   UNL A   1      44.579  26.365  28.968  1.00  0.00    -0.248 NA
ATOM     54  C   UNL A   1      45.202  24.250  28.198  1.00  0.00     0.031 C 
ATOM     55  C   UNL A   1      47.401  29.297  30.753  1.00  0.00     0.029 A 
ATOM     56  C   UNL A   1      46.540  28.365  30.196  1.00  0.00     0.049 A 
ATOM     57  H   UNL A   1      44.480  28.543  29.772  1.00  0.00     0.167 HD
ATOM     58  C   UNL A   1      45.935  26.175  29.204  1.00  0.00     0.074 A 
ATOM     59  C   UNL A   1      46.257  24.840  28.741  1.00  0.00     0.031 C 
ATOM     60  C   UNL A   1      46.834  27.027  29.753  1.00  0.00     0.037 A 
BRANCH  47  61
ATOM     61  C   UNL A   1      44.471  32.510  31.341  1.00  0.00     0.057 A 
ATOM     62  C   UNL A   1      44.854  33.602  30.550  1.00  0.00     0.134 A 
ATOM     63  C   UNL A   1      44.272  32.741  32.707  1.00  0.00     0.134 A 
ATOM     64  F   UNL A   1      45.077  33.446  29.236  1.00  0.00    -0.206 F 
ATOM     65  C   UNL A   1      45.053  34.868  31.100  1.00  0.00     0.040 A 
ATOM     66  C   UNL A   1      44.441  34.009  33.265  1.00  0.00     0.040 A 
ATOM     67  F   UNL A   1      43.900  31.740  33.520  1.00  0.00    -0.206 F 
ATOM     68  C   UNL A   1      44.838  35.076  32.462  1.00  0.00     0.006 A 
ENDBRANCH  47  61
BRANCH  48  69
ATOM     69  C   UNL A   1      42.487  23.546  27.399  1.00  0.00     0.057 A 
ATOM     70  C   UNL A   1      42.128  22.466  28.214  1.00  0.00     0.134 A 
ATOM     71  C   UNL A   1      42.616  23.302  26.026  1.00  0.00     0.134 A 
ATOM     72  F   UNL A   1      42.007  22.632  29.539  1.00  0.00    -0.206 F 
ATOM     73  C   UNL A   1      41.937  21.185  27.692  1.00  0.00     0.040 A 
ATOM     74  C   UNL A   1      42.402  22.033  25.487  1.00  0.00     0.040 A 
ATOM     75  F   UNL A   1      42.950  24.296  25.189  1.00  0.00    -0.206 F 
ATOM     76  C   UNL A   1      42.072  20.967  26.323  1.00  0.00     0.006 A 
ENDBRANCH  48  69
BRANCH  60  77
ATOM     77  C   UNL A   1      48.235  26.523  29.933  1.00  0.00     0.057 A 
ATOM     78  C   UNL A   1      48.637  25.845  31.090  1.00  0.00     0.134 A 
ATOM     79  C   UNL A   1      49.184  26.689  28.916  1.00  0.00     0.134 A 
ATOM     80  F   UNL A   1      47.778  25.666  32.105  1.00  0.00    -0.206 F 
ATOM     81  C   UNL A   1      49.942  25.372  31.240  1.00  0.00     0.040 A 
ATOM     82  C   UNL A   1      50.484  26.197  29.044  1.00  0.00     0.040 A 
ATOM     83  F   UNL A   1      48.861  27.322  27.779  1.00  0.00    -0.206 F 
ATOM     84  C   UNL A   1      50.866  25.542  30.212  1.00  0.00     0.006 A 
ENDBRANCH  60  77
ENDBRANCH  34  35
ENDBRANCH  26  29
ENDBRANCH  24  25
ENDBRANCH  23  24
ENDBRANCH  22  23
ENDBRANCH   1  22
TORSDOF 15
ENDMDL
