MODEL 1
REMARK VINA RESULT:     -11.0      0.000      0.000
REMARK SMILES Cc1noc(C)c1C[NH2+][C@H](C)[C@H](C)C(=O)NCCCCNC(=O)c1ccc(-c2c3nc(c(-c4c(F)cccc4F)c4ccc([nH]4)c(-c4c(F)cccc4F)c4nc(c(-c5c(F)cccc5F)c5ccc2[nH]5)C=C4)C=C3)cc1
REMARK SMILES IDX 17 1 16 2 14 3 15 4 12 6 13 7 10 8 11 9 9 10 8 13 7 14 1 15
REMARK SMILES IDX 2 16 3 17 4 18 5 19 6 20 18 21 19 22 20 23 21 24 22 25 23 27
REMARK SMILES IDX 24 28 25 29 77 30 26 31 76 32 27 33 28 34 29 35 70 36 30 37
REMARK SMILES IDX 75 38 69 39 71 40 31 41 74 42 68 43 67 44 32 46 58 47 41 48
REMARK SMILES IDX 57 49 42 50 45 51 56 52 72 53 43 54 44 55 55 57 73 58 46 59
REMARK SMILES IDX 33 60 34 61 39 62 35 63 36 64 38 65 40 66 37 67 59 68 60 69
REMARK SMILES IDX 65 70 61 71 62 72 64 73 66 74 63 75 47 76 48 77 53 78 49 79
REMARK SMILES IDX 50 80 52 81 54 82 51 83
REMARK H PARENT 16 5 9 11 9 12 21 26 71 45 45 56
REMARK Flexibility Score: inf
ROOT
ATOM      1  C   UNL A   1      32.488  29.760  27.214  1.00  0.00     0.116 C 
ENDROOT
BRANCH   1   2
ATOM      2  N   UNL A   1      31.851  28.463  27.338  1.00  0.00    -0.356 N 
ATOM      3  C   UNL A   1      32.003  27.322  26.613  1.00  0.00     0.228 C 
ATOM      4  O   UNL A   1      31.334  26.340  26.946  1.00  0.00    -0.275 OA
ATOM      5  H   UNL A   1      31.197  28.398  28.071  1.00  0.00     0.163 HD
BRANCH   3   6
ATOM      6  C   UNL A   1      32.971  27.234  25.432  1.00  0.00     0.133 C 
ATOM      7  C   UNL A   1      33.900  26.031  25.655  1.00  0.00     0.024 C 
BRANCH   6   8
ATOM      8  C   UNL A   1      32.230  27.305  24.062  1.00  0.00     0.191 C 
ATOM      9  C   UNL A   1      32.068  25.897  23.449  1.00  0.00     0.076 C 
BRANCH   8  10
ATOM     10  N   UNL A   1      30.888  27.910  23.995  1.00  0.00    -0.339 N 
ATOM     11  H   UNL A   1      30.237  27.244  24.412  1.00  0.00     0.346 HD
ATOM     12  H   UNL A   1      30.992  28.802  24.479  1.00  0.00     0.346 HD
BRANCH  10  13
ATOM     13  C   UNL A   1      30.354  28.271  22.698  1.00  0.00     0.303 C 
BRANCH  13  14
ATOM     14  C   UNL A   1      28.954  28.720  22.895  1.00  0.00     0.071 A 
ATOM     15  C   UNL A   1      29.090  31.184  22.050  1.00  0.00     0.071 C 
ATOM     16  C   UNL A   1      28.403  30.002  22.622  1.00  0.00     0.090 A 
ATOM     17  N   UNL A   1      27.106  30.060  22.944  1.00  0.00    -0.085 NA
ATOM     18  O   UNL A   1      26.785  28.805  23.428  1.00  0.00    -0.361 OA
ATOM     19  C   UNL A   1      27.884  28.009  23.398  1.00  0.00     0.142 A 
ATOM     20  C   UNL A   1      27.709  26.628  23.884  1.00  0.00     0.091 C 
ENDBRANCH  13  14
ENDBRANCH  10  13
ENDBRANCH   8  10
ENDBRANCH   6   8
ENDBRANCH   3   6
ENDBRANCH   1   2
BRANCH   1  21
ATOM     21  C   UNL A   1      31.775  30.659  26.207  1.00  0.00     0.023 C 
BRANCH  21  22
ATOM     22  C   UNL A   1      31.473  32.070  26.709  1.00  0.00     0.023 C 
BRANCH  22  23
ATOM     23  C   UNL A   1      32.659  32.812  27.315  1.00  0.00     0.116 C 
BRANCH  23  24
ATOM     24  N   UNL A   1      32.356  34.194  27.655  1.00  0.00    -0.352 N 
ATOM     25  C   UNL A   1      32.964  35.013  28.575  1.00  0.00     0.251 C 
ATOM     26  H   UNL A   1      31.610  34.599  27.154  1.00  0.00     0.163 HD
ATOM     27  O   UNL A   1      32.501  36.121  28.826  1.00  0.00    -0.269 OA
BRANCH  25  28
ATOM     28  C   UNL A   1      34.162  34.532  29.292  1.00  0.00     0.039 A 
ATOM     29  C   UNL A   1      34.006  33.944  30.549  1.00  0.00     0.014 A 
ATOM     30  C   UNL A   1      35.424  34.613  28.698  1.00  0.00     0.014 A 
ATOM     31  C   UNL A   1      35.106  33.356  31.174  1.00  0.00     0.010 A 
ATOM     32  C   UNL A   1      36.504  33.963  29.288  1.00  0.00     0.010 A 
ATOM     33  C   UNL A   1      36.352  33.318  30.526  1.00  0.00    -0.014 A 
BRANCH  33  34
ATOM     34  C   UNL A   1      37.504  32.590  31.114  1.00  0.00     0.031 A 
ATOM     35  C   UNL A   1      38.128  33.066  32.395  1.00  0.00     0.074 A 
ATOM     36  C   UNL A   1      38.039  31.546  30.450  1.00  0.00     0.049 A 
ATOM     37  N   UNL A   1      39.186  32.612  33.017  1.00  0.00    -0.248 NA
ATOM     38  C   UNL A   1      37.497  34.225  33.046  1.00  0.00     0.031 C 
ATOM     39  C   UNL A   1      37.561  31.021  29.169  1.00  0.00     0.029 A 
ATOM     40  N   UNL A   1      39.112  30.747  30.754  1.00  0.00    -0.354 N 
ATOM     41  C   UNL A   1      39.355  33.437  34.121  1.00  0.00     0.074 A 
ATOM     42  C   UNL A   1      38.323  34.449  34.056  1.00  0.00     0.031 C 
ATOM     43  C   UNL A   1      38.323  29.976  28.809  1.00  0.00     0.029 A 
ATOM     44  C   UNL A   1      39.363  29.778  29.814  1.00  0.00     0.049 A 
ATOM     45  H   UNL A   1      39.651  30.857  31.571  1.00  0.00     0.167 HD
ATOM     46  C   UNL A   1      40.274  33.345  35.111  1.00  0.00     0.037 A 
ATOM     47  C   UNL A   1      40.329  28.840  29.762  1.00  0.00     0.037 A 
ATOM     48  C   UNL A   1      41.279  32.319  35.192  1.00  0.00     0.049 A 
ATOM     49  C   UNL A   1      41.335  28.759  30.876  1.00  0.00     0.074 A 
ATOM     50  C   UNL A   1      42.205  32.097  36.196  1.00  0.00     0.029 A 
ATOM     51  N   UNL A   1      41.490  31.344  34.228  1.00  0.00    -0.354 N 
ATOM     52  N   UNL A   1      41.437  29.499  31.952  1.00  0.00    -0.248 NA
ATOM     53  C   UNL A   1      42.359  27.710  30.766  1.00  0.00     0.031 C 
ATOM     54  C   UNL A   1      43.003  31.010  35.822  1.00  0.00     0.029 A 
ATOM     55  C   UNL A   1      42.548  30.533  34.603  1.00  0.00     0.049 A 
ATOM     56  H   UNL A   1      40.967  31.245  33.401  1.00  0.00     0.167 HD
ATOM     57  C   UNL A   1      42.521  28.994  32.658  1.00  0.00     0.074 A 
ATOM     58  C   UNL A   1      43.034  27.875  31.895  1.00  0.00     0.031 C 
ATOM     59  C   UNL A   1      43.044  29.421  33.833  1.00  0.00     0.037 A 
BRANCH  46  60
ATOM     60  C   UNL A   1      40.225  34.381  36.195  1.00  0.00     0.057 A 
ATOM     61  C   UNL A   1      40.954  35.574  36.106  1.00  0.00     0.134 A 
ATOM     62  C   UNL A   1      39.416  34.199  37.324  1.00  0.00     0.134 A 
ATOM     63  F   UNL A   1      41.756  35.804  35.057  1.00  0.00    -0.206 F 
ATOM     64  C   UNL A   1      40.901  36.538  37.115  1.00  0.00     0.040 A 
ATOM     65  C   UNL A   1      39.336  35.166  38.327  1.00  0.00     0.040 A 
ATOM     66  F   UNL A   1      38.689  33.081  37.468  1.00  0.00    -0.206 F 
ATOM     67  C   UNL A   1      40.086  36.338  38.227  1.00  0.00     0.006 A 
ENDBRANCH  46  60
BRANCH  47  68
ATOM     68  C   UNL A   1      40.377  27.886  28.627  1.00  0.00     0.057 A 
ATOM     69  C   UNL A   1      41.086  28.193  27.460  1.00  0.00     0.134 A 
ATOM     70  C   UNL A   1      39.714  26.655  28.675  1.00  0.00     0.134 A 
ATOM     71  F   UNL A   1      41.726  29.366  27.348  1.00  0.00    -0.206 F 
ATOM     72  C   UNL A   1      41.120  27.317  26.374  1.00  0.00     0.040 A 
ATOM     73  C   UNL A   1      39.757  25.759  27.605  1.00  0.00     0.040 A 
ATOM     74  F   UNL A   1      39.022  26.301  29.768  1.00  0.00    -0.206 F 
ATOM     75  C   UNL A   1      40.458  26.093  26.448  1.00  0.00     0.006 A 
ENDBRANCH  47  68
BRANCH  59  76
ATOM     76  C   UNL A   1      44.219  28.663  34.376  1.00  0.00     0.057 A 
ATOM     77  C   UNL A   1      44.054  27.554  35.213  1.00  0.00     0.134 A 
ATOM     78  C   UNL A   1      45.526  29.022  34.021  1.00  0.00     0.134 A 
ATOM     79  F   UNL A   1      42.829  27.170  35.601  1.00  0.00    -0.206 F 
ATOM     80  C   UNL A   1      45.151  26.834  35.692  1.00  0.00     0.040 A 
ATOM     81  C   UNL A   1      46.628  28.296  34.475  1.00  0.00     0.040 A 
ATOM     82  F   UNL A   1      45.750  30.070  33.216  1.00  0.00    -0.206 F 
ATOM     83  C   UNL A   1      46.442  27.202  35.317  1.00  0.00     0.006 A 
ENDBRANCH  59  76
ENDBRANCH  33  34
ENDBRANCH  25  28
ENDBRANCH  23  24
ENDBRANCH  22  23
ENDBRANCH  21  22
ENDBRANCH   1  21
TORSDOF 15
ENDMDL
MODEL 2
REMARK VINA RESULT:     -10.9      4.322      7.589
REMARK SMILES Cc1noc(C)c1C[NH2+][C@H](C)[C@H](C)C(=O)NCCCCNC(=O)c1ccc(-c2c3nc(c(-c4c(F)cccc4F)c4ccc([nH]4)c(-c4c(F)cccc4F)c4nc(c(-c5c(F)cccc5F)c5ccc2[nH]5)C=C4)C=C3)cc1
REMARK SMILES IDX 17 1 16 2 14 3 15 4 12 6 13 7 10 8 11 9 9 10 8 13 7 14 1 15
REMARK SMILES IDX 2 16 3 17 4 18 5 19 6 20 18 21 19 22 20 23 21 24 22 25 23 27
REMARK SMILES IDX 24 28 25 29 77 30 26 31 76 32 27 33 28 34 29 35 70 36 30 37
REMARK SMILES IDX 75 38 69 39 71 40 31 41 74 42 68 43 67 44 32 46 58 47 41 48
REMARK SMILES IDX 57 49 42 50 45 51 56 52 72 53 43 54 44 55 55 57 73 58 46 59
REMARK SMILES IDX 33 60 34 61 39 62 35 63 36 64 38 65 40 66 37 67 59 68 60 69
REMARK SMILES IDX 65 70 61 71 62 72 64 73 66 74 63 75 47 76 48 77 53 78 49 79
REMARK SMILES IDX 50 80 52 81 54 82 51 83
REMARK H PARENT 16 5 9 11 9 12 21 26 71 45 45 56
REMARK Flexibility Score: inf
ROOT
ATOM      1  C   UNL A   1      37.296  32.818  29.680  1.00  0.00     0.116 C 
ENDROOT
BRANCH   1   2
ATOM      2  N   UNL A   1      37.872  33.702  30.675  1.00  0.00    -0.356 N 
ATOM      3  C   UNL A   1      37.785  33.693  32.033  1.00  0.00     0.228 C 
ATOM      4  O   UNL A   1      38.395  34.571  32.649  1.00  0.00    -0.275 OA
ATOM      5  H   UNL A   1      38.419  34.432  30.304  1.00  0.00     0.163 HD
BRANCH   3   6
ATOM      6  C   UNL A   1      36.976  32.638  32.788  1.00  0.00     0.133 C 
ATOM      7  C   UNL A   1      37.805  32.159  33.989  1.00  0.00     0.024 C 
BRANCH   6   8
ATOM      8  C   UNL A   1      35.521  33.117  33.084  1.00  0.00     0.191 C 
ATOM      9  C   UNL A   1      35.455  33.880  34.424  1.00  0.00     0.076 C 
BRANCH   8  10
ATOM     10  N   UNL A   1      34.833  33.986  32.112  1.00  0.00    -0.339 N 
ATOM     11  H   UNL A   1      35.398  34.828  32.010  1.00  0.00     0.346 HD
ATOM     12  H   UNL A   1      34.738  33.403  31.281  1.00  0.00     0.346 HD
BRANCH  10  13
ATOM     13  C   UNL A   1      33.480  34.413  32.401  1.00  0.00     0.303 C 
BRANCH  13  14
ATOM     14  C   UNL A   1      33.327  35.799  31.896  1.00  0.00     0.071 A 
ATOM     15  C   UNL A   1      33.670  37.174  34.085  1.00  0.00     0.071 C 
ATOM     16  C   UNL A   1      33.399  37.010  32.637  1.00  0.00     0.090 A 
ATOM     17  N   UNL A   1      33.188  38.077  31.859  1.00  0.00    -0.085 NA
ATOM     18  O   UNL A   1      32.984  37.578  30.586  1.00  0.00    -0.361 OA
ATOM     19  C   UNL A   1      33.067  36.223  30.609  1.00  0.00     0.142 A 
ATOM     20  C   UNL A   1      32.871  35.531  29.322  1.00  0.00     0.091 C 
ENDBRANCH  13  14
ENDBRANCH  10  13
ENDBRANCH   8  10
ENDBRANCH   6   8
ENDBRANCH   3   6
ENDBRANCH   1   2
BRANCH   1  21
ATOM     21  C   UNL A   1      36.736  33.582  28.484  1.00  0.00     0.023 C 
BRANCH  21  22
ATOM     22  C   UNL A   1      35.343  33.142  28.037  1.00  0.00     0.023 C 
BRANCH  22  23
ATOM     23  C   UNL A   1      34.601  32.238  29.016  1.00  0.00     0.116 C 
BRANCH  23  24
ATOM     24  N   UNL A   1      34.071  31.034  28.394  1.00  0.00    -0.352 N 
ATOM     25  C   UNL A   1      34.735  29.893  28.012  1.00  0.00     0.251 C 
ATOM     26  H   UNL A   1      33.101  31.038  28.222  1.00  0.00     0.163 HD
ATOM     27  O   UNL A   1      34.153  29.015  27.384  1.00  0.00    -0.269 OA
BRANCH  25  28
ATOM     28  C   UNL A   1      36.169  29.749  28.332  1.00  0.00     0.039 A 
ATOM     29  C   UNL A   1      36.536  29.283  29.595  1.00  0.00     0.014 A 
ATOM     30  C   UNL A   1      37.142  30.021  27.365  1.00  0.00     0.014 A 
ATOM     31  C   UNL A   1      37.877  29.004  29.863  1.00  0.00     0.010 A 
ATOM     32  C   UNL A   1      38.467  29.674  27.609  1.00  0.00     0.010 A 
ATOM     33  C   UNL A   1      38.846  29.152  28.856  1.00  0.00    -0.014 A 
BRANCH  33  34
ATOM     34  C   UNL A   1      40.255  28.743  29.077  1.00  0.00     0.031 A 
ATOM     35  C   UNL A   1      41.236  29.704  29.685  1.00  0.00     0.074 A 
ATOM     36  C   UNL A   1      40.670  27.532  28.654  1.00  0.00     0.049 A 
ATOM     37  N   UNL A   1      42.521  29.560  29.882  1.00  0.00    -0.248 NA
ATOM     38  C   UNL A   1      40.707  31.013  30.101  1.00  0.00     0.031 C 
ATOM     39  C   UNL A   1      39.829  26.530  27.996  1.00  0.00     0.029 A 
ATOM     40  N   UNL A   1      41.909  26.945  28.701  1.00  0.00    -0.354 N 
ATOM     41  C   UNL A   1      42.956  30.760  30.427  1.00  0.00     0.074 A 
ATOM     42  C   UNL A   1      41.809  31.639  30.484  1.00  0.00     0.031 C 
ATOM     43  C   UNL A   1      40.570  25.444  27.722  1.00  0.00     0.029 A 
ATOM     44  C   UNL A   1      41.944  25.686  28.151  1.00  0.00     0.049 A 
ATOM     45  H   UNL A   1      42.698  27.383  29.094  1.00  0.00     0.167 HD
ATOM     46  C   UNL A   1      44.195  31.090  30.862  1.00  0.00     0.037 A 
ATOM     47  C   UNL A   1      42.970  24.827  28.003  1.00  0.00     0.037 A 
ATOM     48  C   UNL A   1      45.327  30.204  30.835  1.00  0.00     0.049 A 
ATOM     49  C   UNL A   1      44.335  25.218  28.497  1.00  0.00     0.074 A 
ATOM     50  C   UNL A   1      46.604  30.420  31.324  1.00  0.00     0.029 A 
ATOM     51  N   UNL A   1      45.319  28.930  30.287  1.00  0.00    -0.354 N 
ATOM     52  N   UNL A   1      44.715  26.329  29.079  1.00  0.00    -0.248 NA
ATOM     53  C   UNL A   1      45.413  24.235  28.312  1.00  0.00     0.031 C 
ATOM     54  C   UNL A   1      47.379  29.292  31.036  1.00  0.00     0.029 A 
ATOM     55  C   UNL A   1      46.575  28.358  30.403  1.00  0.00     0.049 A 
ATOM     56  H   UNL A   1      44.536  28.498  29.875  1.00  0.00     0.167 HD
ATOM     57  C   UNL A   1      46.068  26.171  29.350  1.00  0.00     0.074 A 
ATOM     58  C   UNL A   1      46.439  24.851  28.882  1.00  0.00     0.031 C 
ATOM     59  C   UNL A   1      46.926  27.042  29.934  1.00  0.00     0.037 A 
BRANCH  46  60
ATOM     60  C   UNL A   1      44.385  32.471  31.416  1.00  0.00     0.057 A 
ATOM     61  C   UNL A   1      44.253  32.740  32.785  1.00  0.00     0.134 A 
ATOM     62  C   UNL A   1      44.734  33.538  30.578  1.00  0.00     0.134 A 
ATOM     63  F   UNL A   1      43.908  31.765  33.639  1.00  0.00    -0.206 F 
ATOM     64  C   UNL A   1      44.435  34.026  33.297  1.00  0.00     0.040 A 
ATOM     65  C   UNL A   1      44.943  34.823  31.082  1.00  0.00     0.040 A 
ATOM     66  F   UNL A   1      44.881  33.347  29.259  1.00  0.00    -0.206 F 
ATOM     67  C   UNL A   1      44.787  35.070  32.445  1.00  0.00     0.006 A 
ENDBRANCH  46  60
BRANCH  47  68
ATOM     68  C   UNL A   1      42.743  23.500  27.378  1.00  0.00     0.057 A 
ATOM     69  C   UNL A   1      42.892  23.320  25.999  1.00  0.00     0.134 A 
ATOM     70  C   UNL A   1      42.366  22.388  28.138  1.00  0.00     0.134 A 
ATOM     71  F   UNL A   1      43.233  24.354  25.216  1.00  0.00    -0.206 F 
ATOM     72  C   UNL A   1      42.657  22.085  25.393  1.00  0.00     0.040 A 
ATOM     73  C   UNL A   1      42.149  21.140  27.550  1.00  0.00     0.040 A 
ATOM     74  F   UNL A   1      42.213  22.495  29.467  1.00  0.00    -0.206 F 
ATOM     75  C   UNL A   1      42.289  20.989  26.172  1.00  0.00     0.006 A 
ENDBRANCH  47  68
BRANCH  59  76
ATOM     76  C   UNL A   1      48.343  26.589  30.118  1.00  0.00     0.057 A 
ATOM     77  C   UNL A   1      48.742  25.865  31.247  1.00  0.00     0.134 A 
ATOM     78  C   UNL A   1      49.308  26.844  29.134  1.00  0.00     0.134 A 
ATOM     79  F   UNL A   1      47.869  25.602  32.231  1.00  0.00    -0.206 F 
ATOM     80  C   UNL A   1      50.057  25.420  31.399  1.00  0.00     0.040 A 
ATOM     81  C   UNL A   1      50.619  26.385  29.265  1.00  0.00     0.040 A 
ATOM     82  F   UNL A   1      48.987  27.527  28.026  1.00  0.00    -0.206 F 
ATOM     83  C   UNL A   1      50.998  25.675  30.402  1.00  0.00     0.006 A 
ENDBRANCH  59  76
ENDBRANCH  33  34
ENDBRANCH  25  28
ENDBRANCH  23  24
ENDBRANCH  22  23
ENDBRANCH  21  22
ENDBRANCH   1  21
TORSDOF 15
ENDMDL
MODEL 3
REMARK VINA RESULT:     -10.8      5.393     10.010
REMARK SMILES Cc1noc(C)c1C[NH2+][C@H](C)[C@H](C)C(=O)NCCCCNC(=O)c1ccc(-c2c3nc(c(-c4c(F)cccc4F)c4ccc([nH]4)c(-c4c(F)cccc4F)c4nc(c(-c5c(F)cccc5F)c5ccc2[nH]5)C=C4)C=C3)cc1
REMARK SMILES IDX 17 1 16 2 14 3 15 4 12 6 13 7 10 8 11 9 9 10 8 13 7 14 1 15
REMARK SMILES IDX 2 16 3 17 4 18 5 19 6 20 18 21 19 22 20 23 21 24 22 25 23 27
REMARK SMILES IDX 24 28 25 29 77 30 26 31 76 32 27 33 28 34 29 35 70 36 30 37
REMARK SMILES IDX 75 38 69 39 71 40 31 41 74 42 68 43 67 44 32 46 58 47 41 48
REMARK SMILES IDX 57 49 42 50 45 51 56 52 72 53 43 54 44 55 55 57 73 58 46 59
REMARK SMILES IDX 33 60 34 61 39 62 35 63 36 64 38 65 40 66 37 67 59 68 60 69
REMARK SMILES IDX 65 70 61 71 62 72 64 73 66 74 63 75 47 76 48 77 53 78 49 79
REMARK SMILES IDX 50 80 52 81 54 82 51 83
REMARK H PARENT 16 5 9 11 9 12 21 26 71 45 45 56
REMARK Flexibility Score: inf
ROOT
ATOM      1  C   UNL A   1      37.010  22.672  25.409  1.00  0.00     0.116 C 
ENDROOT
BRANCH   1   2
ATOM      2  N   UNL A   1      36.125  22.434  26.533  1.00  0.00    -0.356 N 
ATOM      3  C   UNL A   1      34.821  22.767  26.728  1.00  0.00     0.228 C 
ATOM      4  O   UNL A   1      34.297  22.426  27.792  1.00  0.00    -0.275 OA
ATOM      5  H   UNL A   1      36.540  21.949  27.283  1.00  0.00     0.163 HD
BRANCH   3   6
ATOM      6  C   UNL A   1      34.011  23.527  25.676  1.00  0.00     0.133 C 
ATOM      7  C   UNL A   1      34.867  24.691  25.153  1.00  0.00     0.024 C 
BRANCH   6   8
ATOM      8  C   UNL A   1      33.396  22.571  24.608  1.00  0.00     0.191 C 
ATOM      9  C   UNL A   1      33.913  22.919  23.195  1.00  0.00     0.076 C 
BRANCH   8  10
ATOM     10  N   UNL A   1      33.590  21.116  24.741  1.00  0.00    -0.339 N 
ATOM     11  H   UNL A   1      34.095  20.804  23.913  1.00  0.00     0.346 HD
ATOM     12  H   UNL A   1      34.075  21.010  25.632  1.00  0.00     0.346 HD
BRANCH  10  13
ATOM     13  C   UNL A   1      32.422  20.271  24.872  1.00  0.00     0.303 C 
BRANCH  13  14
ATOM     14  C   UNL A   1      32.513  19.211  23.838  1.00  0.00     0.071 A 
ATOM     15  C   UNL A   1      33.294  17.176  25.269  1.00  0.00     0.071 C 
ATOM     16  C   UNL A   1      32.907  17.856  24.011  1.00  0.00     0.090 A 
ATOM     17  N   UNL A   1      32.897  17.188  22.852  1.00  0.00    -0.085 NA
ATOM     18  O   UNL A   1      32.483  18.100  21.898  1.00  0.00    -0.361 OA
ATOM     19  C   UNL A   1      32.255  19.302  22.486  1.00  0.00     0.142 A 
ATOM     20  C   UNL A   1      31.804  20.392  21.600  1.00  0.00     0.091 C 
ENDBRANCH  13  14
ENDBRANCH  10  13
ENDBRANCH   8  10
ENDBRANCH   6   8
ENDBRANCH   3   6
ENDBRANCH   1   2
BRANCH   1  21
ATOM     21  C   UNL A   1      37.030  21.498  24.434  1.00  0.00     0.023 C 
BRANCH  21  22
ATOM     22  C   UNL A   1      37.765  20.258  24.939  1.00  0.00     0.023 C 
BRANCH  22  23
ATOM     23  C   UNL A   1      38.946  20.534  25.865  1.00  0.00     0.116 C 
BRANCH  23  24
ATOM     24  N   UNL A   1      39.971  19.503  25.805  1.00  0.00    -0.352 N 
ATOM     25  C   UNL A   1      41.315  19.603  26.076  1.00  0.00     0.251 C 
ATOM     26  H   UNL A   1      39.659  18.609  25.533  1.00  0.00     0.163 HD
ATOM     27  O   UNL A   1      42.067  18.659  25.856  1.00  0.00    -0.269 OA
BRANCH  25  28
ATOM     28  C   UNL A   1      41.855  20.873  26.601  1.00  0.00     0.039 A 
ATOM     29  C   UNL A   1      42.353  21.817  25.702  1.00  0.00     0.014 A 
ATOM     30  C   UNL A   1      41.817  21.148  27.971  1.00  0.00     0.014 A 
ATOM     31  C   UNL A   1      42.733  23.077  26.167  1.00  0.00     0.010 A 
ATOM     32  C   UNL A   1      42.127  22.427  28.423  1.00  0.00     0.010 A 
ATOM     33  C   UNL A   1      42.577  23.407  27.524  1.00  0.00    -0.014 A 
BRANCH  33  34
ATOM     34  C   UNL A   1      42.854  24.778  28.020  1.00  0.00     0.031 A 
ATOM     35  C   UNL A   1      44.248  25.171  28.418  1.00  0.00     0.074 A 
ATOM     36  C   UNL A   1      41.835  25.643  28.187  1.00  0.00     0.049 A 
ATOM     37  N   UNL A   1      44.672  26.291  28.948  1.00  0.00    -0.248 NA
ATOM     38  C   UNL A   1      45.301  24.162  28.224  1.00  0.00     0.031 C 
ATOM     39  C   UNL A   1      40.428  25.363  27.892  1.00  0.00     0.029 A 
ATOM     40  N   UNL A   1      41.823  26.930  28.662  1.00  0.00    -0.354 N 
ATOM     41  C   UNL A   1      46.032  26.115  29.163  1.00  0.00     0.074 A 
ATOM     42  C   UNL A   1      46.354  24.765  28.755  1.00  0.00     0.031 C 
ATOM     43  C   UNL A   1      39.694  26.453  28.170  1.00  0.00     0.029 A 
ATOM     44  C   UNL A   1      40.571  27.495  28.696  1.00  0.00     0.049 A 
ATOM     45  H   UNL A   1      42.636  27.406  28.949  1.00  0.00     0.167 HD
ATOM     46  C   UNL A   1      46.934  27.005  29.637  1.00  0.00     0.037 A 
ATOM     47  C   UNL A   1      40.173  28.712  29.113  1.00  0.00     0.037 A 
ATOM     48  C   UNL A   1      46.619  28.358  30.012  1.00  0.00     0.049 A 
ATOM     49  C   UNL A   1      41.196  29.683  29.632  1.00  0.00     0.074 A 
ATOM     50  C   UNL A   1      47.478  29.359  30.430  1.00  0.00     0.029 A 
ATOM     51  N   UNL A   1      45.341  28.897  30.016  1.00  0.00    -0.354 N 
ATOM     52  N   UNL A   1      42.491  29.528  29.760  1.00  0.00    -0.248 NA
ATOM     53  C   UNL A   1      40.700  30.998  30.065  1.00  0.00     0.031 C 
ATOM     54  C   UNL A   1      46.715  30.494  30.725  1.00  0.00     0.029 A 
ATOM     55  C   UNL A   1      45.386  30.211  30.452  1.00  0.00     0.049 A 
ATOM     56  H   UNL A   1      44.525  28.418  29.749  1.00  0.00     0.167 HD
ATOM     57  C   UNL A   1      42.968  30.729  30.266  1.00  0.00     0.074 A 
ATOM     58  C   UNL A   1      41.826  31.608  30.408  1.00  0.00     0.031 C 
ATOM     59  C   UNL A   1      44.239  31.073  30.586  1.00  0.00     0.037 A 
BRANCH  46  60
ATOM     60  C   UNL A   1      48.355  26.544  29.766  1.00  0.00     0.057 A 
ATOM     61  C   UNL A   1      49.297  26.768  28.752  1.00  0.00     0.134 A 
ATOM     62  C   UNL A   1      48.797  25.896  30.927  1.00  0.00     0.134 A 
ATOM     63  F   UNL A   1      48.935  27.370  27.610  1.00  0.00    -0.206 F 
ATOM     64  C   UNL A   1      50.620  26.340  28.878  1.00  0.00     0.040 A 
ATOM     65  C   UNL A   1      50.123  25.487  31.075  1.00  0.00     0.040 A 
ATOM     66  F   UNL A   1      47.947  25.656  31.937  1.00  0.00    -0.206 F 
ATOM     67  C   UNL A   1      51.037  25.703  30.045  1.00  0.00     0.006 A 
ENDBRANCH  46  60
BRANCH  47  68
ATOM     68  C   UNL A   1      38.740  29.091  29.034  1.00  0.00     0.057 A 
ATOM     69  C   UNL A   1      38.183  29.548  27.835  1.00  0.00     0.134 A 
ATOM     70  C   UNL A   1      37.900  29.016  30.150  1.00  0.00     0.134 A 
ATOM     71  F   UNL A   1      38.944  29.659  26.736  1.00  0.00    -0.206 F 
ATOM     72  C   UNL A   1      36.844  29.933  27.751  1.00  0.00     0.040 A 
ATOM     73  C   UNL A   1      36.553  29.376  30.076  1.00  0.00     0.040 A 
ATOM     74  F   UNL A   1      38.374  28.580  31.327  1.00  0.00    -0.206 F 
ATOM     75  C   UNL A   1      36.024  29.842  28.875  1.00  0.00     0.006 A 
ENDBRANCH  47  68
BRANCH  59  76
ATOM     76  C   UNL A   1      44.465  32.463  31.100  1.00  0.00     0.057 A 
ATOM     77  C   UNL A   1      44.696  33.538  30.235  1.00  0.00     0.134 A 
ATOM     78  C   UNL A   1      44.407  32.735  32.473  1.00  0.00     0.134 A 
ATOM     79  F   UNL A   1      44.778  33.340  28.910  1.00  0.00    -0.206 F 
ATOM     80  C   UNL A   1      44.877  34.836  30.718  1.00  0.00     0.040 A 
ATOM     81  C   UNL A   1      44.564  34.031  32.965  1.00  0.00     0.040 A 
ATOM     82  F   UNL A   1      44.182  31.749  33.354  1.00  0.00    -0.206 F 
ATOM     83  C   UNL A   1      44.804  35.085  32.087  1.00  0.00     0.006 A 
ENDBRANCH  59  76
ENDBRANCH  33  34
ENDBRANCH  25  28
ENDBRANCH  23  24
ENDBRANCH  22  23
ENDBRANCH  21  22
ENDBRANCH   1  21
TORSDOF 15
ENDMDL
