MODEL 1
REMARK VINA RESULT:     -10.3      0.000      0.000
REMARK SMILES CC#CC[C@H](C(=O)NCCCCNC(=O)c1ccc(-c2c3nc(c(-c4c(F)cccc4F)c4ccc([nH]4)c(-c4c(F)cccc4F)c4nc(c(-c5c(F)cccc5F)c5ccc2[nH]5)C=C4)C=C3)cc1)c1cccc(Br)c1
REMARK SMILES IDX 10 1 9 2 8 3 6 4 7 5 5 7 4 8 3 9 1 10 2 11 70 12 71 13 76 14
REMARK SMILES IDX 72 15 74 16 73 17 75 18 11 19 12 20 13 21 14 22 15 24 16 25
REMARK SMILES IDX 17 26 69 27 18 28 68 29 19 30 20 31 21 32 62 33 22 34 67 35
REMARK SMILES IDX 61 36 63 37 23 38 66 39 60 40 59 41 24 43 50 44 33 45 49 46
REMARK SMILES IDX 34 47 37 48 48 49 64 50 35 51 36 52 47 54 65 55 38 56 25 57
REMARK SMILES IDX 26 58 31 59 27 60 28 61 30 62 32 63 29 64 51 65 52 66 57 67
REMARK SMILES IDX 53 68 54 69 56 70 58 71 55 72 39 73 40 74 45 75 41 76 42 77
REMARK SMILES IDX 44 78 46 79 43 80
REMARK H PARENT 8 6 13 23 63 42 37 53
REMARK Flexibility Score: inf
ROOT
ATOM      1  C   UNL A   1      38.306  34.579  31.116  1.00  0.00     0.023 C 
ENDROOT
BRANCH   1   2
ATOM      2  C   UNL A   1      38.380  34.219  29.614  1.00  0.00     0.116 C 
BRANCH   2   3
ATOM      3  N   UNL A   1      37.116  34.483  28.926  1.00  0.00    -0.356 N 
ATOM      4  C   UNL A   1      35.870  33.973  28.829  1.00  0.00     0.228 C 
ATOM      5  O   UNL A   1      35.117  34.708  28.161  1.00  0.00    -0.274 OA
ATOM      6  H   UNL A   1      37.202  35.283  28.357  1.00  0.00     0.163 HD
BRANCH   4   7
ATOM      7  C   UNL A   1      35.256  32.674  29.410  1.00  0.00     0.120 C 
BRANCH   7   8
ATOM      8  C   UNL A   1      34.408  32.703  30.692  1.00  0.00     0.107 C 
BRANCH   8   9
ATOM      9  C   UNL A   1      34.734  33.785  31.611  1.00  0.00    -0.102 C 
ATOM     10  C   UNL A   1      34.401  36.100  33.194  1.00  0.00     0.107 C 
ATOM     11  C   UNL A   1      34.580  34.854  32.342  1.00  0.00    -0.107 C 
ENDBRANCH   8   9
ENDBRANCH   7   8
BRANCH   7  12
ATOM     12  C   UNL A   1      34.944  31.573  28.387  1.00  0.00    -0.034 A 
ATOM     13  C   UNL A   1      35.806  30.461  28.308  1.00  0.00     0.004 A 
ATOM     14  C   UNL A   1      33.755  31.528  27.639  1.00  0.00     0.020 A 
ATOM     15  C   UNL A   1      35.473  29.333  27.552  1.00  0.00     0.001 A 
ATOM     16  C   UNL A   1      33.426  30.395  26.888  1.00  0.00     0.018 A 
ATOM     17  C   UNL A   1      34.273  29.294  26.849  1.00  0.00     0.016 A 
ATOM     18  Br  UNL A   1      31.778  30.339  25.958  1.00  0.00    -0.051 Br
ENDBRANCH   7  12
ENDBRANCH   4   7
ENDBRANCH   2   3
ENDBRANCH   1   2
BRANCH   1  19
ATOM     19  C   UNL A   1      39.596  34.395  31.953  1.00  0.00     0.023 C 
BRANCH  19  20
ATOM     20  C   UNL A   1      39.501  33.652  33.290  1.00  0.00     0.116 C 
BRANCH  20  21
ATOM     21  N   UNL A   1      38.134  33.420  33.741  1.00  0.00    -0.352 N 
ATOM     22  C   UNL A   1      37.347  32.280  33.740  1.00  0.00     0.251 C 
ATOM     23  H   UNL A   1      37.690  34.216  34.112  1.00  0.00     0.163 HD
ATOM     24  O   UNL A   1      36.269  32.292  34.323  1.00  0.00    -0.269 OA
BRANCH  22  25
ATOM     25  C   UNL A   1      37.720  31.092  32.937  1.00  0.00     0.039 A 
ATOM     26  C   UNL A   1      37.486  31.183  31.559  1.00  0.00     0.014 A 
ATOM     27  C   UNL A   1      38.464  30.034  33.450  1.00  0.00     0.014 A 
ATOM     28  C   UNL A   1      38.228  30.393  30.687  1.00  0.00     0.010 A 
ATOM     29  C   UNL A   1      39.265  29.298  32.588  1.00  0.00     0.010 A 
ATOM     30  C   UNL A   1      39.229  29.567  31.213  1.00  0.00    -0.014 A 
BRANCH  30  31
ATOM     31  C   UNL A   1      40.420  29.245  30.395  1.00  0.00     0.031 A 
ATOM     32  C   UNL A   1      41.483  30.255  30.132  1.00  0.00     0.074 A 
ATOM     33  C   UNL A   1      40.433  28.048  29.770  1.00  0.00     0.049 A 
ATOM     34  N   UNL A   1      42.545  30.146  29.380  1.00  0.00    -0.248 NA
ATOM     35  C   UNL A   1      41.315  31.571  30.765  1.00  0.00     0.031 C 
ATOM     36  C   UNL A   1      39.376  27.032  29.859  1.00  0.00     0.029 A 
ATOM     37  N   UNL A   1      41.353  27.483  28.927  1.00  0.00    -0.354 N 
ATOM     38  C   UNL A   1      43.164  31.385  29.423  1.00  0.00     0.074 A 
ATOM     39  C   UNL A   1      42.345  32.239  30.260  1.00  0.00     0.031 C 
ATOM     40  C   UNL A   1      39.724  25.960  29.133  1.00  0.00     0.029 A 
ATOM     41  C   UNL A   1      41.012  26.220  28.507  1.00  0.00     0.049 A 
ATOM     42  H   UNL A   1      42.180  27.939  28.648  1.00  0.00     0.167 HD
ATOM     43  C   UNL A   1      44.313  31.767  28.821  1.00  0.00     0.037 A 
ATOM     44  C   UNL A   1      41.670  25.359  27.711  1.00  0.00     0.037 A 
ATOM     45  C   UNL A   1      45.128  30.901  28.010  1.00  0.00     0.049 A 
ATOM     46  C   UNL A   1      43.000  25.768  27.160  1.00  0.00     0.074 A 
ATOM     47  C   UNL A   1      46.343  31.171  27.406  1.00  0.00     0.029 A 
ATOM     48  N   UNL A   1      44.807  29.588  27.697  1.00  0.00    -0.354 N 
ATOM     49  N   UNL A   1      43.621  26.915  27.282  1.00  0.00    -0.248 NA
ATOM     50  C   UNL A   1      43.729  24.764  26.373  1.00  0.00     0.031 C 
ATOM     51  C   UNL A   1      46.754  30.021  26.719  1.00  0.00     0.029 A 
ATOM     52  C   UNL A   1      45.801  29.033  26.910  1.00  0.00     0.049 A 
ATOM     53  H   UNL A   1      43.992  29.120  27.990  1.00  0.00     0.167 HD
ATOM     54  C   UNL A   1      44.817  26.772  26.599  1.00  0.00     0.074 A 
ATOM     55  C   UNL A   1      44.843  25.419  26.077  1.00  0.00     0.031 C 
ATOM     56  C   UNL A   1      45.804  27.681  26.415  1.00  0.00     0.037 A 
BRANCH  43  57
ATOM     57  C   UNL A   1      44.743  33.185  29.027  1.00  0.00     0.057 A 
ATOM     58  C   UNL A   1      45.560  33.551  30.103  1.00  0.00     0.134 A 
ATOM     59  C   UNL A   1      44.325  34.195  28.153  1.00  0.00     0.134 A 
ATOM     60  F   UNL A   1      45.976  32.630  30.985  1.00  0.00    -0.206 F 
ATOM     61  C   UNL A   1      45.928  34.880  30.318  1.00  0.00     0.040 A 
ATOM     62  C   UNL A   1      44.700  35.525  28.348  1.00  0.00     0.040 A 
ATOM     63  F   UNL A   1      43.537  33.907  27.107  1.00  0.00    -0.206 F 
ATOM     64  C   UNL A   1      45.498  35.872  29.437  1.00  0.00     0.006 A 
ENDBRANCH  43  57
BRANCH  44  65
ATOM     65  C   UNL A   1      41.103  24.018  27.442  1.00  0.00     0.057 A 
ATOM     66  C   UNL A   1      40.095  23.846  26.487  1.00  0.00     0.134 A 
ATOM     67  C   UNL A   1      41.566  22.879  28.109  1.00  0.00     0.134 A 
ATOM     68  F   UNL A   1      39.609  24.904  25.822  1.00  0.00    -0.206 F 
ATOM     69  C   UNL A   1      39.554  22.589  26.215  1.00  0.00     0.040 A 
ATOM     70  C   UNL A   1      41.044  21.613  27.836  1.00  0.00     0.040 A 
ATOM     71  F   UNL A   1      42.543  22.980  29.022  1.00  0.00    -0.206 F 
ATOM     72  C   UNL A   1      40.031  21.467  26.890  1.00  0.00     0.006 A 
ENDBRANCH  44  65
BRANCH  56  73
ATOM     73  C   UNL A   1      46.993  27.225  25.631  1.00  0.00     0.057 A 
ATOM     74  C   UNL A   1      48.027  26.499  26.233  1.00  0.00     0.134 A 
ATOM     75  C   UNL A   1      47.090  27.495  24.262  1.00  0.00     0.134 A 
ATOM     76  F   UNL A   1      47.992  26.229  27.546  1.00  0.00    -0.206 F 
ATOM     77  C   UNL A   1      49.127  26.064  25.497  1.00  0.00     0.040 A 
ATOM     78  C   UNL A   1      48.179  27.053  23.514  1.00  0.00     0.040 A 
ATOM     79  F   UNL A   1      46.129  28.190  23.635  1.00  0.00    -0.206 F 
ATOM     80  C   UNL A   1      49.203  26.337  24.131  1.00  0.00     0.006 A 
ENDBRANCH  56  73
ENDBRANCH  30  31
ENDBRANCH  22  25
ENDBRANCH  20  21
ENDBRANCH  19  20
ENDBRANCH   1  19
TORSDOF 14
ENDMDL
MODEL 2
REMARK VINA RESULT:     -10.0      4.515      9.603
REMARK SMILES CC#CC[C@H](C(=O)NCCCCNC(=O)c1ccc(-c2c3nc(c(-c4c(F)cccc4F)c4ccc([nH]4)c(-c4c(F)cccc4F)c4nc(c(-c5c(F)cccc5F)c5ccc2[nH]5)C=C4)C=C3)cc1)c1cccc(Br)c1
REMARK SMILES IDX 10 1 9 2 8 3 6 4 7 5 5 7 4 8 3 9 1 10 2 11 70 12 71 13 76 14
REMARK SMILES IDX 72 15 74 16 73 17 75 18 11 19 12 20 13 21 14 22 15 24 16 25
REMARK SMILES IDX 17 26 69 27 18 28 68 29 19 30 20 31 21 32 62 33 22 34 67 35
REMARK SMILES IDX 61 36 63 37 23 38 66 39 60 40 59 41 24 43 50 44 33 45 49 46
REMARK SMILES IDX 34 47 37 48 48 49 64 50 35 51 36 52 47 54 65 55 38 56 25 57
REMARK SMILES IDX 26 58 31 59 27 60 28 61 30 62 32 63 29 64 51 65 52 66 57 67
REMARK SMILES IDX 53 68 54 69 56 70 58 71 55 72 39 73 40 74 45 75 41 76 42 77
REMARK SMILES IDX 44 78 46 79 43 80
REMARK H PARENT 8 6 13 23 63 42 37 53
REMARK Flexibility Score: inf
ROOT
ATOM      1  C   UNL A   1      33.283  28.278  27.191  1.00  0.00     0.023 C 
ENDROOT
BRANCH   1   2
ATOM      2  C   UNL A   1      31.778  28.424  27.515  1.00  0.00     0.116 C 
BRANCH   2   3
ATOM      3  N   UNL A   1      31.031  27.206  27.198  1.00  0.00    -0.356 N 
ATOM      4  C   UNL A   1      30.838  26.355  26.169  1.00  0.00     0.228 C 
ATOM      5  O   UNL A   1      30.163  25.362  26.505  1.00  0.00    -0.274 OA
ATOM      6  H   UNL A   1      30.507  26.918  27.981  1.00  0.00     0.163 HD
BRANCH   4   7
ATOM      7  C   UNL A   1      31.319  26.415  24.697  1.00  0.00     0.120 C 
BRANCH   7   8
ATOM      8  C   UNL A   1      31.300  27.737  23.911  1.00  0.00     0.107 C 
BRANCH   8   9
ATOM      9  C   UNL A   1      29.985  28.136  23.429  1.00  0.00    -0.102 C 
ATOM     10  C   UNL A   1      27.910  29.802  22.482  1.00  0.00     0.107 C 
ATOM     11  C   UNL A   1      29.027  28.905  22.992  1.00  0.00    -0.107 C 
ENDBRANCH   8   9
ENDBRANCH   7   8
BRANCH   7  12
ATOM     12  C   UNL A   1      32.383  25.381  24.304  1.00  0.00    -0.034 A 
ATOM     13  C   UNL A   1      32.327  24.809  23.016  1.00  0.00     0.004 A 
ATOM     14  C   UNL A   1      33.510  25.093  25.093  1.00  0.00     0.020 A 
ATOM     15  C   UNL A   1      33.371  24.023  22.521  1.00  0.00     0.001 A 
ATOM     16  C   UNL A   1      34.553  24.309  24.590  1.00  0.00     0.018 A 
ATOM     17  C   UNL A   1      34.494  23.782  23.305  1.00  0.00     0.016 A 
ATOM     18  Br  UNL A   1      36.091  24.009  25.653  1.00  0.00    -0.051 Br
ENDBRANCH   7  12
ENDBRANCH   4   7
ENDBRANCH   2   3
ENDBRANCH   1   2
BRANCH   1  19
ATOM     19  C   UNL A   1      34.005  29.519  26.609  1.00  0.00     0.023 C 
BRANCH  19  20
ATOM     20  C   UNL A   1      34.291  30.702  27.539  1.00  0.00     0.116 C 
BRANCH  20  21
ATOM     21  N   UNL A   1      33.286  31.757  27.482  1.00  0.00    -0.352 N 
ATOM     22  C   UNL A   1      33.314  33.076  27.903  1.00  0.00     0.251 C 
ATOM     23  H   UNL A   1      32.435  31.482  27.071  1.00  0.00     0.163 HD
ATOM     24  O   UNL A   1      32.391  33.824  27.603  1.00  0.00    -0.269 OA
BRANCH  22  25
ATOM     25  C   UNL A   1      34.369  33.565  28.822  1.00  0.00     0.039 A 
ATOM     26  C   UNL A   1      34.202  33.246  30.176  1.00  0.00     0.014 A 
ATOM     27  C   UNL A   1      35.570  34.107  28.376  1.00  0.00     0.014 A 
ATOM     28  C   UNL A   1      35.315  33.198  31.008  1.00  0.00     0.010 A 
ATOM     29  C   UNL A   1      36.697  33.987  29.177  1.00  0.00     0.010 A 
ATOM     30  C   UNL A   1      36.582  33.417  30.452  1.00  0.00    -0.014 A 
BRANCH  30  31
ATOM     31  C   UNL A   1      37.769  32.768  31.051  1.00  0.00     0.031 A 
ATOM     32  C   UNL A   1      38.395  31.564  30.433  1.00  0.00     0.074 A 
ATOM     33  C   UNL A   1      38.173  33.214  32.259  1.00  0.00     0.049 A 
ATOM     34  N   UNL A   1      39.390  30.844  30.875  1.00  0.00    -0.248 NA
ATOM     35  C   UNL A   1      37.804  31.084  29.175  1.00  0.00     0.031 C 
ATOM     36  C   UNL A   1      37.547  34.308  33.013  1.00  0.00     0.029 A 
ATOM     37  N   UNL A   1      39.192  32.801  33.076  1.00  0.00    -0.354 N 
ATOM     38  C   UNL A   1      39.534  29.807  29.968  1.00  0.00     0.074 A 
ATOM     39  C   UNL A   1      38.508  29.981  28.959  1.00  0.00     0.031 C 
ATOM     40  C   UNL A   1      38.215  34.502  34.159  1.00  0.00     0.029 A 
ATOM     41  C   UNL A   1      39.299  33.533  34.235  1.00  0.00     0.049 A 
ATOM     42  H   UNL A   1      39.791  32.052  32.854  1.00  0.00     0.167 HD
ATOM     43  C   UNL A   1      40.445  28.807  29.978  1.00  0.00     0.037 A 
ATOM     44  C   UNL A   1      40.178  33.438  35.247  1.00  0.00     0.037 A 
ATOM     45  C   UNL A   1      41.473  28.660  30.974  1.00  0.00     0.049 A 
ATOM     46  C   UNL A   1      41.252  32.398  35.167  1.00  0.00     0.074 A 
ATOM     47  C   UNL A   1      42.485  27.720  31.042  1.00  0.00     0.029 A 
ATOM     48  N   UNL A   1      41.621  29.488  32.078  1.00  0.00    -0.354 N 
ATOM     49  N   UNL A   1      41.434  31.476  34.255  1.00  0.00    -0.248 NA
ATOM     50  C   UNL A   1      42.249  32.390  36.246  1.00  0.00     0.031 C 
ATOM     51  C   UNL A   1      43.242  27.975  32.194  1.00  0.00     0.029 A 
ATOM     52  C   UNL A   1      42.708  29.083  32.832  1.00  0.00     0.049 A 
ATOM     53  H   UNL A   1      41.037  30.252  32.294  1.00  0.00     0.167 HD
ATOM     54  C   UNL A   1      42.570  30.784  34.639  1.00  0.00     0.074 A 
ATOM     55  C   UNL A   1      43.046  31.403  35.860  1.00  0.00     0.031 C 
ATOM     56  C   UNL A   1      43.164  29.725  34.037  1.00  0.00     0.037 A 
BRANCH  43  57
ATOM     57  C   UNL A   1      40.358  27.804  28.872  1.00  0.00     0.057 A 
ATOM     58  C   UNL A   1      41.044  27.985  27.665  1.00  0.00     0.134 A 
ATOM     59  C   UNL A   1      39.569  26.655  29.007  1.00  0.00     0.134 A 
ATOM     60  F   UNL A   1      41.798  29.077  27.470  1.00  0.00    -0.206 F 
ATOM     61  C   UNL A   1      40.930  27.069  26.619  1.00  0.00     0.040 A 
ATOM     62  C   UNL A   1      39.461  25.723  27.974  1.00  0.00     0.040 A 
ATOM     63  F   UNL A   1      38.884  26.428  30.138  1.00  0.00    -0.206 F 
ATOM     64  C   UNL A   1      40.137  25.932  26.773  1.00  0.00     0.006 A 
ENDBRANCH  43  57
BRANCH  44  65
ATOM     65  C   UNL A   1      40.108  34.389  36.381  1.00  0.00     0.057 A 
ATOM     66  C   UNL A   1      40.756  35.627  36.316  1.00  0.00     0.134 A 
ATOM     67  C   UNL A   1      39.379  34.097  37.538  1.00  0.00     0.134 A 
ATOM     68  F   UNL A   1      41.475  35.957  35.233  1.00  0.00    -0.206 F 
ATOM     69  C   UNL A   1      40.696  36.538  37.370  1.00  0.00     0.040 A 
ATOM     70  C   UNL A   1      39.298  35.006  38.595  1.00  0.00     0.040 A 
ATOM     71  F   UNL A   1      38.723  32.933  37.649  1.00  0.00    -0.206 F 
ATOM     72  C   UNL A   1      39.962  36.229  38.514  1.00  0.00     0.006 A 
ENDBRANCH  44  65
BRANCH  56  73
ATOM     73  C   UNL A   1      44.398  29.193  34.691  1.00  0.00     0.057 A 
ATOM     74  C   UNL A   1      44.336  28.157  35.630  1.00  0.00     0.134 A 
ATOM     75  C   UNL A   1      45.657  29.705  34.359  1.00  0.00     0.134 A 
ATOM     76  F   UNL A   1      43.153  27.643  35.996  1.00  0.00    -0.206 F 
ATOM     77  C   UNL A   1      45.490  27.653  36.227  1.00  0.00     0.040 A 
ATOM     78  C   UNL A   1      46.819  29.199  34.940  1.00  0.00     0.040 A 
ATOM     79  F   UNL A   1      45.774  30.701  33.468  1.00  0.00    -0.206 F 
ATOM     80  C   UNL A   1      46.737  28.172  35.878  1.00  0.00     0.006 A 
ENDBRANCH  56  73
ENDBRANCH  30  31
ENDBRANCH  22  25
ENDBRANCH  20  21
ENDBRANCH  19  20
ENDBRANCH   1  19
TORSDOF 14
ENDMDL
MODEL 3
REMARK VINA RESULT:     -10.0      3.786      8.835
REMARK SMILES CC#CC[C@H](C(=O)NCCCCNC(=O)c1ccc(-c2c3nc(c(-c4c(F)cccc4F)c4ccc([nH]4)c(-c4c(F)cccc4F)c4nc(c(-c5c(F)cccc5F)c5ccc2[nH]5)C=C4)C=C3)cc1)c1cccc(Br)c1
REMARK SMILES IDX 10 1 9 2 8 3 6 4 7 5 5 7 4 8 3 9 1 10 2 11 70 12 71 13 76 14
REMARK SMILES IDX 72 15 74 16 73 17 75 18 11 19 12 20 13 21 14 22 15 24 16 25
REMARK SMILES IDX 17 26 69 27 18 28 68 29 19 30 20 31 21 32 62 33 22 34 67 35
REMARK SMILES IDX 61 36 63 37 23 38 66 39 60 40 59 41 24 43 50 44 33 45 49 46
REMARK SMILES IDX 34 47 37 48 48 49 64 50 35 51 36 52 47 54 65 55 38 56 25 57
REMARK SMILES IDX 26 58 31 59 27 60 28 61 30 62 32 63 29 64 51 65 52 66 57 67
REMARK SMILES IDX 53 68 54 69 56 70 58 71 55 72 39 73 40 74 45 75 41 76 42 77
REMARK SMILES IDX 44 78 46 79 43 80
REMARK H PARENT 8 6 13 23 63 42 37 53
REMARK Flexibility Score: inf
ROOT
ATOM      1  C   UNL A   1      35.956  23.660  26.038  1.00  0.00     0.023 C 
ENDROOT
BRANCH   1   2
ATOM      2  C   UNL A   1      34.678  22.919  25.581  1.00  0.00     0.116 C 
BRANCH   2   3
ATOM      3  N   UNL A   1      33.575  23.101  26.526  1.00  0.00    -0.356 N 
ATOM      4  C   UNL A   1      32.413  23.779  26.634  1.00  0.00     0.228 C 
ATOM      5  O   UNL A   1      31.775  23.449  27.654  1.00  0.00    -0.274 OA
ATOM      6  H   UNL A   1      33.730  22.560  27.334  1.00  0.00     0.163 HD
BRANCH   4   7
ATOM      7  C   UNL A   1      31.772  24.850  25.715  1.00  0.00     0.120 C 
BRANCH   7   8
ATOM      8  C   UNL A   1      30.251  25.081  25.709  1.00  0.00     0.107 C 
BRANCH   8   9
ATOM      9  C   UNL A   1      29.771  25.926  24.625  1.00  0.00    -0.102 C 
ATOM     10  C   UNL A   1      29.344  28.245  23.070  1.00  0.00     0.107 C 
ATOM     11  C   UNL A   1      29.574  26.997  23.907  1.00  0.00    -0.107 C 
ENDBRANCH   8   9
ENDBRANCH   7   8
BRANCH   7  12
ATOM     12  C   UNL A   1      32.665  26.050  25.373  1.00  0.00    -0.034 A 
ATOM     13  C   UNL A   1      33.166  26.166  24.060  1.00  0.00     0.004 A 
ATOM     14  C   UNL A   1      32.877  27.130  26.247  1.00  0.00     0.020 A 
ATOM     15  C   UNL A   1      33.809  27.329  23.626  1.00  0.00     0.001 A 
ATOM     16  C   UNL A   1      33.517  28.292  25.805  1.00  0.00     0.018 A 
ATOM     17  C   UNL A   1      33.974  28.401  24.497  1.00  0.00     0.016 A 
ATOM     18  Br  UNL A   1      33.714  29.757  26.988  1.00  0.00    -0.051 Br
ENDBRANCH   7  12
ENDBRANCH   4   7
ENDBRANCH   2   3
ENDBRANCH   1   2
BRANCH   1  19
ATOM     19  C   UNL A   1      37.274  23.319  25.299  1.00  0.00     0.023 C 
BRANCH  19  20
ATOM     20  C   UNL A   1      38.411  22.669  26.095  1.00  0.00     0.116 C 
BRANCH  20  21
ATOM     21  N   UNL A   1      38.703  21.297  25.697  1.00  0.00    -0.352 N 
ATOM     22  C   UNL A   1      39.778  20.468  25.975  1.00  0.00     0.251 C 
ATOM     23  H   UNL A   1      38.013  20.885  25.127  1.00  0.00     0.163 HD
ATOM     24  O   UNL A   1      39.726  19.287  25.653  1.00  0.00    -0.269 OA
BRANCH  22  25
ATOM     25  C   UNL A   1      41.040  21.011  26.529  1.00  0.00     0.039 A 
ATOM     26  C   UNL A   1      41.925  21.579  25.603  1.00  0.00     0.014 A 
ATOM     27  C   UNL A   1      41.261  21.169  27.893  1.00  0.00     0.014 A 
ATOM     28  C   UNL A   1      42.845  22.530  26.033  1.00  0.00     0.010 A 
ATOM     29  C   UNL A   1      42.120  22.171  28.321  1.00  0.00     0.010 A 
ATOM     30  C   UNL A   1      42.820  22.932  27.375  1.00  0.00    -0.014 A 
BRANCH  30  31
ATOM     31  C   UNL A   1      43.248  24.301  27.738  1.00  0.00     0.031 A 
ATOM     32  C   UNL A   1      42.260  25.357  28.098  1.00  0.00     0.074 A 
ATOM     33  C   UNL A   1      44.556  24.600  27.586  1.00  0.00     0.049 A 
ATOM     34  N   UNL A   1      42.474  26.617  28.369  1.00  0.00    -0.248 NA
ATOM     35  C   UNL A   1      40.845  24.959  28.121  1.00  0.00     0.031 C 
ATOM     36  C   UNL A   1      45.590  23.670  27.115  1.00  0.00     0.029 A 
ATOM     37  N   UNL A   1      45.242  25.768  27.794  1.00  0.00    -0.354 N 
ATOM     38  C   UNL A   1      41.222  27.175  28.570  1.00  0.00     0.074 A 
ATOM     39  C   UNL A   1      40.250  26.119  28.368  1.00  0.00     0.031 C 
ATOM     40  C   UNL A   1      46.779  24.290  27.105  1.00  0.00     0.029 A 
ATOM     41  C   UNL A   1      46.590  25.666  27.543  1.00  0.00     0.049 A 
ATOM     42  H   UNL A   1      44.811  26.600  28.095  1.00  0.00     0.167 HD
ATOM     43  C   UNL A   1      40.918  28.451  28.898  1.00  0.00     0.037 A 
ATOM     44  C   UNL A   1      47.569  26.579  27.659  1.00  0.00     0.037 A 
ATOM     45  C   UNL A   1      41.895  29.484  29.118  1.00  0.00     0.049 A 
ATOM     46  C   UNL A   1      47.215  27.950  28.145  1.00  0.00     0.074 A 
ATOM     47  C   UNL A   1      41.696  30.794  29.516  1.00  0.00     0.029 A 
ATOM     48  N   UNL A   1      43.263  29.316  28.963  1.00  0.00    -0.354 N 
ATOM     49  N   UNL A   1      46.032  28.442  28.419  1.00  0.00    -0.248 NA
ATOM     50  C   UNL A   1      48.326  28.889  28.349  1.00  0.00     0.031 C 
ATOM     51  C   UNL A   1      42.947  31.422  29.593  1.00  0.00     0.029 A 
ATOM     52  C   UNL A   1      43.922  30.496  29.259  1.00  0.00     0.049 A 
ATOM     53  H   UNL A   1      43.702  28.480  28.683  1.00  0.00     0.167 HD
ATOM     54  C   UNL A   1      46.254  29.743  28.840  1.00  0.00     0.074 A 
ATOM     55  C   UNL A   1      47.687  29.959  28.799  1.00  0.00     0.031 C 
ATOM     56  C   UNL A   1      45.350  30.678  29.220  1.00  0.00     0.037 A 
BRANCH  43  57
ATOM     57  C   UNL A   1      39.466  28.785  29.036  1.00  0.00     0.057 A 
ATOM     58  C   UNL A   1      38.725  29.283  27.958  1.00  0.00     0.134 A 
ATOM     59  C   UNL A   1      38.807  28.623  30.260  1.00  0.00     0.134 A 
ATOM     60  F   UNL A   1      39.307  29.479  26.765  1.00  0.00    -0.206 F 
ATOM     61  C   UNL A   1      37.381  29.632  28.098  1.00  0.00     0.040 A 
ATOM     62  C   UNL A   1      37.459  28.953  30.408  1.00  0.00     0.040 A 
ATOM     63  F   UNL A   1      39.465  28.154  31.331  1.00  0.00    -0.206 F 
ATOM     64  C   UNL A   1      36.744  29.466  29.327  1.00  0.00     0.006 A 
ENDBRANCH  43  57
BRANCH  44  65
ATOM     65  C   UNL A   1      48.971  26.203  27.366  1.00  0.00     0.057 A 
ATOM     66  C   UNL A   1      49.479  26.298  26.066  1.00  0.00     0.134 A 
ATOM     67  C   UNL A   1      49.839  25.767  28.372  1.00  0.00     0.134 A 
ATOM     68  F   UNL A   1      48.690  26.705  25.061  1.00  0.00    -0.206 F 
ATOM     69  C   UNL A   1      50.799  25.956  25.772  1.00  0.00     0.040 A 
ATOM     70  C   UNL A   1      51.166  25.434  28.095  1.00  0.00     0.040 A 
ATOM     71  F   UNL A   1      49.412  25.673  29.641  1.00  0.00    -0.206 F 
ATOM     72  C   UNL A   1      51.648  25.524  26.789  1.00  0.00     0.006 A 
ENDBRANCH  44  65
BRANCH  56  73
ATOM     73  C   UNL A   1      45.898  32.005  29.634  1.00  0.00     0.057 A 
ATOM     74  C   UNL A   1      46.073  33.042  28.711  1.00  0.00     0.134 A 
ATOM     75  C   UNL A   1      46.230  32.253  30.971  1.00  0.00     0.134 A 
ATOM     76  F   UNL A   1      45.787  32.852  27.414  1.00  0.00    -0.206 F 
ATOM     77  C   UNL A   1      46.571  34.283  29.103  1.00  0.00     0.040 A 
ATOM     78  C   UNL A   1      46.716  33.495  31.376  1.00  0.00     0.040 A 
ATOM     79  F   UNL A   1      46.086  31.294  31.897  1.00  0.00    -0.206 F 
ATOM     80  C   UNL A   1      46.890  34.513  30.441  1.00  0.00     0.006 A 
ENDBRANCH  56  73
ENDBRANCH  30  31
ENDBRANCH  22  25
ENDBRANCH  20  21
ENDBRANCH  19  20
ENDBRANCH   1  19
TORSDOF 14
ENDMDL
