MODEL 1
REMARK VINA RESULT:     -11.0      0.000      0.000
REMARK SMILES Cc1cc(C)c2c(OCCCC(=O)NCCCCNC(=O)c3ccc(-c4c5nc(c(-c6c(F)cccc6F)c6ccc([nH]6)c(-c6c(F)cccc6F)c6nc(c(-c7c(F)cccc7F)c7ccc4[nH]7)C=C6)C=C5)cc3)nsc2n1
REMARK SMILES IDX 15 1 14 2 12 3 13 4 11 6 10 7 9 8 8 9 7 10 1 11 2 12 3 13
REMARK SMILES IDX 79 14 4 15 78 16 5 17 6 18 77 19 76 20 16 21 17 22 18 23
REMARK SMILES IDX 19 24 20 25 21 27 22 28 23 29 75 30 24 31 74 32 25 33 26 34
REMARK SMILES IDX 27 35 68 36 28 37 73 38 67 39 69 40 29 41 72 42 66 43 65 44
REMARK SMILES IDX 30 46 56 47 39 48 55 49 40 50 43 51 54 52 70 53 41 54 42 55
REMARK SMILES IDX 53 57 71 58 44 59 31 60 32 61 37 62 33 63 34 64 36 65 38 66
REMARK SMILES IDX 35 67 57 68 58 69 63 70 59 71 60 72 62 73 64 74 61 75 45 76
REMARK SMILES IDX 46 77 51 78 47 79 48 80 50 81 52 82 49 83
REMARK H PARENT 14 5 19 26 69 45 43 56
REMARK Flexibility Score: inf
ROOT
ATOM      1  C   UNL A   1      31.823  28.704  27.511  1.00  0.00     0.116 C 
ENDROOT
BRANCH   1   2
ATOM      2  N   UNL A   1      31.672  27.218  27.179  1.00  0.00    -0.356 N 
ATOM      3  C   UNL A   1      31.978  26.092  26.475  1.00  0.00     0.220 C 
ATOM      4  O   UNL A   1      31.296  25.150  26.944  1.00  0.00    -0.275 OA
ATOM      5  H   UNL A   1      30.986  26.911  27.815  1.00  0.00     0.163 HD
BRANCH   3   6
ATOM      6  C   UNL A   1      33.076  25.619  25.374  1.00  0.00     0.103 C 
BRANCH   6   7
ATOM      7  C   UNL A   1      33.659  26.157  23.982  1.00  0.00     0.051 C 
BRANCH   7   8
ATOM      8  C   UNL A   1      33.541  25.647  22.482  1.00  0.00     0.232 C 
BRANCH   8   9
ATOM      9  O   UNL A   1      34.030  24.388  21.995  1.00  0.00    -0.477 OA
BRANCH   9  10
ATOM     10  C   UNL A   1      33.740  23.193  22.573  1.00  0.00     0.235 A 
ATOM     11  C   UNL A   1      33.980  22.075  27.897  1.00  0.00     0.067 C 
ATOM     12  C   UNL A   1      34.165  22.023  26.403  1.00  0.00     0.039 A 
ATOM     13  C   UNL A   1      35.332  22.536  25.843  1.00  0.00     0.027 A 
ATOM     14  N   UNL A   1      33.159  21.513  25.660  1.00  0.00    -0.240 NA
ATOM     15  C   UNL A   1      35.424  22.731  24.453  1.00  0.00    -0.034 A 
ATOM     16  C   UNL A   1      33.239  21.861  24.359  1.00  0.00     0.147 A 
ATOM     17  C   UNL A   1      36.621  23.057  23.653  1.00  0.00     0.045 C 
ATOM     18  C   UNL A   1      34.234  22.615  23.765  1.00  0.00     0.078 A 
ATOM     19  S   UNL A   1      32.151  21.423  23.125  1.00  0.00    -0.012 S 
ATOM     20  N   UNL A   1      32.714  22.548  22.015  1.00  0.00    -0.153 NA
ENDBRANCH   9  10
ENDBRANCH   8   9
ENDBRANCH   7   8
ENDBRANCH   6   7
ENDBRANCH   3   6
ENDBRANCH   1   2
BRANCH   1  21
ATOM     21  C   UNL A   1      32.524  29.540  26.387  1.00  0.00     0.023 C 
BRANCH  21  22
ATOM     22  C   UNL A   1      34.008  29.234  26.118  1.00  0.00     0.023 C 
BRANCH  22  23
ATOM     23  C   UNL A   1      34.842  28.886  27.355  1.00  0.00     0.116 C 
BRANCH  23  24
ATOM     24  N   UNL A   1      34.974  29.979  28.322  1.00  0.00    -0.352 N 
ATOM     25  C   UNL A   1      36.052  30.206  29.183  1.00  0.00     0.251 C 
ATOM     26  H   UNL A   1      34.228  30.619  28.371  1.00  0.00     0.163 HD
ATOM     27  O   UNL A   1      35.999  30.951  30.118  1.00  0.00    -0.269 OA
BRANCH  25  28
ATOM     28  C   UNL A   1      37.299  29.482  28.856  1.00  0.00     0.039 A 
ATOM     29  C   UNL A   1      38.040  29.790  27.712  1.00  0.00     0.014 A 
ATOM     30  C   UNL A   1      37.763  28.579  29.811  1.00  0.00     0.014 A 
ATOM     31  C   UNL A   1      39.317  29.251  27.583  1.00  0.00     0.010 A 
ATOM     32  C   UNL A   1      39.055  28.129  29.730  1.00  0.00     0.010 A 
ATOM     33  C   UNL A   1      39.826  28.443  28.610  1.00  0.00    -0.014 A 
BRANCH  33  34
ATOM     34  C   UNL A   1      41.222  28.019  28.593  1.00  0.00     0.031 A 
ATOM     35  C   UNL A   1      41.510  26.766  27.828  1.00  0.00     0.074 A 
ATOM     36  C   UNL A   1      42.208  28.842  29.005  1.00  0.00     0.049 A 
ATOM     37  N   UNL A   1      42.047  25.671  28.256  1.00  0.00    -0.248 NA
ATOM     38  C   UNL A   1      41.056  26.689  26.427  1.00  0.00     0.031 C 
ATOM     39  C   UNL A   1      42.099  30.230  29.470  1.00  0.00     0.029 A 
ATOM     40  N   UNL A   1      43.551  28.639  28.986  1.00  0.00    -0.354 N 
ATOM     41  C   UNL A   1      42.169  24.830  27.147  1.00  0.00     0.074 A 
ATOM     42  C   UNL A   1      41.407  25.445  26.092  1.00  0.00     0.031 C 
ATOM     43  C   UNL A   1      43.319  30.807  29.461  1.00  0.00     0.029 A 
ATOM     44  C   UNL A   1      44.307  29.791  29.155  1.00  0.00     0.049 A 
ATOM     45  H   UNL A   1      43.954  27.750  28.864  1.00  0.00     0.167 HD
ATOM     46  C   UNL A   1      43.055  23.795  27.124  1.00  0.00     0.037 A 
ATOM     47  C   UNL A   1      45.649  29.904  29.005  1.00  0.00     0.037 A 
ATOM     48  C   UNL A   1      43.494  23.458  28.452  1.00  0.00     0.049 A 
ATOM     49  C   UNL A   1      46.215  28.535  29.113  1.00  0.00     0.074 A 
ATOM     50  C   UNL A   1      42.857  23.022  29.597  1.00  0.00     0.029 A 
ATOM     51  N   UNL A   1      44.721  23.918  28.864  1.00  0.00    -0.354 N 
ATOM     52  N   UNL A   1      46.180  27.821  30.207  1.00  0.00    -0.248 NA
ATOM     53  C   UNL A   1      46.383  27.779  27.881  1.00  0.00     0.031 C 
ATOM     54  C   UNL A   1      43.505  23.716  30.660  1.00  0.00     0.029 A 
ATOM     55  C   UNL A   1      44.542  24.471  30.107  1.00  0.00     0.049 A 
ATOM     56  H   UNL A   1      45.566  23.864  28.364  1.00  0.00     0.167 HD
ATOM     57  C   UNL A   1      45.901  26.530  29.782  1.00  0.00     0.074 A 
ATOM     58  C   UNL A   1      46.110  26.553  28.334  1.00  0.00     0.031 C 
ATOM     59  C   UNL A   1      45.250  25.638  30.586  1.00  0.00     0.037 A 
BRANCH  46  60
ATOM     60  C   UNL A   1      43.778  23.297  25.894  1.00  0.00     0.057 A 
ATOM     61  C   UNL A   1      43.708  21.932  25.551  1.00  0.00     0.134 A 
ATOM     62  C   UNL A   1      44.758  24.033  25.199  1.00  0.00     0.134 A 
ATOM     63  F   UNL A   1      42.830  21.114  26.151  1.00  0.00    -0.206 F 
ATOM     64  C   UNL A   1      44.590  21.337  24.640  1.00  0.00     0.040 A 
ATOM     65  C   UNL A   1      45.610  23.459  24.251  1.00  0.00     0.040 A 
ATOM     66  F   UNL A   1      45.015  25.318  25.469  1.00  0.00    -0.206 F 
ATOM     67  C   UNL A   1      45.551  22.099  23.990  1.00  0.00     0.006 A 
ENDBRANCH  46  60
BRANCH  47  68
ATOM     68  C   UNL A   1      46.393  31.057  28.447  1.00  0.00     0.057 A 
ATOM     69  C   UNL A   1      47.503  31.600  29.105  1.00  0.00     0.134 A 
ATOM     70  C   UNL A   1      46.183  31.501  27.127  1.00  0.00     0.134 A 
ATOM     71  F   UNL A   1      47.818  31.203  30.347  1.00  0.00    -0.206 F 
ATOM     72  C   UNL A   1      48.360  32.522  28.486  1.00  0.00     0.040 A 
ATOM     73  C   UNL A   1      47.023  32.427  26.501  1.00  0.00     0.040 A 
ATOM     74  F   UNL A   1      45.207  30.985  26.368  1.00  0.00    -0.206 F 
ATOM     75  C   UNL A   1      48.124  32.935  27.177  1.00  0.00     0.006 A 
ENDBRANCH  47  68
BRANCH  59  76
ATOM     76  C   UNL A   1      44.999  26.007  32.026  1.00  0.00     0.057 A 
ATOM     77  C   UNL A   1      43.826  26.633  32.476  1.00  0.00     0.134 A 
ATOM     78  C   UNL A   1      45.853  25.495  33.009  1.00  0.00     0.134 A 
ATOM     79  F   UNL A   1      42.902  27.072  31.617  1.00  0.00    -0.206 F 
ATOM     80  C   UNL A   1      43.523  26.753  33.835  1.00  0.00     0.040 A 
ATOM     81  C   UNL A   1      45.546  25.580  34.371  1.00  0.00     0.040 A 
ATOM     82  F   UNL A   1      46.966  24.832  32.658  1.00  0.00    -0.206 F 
ATOM     83  C   UNL A   1      44.377  26.210  34.788  1.00  0.00     0.006 A 
ENDBRANCH  59  76
ENDBRANCH  33  34
ENDBRANCH  25  28
ENDBRANCH  23  24
ENDBRANCH  22  23
ENDBRANCH  21  22
ENDBRANCH   1  21
TORSDOF 15
ENDMDL
MODEL 2
REMARK VINA RESULT:     -11.0      2.622      7.237
REMARK SMILES Cc1cc(C)c2c(OCCCC(=O)NCCCCNC(=O)c3ccc(-c4c5nc(c(-c6c(F)cccc6F)c6ccc([nH]6)c(-c6c(F)cccc6F)c6nc(c(-c7c(F)cccc7F)c7ccc4[nH]7)C=C6)C=C5)cc3)nsc2n1
REMARK SMILES IDX 15 1 14 2 12 3 13 4 11 6 10 7 9 8 8 9 7 10 1 11 2 12 3 13
REMARK SMILES IDX 79 14 4 15 78 16 5 17 6 18 77 19 76 20 16 21 17 22 18 23
REMARK SMILES IDX 19 24 20 25 21 27 22 28 23 29 75 30 24 31 74 32 25 33 26 34
REMARK SMILES IDX 27 35 68 36 28 37 73 38 67 39 69 40 29 41 72 42 66 43 65 44
REMARK SMILES IDX 30 46 56 47 39 48 55 49 40 50 43 51 54 52 70 53 41 54 42 55
REMARK SMILES IDX 53 57 71 58 44 59 31 60 32 61 37 62 33 63 34 64 36 65 38 66
REMARK SMILES IDX 35 67 57 68 58 69 63 70 59 71 60 72 62 73 64 74 61 75 45 76
REMARK SMILES IDX 46 77 51 78 47 79 48 80 50 81 52 82 49 83
REMARK H PARENT 14 5 19 26 69 45 43 56
REMARK Flexibility Score: inf
ROOT
ATOM      1  C   UNL A   1      40.124  21.964  26.790  1.00  0.00     0.116 C 
ENDROOT
BRANCH   1   2
ATOM      2  N   UNL A   1      38.902  21.786  25.886  1.00  0.00    -0.356 N 
ATOM      3  C   UNL A   1      37.729  22.202  25.331  1.00  0.00     0.220 C 
ATOM      4  O   UNL A   1      37.335  21.304  24.550  1.00  0.00    -0.275 OA
ATOM      5  H   UNL A   1      39.034  20.891  25.497  1.00  0.00     0.163 HD
BRANCH   3   6
ATOM      6  C   UNL A   1      36.843  23.563  25.262  1.00  0.00     0.103 C 
BRANCH   6   7
ATOM      7  C   UNL A   1      35.323  23.997  25.523  1.00  0.00     0.051 C 
BRANCH   7   8
ATOM      8  C   UNL A   1      34.492  25.307  25.183  1.00  0.00     0.232 C 
BRANCH   8   9
ATOM      9  O   UNL A   1      33.108  25.517  25.504  1.00  0.00    -0.477 OA
BRANCH   9  10
ATOM     10  C   UNL A   1      32.193  24.516  25.580  1.00  0.00     0.235 A 
ATOM     11  C   UNL A   1      32.962  19.356  24.019  1.00  0.00     0.067 C 
ATOM     12  C   UNL A   1      32.395  20.741  24.191  1.00  0.00     0.039 A 
ATOM     13  C   UNL A   1      32.652  21.707  23.222  1.00  0.00     0.027 A 
ATOM     14  N   UNL A   1      31.691  20.999  25.314  1.00  0.00    -0.240 NA
ATOM     15  C   UNL A   1      32.356  23.059  23.474  1.00  0.00    -0.034 A 
ATOM     16  C   UNL A   1      31.569  22.319  25.566  1.00  0.00     0.147 A 
ATOM     17  C   UNL A   1      32.352  24.187  22.522  1.00  0.00     0.045 C 
ATOM     18  C   UNL A   1      32.045  23.356  24.785  1.00  0.00     0.078 A 
ATOM     19  S   UNL A   1      30.766  23.028  26.889  1.00  0.00    -0.012 S 
ATOM     20  N   UNL A   1      31.426  24.555  26.671  1.00  0.00    -0.153 NA
ENDBRANCH   9  10
ENDBRANCH   8   9
ENDBRANCH   7   8
ENDBRANCH   6   7
ENDBRANCH   3   6
ENDBRANCH   1   2
BRANCH   1  21
ATOM     21  C   UNL A   1      40.797  20.619  27.225  1.00  0.00     0.023 C 
BRANCH  21  22
ATOM     22  C   UNL A   1      41.510  19.813  26.125  1.00  0.00     0.023 C 
BRANCH  22  23
ATOM     23  C   UNL A   1      42.957  19.414  26.435  1.00  0.00     0.116 C 
BRANCH  23  24
ATOM     24  N   UNL A   1      43.759  19.085  25.254  1.00  0.00    -0.352 N 
ATOM     25  C   UNL A   1      44.352  19.992  24.370  1.00  0.00     0.251 C 
ATOM     26  H   UNL A   1      43.895  18.129  25.064  1.00  0.00     0.163 HD
ATOM     27  O   UNL A   1      44.774  19.677  23.294  1.00  0.00    -0.269 OA
BRANCH  25  28
ATOM     28  C   UNL A   1      44.459  21.385  24.852  1.00  0.00     0.039 A 
ATOM     29  C   UNL A   1      43.533  22.359  24.470  1.00  0.00     0.014 A 
ATOM     30  C   UNL A   1      45.445  21.639  25.804  1.00  0.00     0.014 A 
ATOM     31  C   UNL A   1      43.541  23.581  25.139  1.00  0.00     0.010 A 
ATOM     32  C   UNL A   1      45.388  22.804  26.526  1.00  0.00     0.010 A 
ATOM     33  C   UNL A   1      44.456  23.784  26.183  1.00  0.00    -0.014 A 
BRANCH  33  34
ATOM     34  C   UNL A   1      44.366  24.974  27.021  1.00  0.00     0.031 A 
ATOM     35  C   UNL A   1      45.439  25.995  26.815  1.00  0.00     0.074 A 
ATOM     36  C   UNL A   1      43.251  25.248  27.730  1.00  0.00     0.049 A 
ATOM     37  N   UNL A   1      46.278  26.463  27.680  1.00  0.00    -0.248 NA
ATOM     38  C   UNL A   1      45.669  26.493  25.446  1.00  0.00     0.031 C 
ATOM     39  C   UNL A   1      41.988  24.500  27.764  1.00  0.00     0.029 A 
ATOM     40  N   UNL A   1      42.973  26.336  28.493  1.00  0.00    -0.354 N 
ATOM     41  C   UNL A   1      47.023  27.443  27.020  1.00  0.00     0.074 A 
ATOM     42  C   UNL A   1      46.711  27.308  25.621  1.00  0.00     0.031 C 
ATOM     43  C   UNL A   1      41.022  25.268  28.309  1.00  0.00     0.029 A 
ATOM     44  C   UNL A   1      41.629  26.485  28.810  1.00  0.00     0.049 A 
ATOM     45  H   UNL A   1      43.665  26.966  28.797  1.00  0.00     0.167 HD
ATOM     46  C   UNL A   1      47.684  28.423  27.699  1.00  0.00     0.037 A 
ATOM     47  C   UNL A   1      41.055  27.561  29.403  1.00  0.00     0.037 A 
ATOM     48  C   UNL A   1      47.847  28.073  29.085  1.00  0.00     0.049 A 
ATOM     49  C   UNL A   1      42.141  28.315  30.081  1.00  0.00     0.074 A 
ATOM     50  C   UNL A   1      48.480  27.042  29.752  1.00  0.00     0.029 A 
ATOM     51  N   UNL A   1      46.988  28.633  29.998  1.00  0.00    -0.354 N 
ATOM     52  N   UNL A   1      42.823  27.849  31.093  1.00  0.00    -0.248 NA
ATOM     53  C   UNL A   1      42.790  29.378  29.328  1.00  0.00     0.031 C 
ATOM     54  C   UNL A   1      47.603  26.715  30.827  1.00  0.00     0.029 A 
ATOM     55  C   UNL A   1      46.534  27.613  30.795  1.00  0.00     0.049 A 
ATOM     56  H   UNL A   1      46.744  29.584  30.068  1.00  0.00     0.167 HD
ATOM     57  C   UNL A   1      44.130  28.252  30.859  1.00  0.00     0.074 A 
ATOM     58  C   UNL A   1      44.035  29.252  29.795  1.00  0.00     0.031 C 
ATOM     59  C   UNL A   1      45.194  27.539  31.334  1.00  0.00     0.037 A 
BRANCH  46  60
ATOM     60  C   UNL A   1      47.898  29.833  27.201  1.00  0.00     0.057 A 
ATOM     61  C   UNL A   1      49.194  30.384  27.206  1.00  0.00     0.134 A 
ATOM     62  C   UNL A   1      46.860  30.762  26.983  1.00  0.00     0.134 A 
ATOM     63  F   UNL A   1      50.271  29.612  27.420  1.00  0.00    -0.206 F 
ATOM     64  C   UNL A   1      49.431  31.758  27.076  1.00  0.00     0.040 A 
ATOM     65  C   UNL A   1      47.090  32.129  26.800  1.00  0.00     0.040 A 
ATOM     66  F   UNL A   1      45.568  30.418  27.035  1.00  0.00    -0.206 F 
ATOM     67  C   UNL A   1      48.375  32.638  26.877  1.00  0.00     0.006 A 
ENDBRANCH  46  60
BRANCH  47  68
ATOM     68  C   UNL A   1      39.715  28.126  29.124  1.00  0.00     0.057 A 
ATOM     69  C   UNL A   1      38.716  28.159  30.105  1.00  0.00     0.134 A 
ATOM     70  C   UNL A   1      39.457  28.875  27.959  1.00  0.00     0.134 A 
ATOM     71  F   UNL A   1      38.887  27.519  31.272  1.00  0.00    -0.206 F 
ATOM     72  C   UNL A   1      37.535  28.899  29.942  1.00  0.00     0.040 A 
ATOM     73  C   UNL A   1      38.281  29.609  27.780  1.00  0.00     0.040 A 
ATOM     74  F   UNL A   1      40.378  28.992  26.992  1.00  0.00    -0.206 F 
ATOM     75  C   UNL A   1      37.317  29.632  28.779  1.00  0.00     0.006 A 
ENDBRANCH  47  68
BRANCH  59  76
ATOM     76  C   UNL A   1      44.937  26.401  32.288  1.00  0.00     0.057 A 
ATOM     77  C   UNL A   1      44.772  25.068  31.883  1.00  0.00     0.134 A 
ATOM     78  C   UNL A   1      45.106  26.622  33.659  1.00  0.00     0.134 A 
ATOM     79  F   UNL A   1      44.694  24.742  30.589  1.00  0.00    -0.206 F 
ATOM     80  C   UNL A   1      44.766  24.008  32.795  1.00  0.00     0.040 A 
ATOM     81  C   UNL A   1      45.135  25.569  34.579  1.00  0.00     0.040 A 
ATOM     82  F   UNL A   1      45.328  27.863  34.121  1.00  0.00    -0.206 F 
ATOM     83  C   UNL A   1      44.965  24.257  34.148  1.00  0.00     0.006 A 
ENDBRANCH  59  76
ENDBRANCH  33  34
ENDBRANCH  25  28
ENDBRANCH  23  24
ENDBRANCH  22  23
ENDBRANCH  21  22
ENDBRANCH   1  21
TORSDOF 15
ENDMDL
MODEL 3
REMARK VINA RESULT:     -10.9      2.728      7.509
REMARK SMILES Cc1cc(C)c2c(OCCCC(=O)NCCCCNC(=O)c3ccc(-c4c5nc(c(-c6c(F)cccc6F)c6ccc([nH]6)c(-c6c(F)cccc6F)c6nc(c(-c7c(F)cccc7F)c7ccc4[nH]7)C=C6)C=C5)cc3)nsc2n1
REMARK SMILES IDX 15 1 14 2 12 3 13 4 11 6 10 7 9 8 8 9 7 10 1 11 2 12 3 13
REMARK SMILES IDX 79 14 4 15 78 16 5 17 6 18 77 19 76 20 16 21 17 22 18 23
REMARK SMILES IDX 19 24 20 25 21 27 22 28 23 29 75 30 24 31 74 32 25 33 26 34
REMARK SMILES IDX 27 35 68 36 28 37 73 38 67 39 69 40 29 41 72 42 66 43 65 44
REMARK SMILES IDX 30 46 56 47 39 48 55 49 40 50 43 51 54 52 70 53 41 54 42 55
REMARK SMILES IDX 53 57 71 58 44 59 31 60 32 61 37 62 33 63 34 64 36 65 38 66
REMARK SMILES IDX 35 67 57 68 58 69 63 70 59 71 60 72 62 73 64 74 61 75 45 76
REMARK SMILES IDX 46 77 51 78 47 79 48 80 50 81 52 82 49 83
REMARK H PARENT 14 5 19 26 69 45 43 56
REMARK Flexibility Score: inf
ROOT
ATOM      1  C   UNL A   1      39.552  22.501  26.510  1.00  0.00     0.116 C 
ENDROOT
BRANCH   1   2
ATOM      2  N   UNL A   1      38.501  21.714  25.723  1.00  0.00    -0.356 N 
ATOM      3  C   UNL A   1      37.396  21.615  24.932  1.00  0.00     0.220 C 
ATOM      4  O   UNL A   1      37.203  20.399  24.694  1.00  0.00    -0.275 OA
ATOM      5  H   UNL A   1      38.766  20.776  25.864  1.00  0.00     0.163 HD
BRANCH   3   6
ATOM      6  C   UNL A   1      36.420  22.608  24.094  1.00  0.00     0.103 C 
BRANCH   6   7
ATOM      7  C   UNL A   1      34.912  22.603  23.555  1.00  0.00     0.051 C 
BRANCH   7   8
ATOM      8  C   UNL A   1      33.960  23.734  22.973  1.00  0.00     0.232 C 
BRANCH   8   9
ATOM      9  O   UNL A   1      34.120  25.145  23.190  1.00  0.00    -0.477 OA
BRANCH   9  10
ATOM     10  C   UNL A   1      33.359  25.863  24.057  1.00  0.00     0.235 A 
ATOM     11  C   UNL A   1      28.993  28.849  22.766  1.00  0.00     0.067 C 
ATOM     12  C   UNL A   1      30.322  28.401  23.316  1.00  0.00     0.039 A 
ATOM     13  C   UNL A   1      31.486  28.704  22.616  1.00  0.00     0.027 A 
ATOM     14  N   UNL A   1      30.320  27.677  24.457  1.00  0.00    -0.240 NA
ATOM     15  C   UNL A   1      32.702  28.089  22.965  1.00  0.00    -0.034 A 
ATOM     16  C   UNL A   1      31.472  27.003  24.653  1.00  0.00     0.147 A 
ATOM     17  C   UNL A   1      34.062  28.424  22.498  1.00  0.00     0.045 C 
ATOM     18  C   UNL A   1      32.594  27.032  23.844  1.00  0.00     0.078 A 
ATOM     19  S   UNL A   1      31.837  25.981  25.963  1.00  0.00    -0.012 S 
ATOM     20  N   UNL A   1      33.181  25.279  25.243  1.00  0.00    -0.153 NA
ENDBRANCH   9  10
ENDBRANCH   8   9
ENDBRANCH   7   8
ENDBRANCH   6   7
ENDBRANCH   3   6
ENDBRANCH   1   2
BRANCH   1  21
ATOM     21  C   UNL A   1      40.532  21.605  27.340  1.00  0.00     0.023 C 
BRANCH  21  22
ATOM     22  C   UNL A   1      41.194  20.431  26.597  1.00  0.00     0.023 C 
BRANCH  22  23
ATOM     23  C   UNL A   1      42.633  20.116  27.018  1.00  0.00     0.116 C 
BRANCH  23  24
ATOM     24  N   UNL A   1      43.521  19.755  25.910  1.00  0.00    -0.352 N 
ATOM     25  C   UNL A   1      44.108  20.632  24.992  1.00  0.00     0.251 C 
ATOM     26  H   UNL A   1      43.725  18.799  25.800  1.00  0.00     0.163 HD
ATOM     27  O   UNL A   1      44.610  20.268  23.967  1.00  0.00    -0.269 OA
BRANCH  25  28
ATOM     28  C   UNL A   1      44.103  22.060  25.372  1.00  0.00     0.039 A 
ATOM     29  C   UNL A   1      43.106  22.929  24.921  1.00  0.00     0.014 A 
ATOM     30  C   UNL A   1      45.060  22.459  26.303  1.00  0.00     0.014 A 
ATOM     31  C   UNL A   1      43.015  24.192  25.499  1.00  0.00     0.010 A 
ATOM     32  C   UNL A   1      44.908  23.664  26.939  1.00  0.00     0.010 A 
ATOM     33  C   UNL A   1      43.905  24.541  26.526  1.00  0.00    -0.014 A 
BRANCH  33  34
ATOM     34  C   UNL A   1      43.717  25.777  27.276  1.00  0.00     0.031 A 
ATOM     35  C   UNL A   1      44.695  26.870  26.981  1.00  0.00     0.074 A 
ATOM     36  C   UNL A   1      42.587  26.005  27.978  1.00  0.00     0.049 A 
ATOM     37  N   UNL A   1      45.496  27.472  27.798  1.00  0.00    -0.248 NA
ATOM     38  C   UNL A   1      44.870  27.283  25.576  1.00  0.00     0.031 C 
ATOM     39  C   UNL A   1      41.396  25.155  28.084  1.00  0.00     0.029 A 
ATOM     40  N   UNL A   1      42.220  27.119  28.663  1.00  0.00    -0.354 N 
ATOM     41  C   UNL A   1      46.147  28.461  27.057  1.00  0.00     0.074 A 
ATOM     42  C   UNL A   1      45.838  28.197  25.676  1.00  0.00     0.031 C 
ATOM     43  C   UNL A   1      40.370  25.875  28.585  1.00  0.00     0.029 A 
ATOM     44  C   UNL A   1      40.871  27.174  28.987  1.00  0.00     0.049 A 
ATOM     45  H   UNL A   1      42.857  27.828  28.910  1.00  0.00     0.167 HD
ATOM     46  C   UNL A   1      46.724  29.542  27.653  1.00  0.00     0.037 A 
ATOM     47  C   UNL A   1      40.210  28.236  29.508  1.00  0.00     0.037 A 
ATOM     48  C   UNL A   1      46.928  29.312  29.059  1.00  0.00     0.049 A 
ATOM     49  C   UNL A   1      41.230  29.130  30.113  1.00  0.00     0.074 A 
ATOM     50  C   UNL A   1      47.653  28.392  29.791  1.00  0.00     0.029 A 
ATOM     51  N   UNL A   1      46.030  29.862  29.941  1.00  0.00    -0.354 N 
ATOM     52  N   UNL A   1      41.957  28.802  31.147  1.00  0.00    -0.248 NA
ATOM     53  C   UNL A   1      41.777  30.187  29.275  1.00  0.00     0.031 C 
ATOM     54  C   UNL A   1      46.817  28.071  30.899  1.00  0.00     0.029 A 
ATOM     55  C   UNL A   1      45.673  28.868  30.816  1.00  0.00     0.049 A 
ATOM     56  H   UNL A   1      45.704  30.790  29.944  1.00  0.00     0.167 HD
ATOM     57  C   UNL A   1      43.223  29.298  30.866  1.00  0.00     0.074 A 
ATOM     58  C   UNL A   1      43.032  30.205  29.734  1.00  0.00     0.031 C 
ATOM     59  C   UNL A   1      44.348  28.718  31.378  1.00  0.00     0.037 A 
BRANCH  46  60
ATOM     60  C   UNL A   1      46.810  30.925  27.050  1.00  0.00     0.057 A 
ATOM     61  C   UNL A   1      48.046  31.599  27.029  1.00  0.00     0.134 A 
ATOM     62  C   UNL A   1      45.692  31.729  26.749  1.00  0.00     0.134 A 
ATOM     63  F   UNL A   1      49.189  30.956  27.314  1.00  0.00    -0.206 F 
ATOM     64  C   UNL A   1      48.151  32.977  26.795  1.00  0.00     0.040 A 
ATOM     65  C   UNL A   1      45.791  33.094  26.464  1.00  0.00     0.040 A 
ATOM     66  F   UNL A   1      44.438  31.265  26.812  1.00  0.00    -0.206 F 
ATOM     67  C   UNL A   1      47.020  33.731  26.517  1.00  0.00     0.006 A 
ENDBRANCH  46  60
BRANCH  47  68
ATOM     68  C   UNL A   1      38.823  28.661  29.207  1.00  0.00     0.057 A 
ATOM     69  C   UNL A   1      37.843  28.721  30.205  1.00  0.00     0.134 A 
ATOM     70  C   UNL A   1      38.484  29.256  27.976  1.00  0.00     0.134 A 
ATOM     71  F   UNL A   1      38.087  28.227  31.428  1.00  0.00    -0.206 F 
ATOM     72  C   UNL A   1      36.603  29.344  29.997  1.00  0.00     0.040 A 
ATOM     73  C   UNL A   1      37.249  29.872  27.752  1.00  0.00     0.040 A 
ATOM     74  F   UNL A   1      39.374  29.340  26.977  1.00  0.00    -0.206 F 
ATOM     75  C   UNL A   1      36.305  29.927  28.768  1.00  0.00     0.006 A 
ENDBRANCH  47  68
BRANCH  59  76
ATOM     76  C   UNL A   1      44.199  27.635  32.416  1.00  0.00     0.057 A 
ATOM     77  C   UNL A   1      44.185  26.265  32.115  1.00  0.00     0.134 A 
ATOM     78  C   UNL A   1      44.321  27.978  33.767  1.00  0.00     0.134 A 
ATOM     79  F   UNL A   1      44.164  25.834  30.851  1.00  0.00    -0.206 F 
ATOM     80  C   UNL A   1      44.278  25.285  33.108  1.00  0.00     0.040 A 
ATOM     81  C   UNL A   1      44.447  27.009  34.767  1.00  0.00     0.040 A 
ATOM     82  F   UNL A   1      44.399  29.269  34.131  1.00  0.00    -0.206 F 
ATOM     83  C   UNL A   1      44.426  25.657  34.439  1.00  0.00     0.006 A 
ENDBRANCH  59  76
ENDBRANCH  33  34
ENDBRANCH  25  28
ENDBRANCH  23  24
ENDBRANCH  22  23
ENDBRANCH  21  22
ENDBRANCH   1  21
TORSDOF 15
ENDMDL
