MODEL 1
REMARK VINA RESULT:     -11.5      0.000      0.000
REMARK SMILES CC1=CC2=[NH+]C(=O)[C@](C)(CC(=O)NCCCCNC(=O)c3ccc(-c4c5nc(c(-c6c(F)cccc6F)c6ccc([nH]6)c(-c6c(F)cccc6F)c6nc(c(-c7c(F)cccc7F)c7ccc4[nH]7)C=C6)C=C5)cc3)N2C=C1
REMARK SMILES IDX 16 1 15 2 14 3 13 4 11 5 12 6 10 8 8 9 1 10 2 11 3 12 77 13
REMARK SMILES IDX 4 14 76 15 5 16 75 17 6 18 7 20 9 21 17 22 18 23 19 24 20 26
REMARK SMILES IDX 21 27 22 28 74 29 23 30 73 31 24 32 25 33 26 34 67 35 27 36
REMARK SMILES IDX 72 37 66 38 68 39 28 40 71 41 65 42 64 43 29 45 55 46 38 47
REMARK SMILES IDX 54 48 39 49 42 50 53 51 69 52 40 53 41 54 52 56 70 57 43 58
REMARK SMILES IDX 30 59 31 60 36 61 32 62 33 63 35 64 37 65 34 66 56 67 57 68
REMARK SMILES IDX 62 69 58 70 59 71 61 72 63 73 60 74 44 75 45 76 50 77 46 78
REMARK SMILES IDX 47 79 49 80 51 81 48 82
REMARK H PARENT 13 7 5 19 18 25 68 44 42 55
REMARK Flexibility Score: inf
ROOT
ATOM      1  C   UNL A   1      37.889  20.499  25.011  1.00  0.00     0.023 C 
ENDROOT
BRANCH   1   2
ATOM      2  C   UNL A   1      37.343  21.802  24.473  1.00  0.00     0.023 C 
BRANCH   2   3
ATOM      3  C   UNL A   1      36.423  22.567  25.414  1.00  0.00     0.116 C 
BRANCH   3   4
ATOM      4  N   UNL A   1      35.390  21.680  25.909  1.00  0.00    -0.356 N 
ATOM      5  C   UNL A   1      34.321  21.977  26.699  1.00  0.00     0.225 C 
ATOM      6  O   UNL A   1      33.658  21.057  27.176  1.00  0.00    -0.275 OA
ATOM      7  H   UNL A   1      35.472  20.737  25.638  1.00  0.00     0.163 HD
BRANCH   5   8
ATOM      8  C   UNL A   1      33.880  23.412  26.852  1.00  0.00     0.166 C 
BRANCH   8   9
ATOM      9  C   UNL A   1      32.717  23.939  26.000  1.00  0.00     0.217 C 
ATOM     10  C   UNL A   1      32.602  29.478  27.215  1.00  0.00     0.045 C 
ATOM     11  C   UNL A   1      32.526  28.097  26.631  1.00  0.00    -0.039 C 
ATOM     12  C   UNL A   1      31.397  27.357  26.671  1.00  0.00     0.102 C 
ATOM     13  C   UNL A   1      33.767  27.548  26.072  1.00  0.00     0.047 C 
ATOM     14  C   UNL A   1      31.558  25.910  26.366  1.00  0.00     0.283 C 
ATOM     15  C   UNL A   1      33.837  26.252  25.723  1.00  0.00     0.202 C 
ATOM     16  N   UNL A   1      30.648  25.021  26.648  1.00  0.00    -0.206 N 
ATOM     17  N   UNL A   1      32.762  25.408  25.913  1.00  0.00    -0.217 N 
ATOM     18  C   UNL A   1      31.271  23.780  26.542  1.00  0.00     0.356 C 
ATOM     19  H   UNL A   1      29.708  25.193  26.888  1.00  0.00     0.315 HD
ATOM     20  O   UNL A   1      30.750  22.716  26.854  1.00  0.00    -0.242 OA
ATOM     21  C   UNL A   1      32.689  23.283  24.620  1.00  0.00     0.076 C 
ENDBRANCH   8   9
ENDBRANCH   5   8
ENDBRANCH   3   4
ENDBRANCH   2   3
ENDBRANCH   1   2
BRANCH   1  22
ATOM     22  C   UNL A   1      39.089  20.690  25.905  1.00  0.00     0.116 C 
BRANCH  22  23
ATOM     23  N   UNL A   1      40.016  19.562  25.861  1.00  0.00    -0.352 N 
ATOM     24  C   UNL A   1      41.371  19.570  26.095  1.00  0.00     0.251 C 
ATOM     25  H   UNL A   1      39.622  18.688  25.637  1.00  0.00     0.163 HD
ATOM     26  O   UNL A   1      42.063  18.585  25.874  1.00  0.00    -0.269 OA
BRANCH  24  27
ATOM     27  C   UNL A   1      41.965  20.825  26.585  1.00  0.00     0.039 A 
ATOM     28  C   UNL A   1      42.394  21.787  25.671  1.00  0.00     0.014 A 
ATOM     29  C   UNL A   1      41.921  21.099  27.953  1.00  0.00     0.014 A 
ATOM     30  C   UNL A   1      42.699  23.066  26.134  1.00  0.00     0.010 A 
ATOM     31  C   UNL A   1      42.070  22.405  28.380  1.00  0.00     0.010 A 
ATOM     32  C   UNL A   1      42.486  23.399  27.483  1.00  0.00    -0.014 A 
BRANCH  32  33
ATOM     33  C   UNL A   1      42.735  24.764  28.005  1.00  0.00     0.031 A 
ATOM     34  C   UNL A   1      44.128  25.136  28.437  1.00  0.00     0.074 A 
ATOM     35  C   UNL A   1      41.714  25.629  28.163  1.00  0.00     0.049 A 
ATOM     36  N   UNL A   1      44.550  26.227  29.023  1.00  0.00    -0.248 NA
ATOM     37  C   UNL A   1      45.181  24.127  28.227  1.00  0.00     0.031 C 
ATOM     38  C   UNL A   1      40.310  25.362  27.843  1.00  0.00     0.029 A 
ATOM     39  N   UNL A   1      41.703  26.913  28.647  1.00  0.00    -0.354 N 
ATOM     40  C   UNL A   1      45.901  26.021  29.265  1.00  0.00     0.074 A 
ATOM     41  C   UNL A   1      46.211  24.673  28.850  1.00  0.00     0.031 C 
ATOM     42  C   UNL A   1      39.581  26.459  28.104  1.00  0.00     0.029 A 
ATOM     43  C   UNL A   1      40.455  27.489  28.655  1.00  0.00     0.049 A 
ATOM     44  H   UNL A   1      42.512  27.377  28.960  1.00  0.00     0.167 HD
ATOM     45  C   UNL A   1      46.817  26.890  29.749  1.00  0.00     0.037 A 
ATOM     46  C   UNL A   1      40.064  28.710  29.068  1.00  0.00     0.037 A 
ATOM     47  C   UNL A   1      46.510  28.242  30.124  1.00  0.00     0.049 A 
ATOM     48  C   UNL A   1      41.098  29.658  29.614  1.00  0.00     0.074 A 
ATOM     49  C   UNL A   1      47.369  29.227  30.574  1.00  0.00     0.029 A 
ATOM     50  N   UNL A   1      45.239  28.798  30.090  1.00  0.00    -0.354 N 
ATOM     51  N   UNL A   1      42.389  29.476  29.769  1.00  0.00    -0.248 NA
ATOM     52  C   UNL A   1      40.625  30.984  30.035  1.00  0.00     0.031 C 
ATOM     53  C   UNL A   1      46.610  30.366  30.860  1.00  0.00     0.029 A 
ATOM     54  C   UNL A   1      45.289  30.108  30.532  1.00  0.00     0.049 A 
ATOM     55  H   UNL A   1      44.425  28.329  29.795  1.00  0.00     0.167 HD
ATOM     56  C   UNL A   1      42.884  30.671  30.274  1.00  0.00     0.074 A 
ATOM     57  C   UNL A   1      41.758  31.576  30.384  1.00  0.00     0.031 C 
ATOM     58  C   UNL A   1      44.155  30.994  30.617  1.00  0.00     0.037 A 
BRANCH  45  59
ATOM     59  C   UNL A   1      48.231  26.404  29.879  1.00  0.00     0.057 A 
ATOM     60  C   UNL A   1      49.159  26.535  28.835  1.00  0.00     0.134 A 
ATOM     61  C   UNL A   1      48.677  25.806  31.064  1.00  0.00     0.134 A 
ATOM     62  F   UNL A   1      48.792  27.080  27.664  1.00  0.00    -0.206 F 
ATOM     63  C   UNL A   1      50.466  26.063  28.954  1.00  0.00     0.040 A 
ATOM     64  C   UNL A   1      49.991  25.361  31.208  1.00  0.00     0.040 A 
ATOM     65  F   UNL A   1      47.844  25.649  32.104  1.00  0.00    -0.206 F 
ATOM     66  C   UNL A   1      50.888  25.482  30.147  1.00  0.00     0.006 A 
ENDBRANCH  45  59
BRANCH  46  67
ATOM     67  C   UNL A   1      38.638  29.116  28.969  1.00  0.00     0.057 A 
ATOM     68  C   UNL A   1      37.779  29.020  30.072  1.00  0.00     0.134 A 
ATOM     69  C   UNL A   1      38.091  29.587  27.769  1.00  0.00     0.134 A 
ATOM     70  F   UNL A   1      38.237  28.559  31.245  1.00  0.00    -0.206 F 
ATOM     71  C   UNL A   1      36.426  29.350  29.978  1.00  0.00     0.040 A 
ATOM     72  C   UNL A   1      36.746  29.949  27.669  1.00  0.00     0.040 A 
ATOM     73  F   UNL A   1      38.860  29.712  26.678  1.00  0.00    -0.206 F 
ATOM     74  C   UNL A   1      35.907  29.820  28.774  1.00  0.00     0.006 A 
ENDBRANCH  46  67
BRANCH  58  75
ATOM     75  C   UNL A   1      44.407  32.393  31.097  1.00  0.00     0.057 A 
ATOM     76  C   UNL A   1      44.391  32.724  32.458  1.00  0.00     0.134 A 
ATOM     77  C   UNL A   1      44.727  33.408  30.187  1.00  0.00     0.134 A 
ATOM     78  F   UNL A   1      44.081  31.800  33.380  1.00  0.00    -0.206 F 
ATOM     79  C   UNL A   1      44.661  34.022  32.894  1.00  0.00     0.040 A 
ATOM     80  C   UNL A   1      45.031  34.701  30.613  1.00  0.00     0.040 A 
ATOM     81  F   UNL A   1      44.773  33.154  28.870  1.00  0.00    -0.206 F 
ATOM     82  C   UNL A   1      44.991  35.013  31.970  1.00  0.00     0.006 A 
ENDBRANCH  58  75
ENDBRANCH  32  33
ENDBRANCH  24  27
ENDBRANCH  22  23
ENDBRANCH   1  22
TORSDOF 12
ENDMDL
MODEL 2
REMARK VINA RESULT:     -11.4      4.473      8.887
REMARK SMILES CC1=CC2=[NH+]C(=O)[C@](C)(CC(=O)NCCCCNC(=O)c3ccc(-c4c5nc(c(-c6c(F)cccc6F)c6ccc([nH]6)c(-c6c(F)cccc6F)c6nc(c(-c7c(F)cccc7F)c7ccc4[nH]7)C=C6)C=C5)cc3)N2C=C1
REMARK SMILES IDX 16 1 15 2 14 3 13 4 11 5 12 6 10 8 8 9 1 10 2 11 3 12 77 13
REMARK SMILES IDX 4 14 76 15 5 16 75 17 6 18 7 20 9 21 17 22 18 23 19 24 20 26
REMARK SMILES IDX 21 27 22 28 74 29 23 30 73 31 24 32 25 33 26 34 67 35 27 36
REMARK SMILES IDX 72 37 66 38 68 39 28 40 71 41 65 42 64 43 29 45 55 46 38 47
REMARK SMILES IDX 54 48 39 49 42 50 53 51 69 52 40 53 41 54 52 56 70 57 43 58
REMARK SMILES IDX 30 59 31 60 36 61 32 62 33 63 35 64 37 65 34 66 56 67 57 68
REMARK SMILES IDX 62 69 58 70 59 71 61 72 63 73 60 74 44 75 45 76 50 77 46 78
REMARK SMILES IDX 47 79 49 80 51 81 48 82
REMARK H PARENT 13 7 5 19 18 25 68 44 42 55
REMARK Flexibility Score: inf
ROOT
ATOM      1  C   UNL A   1      31.128  32.339  26.491  1.00  0.00     0.023 C 
ENDROOT
BRANCH   1   2
ATOM      2  C   UNL A   1      31.258  31.051  25.710  1.00  0.00     0.023 C 
BRANCH   2   3
ATOM      3  C   UNL A   1      32.417  30.151  26.116  1.00  0.00     0.116 C 
BRANCH   3   4
ATOM      4  N   UNL A   1      32.011  29.306  27.219  1.00  0.00    -0.356 N 
ATOM      5  C   UNL A   1      32.013  27.946  27.294  1.00  0.00     0.225 C 
ATOM      6  O   UNL A   1      31.451  27.400  28.242  1.00  0.00    -0.275 OA
ATOM      7  H   UNL A   1      31.691  29.777  28.022  1.00  0.00     0.163 HD
BRANCH   5   8
ATOM      8  C   UNL A   1      32.823  27.144  26.306  1.00  0.00     0.166 C 
BRANCH   8   9
ATOM      9  C   UNL A   1      32.132  26.060  25.466  1.00  0.00     0.217 C 
ATOM     10  C   UNL A   1      27.988  28.890  22.823  1.00  0.00     0.045 C 
ATOM     11  C   UNL A   1      29.080  27.969  23.283  1.00  0.00    -0.039 C 
ATOM     12  C   UNL A   1      28.823  26.811  23.928  1.00  0.00     0.102 C 
ATOM     13  C   UNL A   1      30.459  28.419  23.064  1.00  0.00     0.047 C 
ATOM     14  C   UNL A   1      29.983  26.178  24.612  1.00  0.00     0.283 C 
ATOM     15  C   UNL A   1      31.485  27.758  23.627  1.00  0.00     0.202 C 
ATOM     16  N   UNL A   1      29.851  25.243  25.510  1.00  0.00    -0.206 N 
ATOM     17  N   UNL A   1      31.262  26.671  24.447  1.00  0.00    -0.217 N 
ATOM     18  C   UNL A   1      31.082  25.147  26.154  1.00  0.00     0.356 C 
ATOM     19  H   UNL A   1      29.044  24.710  25.695  1.00  0.00     0.315 HD
ATOM     20  O   UNL A   1      31.295  24.451  27.140  1.00  0.00    -0.242 OA
ATOM     21  C   UNL A   1      33.145  25.095  24.852  1.00  0.00     0.076 C 
ENDBRANCH   8   9
ENDBRANCH   5   8
ENDBRANCH   3   4
ENDBRANCH   2   3
ENDBRANCH   1   2
BRANCH   1  22
ATOM     22  C   UNL A   1      32.461  32.930  26.875  1.00  0.00     0.116 C 
BRANCH  22  23
ATOM     23  N   UNL A   1      32.337  34.201  27.584  1.00  0.00    -0.352 N 
ATOM     24  C   UNL A   1      33.117  34.678  28.611  1.00  0.00     0.251 C 
ATOM     25  H   UNL A   1      31.604  34.789  27.290  1.00  0.00     0.163 HD
ATOM     26  O   UNL A   1      32.814  35.692  29.225  1.00  0.00    -0.269 OA
BRANCH  24  27
ATOM     27  C   UNL A   1      34.314  33.898  28.970  1.00  0.00     0.039 A 
ATOM     28  C   UNL A   1      35.579  34.423  28.717  1.00  0.00     0.014 A 
ATOM     29  C   UNL A   1      34.154  32.730  29.718  1.00  0.00     0.014 A 
ATOM     30  C   UNL A   1      36.690  33.812  29.296  1.00  0.00     0.010 A 
ATOM     31  C   UNL A   1      35.237  32.227  30.415  1.00  0.00     0.010 A 
ATOM     32  C   UNL A   1      36.521  32.743  30.193  1.00  0.00    -0.014 A 
BRANCH  32  33
ATOM     33  C   UNL A   1      37.668  32.106  30.883  1.00  0.00     0.031 A 
ATOM     34  C   UNL A   1      38.431  31.018  30.175  1.00  0.00     0.074 A 
ATOM     35  C   UNL A   1      37.972  32.440  32.152  1.00  0.00     0.049 A 
ATOM     36  N   UNL A   1      39.390  30.251  30.624  1.00  0.00    -0.248 NA
ATOM     37  C   UNL A   1      38.029  30.719  28.788  1.00  0.00     0.031 C 
ATOM     38  C   UNL A   1      37.266  33.433  32.966  1.00  0.00     0.029 A 
ATOM     39  N   UNL A   1      38.954  31.969  32.986  1.00  0.00    -0.354 N 
ATOM     40  C   UNL A   1      39.684  29.375  29.588  1.00  0.00     0.074 A 
ATOM     41  C   UNL A   1      38.745  29.640  28.523  1.00  0.00     0.031 C 
ATOM     42  C   UNL A   1      37.860  33.522  34.167  1.00  0.00     0.029 A 
ATOM     43  C   UNL A   1      38.957  32.561  34.226  1.00  0.00     0.049 A 
ATOM     44  H   UNL A   1      39.597  31.273  32.721  1.00  0.00     0.167 HD
ATOM     45  C   UNL A   1      40.675  28.459  29.509  1.00  0.00     0.037 A 
ATOM     46  C   UNL A   1      39.752  32.344  35.291  1.00  0.00     0.037 A 
ATOM     47  C   UNL A   1      41.629  28.226  30.558  1.00  0.00     0.049 A 
ATOM     48  C   UNL A   1      40.843  31.312  35.185  1.00  0.00     0.074 A 
ATOM     49  C   UNL A   1      42.708  27.364  30.564  1.00  0.00     0.029 A 
ATOM     50  N   UNL A   1      41.616  28.867  31.788  1.00  0.00    -0.354 N 
ATOM     51  N   UNL A   1      41.158  30.540  34.171  1.00  0.00    -0.248 NA
ATOM     52  C   UNL A   1      41.695  31.124  36.367  1.00  0.00     0.031 C 
ATOM     53  C   UNL A   1      43.320  27.444  31.818  1.00  0.00     0.029 A 
ATOM     54  C   UNL A   1      42.658  28.401  32.570  1.00  0.00     0.049 A 
ATOM     55  H   UNL A   1      40.962  29.551  32.063  1.00  0.00     0.167 HD
ATOM     56  C   UNL A   1      42.259  29.802  34.581  1.00  0.00     0.074 A 
ATOM     57  C   UNL A   1      42.569  30.229  35.931  1.00  0.00     0.031 C 
ATOM     58  C   UNL A   1      42.954  28.854  33.906  1.00  0.00     0.037 A 
BRANCH  45  59
ATOM     59  C   UNL A   1      40.780  27.661  28.242  1.00  0.00     0.057 A 
ATOM     60  C   UNL A   1      40.147  26.418  28.095  1.00  0.00     0.134 A 
ATOM     61  C   UNL A   1      41.512  28.144  27.150  1.00  0.00     0.134 A 
ATOM     62  F   UNL A   1      39.446  25.887  29.109  1.00  0.00    -0.206 F 
ATOM     63  C   UNL A   1      40.265  25.672  26.922  1.00  0.00     0.040 A 
ATOM     64  C   UNL A   1      41.608  27.423  25.960  1.00  0.00     0.040 A 
ATOM     65  F   UNL A   1      42.142  29.326  27.221  1.00  0.00    -0.206 F 
ATOM     66  C   UNL A   1      40.990  26.178  25.847  1.00  0.00     0.006 A 
ENDBRANCH  45  59
BRANCH  46  67
ATOM     67  C   UNL A   1      39.563  33.125  36.541  1.00  0.00     0.057 A 
ATOM     68  C   UNL A   1      40.283  34.305  36.774  1.00  0.00     0.134 A 
ATOM     69  C   UNL A   1      38.680  32.704  37.543  1.00  0.00     0.134 A 
ATOM     70  F   UNL A   1      41.158  34.752  35.861  1.00  0.00    -0.206 F 
ATOM     71  C   UNL A   1      40.151  35.021  37.965  1.00  0.00     0.040 A 
ATOM     72  C   UNL A   1      38.517  33.427  38.726  1.00  0.00     0.040 A 
ATOM     73  F   UNL A   1      37.954  31.589  37.380  1.00  0.00    -0.206 F 
ATOM     74  C   UNL A   1      39.263  34.583  38.944  1.00  0.00     0.006 A 
ENDBRANCH  46  67
BRANCH  58  75
ATOM     75  C   UNL A   1      44.144  28.250  34.592  1.00  0.00     0.057 A 
ATOM     76  C   UNL A   1      45.415  28.834  34.524  1.00  0.00     0.134 A 
ATOM     77  C   UNL A   1      44.000  27.100  35.379  1.00  0.00     0.134 A 
ATOM     78  F   UNL A   1      45.621  29.930  33.779  1.00  0.00    -0.206 F 
ATOM     79  C   UNL A   1      46.506  28.281  35.195  1.00  0.00     0.040 A 
ATOM     80  C   UNL A   1      45.077  26.557  36.081  1.00  0.00     0.040 A 
ATOM     81  F   UNL A   1      42.806  26.499  35.497  1.00  0.00    -0.206 F 
ATOM     82  C   UNL A   1      46.336  27.145  35.984  1.00  0.00     0.006 A 
ENDBRANCH  58  75
ENDBRANCH  32  33
ENDBRANCH  24  27
ENDBRANCH  22  23
ENDBRANCH   1  22
TORSDOF 12
ENDMDL
MODEL 3
REMARK VINA RESULT:     -11.4      1.412      1.860
REMARK SMILES CC1=CC2=[NH+]C(=O)[C@](C)(CC(=O)NCCCCNC(=O)c3ccc(-c4c5nc(c(-c6c(F)cccc6F)c6ccc([nH]6)c(-c6c(F)cccc6F)c6nc(c(-c7c(F)cccc7F)c7ccc4[nH]7)C=C6)C=C5)cc3)N2C=C1
REMARK SMILES IDX 16 1 15 2 14 3 13 4 11 5 12 6 10 8 8 9 1 10 2 11 3 12 77 13
REMARK SMILES IDX 4 14 76 15 5 16 75 17 6 18 7 20 9 21 17 22 18 23 19 24 20 26
REMARK SMILES IDX 21 27 22 28 74 29 23 30 73 31 24 32 25 33 26 34 67 35 27 36
REMARK SMILES IDX 72 37 66 38 68 39 28 40 71 41 65 42 64 43 29 45 55 46 38 47
REMARK SMILES IDX 54 48 39 49 42 50 53 51 69 52 40 53 41 54 52 56 70 57 43 58
REMARK SMILES IDX 30 59 31 60 36 61 32 62 33 63 35 64 37 65 34 66 56 67 57 68
REMARK SMILES IDX 62 69 58 70 59 71 61 72 63 73 60 74 44 75 45 76 50 77 46 78
REMARK SMILES IDX 47 79 49 80 51 81 48 82
REMARK H PARENT 13 7 5 19 18 25 68 44 42 55
REMARK Flexibility Score: inf
ROOT
ATOM      1  C   UNL A   1      37.955  20.179  25.001  1.00  0.00     0.023 C 
ENDROOT
BRANCH   1   2
ATOM      2  C   UNL A   1      37.233  21.444  24.599  1.00  0.00     0.023 C 
BRANCH   2   3
ATOM      3  C   UNL A   1      36.720  22.303  25.747  1.00  0.00     0.116 C 
BRANCH   3   4
ATOM      4  N   UNL A   1      35.621  21.626  26.404  1.00  0.00    -0.356 N 
ATOM      5  C   UNL A   1      34.489  22.164  26.937  1.00  0.00     0.225 C 
ATOM      6  O   UNL A   1      33.758  21.454  27.626  1.00  0.00    -0.275 OA
ATOM      7  H   UNL A   1      35.703  20.648  26.473  1.00  0.00     0.163 HD
BRANCH   5   8
ATOM      8  C   UNL A   1      34.075  23.564  26.556  1.00  0.00     0.166 C 
BRANCH   8   9
ATOM      9  C   UNL A   1      32.716  23.791  25.879  1.00  0.00     0.217 C 
ATOM     10  C   UNL A   1      32.775  29.325  24.636  1.00  0.00     0.045 C 
ATOM     11  C   UNL A   1      32.587  27.838  24.727  1.00  0.00    -0.039 C 
ATOM     12  C   UNL A   1      31.527  27.282  25.353  1.00  0.00     0.102 C 
ATOM     13  C   UNL A   1      33.653  27.003  24.163  1.00  0.00     0.047 C 
ATOM     14  C   UNL A   1      31.641  25.830  25.656  1.00  0.00     0.283 C 
ATOM     15  C   UNL A   1      33.663  25.677  24.386  1.00  0.00     0.202 C 
ATOM     16  N   UNL A   1      30.860  25.220  26.501  1.00  0.00    -0.206 N 
ATOM     17  N   UNL A   1      32.698  25.084  25.174  1.00  0.00    -0.217 N 
ATOM     18  C   UNL A   1      31.466  23.997  26.777  1.00  0.00     0.356 C 
ATOM     19  H   UNL A   1      30.011  25.555  26.871  1.00  0.00     0.315 HD
ATOM     20  O   UNL A   1      31.073  23.205  27.626  1.00  0.00    -0.242 OA
ATOM     21  C   UNL A   1      32.347  22.629  24.958  1.00  0.00     0.076 C 
ENDBRANCH   8   9
ENDBRANCH   5   8
ENDBRANCH   3   4
ENDBRANCH   2   3
ENDBRANCH   1   2
BRANCH   1  22
ATOM     22  C   UNL A   1      39.218  20.447  25.782  1.00  0.00     0.116 C 
BRANCH  22  23
ATOM     23  N   UNL A   1      40.073  19.270  25.902  1.00  0.00    -0.352 N 
ATOM     24  C   UNL A   1      41.430  19.227  26.126  1.00  0.00     0.251 C 
ATOM     25  H   UNL A   1      39.624  18.398  25.811  1.00  0.00     0.163 HD
ATOM     26  O   UNL A   1      42.056  18.178  26.051  1.00  0.00    -0.269 OA
BRANCH  24  27
ATOM     27  C   UNL A   1      42.106  20.501  26.423  1.00  0.00     0.039 A 
ATOM     28  C   UNL A   1      42.490  21.336  25.376  1.00  0.00     0.014 A 
ATOM     29  C   UNL A   1      42.186  20.924  27.751  1.00  0.00     0.014 A 
ATOM     30  C   UNL A   1      42.877  22.644  25.666  1.00  0.00     0.010 A 
ATOM     31  C   UNL A   1      42.416  22.262  28.015  1.00  0.00     0.010 A 
ATOM     32  C   UNL A   1      42.790  23.131  26.981  1.00  0.00    -0.014 A 
BRANCH  32  33
ATOM     33  C   UNL A   1      43.129  24.533  27.325  1.00  0.00     0.031 A 
ATOM     34  C   UNL A   1      44.571  24.964  27.289  1.00  0.00     0.074 A 
ATOM     35  C   UNL A   1      42.170  25.384  27.738  1.00  0.00     0.049 A 
ATOM     36  N   UNL A   1      45.106  26.099  27.656  1.00  0.00    -0.248 NA
ATOM     37  C   UNL A   1      45.551  23.966  26.825  1.00  0.00     0.031 C 
ATOM     38  C   UNL A   1      40.747  25.066  27.876  1.00  0.00     0.029 A 
ATOM     39  N   UNL A   1      42.253  26.697  28.129  1.00  0.00    -0.354 N 
ATOM     40  C   UNL A   1      46.474  25.940  27.485  1.00  0.00     0.074 A 
ATOM     41  C   UNL A   1      46.699  24.574  27.072  1.00  0.00     0.031 C 
ATOM     42  C   UNL A   1      40.087  26.162  28.285  1.00  0.00     0.029 A 
ATOM     43  C   UNL A   1      41.044  27.245  28.485  1.00  0.00     0.049 A 
ATOM     44  H   UNL A   1      43.099  27.199  28.154  1.00  0.00     0.167 HD
ATOM     45  C   UNL A   1      47.457  26.858  27.617  1.00  0.00     0.037 A 
ATOM     46  C   UNL A   1      40.747  28.482  28.928  1.00  0.00     0.037 A 
ATOM     47  C   UNL A   1      47.223  28.225  27.991  1.00  0.00     0.049 A 
ATOM     48  C   UNL A   1      41.858  29.486  29.077  1.00  0.00     0.074 A 
ATOM     49  C   UNL A   1      48.137  29.256  28.101  1.00  0.00     0.029 A 
ATOM     50  N   UNL A   1      45.981  28.750  28.315  1.00  0.00    -0.354 N 
ATOM     51  N   UNL A   1      43.142  29.343  28.841  1.00  0.00    -0.248 NA
ATOM     52  C   UNL A   1      41.482  30.826  29.548  1.00  0.00     0.031 C 
ATOM     53  C   UNL A   1      47.455  30.395  28.540  1.00  0.00     0.029 A 
ATOM     54  C   UNL A   1      46.108  30.087  28.646  1.00  0.00     0.049 A 
ATOM     55  H   UNL A   1      45.135  28.245  28.310  1.00  0.00     0.167 HD
ATOM     56  C   UNL A   1      43.717  30.579  29.103  1.00  0.00     0.074 A 
ATOM     57  C   UNL A   1      42.642  31.465  29.501  1.00  0.00     0.031 C 
ATOM     58  C   UNL A   1      45.018  30.952  29.023  1.00  0.00     0.037 A 
BRANCH  45  59
ATOM     59  C   UNL A   1      48.863  26.413  27.336  1.00  0.00     0.057 A 
ATOM     60  C   UNL A   1      49.711  25.952  28.353  1.00  0.00     0.134 A 
ATOM     61  C   UNL A   1      49.373  26.432  26.032  1.00  0.00     0.134 A 
ATOM     62  F   UNL A   1      49.292  25.926  29.629  1.00  0.00    -0.206 F 
ATOM     63  C   UNL A   1      51.023  25.558  28.090  1.00  0.00     0.040 A 
ATOM     64  C   UNL A   1      50.672  26.008  25.751  1.00  0.00     0.040 A 
ATOM     65  F   UNL A   1      48.617  26.860  25.010  1.00  0.00    -0.206 F 
ATOM     66  C   UNL A   1      51.504  25.577  26.783  1.00  0.00     0.006 A 
ENDBRANCH  45  59
BRANCH  46  67
ATOM     67  C   UNL A   1      39.342  28.849  29.246  1.00  0.00     0.057 A 
ATOM     68  C   UNL A   1      38.817  28.658  30.531  1.00  0.00     0.134 A 
ATOM     69  C   UNL A   1      38.485  29.376  28.273  1.00  0.00     0.134 A 
ATOM     70  F   UNL A   1      39.583  28.141  31.503  1.00  0.00    -0.206 F 
ATOM     71  C   UNL A   1      37.486  28.952  30.829  1.00  0.00     0.040 A 
ATOM     72  C   UNL A   1      37.158  29.702  28.566  1.00  0.00     0.040 A 
ATOM     73  F   UNL A   1      38.926  29.592  27.026  1.00  0.00    -0.206 F 
ATOM     74  C   UNL A   1      36.653  29.480  29.845  1.00  0.00     0.006 A 
ENDBRANCH  46  67
BRANCH  58  75
ATOM     75  C   UNL A   1      45.346  32.385  29.324  1.00  0.00     0.057 A 
ATOM     76  C   UNL A   1      45.746  32.802  30.600  1.00  0.00     0.134 A 
ATOM     77  C   UNL A   1      45.318  33.347  28.307  1.00  0.00     0.134 A 
ATOM     78  F   UNL A   1      45.784  31.931  31.620  1.00  0.00    -0.206 F 
ATOM     79  C   UNL A   1      46.081  34.131  30.859  1.00  0.00     0.040 A 
ATOM     80  C   UNL A   1      45.682  34.672  28.546  1.00  0.00     0.040 A 
ATOM     81  F   UNL A   1      44.956  33.010  27.059  1.00  0.00    -0.206 F 
ATOM     82  C   UNL A   1      46.059  35.069  29.827  1.00  0.00     0.006 A 
ENDBRANCH  58  75
ENDBRANCH  32  33
ENDBRANCH  24  27
ENDBRANCH  22  23
ENDBRANCH   1  22
TORSDOF 12
ENDMDL
