MODEL 1
REMARK VINA RESULT:     -11.3      0.000      0.000
REMARK SMILES O=C(NCCCCNC(=O)c1ccc(-c2c3nc(c(-c4c(F)cccc4F)c4ccc([nH]4)c(-c4c(F)cccc4F)c4nc(c(-c5c(F)cccc5F)c5ccc2[nH]5)C=C4)C=C3)cc1)C1=C[C@H]2C=C[C@@H]1[C@@H]1C=C[C@H]21
REMARK SMILES IDX 6 1 5 2 4 3 3 4 1 5 2 6 65 8 66 9 70 10 67 11 69 12 71 13
REMARK SMILES IDX 68 14 74 15 72 16 73 17 7 18 8 19 9 20 10 22 11 23 12 24
REMARK SMILES IDX 64 25 13 26 63 27 14 28 15 29 16 30 57 31 17 32 62 33 56 34
REMARK SMILES IDX 58 35 18 36 61 37 55 38 54 39 19 41 45 42 28 43 44 44 29 45
REMARK SMILES IDX 32 46 43 47 59 48 30 49 31 50 42 52 60 53 33 54 20 55 21 56
REMARK SMILES IDX 26 57 22 58 23 59 25 60 27 61 24 62 46 63 47 64 52 65 48 66
REMARK SMILES IDX 49 67 51 68 53 69 50 70 34 71 35 72 40 73 36 74 37 75 39 76
REMARK SMILES IDX 41 77 38 78
REMARK H PARENT 3 7 8 21 58 40 32 51
REMARK Flexibility Score: inf
ROOT
ATOM      1  C   UNL A   1      32.805  28.021  26.109  1.00  0.00     0.023 C 
ENDROOT
BRANCH   1   2
ATOM      2  C   UNL A   1      31.565  27.391  26.759  1.00  0.00     0.023 C 
BRANCH   2   3
ATOM      3  C   UNL A   1      31.035  26.133  26.071  1.00  0.00     0.116 C 
BRANCH   3   4
ATOM      4  N   UNL A   1      31.162  24.960  26.917  1.00  0.00    -0.352 N 
ATOM      5  O   UNL A   1      32.071  23.076  27.726  1.00  0.00    -0.270 OA
ATOM      6  C   UNL A   1      32.014  23.907  26.825  1.00  0.00     0.247 C 
ATOM      7  H   UNL A   1      30.534  24.924  27.674  1.00  0.00     0.163 HD
BRANCH   6   8
ATOM      8  C   UNL A   1      32.908  23.797  25.666  1.00  0.00     0.021 C 
ATOM      9  C   UNL A   1      32.774  22.913  24.649  1.00  0.00    -0.009 C 
ATOM     10  C   UNL A   1      34.212  24.592  25.667  1.00  0.00     0.054 C 
ATOM     11  C   UNL A   1      33.972  22.907  23.690  1.00  0.00     0.042 C 
ATOM     12  C   UNL A   1      34.347  25.224  24.278  1.00  0.00    -0.022 C 
ATOM     13  C   UNL A   1      35.304  23.484  25.801  1.00  0.00     0.031 C 
ATOM     14  C   UNL A   1      34.217  24.351  23.256  1.00  0.00    -0.022 C 
ATOM     15  C   UNL A   1      35.171  22.475  24.601  1.00  0.00     0.030 C 
ATOM     16  C   UNL A   1      36.717  23.728  25.296  1.00  0.00    -0.026 C 
ATOM     17  C   UNL A   1      36.600  22.877  24.256  1.00  0.00    -0.026 C 
ENDBRANCH   6   8
ENDBRANCH   3   4
ENDBRANCH   2   3
ENDBRANCH   1   2
BRANCH   1  18
ATOM     18  C   UNL A   1      33.924  28.421  27.069  1.00  0.00     0.116 C 
BRANCH  18  19
ATOM     19  N   UNL A   1      33.779  29.783  27.551  1.00  0.00    -0.352 N 
ATOM     20  C   UNL A   1      34.664  30.559  28.261  1.00  0.00     0.251 C 
ATOM     21  H   UNL A   1      32.921  30.214  27.339  1.00  0.00     0.163 HD
ATOM     22  O   UNL A   1      34.293  31.634  28.722  1.00  0.00    -0.269 OA
BRANCH  20  23
ATOM     23  C   UNL A   1      36.057  30.108  28.493  1.00  0.00     0.039 A 
ATOM     24  C   UNL A   1      36.965  30.175  27.430  1.00  0.00     0.014 A 
ATOM     25  C   UNL A   1      36.459  29.568  29.718  1.00  0.00     0.014 A 
ATOM     26  C   UNL A   1      38.284  29.746  27.607  1.00  0.00     0.010 A 
ATOM     27  C   UNL A   1      37.788  29.179  29.907  1.00  0.00     0.010 A 
ATOM     28  C   UNL A   1      38.711  29.261  28.852  1.00  0.00    -0.014 A 
BRANCH  28  29
ATOM     29  C   UNL A   1      40.113  28.819  29.064  1.00  0.00     0.031 A 
ATOM     30  C   UNL A   1      41.115  29.753  29.682  1.00  0.00     0.074 A 
ATOM     31  C   UNL A   1      40.501  27.596  28.655  1.00  0.00     0.049 A 
ATOM     32  N   UNL A   1      42.402  29.588  29.857  1.00  0.00    -0.248 NA
ATOM     33  C   UNL A   1      40.606  31.052  30.148  1.00  0.00     0.031 C 
ATOM     34  C   UNL A   1      39.637  26.601  28.019  1.00  0.00     0.029 A 
ATOM     35  N   UNL A   1      41.731  26.987  28.704  1.00  0.00    -0.354 N 
ATOM     36  C   UNL A   1      42.860  30.766  30.433  1.00  0.00     0.074 A 
ATOM     37  C   UNL A   1      41.718  31.647  30.556  1.00  0.00     0.031 C 
ATOM     38  C   UNL A   1      40.362  25.504  27.743  1.00  0.00     0.029 A 
ATOM     39  C   UNL A   1      41.743  25.728  28.156  1.00  0.00     0.049 A 
ATOM     40  H   UNL A   1      42.527  27.413  29.095  1.00  0.00     0.167 HD
ATOM     41  C   UNL A   1      44.115  31.081  30.833  1.00  0.00     0.037 A 
ATOM     42  C   UNL A   1      42.757  24.856  27.998  1.00  0.00     0.037 A 
ATOM     43  C   UNL A   1      45.249  30.200  30.743  1.00  0.00     0.049 A 
ATOM     44  C   UNL A   1      44.133  25.220  28.477  1.00  0.00     0.074 A 
ATOM     45  C   UNL A   1      46.555  30.428  31.142  1.00  0.00     0.029 A 
ATOM     46  N   UNL A   1      45.207  28.915  30.227  1.00  0.00    -0.354 N 
ATOM     47  N   UNL A   1      44.546  26.331  29.035  1.00  0.00    -0.248 NA
ATOM     48  C   UNL A   1      45.185  24.205  28.308  1.00  0.00     0.031 C 
ATOM     49  C   UNL A   1      47.307  29.283  30.856  1.00  0.00     0.029 A 
ATOM     50  C   UNL A   1      46.463  28.335  30.303  1.00  0.00     0.049 A 
ATOM     51  H   UNL A   1      44.404  28.477  29.863  1.00  0.00     0.167 HD
ATOM     52  C   UNL A   1      45.894  26.141  29.306  1.00  0.00     0.074 A 
ATOM     53  C   UNL A   1      46.230  24.805  28.859  1.00  0.00     0.031 C 
ATOM     54  C   UNL A   1      46.775  26.999  29.873  1.00  0.00     0.037 A 
BRANCH  41  55
ATOM     55  C   UNL A   1      44.328  32.445  31.416  1.00  0.00     0.057 A 
ATOM     56  C   UNL A   1      44.632  33.547  30.608  1.00  0.00     0.134 A 
ATOM     57  C   UNL A   1      44.189  32.665  32.792  1.00  0.00     0.134 A 
ATOM     58  F   UNL A   1      44.790  33.395  29.285  1.00  0.00    -0.206 F 
ATOM     59  C   UNL A   1      44.805  34.821  31.150  1.00  0.00     0.040 A 
ATOM     60  C   UNL A   1      44.342  33.938  33.343  1.00  0.00     0.040 A 
ATOM     61  F   UNL A   1      43.896  31.650  33.619  1.00  0.00    -0.206 F 
ATOM     62  C   UNL A   1      44.654  35.020  32.521  1.00  0.00     0.006 A 
ENDBRANCH  41  55
BRANCH  42  63
ATOM     63  C   UNL A   1      42.507  23.537  27.369  1.00  0.00     0.057 A 
ATOM     64  C   UNL A   1      42.104  22.439  28.137  1.00  0.00     0.134 A 
ATOM     65  C   UNL A   1      42.685  23.339  25.995  1.00  0.00     0.134 A 
ATOM     66  F   UNL A   1      41.939  22.566  29.462  1.00  0.00    -0.206 F 
ATOM     67  C   UNL A   1      41.901  21.184  27.563  1.00  0.00     0.040 A 
ATOM     68  C   UNL A   1      42.468  22.093  25.405  1.00  0.00     0.040 A 
ATOM     69  F   UNL A   1      43.069  24.355  25.209  1.00  0.00    -0.206 F 
ATOM     70  C   UNL A   1      42.081  21.010  26.192  1.00  0.00     0.006 A 
ENDBRANCH  42  63
BRANCH  54  71
ATOM     71  C   UNL A   1      48.174  26.504  30.080  1.00  0.00     0.057 A 
ATOM     72  C   UNL A   1      49.173  26.699  29.119  1.00  0.00     0.134 A 
ATOM     73  C   UNL A   1      48.531  25.857  31.269  1.00  0.00     0.134 A 
ATOM     74  F   UNL A   1      48.887  27.302  27.954  1.00  0.00    -0.206 F 
ATOM     75  C   UNL A   1      50.478  26.252  29.327  1.00  0.00     0.040 A 
ATOM     76  C   UNL A   1      49.837  25.420  31.495  1.00  0.00     0.040 A 
ATOM     77  F   UNL A   1      47.619  25.645  32.229  1.00  0.00    -0.206 F 
ATOM     78  C   UNL A   1      50.813  25.615  30.521  1.00  0.00     0.006 A 
ENDBRANCH  54  71
ENDBRANCH  28  29
ENDBRANCH  20  23
ENDBRANCH  18  19
ENDBRANCH   1  18
TORSDOF 11
ENDMDL
MODEL 2
REMARK VINA RESULT:     -11.2      3.732      6.527
REMARK SMILES O=C(NCCCCNC(=O)c1ccc(-c2c3nc(c(-c4c(F)cccc4F)c4ccc([nH]4)c(-c4c(F)cccc4F)c4nc(c(-c5c(F)cccc5F)c5ccc2[nH]5)C=C4)C=C3)cc1)C1=C[C@H]2C=C[C@@H]1[C@@H]1C=C[C@H]21
REMARK SMILES IDX 6 1 5 2 4 3 3 4 1 5 2 6 65 8 66 9 70 10 67 11 69 12 71 13
REMARK SMILES IDX 68 14 74 15 72 16 73 17 7 18 8 19 9 20 10 22 11 23 12 24
REMARK SMILES IDX 64 25 13 26 63 27 14 28 15 29 16 30 57 31 17 32 62 33 56 34
REMARK SMILES IDX 58 35 18 36 61 37 55 38 54 39 19 41 45 42 28 43 44 44 29 45
REMARK SMILES IDX 32 46 43 47 59 48 30 49 31 50 42 52 60 53 33 54 20 55 21 56
REMARK SMILES IDX 26 57 22 58 23 59 25 60 27 61 24 62 46 63 47 64 52 65 48 66
REMARK SMILES IDX 49 67 51 68 53 69 50 70 34 71 35 72 40 73 36 74 37 75 39 76
REMARK SMILES IDX 41 77 38 78
REMARK H PARENT 3 7 8 21 58 40 32 51
REMARK Flexibility Score: inf
ROOT
ATOM      1  C   UNL A   1      34.670  34.574  28.317  1.00  0.00     0.023 C 
ENDROOT
BRANCH   1   2
ATOM      2  C   UNL A   1      34.029  35.832  28.918  1.00  0.00     0.023 C 
BRANCH   2   3
ATOM      3  C   UNL A   1      33.084  35.585  30.095  1.00  0.00     0.116 C 
BRANCH   3   4
ATOM      4  N   UNL A   1      33.369  36.468  31.211  1.00  0.00    -0.352 N 
ATOM      5  O   UNL A   1      34.403  37.207  33.059  1.00  0.00    -0.270 OA
ATOM      6  C   UNL A   1      34.172  36.280  32.290  1.00  0.00     0.247 C 
ATOM      7  H   UNL A   1      32.910  37.339  31.180  1.00  0.00     0.163 HD
BRANCH   6   8
ATOM      8  C   UNL A   1      34.806  34.974  32.501  1.00  0.00     0.021 C 
ATOM      9  C   UNL A   1      34.181  33.855  32.940  1.00  0.00    -0.009 C 
ATOM     10  C   UNL A   1      36.329  34.875  32.416  1.00  0.00     0.054 C 
ATOM     11  C   UNL A   1      35.147  32.703  33.251  1.00  0.00     0.042 C 
ATOM     12  C   UNL A   1      36.646  33.624  31.590  1.00  0.00    -0.022 C 
ATOM     13  C   UNL A   1      36.749  34.596  33.894  1.00  0.00     0.031 C 
ATOM     14  C   UNL A   1      36.029  32.503  32.020  1.00  0.00    -0.022 C 
ATOM     15  C   UNL A   1      36.050  33.279  34.395  1.00  0.00     0.030 C 
ATOM     16  C   UNL A   1      38.059  33.889  34.203  1.00  0.00    -0.026 C 
ATOM     17  C   UNL A   1      37.462  32.751  34.616  1.00  0.00    -0.026 C 
ENDBRANCH   6   8
ENDBRANCH   3   4
ENDBRANCH   2   3
ENDBRANCH   1   2
BRANCH   1  18
ATOM     18  C   UNL A   1      34.326  33.259  29.013  1.00  0.00     0.116 C 
BRANCH  18  19
ATOM     19  N   UNL A   1      33.741  32.288  28.105  1.00  0.00    -0.352 N 
ATOM     20  C   UNL A   1      34.265  31.112  27.625  1.00  0.00     0.251 C 
ATOM     21  H   UNL A   1      32.835  32.505  27.787  1.00  0.00     0.163 HD
ATOM     22  O   UNL A   1      33.678  30.507  26.733  1.00  0.00    -0.269 OA
BRANCH  20  23
ATOM     23  C   UNL A   1      35.538  30.572  28.157  1.00  0.00     0.039 A 
ATOM     24  C   UNL A   1      35.489  29.710  29.259  1.00  0.00     0.014 A 
ATOM     25  C   UNL A   1      36.775  30.949  27.626  1.00  0.00     0.014 A 
ATOM     26  C   UNL A   1      36.669  29.190  29.797  1.00  0.00     0.010 A 
ATOM     27  C   UNL A   1      37.952  30.397  28.137  1.00  0.00     0.010 A 
ATOM     28  C   UNL A   1      37.911  29.517  29.229  1.00  0.00    -0.014 A 
BRANCH  28  29
ATOM     29  C   UNL A   1      39.174  28.960  29.776  1.00  0.00     0.031 A 
ATOM     30  C   UNL A   1      39.809  29.576  30.992  1.00  0.00     0.074 A 
ATOM     31  C   UNL A   1      39.781  27.933  29.151  1.00  0.00     0.049 A 
ATOM     32  N   UNL A   1      40.956  29.297  31.557  1.00  0.00    -0.248 NA
ATOM     33  C   UNL A   1      39.063  30.661  31.647  1.00  0.00     0.031 C 
ATOM     34  C   UNL A   1      39.287  27.259  27.951  1.00  0.00     0.029 A 
ATOM     35  N   UNL A   1      40.957  27.283  29.438  1.00  0.00    -0.354 N 
ATOM     36  C   UNL A   1      41.079  30.183  32.619  1.00  0.00     0.074 A 
ATOM     37  C   UNL A   1      39.902  31.025  32.606  1.00  0.00     0.031 C 
ATOM     38  C   UNL A   1      40.149  26.288  27.606  1.00  0.00     0.029 A 
ATOM     39  C   UNL A   1      41.267  26.288  28.545  1.00  0.00     0.049 A 
ATOM     40  H   UNL A   1      41.523  27.509  30.211  1.00  0.00     0.167 HD
ATOM     41  C   UNL A   1      42.077  30.279  33.531  1.00  0.00     0.037 A 
ATOM     42  C   UNL A   1      42.337  25.473  28.484  1.00  0.00     0.037 A 
ATOM     43  C   UNL A   1      43.236  29.426  33.570  1.00  0.00     0.049 A 
ATOM     44  C   UNL A   1      43.416  25.583  29.524  1.00  0.00     0.074 A 
ATOM     45  C   UNL A   1      44.288  29.439  34.469  1.00  0.00     0.029 A 
ATOM     46  N   UNL A   1      43.486  28.399  32.675  1.00  0.00    -0.354 N 
ATOM     47  N   UNL A   1      43.509  26.414  30.532  1.00  0.00    -0.248 NA
ATOM     48  C   UNL A   1      44.537  24.635  29.420  1.00  0.00     0.031 C 
ATOM     49  C   UNL A   1      45.183  28.425  34.111  1.00  0.00     0.029 A 
ATOM     50  C   UNL A   1      44.674  27.767  33.004  1.00  0.00     0.049 A 
ATOM     51  H   UNL A   1      42.906  28.153  31.919  1.00  0.00     0.167 HD
ATOM     52  C   UNL A   1      44.681  26.076  31.195  1.00  0.00     0.074 A 
ATOM     53  C   UNL A   1      45.262  24.959  30.481  1.00  0.00     0.031 C 
ATOM     54  C   UNL A   1      45.227  26.644  32.297  1.00  0.00     0.037 A 
BRANCH  41  55
ATOM     55  C   UNL A   1      41.956  31.349  34.572  1.00  0.00     0.057 A 
ATOM     56  C   UNL A   1      41.201  31.156  35.736  1.00  0.00     0.134 A 
ATOM     57  C   UNL A   1      42.631  32.567  34.430  1.00  0.00     0.134 A 
ATOM     58  F   UNL A   1      40.521  30.014  35.922  1.00  0.00    -0.206 F 
ATOM     59  C   UNL A   1      41.110  32.143  36.717  1.00  0.00     0.040 A 
ATOM     60  C   UNL A   1      42.562  33.556  35.413  1.00  0.00     0.040 A 
ATOM     61  F   UNL A   1      43.373  32.812  33.340  1.00  0.00    -0.206 F 
ATOM     62  C   UNL A   1      41.797  33.346  36.559  1.00  0.00     0.006 A 
ENDBRANCH  41  55
BRANCH  42  63
ATOM     63  C   UNL A   1      42.438  24.462  27.404  1.00  0.00     0.057 A 
ATOM     64  C   UNL A   1      41.983  23.155  27.599  1.00  0.00     0.134 A 
ATOM     65  C   UNL A   1      43.009  24.775  26.165  1.00  0.00     0.134 A 
ATOM     66  F   UNL A   1      41.447  22.794  28.775  1.00  0.00    -0.206 F 
ATOM     67  C   UNL A   1      42.105  22.184  26.604  1.00  0.00     0.040 A 
ATOM     68  C   UNL A   1      43.120  23.819  25.154  1.00  0.00     0.040 A 
ATOM     69  F   UNL A   1      43.461  26.013  25.920  1.00  0.00    -0.206 F 
ATOM     70  C   UNL A   1      42.673  22.518  25.376  1.00  0.00     0.006 A 
ENDBRANCH  42  63
BRANCH  54  71
ATOM     71  C   UNL A   1      46.494  26.039  32.820  1.00  0.00     0.057 A 
ATOM     72  C   UNL A   1      47.752  26.489  32.402  1.00  0.00     0.134 A 
ATOM     73  C   UNL A   1      46.452  25.019  33.778  1.00  0.00     0.134 A 
ATOM     74  F   UNL A   1      47.854  27.455  31.476  1.00  0.00    -0.206 F 
ATOM     75  C   UNL A   1      48.927  25.934  32.908  1.00  0.00     0.040 A 
ATOM     76  C   UNL A   1      47.621  24.468  34.304  1.00  0.00     0.040 A 
ATOM     77  F   UNL A   1      45.277  24.549  34.221  1.00  0.00    -0.206 F 
ATOM     78  C   UNL A   1      48.863  24.924  33.866  1.00  0.00     0.006 A 
ENDBRANCH  54  71
ENDBRANCH  28  29
ENDBRANCH  20  23
ENDBRANCH  18  19
ENDBRANCH   1  18
TORSDOF 11
ENDMDL
MODEL 3
REMARK VINA RESULT:     -11.0      1.995      2.547
REMARK SMILES O=C(NCCCCNC(=O)c1ccc(-c2c3nc(c(-c4c(F)cccc4F)c4ccc([nH]4)c(-c4c(F)cccc4F)c4nc(c(-c5c(F)cccc5F)c5ccc2[nH]5)C=C4)C=C3)cc1)C1=C[C@H]2C=C[C@@H]1[C@@H]1C=C[C@H]21
REMARK SMILES IDX 6 1 5 2 4 3 3 4 1 5 2 6 65 8 66 9 70 10 67 11 69 12 71 13
REMARK SMILES IDX 68 14 74 15 72 16 73 17 7 18 8 19 9 20 10 22 11 23 12 24
REMARK SMILES IDX 64 25 13 26 63 27 14 28 15 29 16 30 57 31 17 32 62 33 56 34
REMARK SMILES IDX 58 35 18 36 61 37 55 38 54 39 19 41 45 42 28 43 44 44 29 45
REMARK SMILES IDX 32 46 43 47 59 48 30 49 31 50 42 52 60 53 33 54 20 55 21 56
REMARK SMILES IDX 26 57 22 58 23 59 25 60 27 61 24 62 46 63 47 64 52 65 48 66
REMARK SMILES IDX 49 67 51 68 53 69 50 70 34 71 35 72 40 73 36 74 37 75 39 76
REMARK SMILES IDX 41 77 38 78
REMARK H PARENT 3 7 8 21 58 40 32 51
REMARK Flexibility Score: inf
ROOT
ATOM      1  C   UNL A   1      33.296  27.855  26.904  1.00  0.00     0.023 C 
ENDROOT
BRANCH   1   2
ATOM      2  C   UNL A   1      31.765  27.750  26.854  1.00  0.00     0.023 C 
BRANCH   2   3
ATOM      3  C   UNL A   1      31.217  26.582  26.033  1.00  0.00     0.116 C 
BRANCH   3   4
ATOM      4  N   UNL A   1      31.160  25.356  26.808  1.00  0.00    -0.352 N 
ATOM      5  O   UNL A   1      31.779  23.321  27.519  1.00  0.00    -0.270 OA
ATOM      6  C   UNL A   1      31.861  24.202  26.669  1.00  0.00     0.247 C 
ATOM      7  H   UNL A   1      30.513  25.364  27.551  1.00  0.00     0.163 HD
BRANCH   6   8
ATOM      8  C   UNL A   1      32.760  24.036  25.521  1.00  0.00     0.021 C 
ATOM      9  C   UNL A   1      32.560  23.196  24.478  1.00  0.00    -0.009 C 
ATOM     10  C   UNL A   1      34.136  24.699  25.565  1.00  0.00     0.054 C 
ATOM     11  C   UNL A   1      33.770  23.098  23.537  1.00  0.00     0.042 C 
ATOM     12  C   UNL A   1      34.357  25.351  24.196  1.00  0.00    -0.022 C 
ATOM     13  C   UNL A   1      35.112  23.487  25.685  1.00  0.00     0.031 C 
ATOM     14  C   UNL A   1      34.161  24.523  23.149  1.00  0.00    -0.022 C 
ATOM     15  C   UNL A   1      34.904  22.527  24.455  1.00  0.00     0.030 C 
ATOM     16  C   UNL A   1      36.551  23.604  25.210  1.00  0.00    -0.026 C 
ATOM     17  C   UNL A   1      36.371  22.797  24.144  1.00  0.00    -0.026 C 
ENDBRANCH   6   8
ENDBRANCH   3   4
ENDBRANCH   2   3
ENDBRANCH   1   2
BRANCH   1  18
ATOM     18  C   UNL A   1      33.915  28.926  26.007  1.00  0.00     0.116 C 
BRANCH  18  19
ATOM     19  N   UNL A   1      33.716  30.267  26.528  1.00  0.00    -0.352 N 
ATOM     20  C   UNL A   1      34.405  30.934  27.512  1.00  0.00     0.251 C 
ATOM     21  H   UNL A   1      32.979  30.771  26.116  1.00  0.00     0.163 HD
ATOM     22  O   UNL A   1      33.980  32.008  27.927  1.00  0.00    -0.269 OA
BRANCH  20  23
ATOM     23  C   UNL A   1      35.647  30.369  28.090  1.00  0.00     0.039 A 
ATOM     24  C   UNL A   1      36.833  30.475  27.355  1.00  0.00     0.014 A 
ATOM     25  C   UNL A   1      35.644  29.689  29.311  1.00  0.00     0.014 A 
ATOM     26  C   UNL A   1      38.022  29.942  27.862  1.00  0.00     0.010 A 
ATOM     27  C   UNL A   1      36.840  29.194  29.837  1.00  0.00     0.010 A 
ATOM     28  C   UNL A   1      38.039  29.312  29.116  1.00  0.00    -0.014 A 
BRANCH  28  29
ATOM     29  C   UNL A   1      39.296  28.756  29.678  1.00  0.00     0.031 A 
ATOM     30  C   UNL A   1      39.924  29.384  30.891  1.00  0.00     0.074 A 
ATOM     31  C   UNL A   1      39.903  27.719  29.072  1.00  0.00     0.049 A 
ATOM     32  N   UNL A   1      41.065  29.108  31.469  1.00  0.00    -0.248 NA
ATOM     33  C   UNL A   1      39.177  30.481  31.527  1.00  0.00     0.031 C 
ATOM     34  C   UNL A   1      39.415  27.032  27.876  1.00  0.00     0.029 A 
ATOM     35  N   UNL A   1      41.074  27.068  29.376  1.00  0.00    -0.354 N 
ATOM     36  C   UNL A   1      41.185  30.007  32.521  1.00  0.00     0.074 A 
ATOM     37  C   UNL A   1      40.011  30.854  32.488  1.00  0.00     0.031 C 
ATOM     38  C   UNL A   1      40.275  26.053  27.550  1.00  0.00     0.029 A 
ATOM     39  C   UNL A   1      41.386  26.061  28.497  1.00  0.00     0.049 A 
ATOM     40  H   UNL A   1      41.634  27.302  30.150  1.00  0.00     0.167 HD
ATOM     41  C   UNL A   1      42.176  30.111  33.438  1.00  0.00     0.037 A 
ATOM     42  C   UNL A   1      42.453  25.240  28.454  1.00  0.00     0.037 A 
ATOM     43  C   UNL A   1      43.330  29.253  33.497  1.00  0.00     0.049 A 
ATOM     44  C   UNL A   1      43.525  25.358  29.501  1.00  0.00     0.074 A 
ATOM     45  C   UNL A   1      44.376  29.273  34.403  1.00  0.00     0.029 A 
ATOM     46  N   UNL A   1      43.583  28.214  32.617  1.00  0.00    -0.354 N 
ATOM     47  N   UNL A   1      43.614  26.202  30.499  1.00  0.00    -0.248 NA
ATOM     48  C   UNL A   1      44.642  24.405  29.417  1.00  0.00     0.031 C 
ATOM     49  C   UNL A   1      45.270  28.251  34.065  1.00  0.00     0.029 A 
ATOM     50  C   UNL A   1      44.766  27.581  32.963  1.00  0.00     0.049 A 
ATOM     51  H   UNL A   1      43.007  27.960  31.860  1.00  0.00     0.167 HD
ATOM     52  C   UNL A   1      44.779  25.867  31.175  1.00  0.00     0.074 A 
ATOM     53  C   UNL A   1      45.361  24.739  30.480  1.00  0.00     0.031 C 
ATOM     54  C   UNL A   1      45.320  26.447  32.274  1.00  0.00     0.037 A 
BRANCH  41  55
ATOM     55  C   UNL A   1      42.051  31.194  34.465  1.00  0.00     0.057 A 
ATOM     56  C   UNL A   1      42.595  32.467  34.256  1.00  0.00     0.134 A 
ATOM     57  C   UNL A   1      41.347  30.975  35.656  1.00  0.00     0.134 A 
ATOM     58  F   UNL A   1      43.291  32.733  33.141  1.00  0.00    -0.206 F 
ATOM     59  C   UNL A   1      42.455  33.482  35.203  1.00  0.00     0.040 A 
ATOM     60  C   UNL A   1      41.186  31.988  36.602  1.00  0.00     0.040 A 
ATOM     61  F   UNL A   1      40.800  29.777  35.914  1.00  0.00    -0.206 F 
ATOM     62  C   UNL A   1      41.743  33.245  36.378  1.00  0.00     0.006 A 
ENDBRANCH  41  55
BRANCH  42  63
ATOM     63  C   UNL A   1      42.558  24.216  27.388  1.00  0.00     0.057 A 
ATOM     64  C   UNL A   1      43.125  24.523  26.148  1.00  0.00     0.134 A 
ATOM     65  C   UNL A   1      42.077  22.915  27.578  1.00  0.00     0.134 A 
ATOM     66  F   UNL A   1      43.583  25.760  25.903  1.00  0.00    -0.206 F 
ATOM     67  C   UNL A   1      43.198  23.578  25.124  1.00  0.00     0.040 A 
ATOM     68  C   UNL A   1      42.160  21.954  26.570  1.00  0.00     0.040 A 
ATOM     69  F   UNL A   1      41.525  22.562  28.748  1.00  0.00    -0.206 F 
ATOM     70  C   UNL A   1      42.716  22.288  25.336  1.00  0.00     0.006 A 
ENDBRANCH  42  63
BRANCH  54  71
ATOM     71  C   UNL A   1      46.580  25.843  32.814  1.00  0.00     0.057 A 
ATOM     72  C   UNL A   1      47.843  26.273  32.390  1.00  0.00     0.134 A 
ATOM     73  C   UNL A   1      46.527  24.845  33.795  1.00  0.00     0.134 A 
ATOM     74  F   UNL A   1      47.955  27.218  31.443  1.00  0.00    -0.206 F 
ATOM     75  C   UNL A   1      49.012  25.720  32.912  1.00  0.00     0.040 A 
ATOM     76  C   UNL A   1      47.690  24.296  34.336  1.00  0.00     0.040 A 
ATOM     77  F   UNL A   1      45.346  24.395  34.244  1.00  0.00    -0.206 F 
ATOM     78  C   UNL A   1      48.936  24.732  33.892  1.00  0.00     0.006 A 
ENDBRANCH  54  71
ENDBRANCH  28  29
ENDBRANCH  20  23
ENDBRANCH  18  19
ENDBRANCH   1  18
TORSDOF 11
ENDMDL
