MODEL 1
REMARK VINA RESULT:     -10.7      0.000      0.000
REMARK SMILES O=C(NCCCCNC(=O)[C@@H](Cc1ccccc1Br)CC(F)(F)F)c1ccc(-c2c3nc(c(-c4c(F)cccc4F)c4ccc([nH]4)c(-c4c(F)cccc4F)c4nc(c(-c5c(F)cccc5F)c5ccc2[nH]5)C=C4)C=C3)cc1
REMARK SMILES IDX 5 1 4 2 3 3 1 4 2 5 25 7 26 8 78 9 27 10 77 11 28 12 29 13
REMARK SMILES IDX 30 14 71 15 31 16 76 17 70 18 72 19 32 20 75 21 69 22 68 23
REMARK SMILES IDX 33 25 59 26 42 27 58 28 43 29 46 30 57 31 73 32 44 33 45 34
REMARK SMILES IDX 56 36 74 37 47 38 34 39 35 40 40 41 36 42 37 43 39 44 41 45
REMARK SMILES IDX 38 46 60 47 61 48 66 49 62 50 63 51 65 52 67 53 64 54 48 55
REMARK SMILES IDX 49 56 54 57 50 58 51 59 53 60 55 61 52 62 6 63 7 64 8 65
REMARK SMILES IDX 9 66 10 68 11 69 12 70 13 71 14 72 18 73 15 74 17 75 19 76
REMARK SMILES IDX 16 77 20 78 21 79 22 80 23 81 24 82
REMARK H PARENT 3 6 72 24 46 35 8 67
REMARK Flexibility Score: inf
ROOT
ATOM      1  C   UNL A   1      37.585  20.507  24.822  1.00  0.00     0.023 C 
ENDROOT
BRANCH   1   2
ATOM      2  C   UNL A   1      38.765  20.731  25.750  1.00  0.00     0.116 C 
BRANCH   2   3
ATOM      3  N   UNL A   1      39.755  19.655  25.706  1.00  0.00    -0.352 N 
ATOM      4  O   UNL A   1      41.802  18.697  25.795  1.00  0.00    -0.269 OA
ATOM      5  C   UNL A   1      41.096  19.677  26.012  1.00  0.00     0.251 C 
ATOM      6  H   UNL A   1      39.408  18.781  25.413  1.00  0.00     0.163 HD
BRANCH   5   7
ATOM      7  C   UNL A   1      41.684  20.911  26.569  1.00  0.00     0.039 A 
ATOM      8  C   UNL A   1      41.707  21.097  27.947  1.00  0.00     0.014 A 
ATOM      9  C   UNL A   1      42.133  21.919  25.713  1.00  0.00     0.014 A 
ATOM     10  C   UNL A   1      41.924  22.364  28.454  1.00  0.00     0.010 A 
ATOM     11  C   UNL A   1      42.511  23.156  26.245  1.00  0.00     0.010 A 
ATOM     12  C   UNL A   1      42.357  23.406  27.617  1.00  0.00    -0.014 A 
BRANCH  12  13
ATOM     13  C   UNL A   1      42.682  24.717  28.236  1.00  0.00     0.031 A 
ATOM     14  C   UNL A   1      44.097  25.110  28.558  1.00  0.00     0.074 A 
ATOM     15  C   UNL A   1      41.673  25.590  28.431  1.00  0.00     0.049 A 
ATOM     16  N   UNL A   1      44.537  26.224  29.088  1.00  0.00    -0.248 NA
ATOM     17  C   UNL A   1      45.156  24.132  28.263  1.00  0.00     0.031 C 
ATOM     18  C   UNL A   1      40.258  25.316  28.156  1.00  0.00     0.029 A 
ATOM     19  N   UNL A   1      41.677  26.894  28.849  1.00  0.00    -0.354 N 
ATOM     20  C   UNL A   1      45.909  26.064  29.234  1.00  0.00     0.074 A 
ATOM     21  C   UNL A   1      46.233  24.744  28.738  1.00  0.00     0.031 C 
ATOM     22  C   UNL A   1      39.552  26.441  28.312  1.00  0.00     0.029 A 
ATOM     23  C   UNL A   1      40.438  27.486  28.802  1.00  0.00     0.049 A 
ATOM     24  H   UNL A   1      42.489  27.362  29.154  1.00  0.00     0.167 HD
ATOM     25  C   UNL A   1      46.809  26.941  29.740  1.00  0.00     0.037 A 
ATOM     26  C   UNL A   1      40.047  28.727  29.138  1.00  0.00     0.037 A 
ATOM     27  C   UNL A   1      46.480  28.270  30.190  1.00  0.00     0.049 A 
ATOM     28  C   UNL A   1      41.067  29.678  29.680  1.00  0.00     0.074 A 
ATOM     29  C   UNL A   1      47.323  29.242  30.699  1.00  0.00     0.029 A 
ATOM     30  N   UNL A   1      45.204  28.816  30.172  1.00  0.00    -0.354 N 
ATOM     31  N   UNL A   1      42.355  29.498  29.839  1.00  0.00    -0.248 NA
ATOM     32  C   UNL A   1      40.577  30.990  30.117  1.00  0.00     0.031 C 
ATOM     33  C   UNL A   1      46.552  30.366  31.020  1.00  0.00     0.029 A 
ATOM     34  C   UNL A   1      45.236  30.107  30.675  1.00  0.00     0.049 A 
ATOM     35  H   UNL A   1      44.397  28.355  29.850  1.00  0.00     0.167 HD
ATOM     36  C   UNL A   1      42.833  30.671  30.402  1.00  0.00     0.074 A 
ATOM     37  C   UNL A   1      41.699  31.567  30.524  1.00  0.00     0.031 C 
ATOM     38  C   UNL A   1      44.092  30.975  30.796  1.00  0.00     0.037 A 
BRANCH  25  39
ATOM     39  C   UNL A   1      48.235  26.486  29.864  1.00  0.00     0.057 A 
ATOM     40  C   UNL A   1      48.699  25.784  30.982  1.00  0.00     0.134 A 
ATOM     41  C   UNL A   1      49.143  26.712  28.821  1.00  0.00     0.134 A 
ATOM     42  F   UNL A   1      47.885  25.546  32.022  1.00  0.00    -0.206 F 
ATOM     43  C   UNL A   1      50.021  25.337  31.067  1.00  0.00     0.040 A 
ATOM     44  C   UNL A   1      50.460  26.252  28.884  1.00  0.00     0.040 A 
ATOM     45  F   UNL A   1      48.761  27.374  27.718  1.00  0.00    -0.206 F 
ATOM     46  C   UNL A   1      50.903  25.564  30.011  1.00  0.00     0.006 A 
ENDBRANCH  25  39
BRANCH  26  47
ATOM     47  C   UNL A   1      38.622  29.110  28.996  1.00  0.00     0.057 A 
ATOM     48  C   UNL A   1      37.740  29.035  30.079  1.00  0.00     0.134 A 
ATOM     49  C   UNL A   1      38.120  29.609  27.787  1.00  0.00     0.134 A 
ATOM     50  F   UNL A   1      38.159  28.552  31.258  1.00  0.00    -0.206 F 
ATOM     51  C   UNL A   1      36.410  29.441  29.964  1.00  0.00     0.040 A 
ATOM     52  C   UNL A   1      36.801  30.045  27.666  1.00  0.00     0.040 A 
ATOM     53  F   UNL A   1      38.920  29.716  26.715  1.00  0.00    -0.206 F 
ATOM     54  C   UNL A   1      35.940  29.958  28.758  1.00  0.00     0.006 A 
ENDBRANCH  26  47
BRANCH  38  55
ATOM     55  C   UNL A   1      44.297  32.333  31.389  1.00  0.00     0.057 A 
ATOM     56  C   UNL A   1      44.205  32.549  32.771  1.00  0.00     0.134 A 
ATOM     57  C   UNL A   1      44.594  33.432  30.576  1.00  0.00     0.134 A 
ATOM     58  F   UNL A   1      43.905  31.537  33.599  1.00  0.00    -0.206 F 
ATOM     59  C   UNL A   1      44.381  33.819  33.320  1.00  0.00     0.040 A 
ATOM     60  C   UNL A   1      44.793  34.702  31.115  1.00  0.00     0.040 A 
ATOM     61  F   UNL A   1      44.697  33.286  29.246  1.00  0.00    -0.206 F 
ATOM     62  C   UNL A   1      44.679  34.900  32.491  1.00  0.00     0.006 A 
ENDBRANCH  38  55
ENDBRANCH  12  13
ENDBRANCH   5   7
ENDBRANCH   2   3
ENDBRANCH   1   2
BRANCH   1  63
ATOM     63  C   UNL A   1      36.451  21.487  25.040  1.00  0.00     0.023 C 
BRANCH  63  64
ATOM     64  C   UNL A   1      36.664  22.861  24.421  1.00  0.00     0.116 C 
BRANCH  64  65
ATOM     65  N   UNL A   1      35.775  23.057  23.300  1.00  0.00    -0.356 N 
ATOM     66  C   UNL A   1      34.486  23.458  23.234  1.00  0.00     0.223 C 
ATOM     67  H   UNL A   1      36.182  22.863  22.425  1.00  0.00     0.163 HD
ATOM     68  O   UNL A   1      33.939  23.397  22.128  1.00  0.00    -0.275 OA
BRANCH  66  69
ATOM     69  C   UNL A   1      33.698  23.986  24.430  1.00  0.00     0.092 C 
BRANCH  69  70
ATOM     70  C   UNL A   1      32.970  25.328  24.175  1.00  0.00     0.050 C 
BRANCH  70  71
ATOM     71  C   UNL A   1      32.789  26.343  25.285  1.00  0.00    -0.033 A 
ATOM     72  C   UNL A   1      33.883  27.151  25.655  1.00  0.00     0.005 A 
ATOM     73  C   UNL A   1      31.557  26.587  25.926  1.00  0.00     0.021 A 
ATOM     74  C   UNL A   1      33.776  28.106  26.671  1.00  0.00     0.000 A 
ATOM     75  C   UNL A   1      31.451  27.553  26.940  1.00  0.00     0.016 A 
ATOM     76  Br  UNL A   1      29.967  25.624  25.521  1.00  0.00    -0.051 Br
ATOM     77  C   UNL A   1      32.563  28.301  27.322  1.00  0.00     0.001 A 
ENDBRANCH  70  71
ENDBRANCH  69  70
BRANCH  69  78
ATOM     78  C   UNL A   1      32.928  22.954  25.266  1.00  0.00     0.129 C 
BRANCH  78  79
ATOM     79  C   UNL A   1      33.232  23.028  26.750  1.00  0.00     0.389 C 
ATOM     80  F   UNL A   1      34.369  23.709  26.991  1.00  0.00    -0.171 F 
ATOM     81  F   UNL A   1      32.226  23.671  27.388  1.00  0.00    -0.171 F 
ATOM     82  F   UNL A   1      33.337  21.806  27.309  1.00  0.00    -0.171 F 
ENDBRANCH  78  79
ENDBRANCH  69  78
ENDBRANCH  66  69
ENDBRANCH  64  65
ENDBRANCH  63  64
ENDBRANCH   1  63
TORSDOF 15
ENDMDL
MODEL 2
REMARK VINA RESULT:     -10.7      4.569      9.087
REMARK SMILES O=C(NCCCCNC(=O)[C@@H](Cc1ccccc1Br)CC(F)(F)F)c1ccc(-c2c3nc(c(-c4c(F)cccc4F)c4ccc([nH]4)c(-c4c(F)cccc4F)c4nc(c(-c5c(F)cccc5F)c5ccc2[nH]5)C=C4)C=C3)cc1
REMARK SMILES IDX 5 1 4 2 3 3 1 4 2 5 25 7 26 8 78 9 27 10 77 11 28 12 29 13
REMARK SMILES IDX 30 14 71 15 31 16 76 17 70 18 72 19 32 20 75 21 69 22 68 23
REMARK SMILES IDX 33 25 59 26 42 27 58 28 43 29 46 30 57 31 73 32 44 33 45 34
REMARK SMILES IDX 56 36 74 37 47 38 34 39 35 40 40 41 36 42 37 43 39 44 41 45
REMARK SMILES IDX 38 46 60 47 61 48 66 49 62 50 63 51 65 52 67 53 64 54 48 55
REMARK SMILES IDX 49 56 54 57 50 58 51 59 53 60 55 61 52 62 6 63 7 64 8 65
REMARK SMILES IDX 9 66 10 68 11 69 12 70 13 71 14 72 18 73 15 74 17 75 19 76
REMARK SMILES IDX 16 77 20 78 21 79 22 80 23 81 24 82
REMARK H PARENT 3 6 72 24 46 35 8 67
REMARK Flexibility Score: inf
ROOT
ATOM      1  C   UNL A   1      31.235  32.120  26.663  1.00  0.00     0.023 C 
ENDROOT
BRANCH   1   2
ATOM      2  C   UNL A   1      32.536  32.877  26.858  1.00  0.00     0.116 C 
BRANCH   2   3
ATOM      3  N   UNL A   1      32.392  34.085  27.671  1.00  0.00    -0.352 N 
ATOM      4  O   UNL A   1      32.811  35.521  29.367  1.00  0.00    -0.269 OA
ATOM      5  C   UNL A   1      33.160  34.540  28.718  1.00  0.00     0.251 C 
ATOM      6  H   UNL A   1      31.630  34.660  27.431  1.00  0.00     0.163 HD
BRANCH   5   7
ATOM      7  C   UNL A   1      34.389  33.806  29.077  1.00  0.00     0.039 A 
ATOM      8  C   UNL A   1      34.294  32.625  29.806  1.00  0.00     0.014 A 
ATOM      9  C   UNL A   1      35.640  34.341  28.760  1.00  0.00     0.014 A 
ATOM     10  C   UNL A   1      35.419  32.129  30.437  1.00  0.00     0.010 A 
ATOM     11  C   UNL A   1      36.795  33.737  29.267  1.00  0.00     0.010 A 
ATOM     12  C   UNL A   1      36.690  32.656  30.156  1.00  0.00    -0.014 A 
BRANCH  12  13
ATOM     13  C   UNL A   1      37.873  32.009  30.777  1.00  0.00     0.031 A 
ATOM     14  C   UNL A   1      38.286  32.307  32.191  1.00  0.00     0.074 A 
ATOM     15  C   UNL A   1      38.529  31.073  30.061  1.00  0.00     0.049 A 
ATOM     16  N   UNL A   1      39.287  31.810  32.874  1.00  0.00    -0.248 NA
ATOM     17  C   UNL A   1      37.489  33.293  32.936  1.00  0.00     0.031 C 
ATOM     18  C   UNL A   1      38.217  30.702  28.676  1.00  0.00     0.029 A 
ATOM     19  N   UNL A   1      39.550  30.227  30.402  1.00  0.00    -0.354 N 
ATOM     20  C   UNL A   1      39.271  32.455  34.104  1.00  0.00     0.074 A 
ATOM     21  C   UNL A   1      38.160  33.380  34.078  1.00  0.00     0.031 C 
ATOM     22  C   UNL A   1      38.953  29.641  28.326  1.00  0.00     0.029 A 
ATOM     23  C   UNL A   1      39.865  29.326  29.415  1.00  0.00     0.049 A 
ATOM     24  H   UNL A   1      40.014  30.262  31.271  1.00  0.00     0.167 HD
ATOM     25  C   UNL A   1      40.111  32.287  35.154  1.00  0.00     0.037 A 
ATOM     26  C   UNL A   1      40.802  28.363  29.374  1.00  0.00     0.037 A 
ATOM     27  C   UNL A   1      41.187  31.328  35.184  1.00  0.00     0.049 A 
ATOM     28  C   UNL A   1      41.706  28.191  30.554  1.00  0.00     0.074 A 
ATOM     29  C   UNL A   1      42.081  31.067  36.207  1.00  0.00     0.029 A 
ATOM     30  N   UNL A   1      41.506  30.467  34.144  1.00  0.00    -0.354 N 
ATOM     31  N   UNL A   1      41.693  28.831  31.698  1.00  0.00    -0.248 NA
ATOM     32  C   UNL A   1      42.768  27.188  30.430  1.00  0.00     0.031 C 
ATOM     33  C   UNL A   1      42.962  30.068  35.775  1.00  0.00     0.029 A 
ATOM     34  C   UNL A   1      42.592  29.682  34.497  1.00  0.00     0.049 A 
ATOM     35  H   UNL A   1      41.031  30.419  33.284  1.00  0.00     0.167 HD
ATOM     36  C   UNL A   1      42.752  28.315  32.430  1.00  0.00     0.074 A 
ATOM     37  C   UNL A   1      43.362  27.285  31.611  1.00  0.00     0.031 C 
ATOM     38  C   UNL A   1      43.188  28.671  33.661  1.00  0.00     0.037 A 
BRANCH  25  39
ATOM     39  C   UNL A   1      39.923  33.176  36.349  1.00  0.00     0.057 A 
ATOM     40  C   UNL A   1      40.606  34.389  36.491  1.00  0.00     0.134 A 
ATOM     41  C   UNL A   1      39.004  32.832  37.350  1.00  0.00     0.134 A 
ATOM     42  F   UNL A   1      41.510  34.772  35.576  1.00  0.00    -0.206 F 
ATOM     43  C   UNL A   1      40.393  35.222  37.593  1.00  0.00     0.040 A 
ATOM     44  C   UNL A   1      38.767  33.666  38.444  1.00  0.00     0.040 A 
ATOM     45  F   UNL A   1      38.311  31.685  37.272  1.00  0.00    -0.206 F 
ATOM     46  C   UNL A   1      39.465  34.864  38.569  1.00  0.00     0.006 A 
ENDBRANCH  25  39
BRANCH  26  47
ATOM     47  C   UNL A   1      40.938  27.523  28.160  1.00  0.00     0.057 A 
ATOM     48  C   UNL A   1      40.260  26.305  28.042  1.00  0.00     0.134 A 
ATOM     49  C   UNL A   1      41.709  27.943  27.068  1.00  0.00     0.134 A 
ATOM     50  F   UNL A   1      39.519  25.844  29.059  1.00  0.00    -0.206 F 
ATOM     51  C   UNL A   1      40.346  25.534  26.881  1.00  0.00     0.040 A 
ATOM     52  C   UNL A   1      41.780  27.197  25.893  1.00  0.00     0.040 A 
ATOM     53  F   UNL A   1      42.372  29.107  27.116  1.00  0.00    -0.206 F 
ATOM     54  C   UNL A   1      41.099  25.985  25.799  1.00  0.00     0.006 A 
ENDBRANCH  26  47
BRANCH  38  55
ATOM     55  C   UNL A   1      44.379  27.933  34.187  1.00  0.00     0.057 A 
ATOM     56  C   UNL A   1      44.240  26.731  34.895  1.00  0.00     0.134 A 
ATOM     57  C   UNL A   1      45.673  28.422  33.980  1.00  0.00     0.134 A 
ATOM     58  F   UNL A   1      43.022  26.223  35.139  1.00  0.00    -0.206 F 
ATOM     59  C   UNL A   1      45.350  26.053  35.397  1.00  0.00     0.040 A 
ATOM     60  C   UNL A   1      46.792  27.742  34.460  1.00  0.00     0.040 A 
ATOM     61  F   UNL A   1      45.869  29.566  33.308  1.00  0.00    -0.206 F 
ATOM     62  C   UNL A   1      46.631  26.557  35.177  1.00  0.00     0.006 A 
ENDBRANCH  38  55
ENDBRANCH  12  13
ENDBRANCH   5   7
ENDBRANCH   2   3
ENDBRANCH   1   2
BRANCH   1  63
ATOM     63  C   UNL A   1      31.390  30.855  25.844  1.00  0.00     0.023 C 
BRANCH  63  64
ATOM     64  C   UNL A   1      32.669  30.074  26.108  1.00  0.00     0.116 C 
BRANCH  64  65
ATOM     65  N   UNL A   1      33.380  29.830  24.874  1.00  0.00    -0.356 N 
ATOM     66  C   UNL A   1      33.252  28.862  23.939  1.00  0.00     0.223 C 
ATOM     67  H   UNL A   1      34.085  30.488  24.679  1.00  0.00     0.163 HD
ATOM     68  O   UNL A   1      34.106  28.832  23.047  1.00  0.00    -0.275 OA
BRANCH  66  69
ATOM     69  C   UNL A   1      32.118  27.840  23.924  1.00  0.00     0.092 C 
BRANCH  69  70
ATOM     70  C   UNL A   1      31.250  27.865  22.642  1.00  0.00     0.050 C 
BRANCH  70  71
ATOM     71  C   UNL A   1      29.955  28.648  22.591  1.00  0.00    -0.033 A 
ATOM     72  C   UNL A   1      29.935  29.892  21.930  1.00  0.00     0.005 A 
ATOM     73  C   UNL A   1      28.731  28.168  23.102  1.00  0.00     0.021 A 
ATOM     74  C   UNL A   1      28.769  30.660  21.848  1.00  0.00     0.000 A 
ATOM     75  C   UNL A   1      27.561  28.937  23.012  1.00  0.00     0.016 A 
ATOM     76  Br  UNL A   1      28.562  26.491  23.985  1.00  0.00    -0.051 Br
ATOM     77  C   UNL A   1      27.582  30.187  22.398  1.00  0.00     0.001 A 
ENDBRANCH  70  71
ENDBRANCH  69  70
BRANCH  69  78
ATOM     78  C   UNL A   1      32.428  26.450  24.496  1.00  0.00     0.129 C 
BRANCH  78  79
ATOM     79  C   UNL A   1      32.319  26.378  26.007  1.00  0.00     0.389 C 
ATOM     80  F   UNL A   1      31.237  27.040  26.460  1.00  0.00    -0.171 F 
ATOM     81  F   UNL A   1      32.201  25.086  26.393  1.00  0.00    -0.171 F 
ATOM     82  F   UNL A   1      33.412  26.874  26.620  1.00  0.00    -0.171 F 
ENDBRANCH  78  79
ENDBRANCH  69  78
ENDBRANCH  66  69
ENDBRANCH  64  65
ENDBRANCH  63  64
ENDBRANCH   1  63
TORSDOF 15
ENDMDL
MODEL 3
REMARK VINA RESULT:     -10.6      3.944      7.522
REMARK SMILES O=C(NCCCCNC(=O)[C@@H](Cc1ccccc1Br)CC(F)(F)F)c1ccc(-c2c3nc(c(-c4c(F)cccc4F)c4ccc([nH]4)c(-c4c(F)cccc4F)c4nc(c(-c5c(F)cccc5F)c5ccc2[nH]5)C=C4)C=C3)cc1
REMARK SMILES IDX 5 1 4 2 3 3 1 4 2 5 25 7 26 8 78 9 27 10 77 11 28 12 29 13
REMARK SMILES IDX 30 14 71 15 31 16 76 17 70 18 72 19 32 20 75 21 69 22 68 23
REMARK SMILES IDX 33 25 59 26 42 27 58 28 43 29 46 30 57 31 73 32 44 33 45 34
REMARK SMILES IDX 56 36 74 37 47 38 34 39 35 40 40 41 36 42 37 43 39 44 41 45
REMARK SMILES IDX 38 46 60 47 61 48 66 49 62 50 63 51 65 52 67 53 64 54 48 55
REMARK SMILES IDX 49 56 54 57 50 58 51 59 53 60 55 61 52 62 6 63 7 64 8 65
REMARK SMILES IDX 9 66 10 68 11 69 12 70 13 71 14 72 18 73 15 74 17 75 19 76
REMARK SMILES IDX 16 77 20 78 21 79 22 80 23 81 24 82
REMARK H PARENT 3 6 72 24 46 35 8 67
REMARK Flexibility Score: inf
ROOT
ATOM      1  C   UNL A   1      31.546  28.937  25.172  1.00  0.00     0.023 C 
ENDROOT
BRANCH   1   2
ATOM      2  C   UNL A   1      32.731  29.725  25.701  1.00  0.00     0.116 C 
BRANCH   2   3
ATOM      3  N   UNL A   1      32.372  31.046  26.215  1.00  0.00    -0.352 N 
ATOM      4  O   UNL A   1      32.500  32.877  27.538  1.00  0.00    -0.269 OA
ATOM      5  C   UNL A   1      33.020  31.842  27.131  1.00  0.00     0.251 C 
ATOM      6  H   UNL A   1      31.538  31.423  25.850  1.00  0.00     0.163 HD
BRANCH   5   7
ATOM      7  C   UNL A   1      34.335  31.415  27.648  1.00  0.00     0.039 A 
ATOM      8  C   UNL A   1      34.539  30.079  27.979  1.00  0.00     0.014 A 
ATOM      9  C   UNL A   1      35.335  32.361  27.883  1.00  0.00     0.014 A 
ATOM     10  C   UNL A   1      35.616  29.737  28.775  1.00  0.00     0.010 A 
ATOM     11  C   UNL A   1      36.504  31.975  28.547  1.00  0.00     0.010 A 
ATOM     12  C   UNL A   1      36.630  30.671  29.047  1.00  0.00    -0.014 A 
BRANCH  12  13
ATOM     13  C   UNL A   1      37.818  30.214  29.813  1.00  0.00     0.031 A 
ATOM     14  C   UNL A   1      38.900  29.389  29.175  1.00  0.00     0.074 A 
ATOM     15  C   UNL A   1      37.945  30.632  31.088  1.00  0.00     0.049 A 
ATOM     16  N   UNL A   1      40.002  28.928  29.712  1.00  0.00    -0.248 NA
ATOM     17  C   UNL A   1      38.727  29.020  27.761  1.00  0.00     0.031 C 
ATOM     18  C   UNL A   1      36.955  31.437  31.813  1.00  0.00     0.029 A 
ATOM     19  N   UNL A   1      38.969  30.491  31.986  1.00  0.00    -0.354 N 
ATOM     20  C   UNL A   1      40.626  28.178  28.724  1.00  0.00     0.074 A 
ATOM     21  C   UNL A   1      39.782  28.243  27.551  1.00  0.00     0.031 C 
ATOM     22  C   UNL A   1      37.462  31.804  32.995  1.00  0.00     0.029 A 
ATOM     23  C   UNL A   1      38.763  31.172  33.161  1.00  0.00     0.049 A 
ATOM     24  H   UNL A   1      39.775  29.954  31.807  1.00  0.00     0.167 HD
ATOM     25  C   UNL A   1      41.795  27.497  28.796  1.00  0.00     0.037 A 
ATOM     26  C   UNL A   1      39.522  31.264  34.266  1.00  0.00     0.037 A 
ATOM     27  C   UNL A   1      42.650  27.476  29.957  1.00  0.00     0.049 A 
ATOM     28  C   UNL A   1      40.815  30.512  34.311  1.00  0.00     0.074 A 
ATOM     29  C   UNL A   1      43.864  26.834  30.123  1.00  0.00     0.029 A 
ATOM     30  N   UNL A   1      42.382  28.139  31.146  1.00  0.00    -0.354 N 
ATOM     31  N   UNL A   1      41.375  29.784  33.376  1.00  0.00    -0.248 NA
ATOM     32  C   UNL A   1      41.567  30.570  35.569  1.00  0.00     0.031 C 
ATOM     33  C   UNL A   1      44.316  27.082  31.424  1.00  0.00     0.029 A 
ATOM     34  C   UNL A   1      43.402  27.909  32.055  1.00  0.00     0.049 A 
ATOM     35  H   UNL A   1      41.586  28.691  31.318  1.00  0.00     0.167 HD
ATOM     36  C   UNL A   1      42.543  29.287  33.934  1.00  0.00     0.074 A 
ATOM     37  C   UNL A   1      42.626  29.827  35.278  1.00  0.00     0.031 C 
ATOM     38  C   UNL A   1      43.456  28.449  33.390  1.00  0.00     0.037 A 
BRANCH  25  39
ATOM     39  C   UNL A   1      42.211  26.691  27.598  1.00  0.00     0.057 A 
ATOM     40  C   UNL A   1      41.860  25.345  27.448  1.00  0.00     0.134 A 
ATOM     41  C   UNL A   1      42.932  27.292  26.557  1.00  0.00     0.134 A 
ATOM     42  F   UNL A   1      41.183  24.706  28.413  1.00  0.00    -0.206 F 
ATOM     43  C   UNL A   1      42.225  24.619  26.310  1.00  0.00     0.040 A 
ATOM     44  C   UNL A   1      43.283  26.583  25.406  1.00  0.00     0.040 A 
ATOM     45  F   UNL A   1      43.294  28.581  26.636  1.00  0.00    -0.206 F 
ATOM     46  C   UNL A   1      42.932  25.241  25.282  1.00  0.00     0.006 A 
ENDBRANCH  25  39
BRANCH  26  47
ATOM     47  C   UNL A   1      39.050  32.072  35.416  1.00  0.00     0.057 A 
ATOM     48  C   UNL A   1      39.293  33.448  35.483  1.00  0.00     0.134 A 
ATOM     49  C   UNL A   1      38.301  31.496  36.450  1.00  0.00     0.134 A 
ATOM     50  F   UNL A   1      40.016  34.052  34.529  1.00  0.00    -0.206 F 
ATOM     51  C   UNL A   1      38.809  34.222  36.538  1.00  0.00     0.040 A 
ATOM     52  C   UNL A   1      37.787  32.263  37.495  1.00  0.00     0.040 A 
ATOM     53  F   UNL A   1      38.025  30.184  36.437  1.00  0.00    -0.206 F 
ATOM     54  C   UNL A   1      38.044  33.631  37.543  1.00  0.00     0.006 A 
ENDBRANCH  26  47
BRANCH  38  55
ATOM     55  C   UNL A   1      44.619  28.076  34.255  1.00  0.00     0.057 A 
ATOM     56  C   UNL A   1      44.587  26.939  35.073  1.00  0.00     0.134 A 
ATOM     57  C   UNL A   1      45.782  28.855  34.265  1.00  0.00     0.134 A 
ATOM     58  F   UNL A   1      43.492  26.165  35.118  1.00  0.00    -0.206 F 
ATOM     59  C   UNL A   1      45.666  26.603  35.891  1.00  0.00     0.040 A 
ATOM     60  C   UNL A   1      46.875  28.517  35.062  1.00  0.00     0.040 A 
ATOM     61  F   UNL A   1      45.872  29.953  33.501  1.00  0.00    -0.206 F 
ATOM     62  C   UNL A   1      46.816  27.391  35.883  1.00  0.00     0.006 A 
ENDBRANCH  38  55
ENDBRANCH  12  13
ENDBRANCH   5   7
ENDBRANCH   2   3
ENDBRANCH   1   2
BRANCH   1  63
ATOM     63  C   UNL A   1      31.531  28.810  23.663  1.00  0.00     0.023 C 
BRANCH  63  64
ATOM     64  C   UNL A   1      31.010  27.480  23.138  1.00  0.00     0.116 C 
BRANCH  64  65
ATOM     65  N   UNL A   1      31.807  27.026  22.022  1.00  0.00    -0.356 N 
ATOM     66  C   UNL A   1      32.791  26.104  21.936  1.00  0.00     0.223 C 
ATOM     67  H   UNL A   1      31.594  27.470  21.169  1.00  0.00     0.163 HD
ATOM     68  O   UNL A   1      33.393  26.030  20.860  1.00  0.00    -0.275 OA
BRANCH  66  69
ATOM     69  C   UNL A   1      33.174  25.161  23.074  1.00  0.00     0.092 C 
BRANCH  69  70
ATOM     70  C   UNL A   1      33.519  23.721  22.623  1.00  0.00     0.050 C 
BRANCH  70  71
ATOM     71  C   UNL A   1      33.587  22.584  23.622  1.00  0.00    -0.033 A 
ATOM     72  C   UNL A   1      32.390  21.969  24.039  1.00  0.00     0.005 A 
ATOM     73  C   UNL A   1      34.796  22.044  24.108  1.00  0.00     0.021 A 
ATOM     74  C   UNL A   1      32.390  20.915  24.958  1.00  0.00     0.000 A 
ATOM     75  C   UNL A   1      34.793  20.979  25.024  1.00  0.00     0.016 A 
ATOM     76  Br  UNL A   1      36.506  22.718  23.618  1.00  0.00    -0.051 Br
ATOM     77  C   UNL A   1      33.591  20.425  25.459  1.00  0.00     0.001 A 
ENDBRANCH  70  71
ENDBRANCH  69  70
BRANCH  69  78
ATOM     78  C   UNL A   1      34.049  25.741  24.193  1.00  0.00     0.129 C 
BRANCH  78  79
ATOM     79  C   UNL A   1      33.448  25.583  25.577  1.00  0.00     0.389 C 
ATOM     80  F   UNL A   1      33.959  24.517  26.222  1.00  0.00    -0.171 F 
ATOM     81  F   UNL A   1      33.723  26.681  26.319  1.00  0.00    -0.171 F 
ATOM     82  F   UNL A   1      32.107  25.459  25.538  1.00  0.00    -0.171 F 
ENDBRANCH  78  79
ENDBRANCH  69  78
ENDBRANCH  66  69
ENDBRANCH  64  65
ENDBRANCH  63  64
ENDBRANCH   1  63
TORSDOF 15
ENDMDL
