MODEL 1
REMARK VINA RESULT:     -13.1      0.000      0.000
REMARK SMILES COc1cccc(C(=O)Nc2ccc(NC(=O)[C@@H]3[C@@H](C(=O)NCCCCNC(=O)c4ccc(-c5c6nc(c(-c7c(F)cccc7F)c7ccc([nH]7)c(-c7c(F)cccc7F)c7nc(c(-c8c(F)cccc8F)c8ccc5[nH]8)C=C7)C=C6)cc4)[C@@H]4C=C[C@H]3C4)cc2)c1
REMARK SMILES IDX 23 1 22 2 20 3 21 4 19 6 18 7 87 8 84 9 86 10 88 11 85 12
REMARK SMILES IDX 16 13 15 14 17 16 14 17 11 18 12 19 90 20 13 21 89 22 10 23
REMARK SMILES IDX 8 24 9 25 7 27 3 28 4 29 91 30 5 31 6 32 2 33 1 34 24 35
REMARK SMILES IDX 25 36 26 37 27 38 28 39 29 41 30 42 31 43 83 44 32 45 82 46
REMARK SMILES IDX 33 47 34 48 35 49 76 50 36 51 81 52 75 53 77 54 37 55 80 56
REMARK SMILES IDX 74 57 73 58 38 60 64 61 47 62 63 63 48 64 51 65 62 66 78 67
REMARK SMILES IDX 49 68 50 69 61 71 79 72 52 73 39 74 40 75 45 76 41 77 42 78
REMARK SMILES IDX 44 79 46 80 43 81 65 82 66 83 71 84 67 85 68 86 70 87 72 88
REMARK SMILES IDX 69 89 53 90 54 91 59 92 55 93 56 94 58 95 60 96 57 97
REMARK H PARENT 22 5 15 15 10 26 27 40 77 59 51 70
REMARK Flexibility Score: inf
ROOT
ATOM      1  C   UNL A   1      36.223  22.189  24.252  1.00  0.00     0.116 C 
ENDROOT
BRANCH   1   2
ATOM      2  N   UNL A   1      35.084  21.917  25.114  1.00  0.00    -0.356 N 
ATOM      3  C   UNL A   1      34.270  20.846  25.334  1.00  0.00     0.224 C 
ATOM      4  O   UNL A   1      33.726  20.832  26.445  1.00  0.00    -0.275 OA
ATOM      5  H   UNL A   1      34.844  22.691  25.673  1.00  0.00     0.163 HD
BRANCH   3   6
ATOM      6  C   UNL A   1      33.916  19.747  24.326  1.00  0.00     0.098 C 
ATOM      7  C   UNL A   1      32.391  19.652  23.834  1.00  0.00     0.099 C 
ATOM      8  C   UNL A   1      32.153  18.136  24.030  1.00  0.00     0.025 C 
ATOM      9  C   UNL A   1      34.223  18.314  24.807  1.00  0.00     0.025 C 
ATOM     10  C   UNL A   1      33.027  17.328  23.124  1.00  0.00    -0.027 C 
ATOM     11  C   UNL A   1      32.864  17.870  25.334  1.00  0.00     0.017 C 
ATOM     12  C   UNL A   1      34.278  17.421  23.588  1.00  0.00    -0.027 C 
BRANCH   7  13
ATOM     13  C   UNL A   1      32.153  20.183  22.398  1.00  0.00     0.228 C 
ATOM     14  N   UNL A   1      32.153  21.508  22.015  1.00  0.00    -0.326 N 
ATOM     15  H   UNL A   1      32.152  21.640  21.039  1.00  0.00     0.169 HD
ATOM     16  O   UNL A   1      31.953  19.379  21.477  1.00  0.00    -0.274 OA
BRANCH  14  17
ATOM     17  C   UNL A   1      32.158  22.705  22.752  1.00  0.00     0.041 A 
ATOM     18  C   UNL A   1      31.772  25.427  23.022  1.00  0.00     0.041 A 
ATOM     19  C   UNL A   1      30.889  24.535  23.637  1.00  0.00     0.028 A 
ATOM     20  C   UNL A   1      33.036  24.954  22.706  1.00  0.00     0.028 A 
ATOM     21  C   UNL A   1      31.096  23.152  23.516  1.00  0.00     0.028 A 
ATOM     22  C   UNL A   1      33.233  23.574  22.564  1.00  0.00     0.028 A 
BRANCH  18  23
ATOM     23  N   UNL A   1      31.254  26.679  22.643  1.00  0.00    -0.322 N 
ATOM     24  C   UNL A   1      31.148  27.915  23.256  1.00  0.00     0.255 C 
ATOM     25  O   UNL A   1      30.647  28.835  22.604  1.00  0.00    -0.269 OA
ATOM     26  H   UNL A   1      30.881  26.675  21.732  1.00  0.00     0.170 HD
BRANCH  24  27
ATOM     27  C   UNL A   1      31.602  28.230  24.635  1.00  0.00     0.043 A 
ATOM     28  C   UNL A   1      33.020  29.395  26.227  1.00  0.00     0.119 A 
ATOM     29  C   UNL A   1      32.476  28.621  27.254  1.00  0.00     0.046 A 
ATOM     30  C   UNL A   1      32.521  29.243  24.933  1.00  0.00     0.060 A 
ATOM     31  C   UNL A   1      31.459  27.704  26.993  1.00  0.00     0.005 A 
ATOM     32  C   UNL A   1      31.029  27.502  25.683  1.00  0.00     0.014 A 
BRANCH  28  33
ATOM     33  O   UNL A   1      34.029  30.225  26.623  1.00  0.00    -0.497 OA
ATOM     34  C   UNL A   1      33.784  31.203  27.625  1.00  0.00     0.278 C 
ENDBRANCH  28  33
ENDBRANCH  24  27
ENDBRANCH  18  23
ENDBRANCH  14  17
ENDBRANCH   7  13
ENDBRANCH   3   6
ENDBRANCH   1   2
BRANCH   1  35
ATOM     35  C   UNL A   1      37.599  22.098  24.909  1.00  0.00     0.023 C 
BRANCH  35  36
ATOM     36  C   UNL A   1      38.151  20.678  25.042  1.00  0.00     0.023 C 
BRANCH  36  37
ATOM     37  C   UNL A   1      39.203  20.450  26.127  1.00  0.00     0.116 C 
BRANCH  37  38
ATOM     38  N   UNL A   1      40.063  19.292  25.937  1.00  0.00    -0.352 N 
ATOM     39  C   UNL A   1      41.441  19.263  26.044  1.00  0.00     0.251 C 
ATOM     40  H   UNL A   1      39.619  18.443  25.707  1.00  0.00     0.163 HD
ATOM     41  O   UNL A   1      42.077  18.238  25.830  1.00  0.00    -0.269 OA
BRANCH  39  42
ATOM     42  C   UNL A   1      42.140  20.523  26.375  1.00  0.00     0.039 A 
ATOM     43  C   UNL A   1      42.530  21.375  25.339  1.00  0.00     0.014 A 
ATOM     44  C   UNL A   1      42.270  20.918  27.708  1.00  0.00     0.014 A 
ATOM     45  C   UNL A   1      42.963  22.667  25.641  1.00  0.00     0.010 A 
ATOM     46  C   UNL A   1      42.623  22.229  28.001  1.00  0.00     0.010 A 
ATOM     47  C   UNL A   1      42.961  23.122  26.971  1.00  0.00    -0.014 A 
BRANCH  47  48
ATOM     48  C   UNL A   1      43.293  24.529  27.311  1.00  0.00     0.031 A 
ATOM     49  C   UNL A   1      44.721  24.990  27.286  1.00  0.00     0.074 A 
ATOM     50  C   UNL A   1      42.322  25.367  27.725  1.00  0.00     0.049 A 
ATOM     51  N   UNL A   1      45.224  26.151  27.619  1.00  0.00    -0.248 NA
ATOM     52  C   UNL A   1      45.724  24.001  26.861  1.00  0.00     0.031 C 
ATOM     53  C   UNL A   1      40.902  25.029  27.846  1.00  0.00     0.029 A 
ATOM     54  N   UNL A   1      42.385  26.678  28.128  1.00  0.00    -0.354 N 
ATOM     55  C   UNL A   1      46.598  26.025  27.467  1.00  0.00     0.074 A 
ATOM     56  C   UNL A   1      46.855  24.658  27.068  1.00  0.00     0.031 C 
ATOM     57  C   UNL A   1      40.225  26.115  28.256  1.00  0.00     0.029 A 
ATOM     58  C   UNL A   1      41.165  27.213  28.461  1.00  0.00     0.049 A 
ATOM     59  H   UNL A   1      43.227  27.187  28.174  1.00  0.00     0.167 HD
ATOM     60  C   UNL A   1      47.559  26.967  27.620  1.00  0.00     0.037 A 
ATOM     61  C   UNL A   1      40.841  28.451  28.879  1.00  0.00     0.037 A 
ATOM     62  C   UNL A   1      47.299  28.333  27.984  1.00  0.00     0.049 A 
ATOM     63  C   UNL A   1      41.923  29.480  29.045  1.00  0.00     0.074 A 
ATOM     64  C   UNL A   1      48.194  29.384  28.088  1.00  0.00     0.029 A 
ATOM     65  N   UNL A   1      46.049  28.838  28.308  1.00  0.00    -0.354 N 
ATOM     66  N   UNL A   1      43.211  29.369  28.825  1.00  0.00    -0.248 NA
ATOM     67  C   UNL A   1      41.506  30.808  29.519  1.00  0.00     0.031 C 
ATOM     68  C   UNL A   1      47.490  30.516  28.514  1.00  0.00     0.029 A 
ATOM     69  C   UNL A   1      46.151  30.181  28.636  1.00  0.00     0.049 A 
ATOM     70  H   UNL A   1      45.212  28.320  28.307  1.00  0.00     0.167 HD
ATOM     71  C   UNL A   1      43.754  30.616  29.101  1.00  0.00     0.074 A 
ATOM     72  C   UNL A   1      42.654  31.471  29.501  1.00  0.00     0.031 C 
ATOM     73  C   UNL A   1      45.046  31.019  29.026  1.00  0.00     0.037 A 
BRANCH  60  74
ATOM     74  C   UNL A   1      48.978  26.535  27.391  1.00  0.00     0.057 A 
ATOM     75  C   UNL A   1      49.544  26.504  26.109  1.00  0.00     0.134 A 
ATOM     76  C   UNL A   1      49.785  26.133  28.462  1.00  0.00     0.134 A 
ATOM     77  F   UNL A   1      48.820  26.861  25.038  1.00  0.00    -0.206 F 
ATOM     78  C   UNL A   1      50.846  26.050  25.896  1.00  0.00     0.040 A 
ATOM     79  C   UNL A   1      51.099  25.705  28.265  1.00  0.00     0.040 A 
ATOM     80  F   UNL A   1      49.309  26.143  29.716  1.00  0.00    -0.206 F 
ATOM     81  C   UNL A   1      51.629  25.652  26.977  1.00  0.00     0.006 A 
ENDBRANCH  60  74
BRANCH  61  82
ATOM     82  C   UNL A   1      39.418  28.804  29.119  1.00  0.00     0.057 A 
ATOM     83  C   UNL A   1      38.844  28.624  30.383  1.00  0.00     0.134 A 
ATOM     84  C   UNL A   1      38.606  29.330  28.109  1.00  0.00     0.134 A 
ATOM     85  F   UNL A   1      39.568  28.106  31.385  1.00  0.00    -0.206 F 
ATOM     86  C   UNL A   1      37.509  28.945  30.632  1.00  0.00     0.040 A 
ATOM     87  C   UNL A   1      37.275  29.674  28.348  1.00  0.00     0.040 A 
ATOM     88  F   UNL A   1      39.101  29.531  26.878  1.00  0.00    -0.206 F 
ATOM     89  C   UNL A   1      36.722  29.477  29.613  1.00  0.00     0.006 A 
ENDBRANCH  61  82
BRANCH  73  90
ATOM     90  C   UNL A   1      45.336  32.455  29.347  1.00  0.00     0.057 A 
ATOM     91  C   UNL A   1      45.637  32.874  30.650  1.00  0.00     0.134 A 
ATOM     92  C   UNL A   1      45.356  33.421  28.334  1.00  0.00     0.134 A 
ATOM     93  F   UNL A   1      45.621  31.999  31.667  1.00  0.00    -0.206 F 
ATOM     94  C   UNL A   1      45.928  34.209  30.935  1.00  0.00     0.040 A 
ATOM     95  C   UNL A   1      45.669  34.754  28.603  1.00  0.00     0.040 A 
ATOM     96  F   UNL A   1      45.083  33.083  27.065  1.00  0.00    -0.206 F 
ATOM     97  C   UNL A   1      45.951  35.152  29.908  1.00  0.00     0.006 A 
ENDBRANCH  73  90
ENDBRANCH  47  48
ENDBRANCH  39  42
ENDBRANCH  37  38
ENDBRANCH  36  37
ENDBRANCH  35  36
ENDBRANCH   1  35
TORSDOF 16
ENDMDL
MODEL 2
REMARK VINA RESULT:     -13.1      4.233      8.840
REMARK SMILES COc1cccc(C(=O)Nc2ccc(NC(=O)[C@@H]3[C@@H](C(=O)NCCCCNC(=O)c4ccc(-c5c6nc(c(-c7c(F)cccc7F)c7ccc([nH]7)c(-c7c(F)cccc7F)c7nc(c(-c8c(F)cccc8F)c8ccc5[nH]8)C=C7)C=C6)cc4)[C@@H]4C=C[C@H]3C4)cc2)c1
REMARK SMILES IDX 23 1 22 2 20 3 21 4 19 6 18 7 87 8 84 9 86 10 88 11 85 12
REMARK SMILES IDX 16 13 15 14 17 16 14 17 11 18 12 19 90 20 13 21 89 22 10 23
REMARK SMILES IDX 8 24 9 25 7 27 3 28 4 29 91 30 5 31 6 32 2 33 1 34 24 35
REMARK SMILES IDX 25 36 26 37 27 38 28 39 29 41 30 42 31 43 83 44 32 45 82 46
REMARK SMILES IDX 33 47 34 48 35 49 76 50 36 51 81 52 75 53 77 54 37 55 80 56
REMARK SMILES IDX 74 57 73 58 38 60 64 61 47 62 63 63 48 64 51 65 62 66 78 67
REMARK SMILES IDX 49 68 50 69 61 71 79 72 52 73 39 74 40 75 45 76 41 77 42 78
REMARK SMILES IDX 44 79 46 80 43 81 65 82 66 83 71 84 67 85 68 86 70 87 72 88
REMARK SMILES IDX 69 89 53 90 54 91 59 92 55 93 56 94 58 95 60 96 57 97
REMARK H PARENT 22 5 15 15 10 26 27 40 77 59 51 70
REMARK Flexibility Score: inf
ROOT
ATOM      1  C   UNL A   1      31.406  26.625  26.278  1.00  0.00     0.116 C 
ENDROOT
BRANCH   1   2
ATOM      2  N   UNL A   1      30.990  25.300  26.710  1.00  0.00    -0.356 N 
ATOM      3  C   UNL A   1      31.582  24.075  26.780  1.00  0.00     0.224 C 
ATOM      4  O   UNL A   1      31.085  23.309  27.616  1.00  0.00    -0.275 OA
ATOM      5  H   UNL A   1      30.058  25.285  27.028  1.00  0.00     0.163 HD
BRANCH   3   6
ATOM      6  C   UNL A   1      32.712  23.554  25.885  1.00  0.00     0.098 C 
ATOM      7  C   UNL A   1      32.841  24.178  24.412  1.00  0.00     0.099 C 
ATOM      8  C   UNL A   1      32.963  22.873  23.590  1.00  0.00     0.025 C 
ATOM      9  C   UNL A   1      32.673  22.034  25.622  1.00  0.00     0.025 C 
ATOM     10  C   UNL A   1      34.214  22.129  23.935  1.00  0.00    -0.027 C 
ATOM     11  C   UNL A   1      31.964  21.973  24.275  1.00  0.00     0.017 C 
ATOM     12  C   UNL A   1      34.048  21.611  25.157  1.00  0.00    -0.027 C 
BRANCH   7  13
ATOM     13  C   UNL A   1      34.012  25.180  24.247  1.00  0.00     0.228 C 
ATOM     14  N   UNL A   1      33.913  26.465  23.755  1.00  0.00    -0.326 N 
ATOM     15  H   UNL A   1      34.728  27.003  23.882  1.00  0.00     0.169 HD
ATOM     16  O   UNL A   1      35.154  24.843  24.587  1.00  0.00    -0.274 OA
BRANCH  14  17
ATOM     17  C   UNL A   1      32.871  27.153  23.109  1.00  0.00     0.041 A 
ATOM     18  C   UNL A   1      30.214  27.814  22.749  1.00  0.00     0.041 A 
ATOM     19  C   UNL A   1      31.098  28.755  23.284  1.00  0.00     0.028 A 
ATOM     20  C   UNL A   1      30.759  26.783  22.001  1.00  0.00     0.028 A 
ATOM     21  C   UNL A   1      32.453  28.426  23.449  1.00  0.00     0.028 A 
ATOM     22  C   UNL A   1      32.105  26.443  22.185  1.00  0.00     0.028 A 
BRANCH  18  23
ATOM     23  N   UNL A   1      28.866  27.911  23.141  1.00  0.00    -0.322 N 
ATOM     24  C   UNL A   1      27.887  28.882  23.031  1.00  0.00     0.255 C 
ATOM     25  O   UNL A   1      26.766  28.616  23.474  1.00  0.00    -0.269 OA
ATOM     26  H   UNL A   1      28.545  27.100  23.599  1.00  0.00     0.170 HD
BRANCH  24  27
ATOM     27  C   UNL A   1      28.071  30.218  22.409  1.00  0.00     0.043 A 
ATOM     28  C   UNL A   1      28.444  32.616  22.518  1.00  0.00     0.119 A 
ATOM     29  C   UNL A   1      28.245  32.695  21.139  1.00  0.00     0.046 A 
ATOM     30  C   UNL A   1      28.430  31.363  23.130  1.00  0.00     0.060 A 
ATOM     31  C   UNL A   1      28.024  31.543  20.384  1.00  0.00     0.005 A 
ATOM     32  C   UNL A   1      27.929  30.307  21.020  1.00  0.00     0.014 A 
BRANCH  28  33
ATOM     33  O   UNL A   1      28.615  33.825  23.131  1.00  0.00    -0.497 OA
ATOM     34  C   UNL A   1      29.906  34.205  23.590  1.00  0.00     0.278 C 
ENDBRANCH  28  33
ENDBRANCH  24  27
ENDBRANCH  18  23
ENDBRANCH  14  17
ENDBRANCH   7  13
ENDBRANCH   3   6
ENDBRANCH   1   2
BRANCH   1  35
ATOM     35  C   UNL A   1      31.980  27.535  27.362  1.00  0.00     0.023 C 
BRANCH  35  36
ATOM     36  C   UNL A   1      31.596  29.009  27.229  1.00  0.00     0.023 C 
BRANCH  36  37
ATOM     37  C   UNL A   1      32.659  29.945  26.655  1.00  0.00     0.116 C 
BRANCH  37  38
ATOM     38  N   UNL A   1      32.493  31.356  26.970  1.00  0.00    -0.352 N 
ATOM     39  C   UNL A   1      33.420  32.179  27.580  1.00  0.00     0.251 C 
ATOM     40  H   UNL A   1      31.631  31.766  26.725  1.00  0.00     0.163 HD
ATOM     41  O   UNL A   1      33.168  33.351  27.833  1.00  0.00    -0.269 OA
BRANCH  39  42
ATOM     42  C   UNL A   1      34.720  31.592  27.972  1.00  0.00     0.039 A 
ATOM     43  C   UNL A   1      35.822  32.433  28.138  1.00  0.00     0.014 A 
ATOM     44  C   UNL A   1      34.798  30.240  28.314  1.00  0.00     0.014 A 
ATOM     45  C   UNL A   1      36.979  31.935  28.741  1.00  0.00     0.010 A 
ATOM     46  C   UNL A   1      35.919  29.769  28.987  1.00  0.00     0.010 A 
ATOM     47  C   UNL A   1      37.016  30.614  29.219  1.00  0.00    -0.014 A 
BRANCH  47  48
ATOM     48  C   UNL A   1      38.182  30.096  29.977  1.00  0.00     0.031 A 
ATOM     49  C   UNL A   1      38.400  30.519  31.401  1.00  0.00     0.074 A 
ATOM     50  C   UNL A   1      39.092  29.314  29.362  1.00  0.00     0.049 A 
ATOM     51  N   UNL A   1      39.391  30.239  32.208  1.00  0.00    -0.248 NA
ATOM     52  C   UNL A   1      37.381  31.405  31.986  1.00  0.00     0.031 C 
ATOM     53  C   UNL A   1      39.027  28.874  27.966  1.00  0.00     0.029 A 
ATOM     54  N   UNL A   1      40.255  28.757  29.831  1.00  0.00    -0.354 N 
ATOM     55  C   UNL A   1      39.128  30.930  33.382  1.00  0.00     0.074 A 
ATOM     56  C   UNL A   1      37.915  31.689  33.164  1.00  0.00     0.031 C 
ATOM     57  C   UNL A   1      40.083  28.084  27.705  1.00  0.00     0.029 A 
ATOM     58  C   UNL A   1      40.916  27.991  28.901  1.00  0.00     0.049 A 
ATOM     59  H   UNL A   1      40.585  28.892  30.748  1.00  0.00     0.167 HD
ATOM     60  C   UNL A   1      39.818  30.917  34.548  1.00  0.00     0.037 A 
ATOM     61  C   UNL A   1      42.061  27.291  29.003  1.00  0.00     0.037 A 
ATOM     62  C   UNL A   1      41.004  30.136  34.775  1.00  0.00     0.049 A 
ATOM     63  C   UNL A   1      42.812  27.292  30.305  1.00  0.00     0.074 A 
ATOM     64  C   UNL A   1      41.731  29.992  35.944  1.00  0.00     0.029 A 
ATOM     65  N   UNL A   1      41.639  29.370  33.810  1.00  0.00    -0.354 N 
ATOM     66  N   UNL A   1      42.512  27.890  31.432  1.00  0.00    -0.248 NA
ATOM     67  C   UNL A   1      44.061  26.519  30.348  1.00  0.00     0.031 C 
ATOM     68  C   UNL A   1      42.831  29.167  35.674  1.00  0.00     0.029 A 
ATOM     69  C   UNL A   1      42.765  28.768  34.349  1.00  0.00     0.049 A 
ATOM     70  H   UNL A   1      41.336  29.269  32.879  1.00  0.00     0.167 HD
ATOM     71  C   UNL A   1      43.515  27.542  32.327  1.00  0.00     0.074 A 
ATOM     72  C   UNL A   1      44.431  26.676  31.611  1.00  0.00     0.031 C 
ATOM     73  C   UNL A   1      43.662  27.904  33.625  1.00  0.00     0.037 A 
BRANCH  60  74
ATOM     74  C   UNL A   1      39.293  31.779  35.660  1.00  0.00     0.057 A 
ATOM     75  C   UNL A   1      38.297  31.329  36.537  1.00  0.00     0.134 A 
ATOM     76  C   UNL A   1      39.781  33.077  35.848  1.00  0.00     0.134 A 
ATOM     77  F   UNL A   1      37.776  30.101  36.402  1.00  0.00    -0.206 F 
ATOM     78  C   UNL A   1      37.775  32.155  37.534  1.00  0.00     0.040 A 
ATOM     79  C   UNL A   1      39.288  33.902  36.860  1.00  0.00     0.040 A 
ATOM     80  F   UNL A   1      40.739  33.569  35.047  1.00  0.00    -0.206 F 
ATOM     81  C   UNL A   1      38.274  33.445  37.700  1.00  0.00     0.006 A 
ENDBRANCH  60  74
BRANCH  61  82
ATOM     82  C   UNL A   1      42.541  26.483  27.854  1.00  0.00     0.057 A 
ATOM     83  C   UNL A   1      42.175  25.137  27.729  1.00  0.00     0.134 A 
ATOM     84  C   UNL A   1      43.361  27.025  26.859  1.00  0.00     0.134 A 
ATOM     85  F   UNL A   1      41.405  24.558  28.661  1.00  0.00    -0.206 F 
ATOM     86  C   UNL A   1      42.616  24.356  26.659  1.00  0.00     0.040 A 
ATOM     87  C   UNL A   1      43.794  26.261  25.774  1.00  0.00     0.040 A 
ATOM     88  F   UNL A   1      43.741  28.310  26.921  1.00  0.00    -0.206 F 
ATOM     89  C   UNL A   1      43.424  24.920  25.675  1.00  0.00     0.006 A 
ENDBRANCH  61  82
BRANCH  73  90
ATOM     90  C   UNL A   1      44.835  27.335  34.366  1.00  0.00     0.057 A 
ATOM     91  C   UNL A   1      46.058  28.015  34.448  1.00  0.00     0.134 A 
ATOM     92  C   UNL A   1      44.727  26.112  35.040  1.00  0.00     0.134 A 
ATOM     93  F   UNL A   1      46.230  29.184  33.812  1.00  0.00    -0.206 F 
ATOM     94  C   UNL A   1      47.137  27.488  35.159  1.00  0.00     0.040 A 
ATOM     95  C   UNL A   1      45.791  25.587  35.773  1.00  0.00     0.040 A 
ATOM     96  F   UNL A   1      43.582  25.415  35.006  1.00  0.00    -0.206 F 
ATOM     97  C   UNL A   1      47.002  26.273  35.830  1.00  0.00     0.006 A 
ENDBRANCH  73  90
ENDBRANCH  47  48
ENDBRANCH  39  42
ENDBRANCH  37  38
ENDBRANCH  36  37
ENDBRANCH  35  36
ENDBRANCH   1  35
TORSDOF 16
ENDMDL
MODEL 3
REMARK VINA RESULT:     -13.1      4.229      7.725
REMARK SMILES COc1cccc(C(=O)Nc2ccc(NC(=O)[C@@H]3[C@@H](C(=O)NCCCCNC(=O)c4ccc(-c5c6nc(c(-c7c(F)cccc7F)c7ccc([nH]7)c(-c7c(F)cccc7F)c7nc(c(-c8c(F)cccc8F)c8ccc5[nH]8)C=C7)C=C6)cc4)[C@@H]4C=C[C@H]3C4)cc2)c1
REMARK SMILES IDX 23 1 22 2 20 3 21 4 19 6 18 7 87 8 84 9 86 10 88 11 85 12
REMARK SMILES IDX 16 13 15 14 17 16 14 17 11 18 12 19 90 20 13 21 89 22 10 23
REMARK SMILES IDX 8 24 9 25 7 27 3 28 4 29 91 30 5 31 6 32 2 33 1 34 24 35
REMARK SMILES IDX 25 36 26 37 27 38 28 39 29 41 30 42 31 43 83 44 32 45 82 46
REMARK SMILES IDX 33 47 34 48 35 49 76 50 36 51 81 52 75 53 77 54 37 55 80 56
REMARK SMILES IDX 74 57 73 58 38 60 64 61 47 62 63 63 48 64 51 65 62 66 78 67
REMARK SMILES IDX 49 68 50 69 61 71 79 72 52 73 39 74 40 75 45 76 41 77 42 78
REMARK SMILES IDX 44 79 46 80 43 81 65 82 66 83 71 84 67 85 68 86 70 87 72 88
REMARK SMILES IDX 69 89 53 90 54 91 59 92 55 93 56 94 58 95 60 96 57 97
REMARK H PARENT 22 5 15 15 10 26 27 40 77 59 51 70
REMARK Flexibility Score: inf
ROOT
ATOM      1  C   UNL A   1      31.148  26.431  26.127  1.00  0.00     0.116 C 
ENDROOT
BRANCH   1   2
ATOM      2  N   UNL A   1      30.892  25.093  26.639  1.00  0.00    -0.356 N 
ATOM      3  C   UNL A   1      31.619  23.947  26.760  1.00  0.00     0.224 C 
ATOM      4  O   UNL A   1      31.226  23.179  27.647  1.00  0.00    -0.275 OA
ATOM      5  H   UNL A   1      29.974  24.993  26.980  1.00  0.00     0.163 HD
BRANCH   3   6
ATOM      6  C   UNL A   1      32.783  23.506  25.866  1.00  0.00     0.098 C 
ATOM      7  C   UNL A   1      32.896  24.171  24.409  1.00  0.00     0.099 C 
ATOM      8  C   UNL A   1      33.093  22.894  23.559  1.00  0.00     0.025 C 
ATOM      9  C   UNL A   1      32.825  21.993  25.568  1.00  0.00     0.025 C 
ATOM     10  C   UNL A   1      34.377  22.207  23.901  1.00  0.00    -0.027 C 
ATOM     11  C   UNL A   1      32.134  21.928  24.212  1.00  0.00     0.017 C 
ATOM     12  C   UNL A   1      34.224  21.652  25.108  1.00  0.00    -0.027 C 
BRANCH   7  13
ATOM     13  C   UNL A   1      34.015  25.235  24.281  1.00  0.00     0.228 C 
ATOM     14  N   UNL A   1      33.864  26.512  23.783  1.00  0.00    -0.326 N 
ATOM     15  H   UNL A   1      34.644  27.094  23.935  1.00  0.00     0.169 HD
ATOM     16  O   UNL A   1      35.162  24.961  24.661  1.00  0.00    -0.274 OA
BRANCH  14  17
ATOM     17  C   UNL A   1      32.808  27.142  23.100  1.00  0.00     0.041 A 
ATOM     18  C   UNL A   1      30.141  27.754  22.725  1.00  0.00     0.041 A 
ATOM     19  C   UNL A   1      31.025  28.740  23.175  1.00  0.00     0.028 A 
ATOM     20  C   UNL A   1      30.685  26.674  22.050  1.00  0.00     0.028 A 
ATOM     21  C   UNL A   1      32.384  28.434  23.347  1.00  0.00     0.028 A 
ATOM     22  C   UNL A   1      32.036  26.358  22.242  1.00  0.00     0.028 A 
BRANCH  18  23
ATOM     23  N   UNL A   1      28.797  27.871  23.125  1.00  0.00    -0.322 N 
ATOM     24  C   UNL A   1      27.833  28.857  23.021  1.00  0.00     0.255 C 
ATOM     25  O   UNL A   1      26.711  28.608  23.472  1.00  0.00    -0.269 OA
ATOM     26  H   UNL A   1      28.468  27.066  23.586  1.00  0.00     0.170 HD
BRANCH  24  27
ATOM     27  C   UNL A   1      28.032  30.190  22.397  1.00  0.00     0.043 A 
ATOM     28  C   UNL A   1      28.417  32.587  22.502  1.00  0.00     0.119 A 
ATOM     29  C   UNL A   1      28.236  32.661  21.121  1.00  0.00     0.046 A 
ATOM     30  C   UNL A   1      28.388  31.336  23.119  1.00  0.00     0.060 A 
ATOM     31  C   UNL A   1      28.019  31.508  20.367  1.00  0.00     0.005 A 
ATOM     32  C   UNL A   1      27.909  30.274  21.006  1.00  0.00     0.014 A 
BRANCH  28  33
ATOM     33  O   UNL A   1      28.587  33.796  23.113  1.00  0.00    -0.497 OA
ATOM     34  C   UNL A   1      29.875  34.175  23.580  1.00  0.00     0.278 C 
ENDBRANCH  28  33
ENDBRANCH  24  27
ENDBRANCH  18  23
ENDBRANCH  14  17
ENDBRANCH   7  13
ENDBRANCH   3   6
ENDBRANCH   1   2
BRANCH   1  35
ATOM     35  C   UNL A   1      31.993  27.339  27.017  1.00  0.00     0.023 C 
BRANCH  35  36
ATOM     36  C   UNL A   1      31.537  28.798  27.059  1.00  0.00     0.023 C 
BRANCH  36  37
ATOM     37  C   UNL A   1      32.484  29.831  26.452  1.00  0.00     0.116 C 
BRANCH  37  38
ATOM     38  N   UNL A   1      32.168  31.223  26.740  1.00  0.00    -0.352 N 
ATOM     39  C   UNL A   1      32.999  32.149  27.339  1.00  0.00     0.251 C 
ATOM     40  H   UNL A   1      31.270  31.535  26.482  1.00  0.00     0.163 HD
ATOM     41  O   UNL A   1      32.622  33.292  27.568  1.00  0.00    -0.269 OA
BRANCH  39  42
ATOM     42  C   UNL A   1      34.350  31.710  27.750  1.00  0.00     0.039 A 
ATOM     43  C   UNL A   1      35.352  32.667  27.924  1.00  0.00     0.014 A 
ATOM     44  C   UNL A   1      34.572  30.376  28.099  1.00  0.00     0.014 A 
ATOM     45  C   UNL A   1      36.549  32.302  28.543  1.00  0.00     0.010 A 
ATOM     46  C   UNL A   1      35.729  30.033  28.787  1.00  0.00     0.010 A 
ATOM     47  C   UNL A   1      36.725  30.994  29.028  1.00  0.00    -0.014 A 
BRANCH  47  48
ATOM     48  C   UNL A   1      37.931  30.609  29.802  1.00  0.00     0.031 A 
ATOM     49  C   UNL A   1      38.961  29.705  29.189  1.00  0.00     0.074 A 
ATOM     50  C   UNL A   1      38.059  31.001  31.086  1.00  0.00     0.049 A 
ATOM     51  N   UNL A   1      40.041  29.196  29.722  1.00  0.00    -0.248 NA
ATOM     52  C   UNL A   1      38.725  29.291  27.797  1.00  0.00     0.031 C 
ATOM     53  C   UNL A   1      37.104  31.835  31.819  1.00  0.00     0.029 A 
ATOM     54  N   UNL A   1      39.045  30.741  32.005  1.00  0.00    -0.354 N 
ATOM     55  C   UNL A   1      40.599  28.386  28.742  1.00  0.00     0.074 A 
ATOM     56  C   UNL A   1      39.708  28.426  27.603  1.00  0.00     0.031 C 
ATOM     57  C   UNL A   1      37.571  32.050  33.061  1.00  0.00     0.029 A 
ATOM     58  C   UNL A   1      38.836  31.340  33.224  1.00  0.00     0.049 A 
ATOM     59  H   UNL A   1      39.829  30.179  31.810  1.00  0.00     0.167 HD
ATOM     60  C   UNL A   1      41.761  27.691  28.776  1.00  0.00     0.037 A 
ATOM     61  C   UNL A   1      39.584  31.323  34.343  1.00  0.00     0.037 A 
ATOM     62  C   UNL A   1      42.662  27.680  29.896  1.00  0.00     0.049 A 
ATOM     63  C   UNL A   1      40.868  30.544  34.360  1.00  0.00     0.074 A 
ATOM     64  C   UNL A   1      43.902  27.072  30.001  1.00  0.00     0.029 A 
ATOM     65  N   UNL A   1      42.418  28.303  31.111  1.00  0.00    -0.354 N 
ATOM     66  N   UNL A   1      41.423  29.843  33.400  1.00  0.00    -0.248 NA
ATOM     67  C   UNL A   1      41.631  30.553  35.616  1.00  0.00     0.031 C 
ATOM     68  C   UNL A   1      44.390  27.296  31.294  1.00  0.00     0.029 A 
ATOM     69  C   UNL A   1      43.473  28.076  31.980  1.00  0.00     0.049 A 
ATOM     70  H   UNL A   1      41.614  28.829  31.324  1.00  0.00     0.167 HD
ATOM     71  C   UNL A   1      42.612  29.354  33.924  1.00  0.00     0.074 A 
ATOM     72  C   UNL A   1      42.701  29.843  35.285  1.00  0.00     0.031 C 
ATOM     73  C   UNL A   1      43.548  28.575  33.330  1.00  0.00     0.037 A 
BRANCH  60  74
ATOM     74  C   UNL A   1      42.111  26.889  27.556  1.00  0.00     0.057 A 
ATOM     75  C   UNL A   1      41.797  25.528  27.451  1.00  0.00     0.134 A 
ATOM     76  C   UNL A   1      42.779  27.483  26.479  1.00  0.00     0.134 A 
ATOM     77  F   UNL A   1      41.171  24.895  28.454  1.00  0.00    -0.206 F 
ATOM     78  C   UNL A   1      42.174  24.776  26.336  1.00  0.00     0.040 A 
ATOM     79  C   UNL A   1      43.135  26.749  25.347  1.00  0.00     0.040 A 
ATOM     80  F   UNL A   1      43.105  28.784  26.511  1.00  0.00    -0.206 F 
ATOM     81  C   UNL A   1      42.841  25.388  25.278  1.00  0.00     0.006 A 
ENDBRANCH  60  74
BRANCH  61  82
ATOM     82  C   UNL A   1      39.164  32.115  35.527  1.00  0.00     0.057 A 
ATOM     83  C   UNL A   1      39.566  33.448  35.669  1.00  0.00     0.134 A 
ATOM     84  C   UNL A   1      38.357  31.572  36.532  1.00  0.00     0.134 A 
ATOM     85  F   UNL A   1      40.355  34.017  34.747  1.00  0.00    -0.206 F 
ATOM     86  C   UNL A   1      39.187  34.212  36.775  1.00  0.00     0.040 A 
ATOM     87  C   UNL A   1      37.955  32.329  37.633  1.00  0.00     0.040 A 
ATOM     88  F   UNL A   1      37.936  30.301  36.450  1.00  0.00    -0.206 F 
ATOM     89  C   UNL A   1      38.375  33.653  37.759  1.00  0.00     0.006 A 
ENDBRANCH  61  82
BRANCH  73  90
ATOM     90  C   UNL A   1      44.767  28.233  34.134  1.00  0.00     0.057 A 
ATOM     91  C   UNL A   1      44.852  27.050  34.880  1.00  0.00     0.134 A 
ATOM     92  C   UNL A   1      45.884  29.078  34.129  1.00  0.00     0.134 A 
ATOM     93  F   UNL A   1      43.811  26.205  34.936  1.00  0.00    -0.206 F 
ATOM     94  C   UNL A   1      46.000  26.730  35.607  1.00  0.00     0.040 A 
ATOM     95  C   UNL A   1      47.045  28.757  34.834  1.00  0.00     0.040 A 
ATOM     96  F   UNL A   1      45.868  30.223  33.431  1.00  0.00    -0.206 F 
ATOM     97  C   UNL A   1      47.102  27.582  35.580  1.00  0.00     0.006 A 
ENDBRANCH  73  90
ENDBRANCH  47  48
ENDBRANCH  39  42
ENDBRANCH  37  38
ENDBRANCH  36  37
ENDBRANCH  35  36
ENDBRANCH   1  35
TORSDOF 16
ENDMDL
