MODEL 1
REMARK VINA RESULT:     -11.1      0.000      0.000
REMARK SMILES CC[C@@](C)(NC(=O)Nc1cccc(C[NH2+]C)c1)C(=O)NCCCCNC(=O)c1ccc(-c2c3nc(c(-c4c(F)cccc4F)c4ccc([nH]4)c(-c4c(F)cccc4F)c4nc(c(-c5c(F)cccc5F)c5ccc2[nH]5)C=C4)C=C3)cc1
REMARK SMILES IDX 21 1 20 2 18 3 19 4 3 6 4 7 2 8 1 9 5 10 6 11 7 13 8 14 9 16
REMARK SMILES IDX 10 17 17 18 11 19 13 20 12 21 14 22 15 23 16 24 22 27 23 28
REMARK SMILES IDX 24 29 25 30 26 31 27 33 28 34 29 35 81 36 30 37 80 38 31 39
REMARK SMILES IDX 32 40 33 41 74 42 34 43 79 44 73 45 75 46 35 47 78 48 72 49
REMARK SMILES IDX 71 50 36 52 62 53 45 54 61 55 46 56 49 57 60 58 76 59 47 60
REMARK SMILES IDX 48 61 59 63 77 64 50 65 37 66 38 67 43 68 39 69 40 70 42 71
REMARK SMILES IDX 44 72 41 73 63 74 64 75 69 76 65 77 66 78 68 79 70 80 67 81
REMARK SMILES IDX 51 82 52 83 57 84 53 85 54 86 56 87 58 88 55 89
REMARK H PARENT 20 5 5 12 8 15 15 25 15 26 25 32 75 51 49 62
REMARK Flexibility Score: inf
ROOT
ATOM      1  C   UNL A   1      35.778  21.198  25.033  1.00  0.00     0.116 C 
ENDROOT
BRANCH   1   2
ATOM      2  N   UNL A   1      34.719  21.270  26.003  1.00  0.00    -0.354 N 
ATOM      3  C   UNL A   1      33.356  21.063  25.848  1.00  0.00     0.245 C 
ATOM      4  O   UNL A   1      32.853  19.970  25.626  1.00  0.00    -0.272 OA
ATOM      5  H   UNL A   1      35.004  21.502  26.915  1.00  0.00     0.163 HD
BRANCH   3   6
ATOM      6  C   UNL A   1      32.621  22.430  25.755  1.00  0.00     0.117 C 
ATOM      7  C   UNL A   1      33.531  23.226  26.748  1.00  0.00     0.045 C 
BRANCH   6   8
ATOM      8  C   UNL A   1      32.489  23.308  24.497  1.00  0.00     0.035 C 
ATOM      9  C   UNL A   1      33.611  24.253  24.139  1.00  0.00     0.007 C 
ENDBRANCH   6   8
BRANCH   6  10
ATOM     10  N   UNL A   1      31.245  22.248  26.317  1.00  0.00    -0.324 N 
ATOM     11  C   UNL A   1      30.280  23.036  26.808  1.00  0.00     0.320 C 
ATOM     12  H   UNL A   1      30.981  21.300  26.330  1.00  0.00     0.166 HD
ATOM     13  O   UNL A   1      29.399  22.445  27.446  1.00  0.00    -0.248 OA
ATOM     14  N   UNL A   1      30.147  24.371  26.716  1.00  0.00    -0.308 N 
ATOM     15  H   UNL A   1      29.453  24.644  27.360  1.00  0.00     0.171 HD
BRANCH  14  16
ATOM     16  C   UNL A   1      30.606  25.543  26.061  1.00  0.00     0.043 A 
ATOM     17  C   UNL A   1      31.671  26.203  26.685  1.00  0.00     0.026 A 
ATOM     18  C   UNL A   1      30.105  26.172  24.925  1.00  0.00     0.035 A 
ATOM     19  C   UNL A   1      32.282  27.328  26.108  1.00  0.00     0.003 A 
ATOM     20  C   UNL A   1      30.788  27.193  24.236  1.00  0.00     0.008 A 
ATOM     21  C   UNL A   1      31.872  27.794  24.861  1.00  0.00     0.010 A 
BRANCH  20  22
ATOM     22  C   UNL A   1      30.462  27.438  22.774  1.00  0.00     0.297 C 
BRANCH  22  23
ATOM     23  N   UNL A   1      31.574  27.365  21.825  1.00  0.00    -0.345 N 
ATOM     24  C   UNL A   1      31.773  25.953  21.464  1.00  0.00     0.331 C 
ATOM     25  H   UNL A   1      32.420  27.735  22.256  1.00  0.00     0.346 HD
ATOM     26  H   UNL A   1      31.365  27.917  20.993  1.00  0.00     0.346 HD
ENDBRANCH  22  23
ENDBRANCH  20  22
ENDBRANCH  14  16
ENDBRANCH   6  10
ENDBRANCH   3   6
ENDBRANCH   1   2
BRANCH   1  27
ATOM     27  C   UNL A   1      36.310  19.750  25.000  1.00  0.00     0.023 C 
BRANCH  27  28
ATOM     28  C   UNL A   1      37.811  19.568  24.698  1.00  0.00     0.023 C 
BRANCH  28  29
ATOM     29  C   UNL A   1      38.763  20.004  25.806  1.00  0.00     0.116 C 
BRANCH  29  30
ATOM     30  N   UNL A   1      39.957  19.182  25.831  1.00  0.00    -0.352 N 
ATOM     31  C   UNL A   1      41.279  19.508  26.002  1.00  0.00     0.251 C 
ATOM     32  H   UNL A   1      39.790  18.220  25.704  1.00  0.00     0.163 HD
ATOM     33  O   UNL A   1      42.130  18.670  25.753  1.00  0.00    -0.269 OA
BRANCH  31  34
ATOM     34  C   UNL A   1      41.691  20.853  26.474  1.00  0.00     0.039 A 
ATOM     35  C   UNL A   1      41.639  21.110  27.849  1.00  0.00     0.014 A 
ATOM     36  C   UNL A   1      42.034  21.882  25.594  1.00  0.00     0.014 A 
ATOM     37  C   UNL A   1      41.963  22.378  28.340  1.00  0.00     0.010 A 
ATOM     38  C   UNL A   1      42.421  23.130  26.091  1.00  0.00     0.010 A 
ATOM     39  C   UNL A   1      42.382  23.393  27.469  1.00  0.00    -0.014 A 
BRANCH  39  40
ATOM     40  C   UNL A   1      42.783  24.729  27.989  1.00  0.00     0.031 A 
ATOM     41  C   UNL A   1      41.749  25.784  28.276  1.00  0.00     0.074 A 
ATOM     42  C   UNL A   1      44.088  25.008  28.167  1.00  0.00     0.049 A 
ATOM     43  N   UNL A   1      41.916  27.018  28.685  1.00  0.00    -0.248 NA
ATOM     44  C   UNL A   1      40.343  25.411  28.057  1.00  0.00     0.031 C 
ATOM     45  C   UNL A   1      45.194  24.087  27.896  1.00  0.00     0.029 A 
ATOM     46  N   UNL A   1      44.710  26.152  28.606  1.00  0.00    -0.354 N 
ATOM     47  C   UNL A   1      40.643  27.569  28.762  1.00  0.00     0.074 A 
ATOM     48  C   UNL A   1      39.718  26.552  28.310  1.00  0.00     0.031 C 
ATOM     49  C   UNL A   1      46.354  24.694  28.190  1.00  0.00     0.029 A 
ATOM     50  C   UNL A   1      46.081  26.059  28.628  1.00  0.00     0.049 A 
ATOM     51  H   UNL A   1      44.220  26.960  28.878  1.00  0.00     0.167 HD
ATOM     52  C   UNL A   1      40.276  28.802  29.189  1.00  0.00     0.037 A 
ATOM     53  C   UNL A   1      47.015  26.972  28.952  1.00  0.00     0.037 A 
ATOM     54  C   UNL A   1      41.196  29.812  29.646  1.00  0.00     0.049 A 
ATOM     55  C   UNL A   1      46.585  28.343  29.396  1.00  0.00     0.074 A 
ATOM     56  C   UNL A   1      40.917  31.075  30.140  1.00  0.00     0.029 A 
ATOM     57  N   UNL A   1      42.577  29.678  29.657  1.00  0.00    -0.354 N 
ATOM     58  N   UNL A   1      45.374  28.830  29.522  1.00  0.00    -0.248 NA
ATOM     59  C   UNL A   1      47.651  29.292  29.748  1.00  0.00     0.031 C 
ATOM     60  C   UNL A   1      42.129  31.722  30.400  1.00  0.00     0.029 A 
ATOM     61  C   UNL A   1      43.163  30.844  30.125  1.00  0.00     0.049 A 
ATOM     62  H   UNL A   1      43.068  28.873  29.374  1.00  0.00     0.167 HD
ATOM     63  C   UNL A   1      45.532  30.127  29.993  1.00  0.00     0.074 A 
ATOM     64  C   UNL A   1      46.954  30.347  30.145  1.00  0.00     0.031 C 
ATOM     65  C   UNL A   1      44.581  31.052  30.276  1.00  0.00     0.037 A 
BRANCH  52  66
ATOM     66  C   UNL A   1      38.809  29.131  29.178  1.00  0.00     0.057 A 
ATOM     67  C   UNL A   1      38.021  29.039  30.333  1.00  0.00     0.134 A 
ATOM     68  C   UNL A   1      38.184  29.580  28.007  1.00  0.00     0.134 A 
ATOM     69  F   UNL A   1      38.554  28.609  31.487  1.00  0.00    -0.206 F 
ATOM     70  C   UNL A   1      36.659  29.349  30.318  1.00  0.00     0.040 A 
ATOM     71  C   UNL A   1      36.830  29.923  27.986  1.00  0.00     0.040 A 
ATOM     72  F   UNL A   1      38.879  29.704  26.867  1.00  0.00    -0.206 F 
ATOM     73  C   UNL A   1      36.062  29.799  29.142  1.00  0.00     0.006 A 
ENDBRANCH  52  66
BRANCH  53  74
ATOM     74  C   UNL A   1      48.456  26.617  28.878  1.00  0.00     0.057 A 
ATOM     75  C   UNL A   1      49.105  25.997  29.951  1.00  0.00     0.134 A 
ATOM     76  C   UNL A   1      49.218  26.894  27.736  1.00  0.00     0.134 A 
ATOM     77  F   UNL A   1      48.433  25.724  31.080  1.00  0.00    -0.206 F 
ATOM     78  C   UNL A   1      50.463  25.680  29.901  1.00  0.00     0.040 A 
ATOM     79  C   UNL A   1      50.570  26.557  27.662  1.00  0.00     0.040 A 
ATOM     80  F   UNL A   1      48.655  27.481  26.670  1.00  0.00    -0.206 F 
ATOM     81  C   UNL A   1      51.199  25.955  28.750  1.00  0.00     0.006 A 
ENDBRANCH  53  74
BRANCH  65  82
ATOM     82  C   UNL A   1      45.045  32.374  30.815  1.00  0.00     0.057 A 
ATOM     83  C   UNL A   1      45.286  33.474  29.980  1.00  0.00     0.134 A 
ATOM     84  C   UNL A   1      45.221  32.561  32.192  1.00  0.00     0.134 A 
ATOM     85  F   UNL A   1      45.150  33.361  28.650  1.00  0.00    -0.206 F 
ATOM     86  C   UNL A   1      45.707  34.702  30.494  1.00  0.00     0.040 A 
ATOM     87  C   UNL A   1      45.613  33.792  32.720  1.00  0.00     0.040 A 
ATOM     88  F   UNL A   1      45.001  31.552  33.050  1.00  0.00    -0.206 F 
ATOM     89  C   UNL A   1      45.865  34.865  31.869  1.00  0.00     0.006 A 
ENDBRANCH  65  82
ENDBRANCH  39  40
ENDBRANCH  31  34
ENDBRANCH  29  30
ENDBRANCH  28  29
ENDBRANCH  27  28
ENDBRANCH   1  27
TORSDOF 16
ENDMDL
MODEL 2
REMARK VINA RESULT:     -11.1      1.343      2.247
REMARK SMILES CC[C@@](C)(NC(=O)Nc1cccc(C[NH2+]C)c1)C(=O)NCCCCNC(=O)c1ccc(-c2c3nc(c(-c4c(F)cccc4F)c4ccc([nH]4)c(-c4c(F)cccc4F)c4nc(c(-c5c(F)cccc5F)c5ccc2[nH]5)C=C4)C=C3)cc1
REMARK SMILES IDX 21 1 20 2 18 3 19 4 3 6 4 7 2 8 1 9 5 10 6 11 7 13 8 14 9 16
REMARK SMILES IDX 10 17 17 18 11 19 13 20 12 21 14 22 15 23 16 24 22 27 23 28
REMARK SMILES IDX 24 29 25 30 26 31 27 33 28 34 29 35 81 36 30 37 80 38 31 39
REMARK SMILES IDX 32 40 33 41 74 42 34 43 79 44 73 45 75 46 35 47 78 48 72 49
REMARK SMILES IDX 71 50 36 52 62 53 45 54 61 55 46 56 49 57 60 58 76 59 47 60
REMARK SMILES IDX 48 61 59 63 77 64 50 65 37 66 38 67 43 68 39 69 40 70 42 71
REMARK SMILES IDX 44 72 41 73 63 74 64 75 69 76 65 77 66 78 68 79 70 80 67 81
REMARK SMILES IDX 51 82 52 83 57 84 53 85 54 86 56 87 58 88 55 89
REMARK H PARENT 20 5 5 12 8 15 15 25 15 26 25 32 75 51 49 62
REMARK Flexibility Score: inf
ROOT
ATOM      1  C   UNL A   1      35.736  21.468  24.724  1.00  0.00     0.116 C 
ENDROOT
BRANCH   1   2
ATOM      2  N   UNL A   1      34.870  21.759  25.835  1.00  0.00    -0.354 N 
ATOM      3  C   UNL A   1      33.538  21.427  26.035  1.00  0.00     0.245 C 
ATOM      4  O   UNL A   1      33.142  20.288  26.238  1.00  0.00    -0.272 OA
ATOM      5  H   UNL A   1      35.286  22.270  26.565  1.00  0.00     0.163 HD
BRANCH   3   6
ATOM      6  C   UNL A   1      32.636  22.654  25.719  1.00  0.00     0.117 C 
ATOM      7  C   UNL A   1      33.464  23.730  26.498  1.00  0.00     0.045 C 
BRANCH   6   8
ATOM      8  C   UNL A   1      32.363  23.249  24.326  1.00  0.00     0.035 C 
ATOM      9  C   UNL A   1      33.227  24.383  23.828  1.00  0.00     0.007 C 
ENDBRANCH   6   8
BRANCH   6  10
ATOM     10  N   UNL A   1      31.308  22.424  26.373  1.00  0.00    -0.324 N 
ATOM     11  C   UNL A   1      30.325  23.182  26.875  1.00  0.00     0.320 C 
ATOM     12  H   UNL A   1      31.106  21.465  26.457  1.00  0.00     0.166 HD
ATOM     13  O   UNL A   1      29.520  22.579  27.598  1.00  0.00    -0.248 OA
ATOM     14  N   UNL A   1      30.102  24.498  26.714  1.00  0.00    -0.308 N 
ATOM     15  H   UNL A   1      29.430  24.768  27.382  1.00  0.00     0.171 HD
BRANCH  14  16
ATOM     16  C   UNL A   1      30.447  25.653  25.965  1.00  0.00     0.043 A 
ATOM     17  C   UNL A   1      29.851  25.752  24.703  1.00  0.00     0.026 A 
ATOM     18  C   UNL A   1      31.348  26.668  26.274  1.00  0.00     0.035 A 
ATOM     19  C   UNL A   1      30.035  26.879  23.886  1.00  0.00     0.003 A 
ATOM     20  C   UNL A   1      31.430  27.880  25.561  1.00  0.00     0.008 A 
ATOM     21  C   UNL A   1      30.785  27.964  24.335  1.00  0.00     0.010 A 
BRANCH  20  22
ATOM     22  C   UNL A   1      32.017  29.099  26.249  1.00  0.00     0.297 C 
BRANCH  22  23
ATOM     23  N   UNL A   1      32.731  28.872  27.507  1.00  0.00    -0.345 N 
ATOM     24  C   UNL A   1      34.169  29.041  27.251  1.00  0.00     0.331 C 
ATOM     25  H   UNL A   1      32.548  27.927  27.842  1.00  0.00     0.346 HD
ATOM     26  H   UNL A   1      32.417  29.535  28.216  1.00  0.00     0.346 HD
ENDBRANCH  22  23
ENDBRANCH  20  22
ENDBRANCH  14  16
ENDBRANCH   6  10
ENDBRANCH   3   6
ENDBRANCH   1   2
BRANCH   1  27
ATOM     27  C   UNL A   1      36.299  20.043  24.906  1.00  0.00     0.023 C 
BRANCH  27  28
ATOM     28  C   UNL A   1      37.812  19.860  24.674  1.00  0.00     0.023 C 
BRANCH  28  29
ATOM     29  C   UNL A   1      38.699  20.094  25.892  1.00  0.00     0.116 C 
BRANCH  29  30
ATOM     30  N   UNL A   1      39.837  19.197  25.899  1.00  0.00    -0.352 N 
ATOM     31  C   UNL A   1      41.183  19.440  26.006  1.00  0.00     0.251 C 
ATOM     32  H   UNL A   1      39.603  18.244  25.811  1.00  0.00     0.163 HD
ATOM     33  O   UNL A   1      41.967  18.540  25.753  1.00  0.00    -0.269 OA
BRANCH  31  34
ATOM     34  C   UNL A   1      41.701  20.769  26.414  1.00  0.00     0.039 A 
ATOM     35  C   UNL A   1      41.997  21.695  25.406  1.00  0.00     0.014 A 
ATOM     36  C   UNL A   1      41.985  21.086  27.744  1.00  0.00     0.014 A 
ATOM     37  C   UNL A   1      42.540  22.941  25.732  1.00  0.00     0.010 A 
ATOM     38  C   UNL A   1      42.467  22.356  28.075  1.00  0.00     0.010 A 
ATOM     39  C   UNL A   1      42.756  23.294  27.072  1.00  0.00    -0.014 A 
BRANCH  39  40
ATOM     40  C   UNL A   1      43.281  24.639  27.432  1.00  0.00     0.031 A 
ATOM     41  C   UNL A   1      42.348  25.735  27.873  1.00  0.00     0.074 A 
ATOM     42  C   UNL A   1      44.600  24.890  27.323  1.00  0.00     0.049 A 
ATOM     43  N   UNL A   1      42.618  26.981  28.176  1.00  0.00    -0.248 NA
ATOM     44  C   UNL A   1      40.921  25.392  27.968  1.00  0.00     0.031 C 
ATOM     45  C   UNL A   1      45.608  23.926  26.876  1.00  0.00     0.029 A 
ATOM     46  N   UNL A   1      45.319  26.034  27.566  1.00  0.00    -0.354 N 
ATOM     47  C   UNL A   1      41.400  27.570  28.487  1.00  0.00     0.074 A 
ATOM     48  C   UNL A   1      40.382  26.561  28.287  1.00  0.00     0.031 C 
ATOM     49  C   UNL A   1      46.815  24.513  26.894  1.00  0.00     0.029 A 
ATOM     50  C   UNL A   1      46.663  25.904  27.310  1.00  0.00     0.049 A 
ATOM     51  H   UNL A   1      44.911  26.867  27.893  1.00  0.00     0.167 HD
ATOM     52  C   UNL A   1      41.151  28.831  28.919  1.00  0.00     0.037 A 
ATOM     53  C   UNL A   1      47.661  26.804  27.388  1.00  0.00     0.037 A 
ATOM     54  C   UNL A   1      42.164  29.834  29.124  1.00  0.00     0.049 A 
ATOM     55  C   UNL A   1      47.356  28.205  27.842  1.00  0.00     0.074 A 
ATOM     56  C   UNL A   1      42.016  31.126  29.602  1.00  0.00     0.029 A 
ATOM     57  N   UNL A   1      43.515  29.662  28.857  1.00  0.00    -0.354 N 
ATOM     58  N   UNL A   1      46.207  28.731  28.191  1.00  0.00    -0.248 NA
ATOM     59  C   UNL A   1      48.489  29.138  27.919  1.00  0.00     0.031 C 
ATOM     60  C   UNL A   1      43.267  31.750  29.574  1.00  0.00     0.029 A 
ATOM     61  C   UNL A   1      44.206  30.831  29.135  1.00  0.00     0.049 A 
ATOM     62  H   UNL A   1      43.922  28.832  28.520  1.00  0.00     0.167 HD
ATOM     63  C   UNL A   1      46.482  30.043  28.554  1.00  0.00     0.074 A 
ATOM     64  C   UNL A   1      47.909  30.229  28.399  1.00  0.00     0.031 C 
ATOM     65  C   UNL A   1      45.628  31.006  28.981  1.00  0.00     0.037 A 
BRANCH  52  66
ATOM     66  C   UNL A   1      39.719  29.201  29.194  1.00  0.00     0.057 A 
ATOM     67  C   UNL A   1      38.846  29.590  28.169  1.00  0.00     0.134 A 
ATOM     68  C   UNL A   1      39.198  29.133  30.492  1.00  0.00     0.134 A 
ATOM     69  F   UNL A   1      39.282  29.683  26.903  1.00  0.00    -0.206 F 
ATOM     70  C   UNL A   1      37.517  29.929  28.430  1.00  0.00     0.040 A 
ATOM     71  C   UNL A   1      37.863  29.440  30.761  1.00  0.00     0.040 A 
ATOM     72  F   UNL A   1      39.974  28.757  31.520  1.00  0.00    -0.206 F 
ATOM     73  C   UNL A   1      37.020  29.848  29.729  1.00  0.00     0.006 A 
ENDBRANCH  52  66
BRANCH  53  74
ATOM     74  C   UNL A   1      49.048  26.406  27.036  1.00  0.00     0.057 A 
ATOM     75  C   UNL A   1      49.507  26.470  25.716  1.00  0.00     0.134 A 
ATOM     76  C   UNL A   1      49.944  25.948  28.010  1.00  0.00     0.134 A 
ATOM     77  F   UNL A   1      48.689  26.881  24.736  1.00  0.00    -0.206 F 
ATOM     78  C   UNL A   1      50.801  26.075  25.372  1.00  0.00     0.040 A 
ATOM     79  C   UNL A   1      51.250  25.577  27.683  1.00  0.00     0.040 A 
ATOM     80  F   UNL A   1      49.569  25.869  29.295  1.00  0.00    -0.206 F 
ATOM     81  C   UNL A   1      51.679  25.633  26.359  1.00  0.00     0.006 A 
ENDBRANCH  53  74
BRANCH  65  82
ATOM     82  C   UNL A   1      46.218  32.338  29.345  1.00  0.00     0.057 A 
ATOM     83  C   UNL A   1      46.292  33.394  28.427  1.00  0.00     0.134 A 
ATOM     84  C   UNL A   1      46.686  32.578  30.644  1.00  0.00     0.134 A 
ATOM     85  F   UNL A   1      45.874  33.228  27.164  1.00  0.00    -0.206 F 
ATOM     86  C   UNL A   1      46.833  34.632  28.782  1.00  0.00     0.040 A 
ATOM     87  C   UNL A   1      47.202  33.820  31.017  1.00  0.00     0.040 A 
ATOM     88  F   UNL A   1      46.638  31.613  31.576  1.00  0.00    -0.206 F 
ATOM     89  C   UNL A   1      47.283  34.849  30.083  1.00  0.00     0.006 A 
ENDBRANCH  65  82
ENDBRANCH  39  40
ENDBRANCH  31  34
ENDBRANCH  29  30
ENDBRANCH  28  29
ENDBRANCH  27  28
ENDBRANCH   1  27
TORSDOF 16
ENDMDL
MODEL 3
REMARK VINA RESULT:     -11.0      0.902      6.261
REMARK SMILES CC[C@@](C)(NC(=O)Nc1cccc(C[NH2+]C)c1)C(=O)NCCCCNC(=O)c1ccc(-c2c3nc(c(-c4c(F)cccc4F)c4ccc([nH]4)c(-c4c(F)cccc4F)c4nc(c(-c5c(F)cccc5F)c5ccc2[nH]5)C=C4)C=C3)cc1
REMARK SMILES IDX 21 1 20 2 18 3 19 4 3 6 4 7 2 8 1 9 5 10 6 11 7 13 8 14 9 16
REMARK SMILES IDX 10 17 17 18 11 19 13 20 12 21 14 22 15 23 16 24 22 27 23 28
REMARK SMILES IDX 24 29 25 30 26 31 27 33 28 34 29 35 81 36 30 37 80 38 31 39
REMARK SMILES IDX 32 40 33 41 74 42 34 43 79 44 73 45 75 46 35 47 78 48 72 49
REMARK SMILES IDX 71 50 36 52 62 53 45 54 61 55 46 56 49 57 60 58 76 59 47 60
REMARK SMILES IDX 48 61 59 63 77 64 50 65 37 66 38 67 43 68 39 69 40 70 42 71
REMARK SMILES IDX 44 72 41 73 63 74 64 75 69 76 65 77 66 78 68 79 70 80 67 81
REMARK SMILES IDX 51 82 52 83 57 84 53 85 54 86 56 87 58 88 55 89
REMARK H PARENT 20 5 5 12 8 15 15 25 15 26 25 32 75 51 49 62
REMARK Flexibility Score: inf
ROOT
ATOM      1  C   UNL A   1      35.761  21.046  24.944  1.00  0.00     0.116 C 
ENDROOT
BRANCH   1   2
ATOM      2  N   UNL A   1      34.743  21.158  25.952  1.00  0.00    -0.354 N 
ATOM      3  C   UNL A   1      33.378  20.924  25.868  1.00  0.00     0.245 C 
ATOM      4  O   UNL A   1      32.883  19.815  25.729  1.00  0.00    -0.272 OA
ATOM      5  H   UNL A   1      35.062  21.445  26.838  1.00  0.00     0.163 HD
BRANCH   3   6
ATOM      6  C   UNL A   1      32.618  22.274  25.730  1.00  0.00     0.117 C 
ATOM      7  C   UNL A   1      33.339  23.041  26.889  1.00  0.00     0.045 C 
BRANCH   6   8
ATOM      8  C   UNL A   1      32.647  23.215  24.512  1.00  0.00     0.035 C 
ATOM      9  C   UNL A   1      33.703  24.292  24.439  1.00  0.00     0.007 C 
ENDBRANCH   6   8
BRANCH   6  10
ATOM     10  N   UNL A   1      31.180  22.025  26.067  1.00  0.00    -0.324 N 
ATOM     11  C   UNL A   1      30.137  22.753  26.488  1.00  0.00     0.320 C 
ATOM     12  H   UNL A   1      30.938  21.079  25.948  1.00  0.00     0.166 HD
ATOM     13  O   UNL A   1      29.188  22.093  26.930  1.00  0.00    -0.248 OA
ATOM     14  N   UNL A   1      29.989  24.089  26.509  1.00  0.00    -0.308 N 
ATOM     15  H   UNL A   1      29.204  24.290  27.069  1.00  0.00     0.171 HD
BRANCH  14  16
ATOM     16  C   UNL A   1      30.510  25.325  26.045  1.00  0.00     0.043 A 
ATOM     17  C   UNL A   1      30.025  25.754  24.804  1.00  0.00     0.026 A 
ATOM     18  C   UNL A   1      31.487  26.138  26.611  1.00  0.00     0.035 A 
ATOM     19  C   UNL A   1      30.388  26.996  24.259  1.00  0.00     0.003 A 
ATOM     20  C   UNL A   1      31.750  27.453  26.180  1.00  0.00     0.008 A 
ATOM     21  C   UNL A   1      31.213  27.866  24.969  1.00  0.00     0.010 A 
BRANCH  20  22
ATOM     22  C   UNL A   1      32.408  28.424  27.144  1.00  0.00     0.297 C 
BRANCH  22  23
ATOM     23  N   UNL A   1      31.911  29.801  27.141  1.00  0.00    -0.345 N 
ATOM     24  C   UNL A   1      33.068  30.703  27.031  1.00  0.00     0.331 C 
ATOM     25  H   UNL A   1      31.408  29.988  28.008  1.00  0.00     0.346 HD
ATOM     26  H   UNL A   1      31.274  29.945  26.358  1.00  0.00     0.346 HD
ENDBRANCH  22  23
ENDBRANCH  20  22
ENDBRANCH  14  16
ENDBRANCH   6  10
ENDBRANCH   3   6
ENDBRANCH   1   2
BRANCH   1  27
ATOM     27  C   UNL A   1      36.297  19.599  24.952  1.00  0.00     0.023 C 
BRANCH  27  28
ATOM     28  C   UNL A   1      37.798  19.412  24.655  1.00  0.00     0.023 C 
BRANCH  28  29
ATOM     29  C   UNL A   1      38.752  19.984  25.698  1.00  0.00     0.116 C 
BRANCH  29  30
ATOM     30  N   UNL A   1      39.975  19.210  25.777  1.00  0.00    -0.352 N 
ATOM     31  C   UNL A   1      41.266  19.580  26.059  1.00  0.00     0.251 C 
ATOM     32  H   UNL A   1      39.859  18.249  25.597  1.00  0.00     0.163 HD
ATOM     33  O   UNL A   1      42.168  18.788  25.839  1.00  0.00    -0.269 OA
BRANCH  31  34
ATOM     34  C   UNL A   1      41.585  20.918  26.615  1.00  0.00     0.039 A 
ATOM     35  C   UNL A   1      41.991  21.918  25.725  1.00  0.00     0.014 A 
ATOM     36  C   UNL A   1      41.584  21.177  27.988  1.00  0.00     0.014 A 
ATOM     37  C   UNL A   1      42.357  23.179  26.203  1.00  0.00     0.010 A 
ATOM     38  C   UNL A   1      41.888  22.457  28.460  1.00  0.00     0.010 A 
ATOM     39  C   UNL A   1      42.285  23.470  27.573  1.00  0.00    -0.014 A 
BRANCH  39  40
ATOM     40  C   UNL A   1      42.619  24.827  28.084  1.00  0.00     0.031 A 
ATOM     41  C   UNL A   1      44.033  25.182  28.456  1.00  0.00     0.074 A 
ATOM     42  C   UNL A   1      41.637  25.734  28.254  1.00  0.00     0.049 A 
ATOM     43  N   UNL A   1      44.502  26.295  28.964  1.00  0.00    -0.248 NA
ATOM     44  C   UNL A   1      45.054  24.143  28.247  1.00  0.00     0.031 C 
ATOM     45  C   UNL A   1      40.220  25.507  27.964  1.00  0.00     0.029 A 
ATOM     46  N   UNL A   1      41.678  27.023  28.723  1.00  0.00    -0.354 N 
ATOM     47  C   UNL A   1      45.863  26.088  29.144  1.00  0.00     0.074 A 
ATOM     48  C   UNL A   1      46.138  24.726  28.739  1.00  0.00     0.031 C 
ATOM     49  C   UNL A   1      39.530  26.624  28.244  1.00  0.00     0.029 A 
ATOM     50  C   UNL A   1      40.446  27.630  28.774  1.00  0.00     0.049 A 
ATOM     51  H   UNL A   1      42.510  27.471  28.996  1.00  0.00     0.167 HD
ATOM     52  C   UNL A   1      46.804  26.958  29.587  1.00  0.00     0.037 A 
ATOM     53  C   UNL A   1      40.089  28.852  29.210  1.00  0.00     0.037 A 
ATOM     54  C   UNL A   1      46.532  28.316  29.985  1.00  0.00     0.049 A 
ATOM     55  C   UNL A   1      41.146  29.790  29.725  1.00  0.00     0.074 A 
ATOM     56  C   UNL A   1      47.425  29.287  30.405  1.00  0.00     0.029 A 
ATOM     57  N   UNL A   1      45.271  28.894  30.018  1.00  0.00    -0.354 N 
ATOM     58  N   UNL A   1      42.439  29.601  29.832  1.00  0.00    -0.248 NA
ATOM     59  C   UNL A   1      40.695  31.115  30.175  1.00  0.00     0.031 C 
ATOM     60  C   UNL A   1      46.699  30.434  30.742  1.00  0.00     0.029 A 
ATOM     61  C   UNL A   1      45.360  30.199  30.477  1.00  0.00     0.049 A 
ATOM     62  H   UNL A   1      44.437  28.443  29.755  1.00  0.00     0.167 HD
ATOM     63  C   UNL A   1      42.957  30.788  30.333  1.00  0.00     0.074 A 
ATOM     64  C   UNL A   1      41.842  31.697  30.494  1.00  0.00     0.031 C 
ATOM     65  C   UNL A   1      44.244  31.097  30.630  1.00  0.00     0.037 A 
BRANCH  52  66
ATOM     66  C   UNL A   1      48.222  26.463  29.672  1.00  0.00     0.057 A 
ATOM     67  C   UNL A   1      48.710  25.812  30.812  1.00  0.00     0.134 A 
ATOM     68  C   UNL A   1      49.098  26.609  28.589  1.00  0.00     0.134 A 
ATOM     69  F   UNL A   1      47.927  25.645  31.889  1.00  0.00    -0.206 F 
ATOM     70  C   UNL A   1      50.027  25.351  30.885  1.00  0.00     0.040 A 
ATOM     71  C   UNL A   1      50.407  26.126  28.638  1.00  0.00     0.040 A 
ATOM     72  F   UNL A   1      48.694  27.212  27.461  1.00  0.00    -0.206 F 
ATOM     73  C   UNL A   1      50.878  25.503  29.792  1.00  0.00     0.006 A 
ENDBRANCH  52  66
BRANCH  53  74
ATOM     74  C   UNL A   1      38.663  29.266  29.171  1.00  0.00     0.057 A 
ATOM     75  C   UNL A   1      37.862  29.217  30.317  1.00  0.00     0.134 A 
ATOM     76  C   UNL A   1      38.066  29.714  27.986  1.00  0.00     0.134 A 
ATOM     77  F   UNL A   1      38.371  28.777  31.478  1.00  0.00    -0.206 F 
ATOM     78  C   UNL A   1      36.515  29.581  30.285  1.00  0.00     0.040 A 
ATOM     79  C   UNL A   1      36.727  30.108  27.946  1.00  0.00     0.040 A 
ATOM     80  F   UNL A   1      38.779  29.792  26.853  1.00  0.00    -0.206 F 
ATOM     81  C   UNL A   1      35.945  30.035  29.097  1.00  0.00     0.006 A 
ENDBRANCH  53  74
BRANCH  65  82
ATOM     82  C   UNL A   1      44.521  32.487  31.126  1.00  0.00     0.057 A 
ATOM     83  C   UNL A   1      44.784  33.550  30.252  1.00  0.00     0.134 A 
ATOM     84  C   UNL A   1      44.490  32.774  32.498  1.00  0.00     0.134 A 
ATOM     85  F   UNL A   1      44.842  33.343  28.928  1.00  0.00    -0.206 F 
ATOM     86  C   UNL A   1      45.030  34.841  30.725  1.00  0.00     0.040 A 
ATOM     87  C   UNL A   1      44.705  34.066  32.980  1.00  0.00     0.040 A 
ATOM     88  F   UNL A   1      44.237  31.805  33.391  1.00  0.00    -0.206 F 
ATOM     89  C   UNL A   1      44.983  35.102  32.093  1.00  0.00     0.006 A 
ENDBRANCH  65  82
ENDBRANCH  39  40
ENDBRANCH  31  34
ENDBRANCH  29  30
ENDBRANCH  28  29
ENDBRANCH  27  28
ENDBRANCH   1  27
TORSDOF 16
ENDMDL
