MODEL 1
REMARK VINA RESULT:      -9.5      0.000      0.000
REMARK SMILES Cc1cc(C)cc(Oc2nc3ccccn3c(=O)c2/C=C2\SC(=S)N(CCC(=O)NCCCCNC(=O)c3ccc(-c4c5nc(c(-c6c(F)cccc6F)c6ccc([nH]6)c(-c6c(F)cccc6F)c6nc(c(-c7c(F)cccc7F)c7ccc4[nH]7)C=C6)C=C5)cc3)C2=O)c1
REMARK SMILES IDX 31 1 30 2 28 3 29 4 27 6 26 7 25 8 20 9 21 10 22 11 92 12
REMARK SMILES IDX 23 13 93 14 24 15 19 16 9 17 10 18 11 19 17 20 12 21 16 22
REMARK SMILES IDX 18 23 13 24 15 25 14 26 8 27 7 28 1 29 2 30 3 31 94 32 4 33
REMARK SMILES IDX 5 34 6 35 32 36 33 37 34 38 35 39 36 40 37 42 38 43 39 44
REMARK SMILES IDX 91 45 40 46 90 47 41 48 42 49 43 50 84 51 44 52 89 53 83 54
REMARK SMILES IDX 85 55 45 56 88 57 82 58 81 59 46 61 72 62 55 63 71 64 56 65
REMARK SMILES IDX 59 66 70 67 86 68 57 69 58 70 69 72 87 73 60 74 47 75 48 76
REMARK SMILES IDX 53 77 49 78 50 79 52 80 54 81 51 82 73 83 74 84 79 85 75 86
REMARK SMILES IDX 76 87 78 88 80 89 77 90 61 91 62 92 67 93 63 94 64 95 66 96
REMARK SMILES IDX 68 97 65 98
REMARK H PARENT 30 5 35 41 85 60 59 71
REMARK Flexibility Score: inf
ROOT
ATOM      1  C   UNL A   1      43.028  22.544  28.730  1.00  0.00     0.116 C 
ENDROOT
BRANCH   1   2
ATOM      2  N   UNL A   1      44.302  22.571  28.024  1.00  0.00    -0.356 N 
ATOM      3  C   UNL A   1      45.268  23.531  27.993  1.00  0.00     0.221 C 
ATOM      4  O   UNL A   1      46.251  23.362  27.271  1.00  0.00    -0.275 OA
ATOM      5  H   UNL A   1      44.495  21.770  27.485  1.00  0.00     0.163 HD
BRANCH   3   6
ATOM      6  C   UNL A   1      45.141  24.769  28.855  1.00  0.00     0.122 C 
BRANCH   6   7
ATOM      7  C   UNL A   1      46.508  25.335  29.300  1.00  0.00     0.137 C 
BRANCH   7   8
ATOM      8  N   UNL A   1      46.686  26.800  29.174  1.00  0.00    -0.292 N 
ATOM      9  C   UNL A   1      45.443  29.620  27.415  1.00  0.00     0.041 C 
ATOM     10  C   UNL A   1      46.346  28.893  28.129  1.00  0.00     0.081 C 
ATOM     11  S   UNL A   1      47.202  29.293  29.581  1.00  0.00    -0.054 SA
ATOM     12  C   UNL A   1      46.495  27.411  27.923  1.00  0.00     0.266 C 
ATOM     13  C   UNL A   1      47.023  27.648  30.210  1.00  0.00     0.148 C 
ATOM     14  O   UNL A   1      46.353  26.868  26.866  1.00  0.00    -0.268 OA
ATOM     15  S   UNL A   1      47.153  27.293  31.837  1.00  0.00    -0.052 S 
BRANCH   9  16
ATOM     16  C   UNL A   1      45.074  31.034  27.620  1.00  0.00     0.104 A 
ATOM     17  C   UNL A   1      44.357  31.734  28.586  1.00  0.00     0.234 A 
ATOM     18  N   UNL A   1      44.208  33.119  28.337  1.00  0.00    -0.194 NA
ATOM     19  C   UNL A   1      45.061  33.781  27.592  1.00  0.00     0.143 A 
ATOM     20  C   UNL A   1      45.659  31.858  26.472  1.00  0.00     0.269 A 
ATOM     21  C   UNL A   1      45.199  35.292  27.594  1.00  0.00     0.048 A 
ATOM     22  N   UNL A   1      45.928  33.167  26.728  1.00  0.00    -0.267 N 
ATOM     23  O   UNL A   1      45.897  31.335  25.380  1.00  0.00    -0.268 OA
ATOM     24  C   UNL A   1      46.183  35.918  26.935  1.00  0.00     0.005 A 
ATOM     25  C   UNL A   1      46.881  33.854  25.975  1.00  0.00     0.096 A 
ATOM     26  C   UNL A   1      47.059  35.175  26.085  1.00  0.00     0.019 A 
BRANCH  17  27
ATOM     27  O   UNL A   1      43.573  31.136  29.845  1.00  0.00    -0.438 OA
BRANCH  27  28
ATOM     28  C   UNL A   1      42.864  31.673  31.092  1.00  0.00     0.130 A 
ATOM     29  C   UNL A   1      40.160  34.313  32.092  1.00  0.00     0.044 C 
ATOM     30  C   UNL A   1      41.242  33.276  32.317  1.00  0.00    -0.047 A 
ATOM     31  C   UNL A   1      42.033  33.283  33.425  1.00  0.00     0.007 A 
ATOM     32  C   UNL A   1      41.589  32.349  31.303  1.00  0.00     0.050 A 
ATOM     33  C   UNL A   1      43.116  32.384  33.478  1.00  0.00    -0.047 A 
ATOM     34  C   UNL A   1      43.771  32.302  34.826  1.00  0.00     0.044 C 
ATOM     35  C   UNL A   1      43.582  31.649  32.308  1.00  0.00     0.050 A 
ENDBRANCH  27  28
ENDBRANCH  17  27
ENDBRANCH   9  16
ENDBRANCH   7   8
ENDBRANCH   6   7
ENDBRANCH   3   6
ENDBRANCH   1   2
BRANCH   1  36
ATOM     36  C   UNL A   1      41.962  21.749  27.961  1.00  0.00     0.023 C 
BRANCH  36  37
ATOM     37  C   UNL A   1      42.466  20.844  26.849  1.00  0.00     0.023 C 
BRANCH  37  38
ATOM     38  C   UNL A   1      43.079  21.381  25.413  1.00  0.00     0.116 C 
BRANCH  38  39
ATOM     39  N   UNL A   1      43.556  22.930  24.837  1.00  0.00    -0.352 N 
ATOM     40  C   UNL A   1      43.716  24.431  24.999  1.00  0.00     0.251 C 
ATOM     41  H   UNL A   1      43.907  22.750  23.935  1.00  0.00     0.163 HD
ATOM     42  O   UNL A   1      44.600  24.884  24.251  1.00  0.00    -0.269 OA
BRANCH  40  43
ATOM     43  C   UNL A   1      42.900  25.601  25.826  1.00  0.00     0.039 A 
ATOM     44  C   UNL A   1      41.753  25.252  26.562  1.00  0.00     0.014 A 
ATOM     45  C   UNL A   1      43.100  26.976  25.913  1.00  0.00     0.014 A 
ATOM     46  C   UNL A   1      41.210  25.999  27.650  1.00  0.00     0.010 A 
ATOM     47  C   UNL A   1      42.635  27.743  27.037  1.00  0.00     0.010 A 
ATOM     48  C   UNL A   1      41.729  27.239  27.986  1.00  0.00    -0.014 A 
BRANCH  48  49
ATOM     49  C   UNL A   1      41.193  28.069  29.138  1.00  0.00     0.031 A 
ATOM     50  C   UNL A   1      41.879  27.974  30.484  1.00  0.00     0.074 A 
ATOM     51  C   UNL A   1      40.125  28.906  29.070  1.00  0.00     0.049 A 
ATOM     52  N   UNL A   1      41.518  28.446  31.655  1.00  0.00    -0.248 NA
ATOM     53  C   UNL A   1      43.132  27.210  30.509  1.00  0.00     0.031 C 
ATOM     54  C   UNL A   1      39.322  29.192  27.883  1.00  0.00     0.029 A 
ATOM     55  N   UNL A   1      39.523  29.678  30.055  1.00  0.00    -0.354 N 
ATOM     56  C   UNL A   1      42.462  27.973  32.557  1.00  0.00     0.074 A 
ATOM     57  C   UNL A   1      43.375  27.138  31.805  1.00  0.00     0.031 C 
ATOM     58  C   UNL A   1      38.356  30.079  28.200  1.00  0.00     0.029 A 
ATOM     59  C   UNL A   1      38.435  30.411  29.625  1.00  0.00     0.049 A 
ATOM     60  H   UNL A   1      39.845  29.699  30.985  1.00  0.00     0.167 HD
ATOM     61  C   UNL A   1      42.602  28.222  33.883  1.00  0.00     0.037 A 
ATOM     62  C   UNL A   1      37.597  31.244  30.287  1.00  0.00     0.037 A 
ATOM     63  C   UNL A   1      41.788  29.115  34.658  1.00  0.00     0.049 A 
ATOM     64  C   UNL A   1      37.748  31.497  31.773  1.00  0.00     0.074 A 
ATOM     65  C   UNL A   1      41.918  29.452  35.997  1.00  0.00     0.029 A 
ATOM     66  N   UNL A   1      40.711  29.832  34.170  1.00  0.00    -0.354 N 
ATOM     67  N   UNL A   1      38.654  31.045  32.605  1.00  0.00    -0.248 NA
ATOM     68  C   UNL A   1      36.751  32.377  32.416  1.00  0.00     0.031 C 
ATOM     69  C   UNL A   1      40.903  30.357  36.324  1.00  0.00     0.029 A 
ATOM     70  C   UNL A   1      40.164  30.606  35.180  1.00  0.00     0.049 A 
ATOM     71  H   UNL A   1      40.382  29.797  33.241  1.00  0.00     0.167 HD
ATOM     72  C   UNL A   1      38.369  31.625  33.840  1.00  0.00     0.074 A 
ATOM     73  C   UNL A   1      37.198  32.452  33.662  1.00  0.00     0.031 C 
ATOM     74  C   UNL A   1      39.032  31.478  35.012  1.00  0.00     0.037 A 
BRANCH  61  75
ATOM     75  C   UNL A   1      43.707  27.487  34.581  1.00  0.00     0.057 A 
ATOM     76  C   UNL A   1      43.525  26.199  35.101  1.00  0.00     0.134 A 
ATOM     77  C   UNL A   1      44.949  28.101  34.777  1.00  0.00     0.134 A 
ATOM     78  F   UNL A   1      42.349  25.569  34.961  1.00  0.00    -0.206 F 
ATOM     79  C   UNL A   1      44.521  25.571  35.847  1.00  0.00     0.040 A 
ATOM     80  C   UNL A   1      45.966  27.467  35.491  1.00  0.00     0.040 A 
ATOM     81  F   UNL A   1      45.190  29.328  34.292  1.00  0.00    -0.206 F 
ATOM     82  C   UNL A   1      45.746  26.206  36.044  1.00  0.00     0.006 A 
ENDBRANCH  61  75
BRANCH  62  83
ATOM     83  C   UNL A   1      36.503  31.961  29.568  1.00  0.00     0.057 A 
ATOM     84  C   UNL A   1      35.380  31.266  29.095  1.00  0.00     0.134 A 
ATOM     85  C   UNL A   1      36.600  33.317  29.237  1.00  0.00     0.134 A 
ATOM     86  F   UNL A   1      35.253  29.951  29.331  1.00  0.00    -0.206 F 
ATOM     87  C   UNL A   1      34.404  31.887  28.313  1.00  0.00     0.040 A 
ATOM     88  C   UNL A   1      35.620  33.956  28.471  1.00  0.00     0.040 A 
ATOM     89  F   UNL A   1      37.661  34.035  29.631  1.00  0.00    -0.206 F 
ATOM     90  C   UNL A   1      34.521  33.239  28.001  1.00  0.00     0.006 A 
ENDBRANCH  62  83
BRANCH  74  91
ATOM     91  C   UNL A   1      38.588  32.281  36.201  1.00  0.00     0.057 A 
ATOM     92  C   UNL A   1      37.844  31.720  37.245  1.00  0.00     0.134 A 
ATOM     93  C   UNL A   1      39.007  33.610  36.354  1.00  0.00     0.134 A 
ATOM     94  F   UNL A   1      37.403  30.455  37.163  1.00  0.00    -0.206 F 
ATOM     95  C   UNL A   1      37.535  32.449  38.397  1.00  0.00     0.040 A 
ATOM     96  C   UNL A   1      38.722  34.343  37.508  1.00  0.00     0.040 A 
ATOM     97  F   UNL A   1      39.732  34.209  35.395  1.00  0.00    -0.206 F 
ATOM     98  C   UNL A   1      37.985  33.762  38.536  1.00  0.00     0.006 A 
ENDBRANCH  74  91
ENDBRANCH  48  49
ENDBRANCH  40  43
ENDBRANCH  38  39
ENDBRANCH  37  38
ENDBRANCH  36  37
ENDBRANCH   1  36
TORSDOF 16
ENDMDL
MODEL 2
REMARK VINA RESULT:      -8.6      6.176     12.720
REMARK SMILES Cc1cc(C)cc(Oc2nc3ccccn3c(=O)c2/C=C2\SC(=S)N(CCC(=O)NCCCCNC(=O)c3ccc(-c4c5nc(c(-c6c(F)cccc6F)c6ccc([nH]6)c(-c6c(F)cccc6F)c6nc(c(-c7c(F)cccc7F)c7ccc4[nH]7)C=C6)C=C5)cc3)C2=O)c1
REMARK SMILES IDX 31 1 30 2 28 3 29 4 27 6 26 7 25 8 20 9 21 10 22 11 92 12
REMARK SMILES IDX 23 13 93 14 24 15 19 16 9 17 10 18 11 19 17 20 12 21 16 22
REMARK SMILES IDX 18 23 13 24 15 25 14 26 8 27 7 28 1 29 2 30 3 31 94 32 4 33
REMARK SMILES IDX 5 34 6 35 32 36 33 37 34 38 35 39 36 40 37 42 38 43 39 44
REMARK SMILES IDX 91 45 40 46 90 47 41 48 42 49 43 50 84 51 44 52 89 53 83 54
REMARK SMILES IDX 85 55 45 56 88 57 82 58 81 59 46 61 72 62 55 63 71 64 56 65
REMARK SMILES IDX 59 66 70 67 86 68 57 69 58 70 69 72 87 73 60 74 47 75 48 76
REMARK SMILES IDX 53 77 49 78 50 79 52 80 54 81 51 82 73 83 74 84 79 85 75 86
REMARK SMILES IDX 76 87 78 88 80 89 77 90 61 91 62 92 67 93 63 94 64 95 66 96
REMARK SMILES IDX 68 97 65 98
REMARK H PARENT 30 5 35 41 85 60 59 71
REMARK Flexibility Score: inf
ROOT
ATOM      1  C   UNL A   1      35.610  22.272  24.426  1.00  0.00     0.116 C 
ENDROOT
BRANCH   1   2
ATOM      2  N   UNL A   1      34.428  21.744  23.757  1.00  0.00    -0.356 N 
ATOM      3  C   UNL A   1      33.107  21.955  24.011  1.00  0.00     0.221 C 
ATOM      4  O   UNL A   1      32.268  21.350  23.344  1.00  0.00    -0.275 OA
ATOM      5  H   UNL A   1      34.614  21.139  23.002  1.00  0.00     0.163 HD
BRANCH   3   6
ATOM      6  C   UNL A   1      32.684  22.941  25.081  1.00  0.00     0.122 C 
BRANCH   6   7
ATOM      7  C   UNL A   1      32.434  24.360  24.525  1.00  0.00     0.137 C 
BRANCH   7   8
ATOM      8  N   UNL A   1      32.440  25.464  25.512  1.00  0.00    -0.292 N 
ATOM      9  C   UNL A   1      34.231  28.391  26.412  1.00  0.00     0.041 C 
ATOM     10  C   UNL A   1      33.407  27.325  26.603  1.00  0.00     0.081 C 
ATOM     11  S   UNL A   1      31.802  27.258  27.252  1.00  0.00    -0.054 SA
ATOM     12  C   UNL A   1      33.667  26.005  25.931  1.00  0.00     0.266 C 
ATOM     13  C   UNL A   1      31.313  26.034  26.070  1.00  0.00     0.148 C 
ATOM     14  O   UNL A   1      34.762  25.577  25.706  1.00  0.00    -0.268 OA
ATOM     15  S   UNL A   1      29.713  25.760  25.676  1.00  0.00    -0.052 S 
BRANCH   9  16
ATOM     16  C   UNL A   1      34.017  29.778  26.869  1.00  0.00     0.104 A 
ATOM     17  C   UNL A   1      32.947  30.669  26.842  1.00  0.00     0.234 A 
ATOM     18  N   UNL A   1      33.224  31.954  27.367  1.00  0.00    -0.194 NA
ATOM     19  C   UNL A   1      34.175  32.149  28.247  1.00  0.00     0.143 A 
ATOM     20  C   UNL A   1      35.307  30.279  27.520  1.00  0.00     0.269 A 
ATOM     21  C   UNL A   1      34.279  33.378  29.130  1.00  0.00     0.048 A 
ATOM     22  N   UNL A   1      35.184  31.249  28.465  1.00  0.00    -0.267 N 
ATOM     23  O   UNL A   1      36.398  29.792  27.209  1.00  0.00    -0.268 OA
ATOM     24  C   UNL A   1      35.175  33.471  30.121  1.00  0.00     0.005 A 
ATOM     25  C   UNL A   1      36.168  31.417  29.440  1.00  0.00     0.096 A 
ATOM     26  C   UNL A   1      36.166  32.454  30.284  1.00  0.00     0.019 A 
BRANCH  17  27
ATOM     27  O   UNL A   1      31.514  30.455  26.165  1.00  0.00    -0.438 OA
BRANCH  27  28
ATOM     28  C   UNL A   1      30.963  30.087  24.784  1.00  0.00     0.130 A 
ATOM     29  C   UNL A   1      27.655  30.348  22.718  1.00  0.00     0.044 C 
ATOM     30  C   UNL A   1      29.075  29.913  23.022  1.00  0.00    -0.047 A 
ATOM     31  C   UNL A   1      29.605  28.765  22.519  1.00  0.00     0.007 A 
ATOM     32  C   UNL A   1      29.861  30.601  23.980  1.00  0.00     0.050 A 
ATOM     33  C   UNL A   1      30.871  28.356  22.980  1.00  0.00    -0.047 A 
ATOM     34  C   UNL A   1      31.466  27.223  22.195  1.00  0.00     0.044 C 
ATOM     35  C   UNL A   1      31.509  28.950  24.149  1.00  0.00     0.050 A 
ENDBRANCH  27  28
ENDBRANCH  17  27
ENDBRANCH   9  16
ENDBRANCH   7   8
ENDBRANCH   6   7
ENDBRANCH   3   6
ENDBRANCH   1   2
BRANCH   1  36
ATOM     36  C   UNL A   1      36.197  21.270  25.430  1.00  0.00     0.023 C 
BRANCH  36  37
ATOM     37  C   UNL A   1      37.691  21.013  25.334  1.00  0.00     0.023 C 
BRANCH  37  38
ATOM     38  C   UNL A   1      38.852  22.174  25.508  1.00  0.00     0.116 C 
BRANCH  38  39
ATOM     39  N   UNL A   1      38.987  23.572  26.501  1.00  0.00    -0.352 N 
ATOM     40  C   UNL A   1      39.694  24.842  26.942  1.00  0.00     0.251 C 
ATOM     41  H   UNL A   1      38.196  23.525  27.086  1.00  0.00     0.163 HD
ATOM     42  O   UNL A   1      38.913  25.636  27.496  1.00  0.00    -0.269 OA
BRANCH  40  43
ATOM     43  C   UNL A   1      41.265  25.340  26.981  1.00  0.00     0.039 A 
ATOM     44  C   UNL A   1      41.873  25.796  25.796  1.00  0.00     0.014 A 
ATOM     45  C   UNL A   1      42.200  25.360  28.012  1.00  0.00     0.014 A 
ATOM     46  C   UNL A   1      43.014  26.649  25.728  1.00  0.00     0.010 A 
ATOM     47  C   UNL A   1      43.316  26.265  28.010  1.00  0.00     0.010 A 
ATOM     48  C   UNL A   1      43.706  26.999  26.877  1.00  0.00    -0.014 A 
BRANCH  48  49
ATOM     49  C   UNL A   1      44.920  27.909  26.859  1.00  0.00     0.031 A 
ATOM     50  C   UNL A   1      44.713  29.401  27.001  1.00  0.00     0.074 A 
ATOM     51  C   UNL A   1      46.207  27.495  26.720  1.00  0.00     0.049 A 
ATOM     52  N   UNL A   1      45.560  30.393  26.851  1.00  0.00    -0.248 NA
ATOM     53  C   UNL A   1      43.347  29.828  27.327  1.00  0.00     0.031 C 
ATOM     54  C   UNL A   1      46.665  26.112  26.599  1.00  0.00     0.029 A 
ATOM     55  N   UNL A   1      47.385  28.228  26.649  1.00  0.00    -0.354 N 
ATOM     56  C   UNL A   1      44.809  31.553  26.994  1.00  0.00     0.074 A 
ATOM     57  C   UNL A   1      43.436  31.138  27.189  1.00  0.00     0.031 C 
ATOM     58  C   UNL A   1      48.010  26.096  26.489  1.00  0.00     0.029 A 
ATOM     59  C   UNL A   1      48.526  27.467  26.495  1.00  0.00     0.049 A 
ATOM     60  H   UNL A   1      47.404  29.211  26.703  1.00  0.00     0.167 HD
ATOM     61  C   UNL A   1      45.203  32.851  27.003  1.00  0.00     0.037 A 
ATOM     62  C   UNL A   1      49.828  27.819  26.367  1.00  0.00     0.037 A 
ATOM     63  C   UNL A   1      46.558  33.316  26.913  1.00  0.00     0.049 A 
ATOM     64  C   UNL A   1      50.254  29.273  26.355  1.00  0.00     0.074 A 
ATOM     65  C   UNL A   1      47.025  34.620  26.974  1.00  0.00     0.029 A 
ATOM     66  N   UNL A   1      47.667  32.503  26.766  1.00  0.00    -0.354 N 
ATOM     67  N   UNL A   1      49.527  30.352  26.501  1.00  0.00    -0.248 NA
ATOM     68  C   UNL A   1      51.690  29.556  26.156  1.00  0.00     0.031 C 
ATOM     69  C   UNL A   1      48.417  34.597  26.840  1.00  0.00     0.029 A 
ATOM     70  C   UNL A   1      48.816  33.276  26.730  1.00  0.00     0.049 A 
ATOM     71  H   UNL A   1      47.644  31.520  26.697  1.00  0.00     0.167 HD
ATOM     72  C   UNL A   1      50.416  31.425  26.466  1.00  0.00     0.074 A 
ATOM     73  C   UNL A   1      51.738  30.876  26.271  1.00  0.00     0.031 C 
ATOM     74  C   UNL A   1      50.147  32.747  26.590  1.00  0.00     0.037 A 
BRANCH  61  75
ATOM     75  C   UNL A   1      44.111  33.873  27.116  1.00  0.00     0.057 A 
ATOM     76  C   UNL A   1      43.573  34.507  25.988  1.00  0.00     0.134 A 
ATOM     77  C   UNL A   1      43.632  34.259  28.373  1.00  0.00     0.134 A 
ATOM     78  F   UNL A   1      44.008  34.191  24.759  1.00  0.00    -0.206 F 
ATOM     79  C   UNL A   1      42.642  35.535  26.111  1.00  0.00     0.040 A 
ATOM     80  C   UNL A   1      42.673  35.262  28.505  1.00  0.00     0.040 A 
ATOM     81  F   UNL A   1      44.098  33.680  29.489  1.00  0.00    -0.206 F 
ATOM     82  C   UNL A   1      42.189  35.916  27.373  1.00  0.00     0.006 A 
ENDBRANCH  61  75
BRANCH  62  83
ATOM     83  C   UNL A   1      50.895  26.781  26.254  1.00  0.00     0.057 A 
ATOM     84  C   UNL A   1      51.595  26.346  27.390  1.00  0.00     0.134 A 
ATOM     85  C   UNL A   1      51.317  26.285  25.016  1.00  0.00     0.134 A 
ATOM     86  F   UNL A   1      51.276  26.825  28.602  1.00  0.00    -0.206 F 
ATOM     87  C   UNL A   1      52.679  25.471  27.297  1.00  0.00     0.040 A 
ATOM     88  C   UNL A   1      52.388  25.392  24.911  1.00  0.00     0.040 A 
ATOM     89  F   UNL A   1      50.711  26.681  23.888  1.00  0.00    -0.206 F 
ATOM     90  C   UNL A   1      53.077  24.988  26.052  1.00  0.00     0.006 A 
ENDBRANCH  62  83
BRANCH  74  91
ATOM     91  C   UNL A   1      51.289  33.721  26.610  1.00  0.00     0.057 A 
ATOM     92  C   UNL A   1      51.706  34.408  25.463  1.00  0.00     0.134 A 
ATOM     93  C   UNL A   1      51.911  34.058  27.821  1.00  0.00     0.134 A 
ATOM     94  F   UNL A   1      51.160  34.131  24.269  1.00  0.00    -0.206 F 
ATOM     95  C   UNL A   1      52.695  35.394  25.521  1.00  0.00     0.040 A 
ATOM     96  C   UNL A   1      52.888  35.054  27.894  1.00  0.00     0.040 A 
ATOM     97  F   UNL A   1      51.555  33.445  28.961  1.00  0.00    -0.206 F 
ATOM     98  C   UNL A   1      53.281  35.727  26.741  1.00  0.00     0.006 A 
ENDBRANCH  74  91
ENDBRANCH  48  49
ENDBRANCH  40  43
ENDBRANCH  38  39
ENDBRANCH  37  38
ENDBRANCH  36  37
ENDBRANCH   1  36
TORSDOF 16
ENDMDL
MODEL 3
REMARK VINA RESULT:      -8.4      2.852      6.712
REMARK SMILES Cc1cc(C)cc(Oc2nc3ccccn3c(=O)c2/C=C2\SC(=S)N(CCC(=O)NCCCCNC(=O)c3ccc(-c4c5nc(c(-c6c(F)cccc6F)c6ccc([nH]6)c(-c6c(F)cccc6F)c6nc(c(-c7c(F)cccc7F)c7ccc4[nH]7)C=C6)C=C5)cc3)C2=O)c1
REMARK SMILES IDX 31 1 30 2 28 3 29 4 27 6 26 7 25 8 20 9 21 10 22 11 92 12
REMARK SMILES IDX 23 13 93 14 24 15 19 16 9 17 10 18 11 19 17 20 12 21 16 22
REMARK SMILES IDX 18 23 13 24 15 25 14 26 8 27 7 28 1 29 2 30 3 31 94 32 4 33
REMARK SMILES IDX 5 34 6 35 32 36 33 37 34 38 35 39 36 40 37 42 38 43 39 44
REMARK SMILES IDX 91 45 40 46 90 47 41 48 42 49 43 50 84 51 44 52 89 53 83 54
REMARK SMILES IDX 85 55 45 56 88 57 82 58 81 59 46 61 72 62 55 63 71 64 56 65
REMARK SMILES IDX 59 66 70 67 86 68 57 69 58 70 69 72 87 73 60 74 47 75 48 76
REMARK SMILES IDX 53 77 49 78 50 79 52 80 54 81 51 82 73 83 74 84 79 85 75 86
REMARK SMILES IDX 76 87 78 88 80 89 77 90 61 91 62 92 67 93 63 94 64 95 66 96
REMARK SMILES IDX 68 97 65 98
REMARK H PARENT 30 5 35 41 85 60 59 71
REMARK Flexibility Score: inf
ROOT
ATOM      1  C   UNL A   1      42.866  24.459  25.940  1.00  0.00     0.116 C 
ENDROOT
BRANCH   1   2
ATOM      2  N   UNL A   1      43.022  25.738  25.259  1.00  0.00    -0.356 N 
ATOM      3  C   UNL A   1      42.281  26.877  25.350  1.00  0.00     0.221 C 
ATOM      4  O   UNL A   1      42.565  27.831  24.627  1.00  0.00    -0.275 OA
ATOM      5  H   UNL A   1      43.782  25.786  24.634  1.00  0.00     0.163 HD
BRANCH   3   6
ATOM      6  C   UNL A   1      41.143  26.969  26.345  1.00  0.00     0.122 C 
BRANCH   6   7
ATOM      7  C   UNL A   1      41.617  27.346  27.766  1.00  0.00     0.137 C 
BRANCH   7   8
ATOM      8  N   UNL A   1      40.589  27.894  28.679  1.00  0.00    -0.292 N 
ATOM      9  C   UNL A   1      38.902  30.908  29.492  1.00  0.00     0.041 C 
ATOM     10  C   UNL A   1      39.385  29.653  29.702  1.00  0.00     0.081 C 
ATOM     11  S   UNL A   1      38.577  28.226  30.258  1.00  0.00    -0.054 SA
ATOM     12  C   UNL A   1      40.708  29.218  29.134  1.00  0.00     0.266 C 
ATOM     13  C   UNL A   1      39.481  27.204  29.131  1.00  0.00     0.148 C 
ATOM     14  O   UNL A   1      41.648  29.947  29.002  1.00  0.00    -0.268 OA
ATOM     15  S   UNL A   1      38.943  25.694  28.662  1.00  0.00    -0.052 S 
BRANCH   9  16
ATOM     16  C   UNL A   1      37.564  31.420  29.845  1.00  0.00     0.104 A 
ATOM     17  C   UNL A   1      36.265  31.154  29.422  1.00  0.00     0.234 A 
ATOM     18  N   UNL A   1      35.262  31.951  30.023  1.00  0.00    -0.194 NA
ATOM     19  C   UNL A   1      35.433  32.501  31.200  1.00  0.00     0.143 A 
ATOM     20  C   UNL A   1      37.722  32.475  30.941  1.00  0.00     0.269 A 
ATOM     21  C   UNL A   1      34.303  33.025  32.067  1.00  0.00     0.048 A 
ATOM     22  N   UNL A   1      36.664  32.658  31.778  1.00  0.00    -0.267 N 
ATOM     23  O   UNL A   1      38.779  33.100  31.065  1.00  0.00    -0.268 OA
ATOM     24  C   UNL A   1      34.503  33.439  33.325  1.00  0.00     0.005 A 
ATOM     25  C   UNL A   1      36.855  33.186  33.055  1.00  0.00     0.096 A 
ATOM     26  C   UNL A   1      35.831  33.531  33.844  1.00  0.00     0.019 A 
BRANCH  17  27
ATOM     27  O   UNL A   1      35.803  30.169  28.249  1.00  0.00    -0.438 OA
BRANCH  27  28
ATOM     28  C   UNL A   1      34.540  29.918  27.419  1.00  0.00     0.130 A 
ATOM     29  C   UNL A   1      31.167  31.667  26.501  1.00  0.00     0.044 C 
ATOM     30  C   UNL A   1      32.180  30.542  26.557  1.00  0.00    -0.047 A 
ATOM     31  C   UNL A   1      31.812  29.232  26.520  1.00  0.00     0.007 A 
ATOM     32  C   UNL A   1      33.549  30.802  26.816  1.00  0.00     0.050 A 
ATOM     33  C   UNL A   1      32.801  28.253  26.738  1.00  0.00    -0.047 A 
ATOM     34  C   UNL A   1      32.346  26.854  26.440  1.00  0.00     0.044 C 
ATOM     35  C   UNL A   1      34.122  28.578  27.261  1.00  0.00     0.050 A 
ENDBRANCH  27  28
ENDBRANCH  17  27
ENDBRANCH   9  16
ENDBRANCH   7   8
ENDBRANCH   6   7
ENDBRANCH   3   6
ENDBRANCH   1   2
BRANCH   1  36
ATOM     36  C   UNL A   1      43.175  23.274  25.013  1.00  0.00     0.023 C 
BRANCH  36  37
ATOM     37  C   UNL A   1      44.488  23.336  24.251  1.00  0.00     0.023 C 
BRANCH  37  38
ATOM     38  C   UNL A   1      45.981  23.285  24.955  1.00  0.00     0.116 C 
BRANCH  38  39
ATOM     39  N   UNL A   1      47.222  24.454  25.180  1.00  0.00    -0.352 N 
ATOM     40  C   UNL A   1      47.832  25.642  25.904  1.00  0.00     0.251 C 
ATOM     41  H   UNL A   1      47.876  24.246  24.474  1.00  0.00     0.163 HD
ATOM     42  O   UNL A   1      49.065  25.693  25.751  1.00  0.00    -0.269 OA
BRANCH  40  43
ATOM     43  C   UNL A   1      47.223  26.941  26.718  1.00  0.00     0.039 A 
ATOM     44  C   UNL A   1      45.840  27.193  26.678  1.00  0.00     0.014 A 
ATOM     45  C   UNL A   1      47.850  27.942  27.454  1.00  0.00     0.014 A 
ATOM     46  C   UNL A   1      45.110  27.956  27.637  1.00  0.00     0.010 A 
ATOM     47  C   UNL A   1      47.164  28.674  28.483  1.00  0.00     0.010 A 
ATOM     48  C   UNL A   1      45.769  28.636  28.650  1.00  0.00    -0.014 A 
BRANCH  48  49
ATOM     49  C   UNL A   1      45.040  29.454  29.699  1.00  0.00     0.031 A 
ATOM     50  C   UNL A   1      44.765  28.829  31.049  1.00  0.00     0.074 A 
ATOM     51  C   UNL A   1      44.596  30.727  29.529  1.00  0.00     0.049 A 
ATOM     52  N   UNL A   1      44.022  29.253  32.045  1.00  0.00    -0.248 NA
ATOM     53  C   UNL A   1      45.397  27.526  31.289  1.00  0.00     0.031 C 
ATOM     54  C   UNL A   1      44.766  31.553  28.336  1.00  0.00     0.029 A 
ATOM     55  N   UNL A   1      43.888  31.556  30.392  1.00  0.00    -0.354 N 
ATOM     56  C   UNL A   1      44.045  28.234  32.990  1.00  0.00     0.074 A 
ATOM     57  C   UNL A   1      44.830  27.158  32.424  1.00  0.00     0.031 C 
ATOM     58  C   UNL A   1      44.202  32.762  28.545  1.00  0.00     0.029 A 
ATOM     59  C   UNL A   1      43.593  32.802  29.876  1.00  0.00     0.049 A 
ATOM     60  H   UNL A   1      43.619  31.276  31.296  1.00  0.00     0.167 HD
ATOM     61  C   UNL A   1      43.504  28.187  34.233  1.00  0.00     0.037 A 
ATOM     62  C   UNL A   1      42.913  33.850  30.400  1.00  0.00     0.037 A 
ATOM     63  C   UNL A   1      42.802  29.257  34.883  1.00  0.00     0.049 A 
ATOM     64  C   UNL A   1      42.293  33.777  31.780  1.00  0.00     0.074 A 
ATOM     65  C   UNL A   1      42.280  29.287  36.167  1.00  0.00     0.029 A 
ATOM     66  N   UNL A   1      42.540  30.492  34.318  1.00  0.00    -0.354 N 
ATOM     67  N   UNL A   1      42.335  32.807  32.660  1.00  0.00    -0.248 NA
ATOM     68  C   UNL A   1      41.523  34.951  32.240  1.00  0.00     0.031 C 
ATOM     69  C   UNL A   1      41.681  30.534  36.370  1.00  0.00     0.029 A 
ATOM     70  C   UNL A   1      41.861  31.289  35.225  1.00  0.00     0.049 A 
ATOM     71  H   UNL A   1      42.799  30.764  33.407  1.00  0.00     0.167 HD
ATOM     72  C   UNL A   1      41.653  33.273  33.782  1.00  0.00     0.074 A 
ATOM     73  C   UNL A   1      41.190  34.607  33.477  1.00  0.00     0.031 C 
ATOM     74  C   UNL A   1      41.439  32.640  34.960  1.00  0.00     0.037 A 
BRANCH  61  75
ATOM     75  C   UNL A   1      43.663  26.893  34.975  1.00  0.00     0.057 A 
ATOM     76  C   UNL A   1      42.623  25.958  35.062  1.00  0.00     0.134 A 
ATOM     77  C   UNL A   1      44.855  26.607  35.649  1.00  0.00     0.134 A 
ATOM     78  F   UNL A   1      41.451  26.188  34.451  1.00  0.00    -0.206 F 
ATOM     79  C   UNL A   1      42.741  24.814  35.847  1.00  0.00     0.040 A 
ATOM     80  C   UNL A   1      44.998  25.447  36.408  1.00  0.00     0.040 A 
ATOM     81  F   UNL A   1      45.893  27.456  35.594  1.00  0.00    -0.206 F 
ATOM     82  C   UNL A   1      43.932  24.555  36.524  1.00  0.00     0.006 A 
ENDBRANCH  61  75
BRANCH  62  83
ATOM     83  C   UNL A   1      42.767  35.126  29.639  1.00  0.00     0.057 A 
ATOM     84  C   UNL A   1      41.633  35.364  28.849  1.00  0.00     0.134 A 
ATOM     85  C   UNL A   1      43.791  36.078  29.589  1.00  0.00     0.134 A 
ATOM     86  F   UNL A   1      40.639  34.464  28.809  1.00  0.00    -0.206 F 
ATOM     87  C   UNL A   1      41.528  36.491  28.030  1.00  0.00     0.040 A 
ATOM     88  C   UNL A   1      43.690  37.221  28.790  1.00  0.00     0.040 A 
ATOM     89  F   UNL A   1      44.915  35.899  30.297  1.00  0.00    -0.206 F 
ATOM     90  C   UNL A   1      42.559  37.426  28.002  1.00  0.00     0.006 A 
ENDBRANCH  62  83
BRANCH  74  91
ATOM     91  C   UNL A   1      40.747  33.382  36.068  1.00  0.00     0.057 A 
ATOM     92  C   UNL A   1      41.411  34.314  36.872  1.00  0.00     0.134 A 
ATOM     93  C   UNL A   1      39.365  33.237  36.260  1.00  0.00     0.134 A 
ATOM     94  F   UNL A   1      42.735  34.498  36.748  1.00  0.00    -0.206 F 
ATOM     95  C   UNL A   1      40.728  35.078  37.823  1.00  0.00     0.040 A 
ATOM     96  C   UNL A   1      38.668  34.008  37.193  1.00  0.00     0.040 A 
ATOM     97  F   UNL A   1      38.663  32.367  35.517  1.00  0.00    -0.206 F 
ATOM     98  C   UNL A   1      39.350  34.934  37.977  1.00  0.00     0.006 A 
ENDBRANCH  74  91
ENDBRANCH  48  49
ENDBRANCH  40  43
ENDBRANCH  38  39
ENDBRANCH  37  38
ENDBRANCH  36  37
ENDBRANCH   1  36
TORSDOF 16
ENDMDL
