MODEL 1
REMARK VINA RESULT:     -13.3      0.000      0.000
REMARK SMILES O=C(NCCCCNC(=O)[C@@H](Cc1c[nH]c2ccccc12)Nc1ncnc2ccccc12)c1ccc(-c2c3nc(c(-c4c(F)cccc4F)c4ccc([nH]4)c(-c4c(F)cccc4F)c4nc(c(-c5c(F)cccc5F)c5ccc2[nH]5)C=C4)C=C3)cc1
REMARK SMILES IDX 5 1 4 2 3 3 1 4 2 5 33 7 34 8 86 9 35 10 85 11 36 12 37 13
REMARK SMILES IDX 38 14 79 15 39 16 84 17 78 18 80 19 40 20 83 21 77 22 76 23
REMARK SMILES IDX 41 25 67 26 50 27 66 28 51 29 54 30 65 31 81 32 52 33 53 34
REMARK SMILES IDX 64 36 82 37 55 38 42 39 43 40 48 41 44 42 45 43 47 44 49 45
REMARK SMILES IDX 46 46 68 47 69 48 74 49 70 50 71 51 73 52 75 53 72 54 56 55
REMARK SMILES IDX 57 56 62 57 58 58 59 59 61 60 63 61 60 62 6 63 7 64 8 65
REMARK SMILES IDX 9 66 10 68 11 69 12 70 13 71 14 72 21 73 15 74 16 75 20 76
REMARK SMILES IDX 17 78 19 79 18 80 22 81 23 83 24 84 32 85 25 86 27 87 31 88
REMARK SMILES IDX 26 89 28 90 30 91 29 92
REMARK H PARENT 3 6 80 24 54 35 8 67 15 77 22 82
REMARK Flexibility Score: inf
ROOT
ATOM      1  C   UNL A   1      31.453  31.972  26.812  1.00  0.00     0.023 C 
ENDROOT
BRANCH   1   2
ATOM      2  C   UNL A   1      32.633  32.807  27.288  1.00  0.00     0.116 C 
BRANCH   2   3
ATOM      3  N   UNL A   1      32.304  34.190  27.610  1.00  0.00    -0.352 N 
ATOM      4  O   UNL A   1      32.567  36.164  28.697  1.00  0.00    -0.269 OA
ATOM      5  C   UNL A   1      32.961  35.026  28.485  1.00  0.00     0.251 C 
ATOM      6  H   UNL A   1      31.521  34.570  27.150  1.00  0.00     0.163 HD
BRANCH   5   7
ATOM      7  C   UNL A   1      34.129  34.486  29.208  1.00  0.00     0.039 A 
ATOM      8  C   UNL A   1      35.412  34.641  28.676  1.00  0.00     0.014 A 
ATOM      9  C   UNL A   1      33.919  33.723  30.358  1.00  0.00     0.014 A 
ATOM     10  C   UNL A   1      36.462  33.906  29.206  1.00  0.00     0.010 A 
ATOM     11  C   UNL A   1      34.996  33.053  30.941  1.00  0.00     0.010 A 
ATOM     12  C   UNL A   1      36.267  33.113  30.349  1.00  0.00    -0.014 A 
BRANCH  12  13
ATOM     13  C   UNL A   1      37.426  32.414  30.953  1.00  0.00     0.031 A 
ATOM     14  C   UNL A   1      38.153  31.324  30.218  1.00  0.00     0.074 A 
ATOM     15  C   UNL A   1      37.817  32.785  32.187  1.00  0.00     0.049 A 
ATOM     16  N   UNL A   1      39.152  30.585  30.630  1.00  0.00    -0.248 NA
ATOM     17  C   UNL A   1      37.703  31.016  28.852  1.00  0.00     0.031 C 
ATOM     18  C   UNL A   1      37.172  33.825  32.994  1.00  0.00     0.029 A 
ATOM     19  N   UNL A   1      38.842  32.338  32.978  1.00  0.00    -0.354 N 
ATOM     20  C   UNL A   1      39.429  29.704  29.592  1.00  0.00     0.074 A 
ATOM     21  C   UNL A   1      38.493  29.998  28.529  1.00  0.00     0.031 C 
ATOM     22  C   UNL A   1      37.832  33.954  34.153  1.00  0.00     0.029 A 
ATOM     23  C   UNL A   1      38.899  32.962  34.198  1.00  0.00     0.049 A 
ATOM     24  H   UNL A   1      39.476  31.639  32.697  1.00  0.00     0.167 HD
ATOM     25  C   UNL A   1      40.379  28.741  29.540  1.00  0.00     0.037 A 
ATOM     26  C   UNL A   1      39.694  32.736  35.258  1.00  0.00     0.037 A 
ATOM     27  C   UNL A   1      41.333  28.486  30.589  1.00  0.00     0.049 A 
ATOM     28  C   UNL A   1      40.721  31.649  35.176  1.00  0.00     0.074 A 
ATOM     29  C   UNL A   1      42.395  27.598  30.590  1.00  0.00     0.029 A 
ATOM     30  N   UNL A   1      41.335  29.114  31.825  1.00  0.00    -0.354 N 
ATOM     31  N   UNL A   1      41.000  30.856  34.171  1.00  0.00    -0.248 NA
ATOM     32  C   UNL A   1      41.530  31.412  36.378  1.00  0.00     0.031 C 
ATOM     33  C   UNL A   1      43.012  27.656  31.845  1.00  0.00     0.029 A 
ATOM     34  C   UNL A   1      42.355  28.604  32.612  1.00  0.00     0.049 A 
ATOM     35  H   UNL A   1      40.705  29.818  32.103  1.00  0.00     0.167 HD
ATOM     36  C   UNL A   1      42.011  30.021  34.619  1.00  0.00     0.074 A 
ATOM     37  C   UNL A   1      42.317  30.423  35.978  1.00  0.00     0.031 C 
ATOM     38  C   UNL A   1      42.626  29.005  33.967  1.00  0.00     0.037 A 
BRANCH  25  39
ATOM     39  C   UNL A   1      40.438  27.869  28.322  1.00  0.00     0.057 A 
ATOM     40  C   UNL A   1      41.179  28.226  27.189  1.00  0.00     0.134 A 
ATOM     41  C   UNL A   1      39.821  26.612  28.323  1.00  0.00     0.134 A 
ATOM     42  F   UNL A   1      41.789  29.418  27.124  1.00  0.00    -0.206 F 
ATOM     43  C   UNL A   1      41.302  27.363  26.098  1.00  0.00     0.040 A 
ATOM     44  C   UNL A   1      39.949  25.733  27.244  1.00  0.00     0.040 A 
ATOM     45  F   UNL A   1      39.102  26.208  29.381  1.00  0.00    -0.206 F 
ATOM     46  C   UNL A   1      40.692  26.109  26.128  1.00  0.00     0.006 A 
ENDBRANCH  25  39
BRANCH  26  47
ATOM     47  C   UNL A   1      39.504  33.527  36.496  1.00  0.00     0.057 A 
ATOM     48  C   UNL A   1      38.652  33.089  37.514  1.00  0.00     0.134 A 
ATOM     49  C   UNL A   1      40.198  34.727  36.701  1.00  0.00     0.134 A 
ATOM     50  F   UNL A   1      37.950  31.955  37.366  1.00  0.00    -0.206 F 
ATOM     51  C   UNL A   1      38.492  33.819  38.692  1.00  0.00     0.040 A 
ATOM     52  C   UNL A   1      40.067  35.453  37.885  1.00  0.00     0.040 A 
ATOM     53  F   UNL A   1      41.036  35.193  35.764  1.00  0.00    -0.206 F 
ATOM     54  C   UNL A   1      39.207  35.000  38.883  1.00  0.00     0.006 A 
ENDBRANCH  26  47
BRANCH  38  55
ATOM     55  C   UNL A   1      43.676  28.256  34.726  1.00  0.00     0.057 A 
ATOM     56  C   UNL A   1      43.368  27.081  35.424  1.00  0.00     0.134 A 
ATOM     57  C   UNL A   1      45.004  28.696  34.743  1.00  0.00     0.134 A 
ATOM     58  F   UNL A   1      42.109  26.622  35.458  1.00  0.00    -0.206 F 
ATOM     59  C   UNL A   1      44.345  26.378  36.128  1.00  0.00     0.040 A 
ATOM     60  C   UNL A   1      45.994  27.991  35.427  1.00  0.00     0.040 A 
ATOM     61  F   UNL A   1      45.360  29.814  34.090  1.00  0.00    -0.206 F 
ATOM     62  C   UNL A   1      45.664  26.831  36.125  1.00  0.00     0.006 A 
ENDBRANCH  38  55
ENDBRANCH  12  13
ENDBRANCH   5   7
ENDBRANCH   2   3
ENDBRANCH   1   2
BRANCH   1  63
ATOM     63  C   UNL A   1      31.808  30.528  26.481  1.00  0.00     0.023 C 
BRANCH  63  64
ATOM     64  C   UNL A   1      33.282  30.162  26.650  1.00  0.00     0.116 C 
BRANCH  64  65
ATOM     65  N   UNL A   1      33.838  29.670  25.412  1.00  0.00    -0.354 N 
ATOM     66  C   UNL A   1      33.615  28.514  24.734  1.00  0.00     0.242 C 
ATOM     67  H   UNL A   1      34.489  30.274  24.987  1.00  0.00     0.163 HD
ATOM     68  O   UNL A   1      34.344  28.320  23.751  1.00  0.00    -0.273 OA
BRANCH  66  69
ATOM     69  C   UNL A   1      32.526  27.471  25.107  1.00  0.00     0.174 C 
BRANCH  69  70
ATOM     70  C   UNL A   1      31.742  26.879  23.921  1.00  0.00     0.072 C 
BRANCH  70  71
ATOM     71  C   UNL A   1      30.237  26.947  23.833  1.00  0.00    -0.020 A 
ATOM     72  C   UNL A   1      29.284  25.969  24.049  1.00  0.00     0.087 A 
ATOM     73  C   UNL A   1      29.502  28.154  23.552  1.00  0.00     0.003 A 
ATOM     74  N   UNL A   1      28.044  26.489  23.775  1.00  0.00    -0.361 N 
ATOM     75  C   UNL A   1      28.151  27.821  23.458  1.00  0.00     0.046 A 
ATOM     76  C   UNL A   1      29.877  29.496  23.332  1.00  0.00     0.010 A 
ATOM     77  H   UNL A   1      27.201  25.982  23.804  1.00  0.00     0.166 HD
ATOM     78  C   UNL A   1      27.164  28.747  23.096  1.00  0.00     0.026 A 
ATOM     79  C   UNL A   1      28.900  30.442  23.003  1.00  0.00     0.001 A 
ATOM     80  C   UNL A   1      27.566  30.066  22.871  1.00  0.00     0.002 A 
ENDBRANCH  70  71
ENDBRANCH  69  70
BRANCH  69  81
ATOM     81  N   UNL A   1      33.010  26.493  26.075  1.00  0.00    -0.358 N 
ATOM     82  H   UNL A   1      33.505  26.863  26.841  1.00  0.00     0.162 HD
BRANCH  81  83
ATOM     83  C   UNL A   1      32.869  25.130  26.062  1.00  0.00     0.137 A 
ATOM     84  N   UNL A   1      31.755  24.768  26.725  1.00  0.00    -0.219 NA
ATOM     85  C   UNL A   1      33.733  24.172  25.481  1.00  0.00     0.043 A 
ATOM     86  C   UNL A   1      31.465  23.466  26.766  1.00  0.00     0.224 A 
ATOM     87  C   UNL A   1      33.294  22.839  25.584  1.00  0.00     0.076 A 
ATOM     88  C   UNL A   1      34.985  24.398  24.840  1.00  0.00     0.014 A 
ATOM     89  N   UNL A   1      32.175  22.482  26.214  1.00  0.00    -0.236 NA
ATOM     90  C   UNL A   1      34.055  21.821  25.017  1.00  0.00     0.029 A 
ATOM     91  C   UNL A   1      35.730  23.364  24.273  1.00  0.00     0.001 A 
ATOM     92  C   UNL A   1      35.257  22.067  24.355  1.00  0.00     0.002 A 
ENDBRANCH  81  83
ENDBRANCH  69  81
ENDBRANCH  66  69
ENDBRANCH  64  65
ENDBRANCH  63  64
ENDBRANCH   1  63
TORSDOF 15
ENDMDL
MODEL 2
REMARK VINA RESULT:     -13.2      0.976      1.569
REMARK SMILES O=C(NCCCCNC(=O)[C@@H](Cc1c[nH]c2ccccc12)Nc1ncnc2ccccc12)c1ccc(-c2c3nc(c(-c4c(F)cccc4F)c4ccc([nH]4)c(-c4c(F)cccc4F)c4nc(c(-c5c(F)cccc5F)c5ccc2[nH]5)C=C4)C=C3)cc1
REMARK SMILES IDX 5 1 4 2 3 3 1 4 2 5 33 7 34 8 86 9 35 10 85 11 36 12 37 13
REMARK SMILES IDX 38 14 79 15 39 16 84 17 78 18 80 19 40 20 83 21 77 22 76 23
REMARK SMILES IDX 41 25 67 26 50 27 66 28 51 29 54 30 65 31 81 32 52 33 53 34
REMARK SMILES IDX 64 36 82 37 55 38 42 39 43 40 48 41 44 42 45 43 47 44 49 45
REMARK SMILES IDX 46 46 68 47 69 48 74 49 70 50 71 51 73 52 75 53 72 54 56 55
REMARK SMILES IDX 57 56 62 57 58 58 59 59 61 60 63 61 60 62 6 63 7 64 8 65
REMARK SMILES IDX 9 66 10 68 11 69 12 70 13 71 14 72 21 73 15 74 16 75 20 76
REMARK SMILES IDX 17 78 19 79 18 80 22 81 23 83 24 84 32 85 25 86 27 87 31 88
REMARK SMILES IDX 26 89 28 90 30 91 29 92
REMARK H PARENT 3 6 80 24 54 35 8 67 15 77 22 82
REMARK Flexibility Score: inf
ROOT
ATOM      1  C   UNL A   1      31.208  32.302  26.431  1.00  0.00     0.023 C 
ENDROOT
BRANCH   1   2
ATOM      2  C   UNL A   1      32.496  32.971  26.887  1.00  0.00     0.116 C 
BRANCH   2   3
ATOM      3  N   UNL A   1      32.304  34.214  27.626  1.00  0.00    -0.352 N 
ATOM      4  O   UNL A   1      32.804  35.760  29.208  1.00  0.00    -0.269 OA
ATOM      5  C   UNL A   1      33.089  34.716  28.640  1.00  0.00     0.251 C 
ATOM      6  H   UNL A   1      31.522  34.755  27.371  1.00  0.00     0.163 HD
BRANCH   5   7
ATOM      7  C   UNL A   1      34.261  33.923  29.061  1.00  0.00     0.039 A 
ATOM      8  C   UNL A   1      34.078  32.724  29.755  1.00  0.00     0.014 A 
ATOM      9  C   UNL A   1      35.539  34.446  28.860  1.00  0.00     0.014 A 
ATOM     10  C   UNL A   1      35.162  32.129  30.382  1.00  0.00     0.010 A 
ATOM     11  C   UNL A   1      36.640  33.795  29.420  1.00  0.00     0.010 A 
ATOM     12  C   UNL A   1      36.455  32.652  30.213  1.00  0.00    -0.014 A 
BRANCH  12  13
ATOM     13  C   UNL A   1      37.609  31.942  30.813  1.00  0.00     0.031 A 
ATOM     14  C   UNL A   1      38.382  30.910  30.042  1.00  0.00     0.074 A 
ATOM     15  C   UNL A   1      37.951  32.248  32.079  1.00  0.00     0.049 A 
ATOM     16  N   UNL A   1      39.382  30.168  30.444  1.00  0.00    -0.248 NA
ATOM     17  C   UNL A   1      37.982  30.674  28.646  1.00  0.00     0.031 C 
ATOM     18  C   UNL A   1      37.260  33.227  32.922  1.00  0.00     0.029 A 
ATOM     19  N   UNL A   1      38.960  31.776  32.876  1.00  0.00    -0.354 N 
ATOM     20  C   UNL A   1      39.711  29.354  29.367  1.00  0.00     0.074 A 
ATOM     21  C   UNL A   1      38.804  29.691  28.291  1.00  0.00     0.031 C 
ATOM     22  C   UNL A   1      37.879  33.302  34.108  1.00  0.00     0.029 A 
ATOM     23  C   UNL A   1      38.964  32.329  34.132  1.00  0.00     0.049 A 
ATOM     24  H   UNL A   1      39.617  31.106  32.577  1.00  0.00     0.167 HD
ATOM     25  C   UNL A   1      40.682  28.415  29.292  1.00  0.00     0.037 A 
ATOM     26  C   UNL A   1      39.730  32.058  35.203  1.00  0.00     0.037 A 
ATOM     27  C   UNL A   1      41.608  28.118  30.355  1.00  0.00     0.049 A 
ATOM     28  C   UNL A   1      40.782  30.997  35.093  1.00  0.00     0.074 A 
ATOM     29  C   UNL A   1      42.687  27.251  30.341  1.00  0.00     0.029 A 
ATOM     30  N   UNL A   1      41.556  28.673  31.624  1.00  0.00    -0.354 N 
ATOM     31  N   UNL A   1      41.110  30.269  34.054  1.00  0.00    -0.248 NA
ATOM     32  C   UNL A   1      41.557  30.707  36.306  1.00  0.00     0.031 C 
ATOM     33  C   UNL A   1      43.263  27.249  31.617  1.00  0.00     0.029 A 
ATOM     34  C   UNL A   1      42.561  28.138  32.414  1.00  0.00     0.049 A 
ATOM     35  H   UNL A   1      40.903  29.348  31.921  1.00  0.00     0.167 HD
ATOM     36  C   UNL A   1      42.123  29.429  34.486  1.00  0.00     0.074 A 
ATOM     37  C   UNL A   1      42.377  29.758  35.876  1.00  0.00     0.031 C 
ATOM     38  C   UNL A   1      42.780  28.465  33.799  1.00  0.00     0.037 A 
BRANCH  25  39
ATOM     39  C   UNL A   1      40.799  27.615  28.028  1.00  0.00     0.057 A 
ATOM     40  C   UNL A   1      41.608  28.027  26.963  1.00  0.00     0.134 A 
ATOM     41  C   UNL A   1      40.165  26.372  27.918  1.00  0.00     0.134 A 
ATOM     42  F   UNL A   1      42.239  29.210  27.004  1.00  0.00    -0.206 F 
ATOM     43  C   UNL A   1      41.782  27.228  25.830  1.00  0.00     0.040 A 
ATOM     44  C   UNL A   1      40.342  25.557  26.797  1.00  0.00     0.040 A 
ATOM     45  F   UNL A   1      39.380  25.918  28.907  1.00  0.00    -0.206 F 
ATOM     46  C   UNL A   1      41.154  25.986  25.749  1.00  0.00     0.006 A 
ENDBRANCH  25  39
BRANCH  26  47
ATOM     47  C   UNL A   1      39.483  32.772  36.477  1.00  0.00     0.057 A 
ATOM     48  C   UNL A   1      40.198  33.925  36.813  1.00  0.00     0.134 A 
ATOM     49  C   UNL A   1      38.501  32.332  37.373  1.00  0.00     0.134 A 
ATOM     50  F   UNL A   1      41.161  34.384  36.000  1.00  0.00    -0.206 F 
ATOM     51  C   UNL A   1      39.948  34.615  38.000  1.00  0.00     0.040 A 
ATOM     52  C   UNL A   1      38.223  33.026  38.551  1.00  0.00     0.040 A 
ATOM     53  F   UNL A   1      37.777  31.237  37.101  1.00  0.00    -0.206 F 
ATOM     54  C   UNL A   1      38.952  34.170  38.868  1.00  0.00     0.006 A 
ENDBRANCH  26  47
BRANCH  38  55
ATOM     55  C   UNL A   1      43.820  27.694  34.548  1.00  0.00     0.057 A 
ATOM     56  C   UNL A   1      43.516  26.472  35.163  1.00  0.00     0.134 A 
ATOM     57  C   UNL A   1      45.137  28.160  34.639  1.00  0.00     0.134 A 
ATOM     58  F   UNL A   1      42.268  25.984  35.124  1.00  0.00    -0.206 F 
ATOM     59  C   UNL A   1      44.486  25.748  35.857  1.00  0.00     0.040 A 
ATOM     60  C   UNL A   1      46.119  27.436  35.313  1.00  0.00     0.040 A 
ATOM     61  F   UNL A   1      45.488  29.323  34.067  1.00  0.00    -0.206 F 
ATOM     62  C   UNL A   1      45.793  26.228  35.929  1.00  0.00     0.006 A 
ENDBRANCH  38  55
ENDBRANCH  12  13
ENDBRANCH   5   7
ENDBRANCH   2   3
ENDBRANCH   1   2
BRANCH   1  63
ATOM     63  C   UNL A   1      31.357  30.820  26.111  1.00  0.00     0.023 C 
BRANCH  63  64
ATOM     64  C   UNL A   1      32.154  30.009  27.133  1.00  0.00     0.116 C 
BRANCH  64  65
ATOM     65  N   UNL A   1      33.135  29.176  26.479  1.00  0.00    -0.354 N 
ATOM     66  C   UNL A   1      33.048  27.908  25.998  1.00  0.00     0.242 C 
ATOM     67  H   UNL A   1      34.017  29.598  26.363  1.00  0.00     0.163 HD
ATOM     68  O   UNL A   1      34.110  27.414  25.596  1.00  0.00    -0.273 OA
BRANCH  66  69
ATOM     69  C   UNL A   1      31.732  27.086  25.917  1.00  0.00     0.174 C 
BRANCH  69  70
ATOM     70  C   UNL A   1      31.180  26.860  24.497  1.00  0.00     0.072 C 
BRANCH  70  71
ATOM     71  C   UNL A   1      31.084  27.971  23.481  1.00  0.00    -0.020 A 
ATOM     72  C   UNL A   1      32.073  28.603  22.751  1.00  0.00     0.087 A 
ATOM     73  C   UNL A   1      29.840  28.544  23.033  1.00  0.00     0.003 A 
ATOM     74  N   UNL A   1      31.503  29.606  22.007  1.00  0.00    -0.361 N 
ATOM     75  C   UNL A   1      30.140  29.599  22.171  1.00  0.00     0.046 A 
ATOM     76  C   UNL A   1      28.484  28.279  23.318  1.00  0.00     0.010 A 
ATOM     77  H   UNL A   1      32.000  30.238  21.439  1.00  0.00     0.166 HD
ATOM     78  C   UNL A   1      29.159  30.439  21.628  1.00  0.00     0.026 A 
ATOM     79  C   UNL A   1      27.489  29.087  22.758  1.00  0.00     0.001 A 
ATOM     80  C   UNL A   1      27.826  30.161  21.939  1.00  0.00     0.002 A 
ENDBRANCH  70  71
ENDBRANCH  69  70
BRANCH  69  81
ATOM     81  N   UNL A   1      31.775  25.896  26.760  1.00  0.00    -0.358 N 
ATOM     82  H   UNL A   1      31.895  26.061  27.722  1.00  0.00     0.162 HD
BRANCH  81  83
ATOM     83  C   UNL A   1      31.672  24.581  26.392  1.00  0.00     0.137 A 
ATOM     84  N   UNL A   1      30.504  24.065  26.817  1.00  0.00    -0.219 NA
ATOM     85  C   UNL A   1      32.617  23.797  25.689  1.00  0.00     0.043 A 
ATOM     86  C   UNL A   1      30.245  22.795  26.501  1.00  0.00     0.224 A 
ATOM     87  C   UNL A   1      32.205  22.482  25.407  1.00  0.00     0.076 A 
ATOM     88  C   UNL A   1      33.924  24.174  25.265  1.00  0.00     0.014 A 
ATOM     89  N   UNL A   1      31.035  21.980  25.802  1.00  0.00    -0.236 NA
ATOM     90  C   UNL A   1      33.048  21.637  24.692  1.00  0.00     0.029 A 
ATOM     91  C   UNL A   1      34.752  23.314  24.545  1.00  0.00     0.001 A 
ATOM     92  C   UNL A   1      34.308  22.039  24.249  1.00  0.00     0.002 A 
ENDBRANCH  81  83
ENDBRANCH  69  81
ENDBRANCH  66  69
ENDBRANCH  64  65
ENDBRANCH  63  64
ENDBRANCH   1  63
TORSDOF 15
ENDMDL
MODEL 3
REMARK VINA RESULT:     -13.2      5.123     10.420
REMARK SMILES O=C(NCCCCNC(=O)[C@@H](Cc1c[nH]c2ccccc12)Nc1ncnc2ccccc12)c1ccc(-c2c3nc(c(-c4c(F)cccc4F)c4ccc([nH]4)c(-c4c(F)cccc4F)c4nc(c(-c5c(F)cccc5F)c5ccc2[nH]5)C=C4)C=C3)cc1
REMARK SMILES IDX 5 1 4 2 3 3 1 4 2 5 33 7 34 8 86 9 35 10 85 11 36 12 37 13
REMARK SMILES IDX 38 14 79 15 39 16 84 17 78 18 80 19 40 20 83 21 77 22 76 23
REMARK SMILES IDX 41 25 67 26 50 27 66 28 51 29 54 30 65 31 81 32 52 33 53 34
REMARK SMILES IDX 64 36 82 37 55 38 42 39 43 40 48 41 44 42 45 43 47 44 49 45
REMARK SMILES IDX 46 46 68 47 69 48 74 49 70 50 71 51 73 52 75 53 72 54 56 55
REMARK SMILES IDX 57 56 62 57 58 58 59 59 61 60 63 61 60 62 6 63 7 64 8 65
REMARK SMILES IDX 9 66 10 68 11 69 12 70 13 71 14 72 21 73 15 74 16 75 20 76
REMARK SMILES IDX 17 78 19 79 18 80 22 81 23 83 24 84 32 85 25 86 27 87 31 88
REMARK SMILES IDX 26 89 28 90 30 91 29 92
REMARK H PARENT 3 6 80 24 54 35 8 67 15 77 22 82
REMARK Flexibility Score: inf
ROOT
ATOM      1  C   UNL A   1      38.042  19.986  24.976  1.00  0.00     0.023 C 
ENDROOT
BRANCH   1   2
ATOM      2  C   UNL A   1      39.312  20.219  25.780  1.00  0.00     0.116 C 
BRANCH   2   3
ATOM      3  N   UNL A   1      40.227  19.084  25.809  1.00  0.00    -0.352 N 
ATOM      4  O   UNL A   1      42.240  18.076  26.086  1.00  0.00    -0.269 OA
ATOM      5  C   UNL A   1      41.566  19.095  26.131  1.00  0.00     0.251 C 
ATOM      6  H   UNL A   1      39.843  18.210  25.570  1.00  0.00     0.163 HD
BRANCH   5   7
ATOM      7  C   UNL A   1      42.181  20.391  26.478  1.00  0.00     0.039 A 
ATOM      8  C   UNL A   1      42.214  20.813  27.809  1.00  0.00     0.014 A 
ATOM      9  C   UNL A   1      42.616  21.229  25.450  1.00  0.00     0.014 A 
ATOM     10  C   UNL A   1      42.538  22.131  28.097  1.00  0.00     0.010 A 
ATOM     11  C   UNL A   1      43.024  22.530  25.754  1.00  0.00     0.010 A 
ATOM     12  C   UNL A   1      42.955  22.999  27.074  1.00  0.00    -0.014 A 
BRANCH  12  13
ATOM     13  C   UNL A   1      43.387  24.373  27.422  1.00  0.00     0.031 A 
ATOM     14  C   UNL A   1      42.400  25.419  27.856  1.00  0.00     0.074 A 
ATOM     15  C   UNL A   1      44.700  24.665  27.338  1.00  0.00     0.049 A 
ATOM     16  N   UNL A   1      42.615  26.677  28.146  1.00  0.00    -0.248 NA
ATOM     17  C   UNL A   1      40.993  25.007  27.978  1.00  0.00     0.031 C 
ATOM     18  C   UNL A   1      45.742  23.726  26.915  1.00  0.00     0.029 A 
ATOM     19  N   UNL A   1      45.382  25.822  27.604  1.00  0.00    -0.354 N 
ATOM     20  C   UNL A   1      41.372  27.217  28.450  1.00  0.00     0.074 A 
ATOM     21  C   UNL A   1      40.404  26.151  28.311  1.00  0.00     0.031 C 
ATOM     22  C   UNL A   1      46.934  24.335  26.975  1.00  0.00     0.029 A 
ATOM     23  C   UNL A   1      46.731  25.722  27.372  1.00  0.00     0.049 A 
ATOM     24  H   UNL A   1      44.947  26.643  27.931  1.00  0.00     0.167 HD
ATOM     25  C   UNL A   1      41.075  28.487  28.812  1.00  0.00     0.037 A 
ATOM     26  C   UNL A   1      47.697  26.655  27.432  1.00  0.00     0.037 A 
ATOM     27  C   UNL A   1      42.053  29.530  28.989  1.00  0.00     0.049 A 
ATOM     28  C   UNL A   1      47.332  28.056  27.814  1.00  0.00     0.074 A 
ATOM     29  C   UNL A   1      41.862  30.822  29.446  1.00  0.00     0.029 A 
ATOM     30  N   UNL A   1      43.405  29.400  28.708  1.00  0.00    -0.354 N 
ATOM     31  N   UNL A   1      46.160  28.539  28.143  1.00  0.00    -0.248 NA
ATOM     32  C   UNL A   1      48.418  29.045  27.816  1.00  0.00     0.031 C 
ATOM     33  C   UNL A   1      43.092  31.490  29.400  1.00  0.00     0.029 A 
ATOM     34  C   UNL A   1      44.053  30.602  28.945  1.00  0.00     0.049 A 
ATOM     35  H   UNL A   1      43.840  28.577  28.388  1.00  0.00     0.167 HD
ATOM     36  C   UNL A   1      46.362  29.888  28.385  1.00  0.00     0.074 A 
ATOM     37  C   UNL A   1      47.776  30.142  28.193  1.00  0.00     0.031 C 
ATOM     38  C   UNL A   1      45.456  30.836  28.727  1.00  0.00     0.037 A 
BRANCH  25  39
ATOM     39  C   UNL A   1      39.634  28.844  29.029  1.00  0.00     0.057 A 
ATOM     40  C   UNL A   1      38.812  29.277  27.982  1.00  0.00     0.134 A 
ATOM     41  C   UNL A   1      39.044  28.662  30.285  1.00  0.00     0.134 A 
ATOM     42  F   UNL A   1      39.319  29.476  26.756  1.00  0.00    -0.206 F 
ATOM     43  C   UNL A   1      37.450  29.518  28.179  1.00  0.00     0.040 A 
ATOM     44  C   UNL A   1      37.680  28.884  30.491  1.00  0.00     0.040 A 
ATOM     45  F   UNL A   1      39.777  28.243  31.327  1.00  0.00    -0.206 F 
ATOM     46  C   UNL A   1      36.880  29.313  29.434  1.00  0.00     0.006 A 
ENDBRANCH  25  39
BRANCH  26  47
ATOM     47  C   UNL A   1      49.087  26.290  27.068  1.00  0.00     0.057 A 
ATOM     48  C   UNL A   1      49.549  26.412  25.755  1.00  0.00     0.134 A 
ATOM     49  C   UNL A   1      49.993  25.842  28.038  1.00  0.00     0.134 A 
ATOM     50  F   UNL A   1      48.721  26.821  24.782  1.00  0.00    -0.206 F 
ATOM     51  C   UNL A   1      50.865  26.095  25.415  1.00  0.00     0.040 A 
ATOM     52  C   UNL A   1      51.318  25.547  27.717  1.00  0.00     0.040 A 
ATOM     53  F   UNL A   1      49.610  25.715  29.316  1.00  0.00    -0.206 F 
ATOM     54  C   UNL A   1      51.755  25.669  26.400  1.00  0.00     0.006 A 
ENDBRANCH  26  47
BRANCH  38  55
ATOM     55  C   UNL A   1      45.972  32.230  28.897  1.00  0.00     0.057 A 
ATOM     56  C   UNL A   1      46.468  32.675  30.129  1.00  0.00     0.134 A 
ATOM     57  C   UNL A   1      45.996  33.125  27.822  1.00  0.00     0.134 A 
ATOM     58  F   UNL A   1      46.453  31.867  31.199  1.00  0.00    -0.206 F 
ATOM     59  C   UNL A   1      46.955  33.972  30.290  1.00  0.00     0.040 A 
ATOM     60  C   UNL A   1      46.499  34.418  27.965  1.00  0.00     0.040 A 
ATOM     61  F   UNL A   1      45.538  32.755  26.616  1.00  0.00    -0.206 F 
ATOM     62  C   UNL A   1      46.976  34.846  29.203  1.00  0.00     0.006 A 
ENDBRANCH  38  55
ENDBRANCH  12  13
ENDBRANCH   5   7
ENDBRANCH   2   3
ENDBRANCH   1   2
BRANCH   1  63
ATOM     63  C   UNL A   1      37.236  21.251  24.707  1.00  0.00     0.023 C 
BRANCH  63  64
ATOM     64  C   UNL A   1      37.515  22.417  25.655  1.00  0.00     0.116 C 
BRANCH  64  65
ATOM     65  N   UNL A   1      36.386  22.661  26.519  1.00  0.00    -0.354 N 
ATOM     66  C   UNL A   1      35.100  22.997  26.231  1.00  0.00     0.242 C 
ATOM     67  H   UNL A   1      36.579  22.570  27.481  1.00  0.00     0.163 HD
ATOM     68  O   UNL A   1      34.385  23.262  27.207  1.00  0.00    -0.273 OA
BRANCH  66  69
ATOM     69  C   UNL A   1      34.505  23.048  24.798  1.00  0.00     0.174 C 
BRANCH  69  70
ATOM     70  C   UNL A   1      33.054  22.547  24.666  1.00  0.00     0.072 C 
BRANCH  70  71
ATOM     71  C   UNL A   1      32.648  21.508  23.650  1.00  0.00    -0.020 A 
ATOM     72  C   UNL A   1      31.968  21.643  22.454  1.00  0.00     0.087 A 
ATOM     73  C   UNL A   1      32.993  20.111  23.747  1.00  0.00     0.003 A 
ATOM     74  N   UNL A   1      31.768  20.398  21.913  1.00  0.00    -0.361 N 
ATOM     75  C   UNL A   1      32.375  19.443  22.691  1.00  0.00     0.046 A 
ATOM     76  C   UNL A   1      33.747  19.354  24.668  1.00  0.00     0.010 A 
ATOM     77  H   UNL A   1      31.264  20.216  21.088  1.00  0.00     0.166 HD
ATOM     78  C   UNL A   1      32.422  18.050  22.542  1.00  0.00     0.026 A 
ATOM     79  C   UNL A   1      33.834  17.967  24.516  1.00  0.00     0.001 A 
ATOM     80  C   UNL A   1      33.166  17.325  23.476  1.00  0.00     0.002 A 
ENDBRANCH  70  71
ENDBRANCH  69  70
BRANCH  69  81
ATOM     81  N   UNL A   1      34.782  24.316  24.132  1.00  0.00    -0.358 N 
ATOM     82  H   UNL A   1      35.733  24.511  23.968  1.00  0.00     0.162 HD
BRANCH  81  83
ATOM     83  C   UNL A   1      33.899  25.273  23.706  1.00  0.00     0.137 A 
ATOM     84  N   UNL A   1      33.806  25.259  22.363  1.00  0.00    -0.219 NA
ATOM     85  C   UNL A   1      33.169  26.195  24.492  1.00  0.00     0.043 A 
ATOM     86  C   UNL A   1      32.952  26.117  21.801  1.00  0.00     0.224 A 
ATOM     87  C   UNL A   1      32.293  27.026  23.770  1.00  0.00     0.076 A 
ATOM     88  C   UNL A   1      33.238  26.390  25.901  1.00  0.00     0.014 A 
ATOM     89  N   UNL A   1      32.178  26.993  22.442  1.00  0.00    -0.236 NA
ATOM     90  C   UNL A   1      31.503  27.947  24.451  1.00  0.00     0.029 A 
ATOM     91  C   UNL A   1      32.434  27.316  26.566  1.00  0.00     0.001 A 
ATOM     92  C   UNL A   1      31.555  28.094  25.837  1.00  0.00     0.002 A 
ENDBRANCH  81  83
ENDBRANCH  69  81
ENDBRANCH  66  69
ENDBRANCH  64  65
ENDBRANCH  63  64
ENDBRANCH   1  63
TORSDOF 15
ENDMDL
