MODEL 1
REMARK VINA RESULT:     -12.4      0.000      0.000
REMARK SMILES O=C(NCCCCNC(=O)[C@@H]1[C@@H](C(=O)Nc2cccc([N+](=O)[O-])c2)[C@@H]2C=C[C@H]1O2)c1ccc(-c2c3nc(c(-c4c(F)cccc4F)c4ccc([nH]4)c(-c4c(F)cccc4F)c4nc(c(-c5c(F)cccc5F)c5ccc2[nH]5)C=C4)C=C3)cc1
REMARK SMILES IDX 6 1 5 2 4 3 3 4 1 5 2 6 30 8 31 9 83 10 32 11 82 12 33 13
REMARK SMILES IDX 34 14 35 15 76 16 36 17 81 18 75 19 77 20 37 21 80 22 74 23
REMARK SMILES IDX 73 24 38 26 64 27 47 28 63 29 48 30 51 31 62 32 78 33 49 34
REMARK SMILES IDX 50 35 61 37 79 38 52 39 39 40 40 41 45 42 41 43 42 44 44 45
REMARK SMILES IDX 46 46 43 47 65 48 66 49 71 50 67 51 68 52 70 53 72 54 69 55
REMARK SMILES IDX 53 56 54 57 59 58 55 59 56 60 58 61 60 62 57 63 7 64 8 65
REMARK SMILES IDX 9 66 10 68 11 69 12 70 28 71 25 72 27 73 29 74 26 75 13 76
REMARK SMILES IDX 14 77 15 78 16 80 17 81 24 82 18 83 20 84 19 85 21 86 22 87
REMARK SMILES IDX 23 88
REMARK H PARENT 3 7 77 25 51 36 8 67 15 79
REMARK Flexibility Score: inf
ROOT
ATOM      1  C   UNL A   1      38.906  22.877  26.369  1.00  0.00     0.023 C 
ENDROOT
BRANCH   1   2
ATOM      2  C   UNL A   1      39.001  21.488  25.749  1.00  0.00     0.023 C 
BRANCH   2   3
ATOM      3  C   UNL A   1      39.606  20.426  26.657  1.00  0.00     0.116 C 
BRANCH   3   4
ATOM      4  N   UNL A   1      40.621  19.598  26.020  1.00  0.00    -0.352 N 
ATOM      5  O   UNL A   1      42.699  19.136  25.236  1.00  0.00    -0.269 OA
ATOM      6  C   UNL A   1      41.965  19.880  25.861  1.00  0.00     0.251 C 
ATOM      7  H   UNL A   1      40.314  18.734  25.659  1.00  0.00     0.163 HD
BRANCH   6   8
ATOM      8  C   UNL A   1      42.483  21.144  26.427  1.00  0.00     0.039 A 
ATOM      9  C   UNL A   1      42.579  21.301  27.810  1.00  0.00     0.014 A 
ATOM     10  C   UNL A   1      42.777  22.206  25.570  1.00  0.00     0.014 A 
ATOM     11  C   UNL A   1      42.778  22.567  28.338  1.00  0.00     0.010 A 
ATOM     12  C   UNL A   1      43.082  23.460  26.107  1.00  0.00     0.010 A 
ATOM     13  C   UNL A   1      43.035  23.661  27.494  1.00  0.00    -0.014 A 
BRANCH  13  14
ATOM     14  C   UNL A   1      43.280  24.991  28.104  1.00  0.00     0.031 A 
ATOM     15  C   UNL A   1      44.674  25.470  28.403  1.00  0.00     0.074 A 
ATOM     16  C   UNL A   1      42.224  25.797  28.329  1.00  0.00     0.049 A 
ATOM     17  N   UNL A   1      45.058  26.617  28.908  1.00  0.00    -0.248 NA
ATOM     18  C   UNL A   1      45.781  24.547  28.109  1.00  0.00     0.031 C 
ATOM     19  C   UNL A   1      40.826  25.437  28.080  1.00  0.00     0.029 A 
ATOM     20  N   UNL A   1      42.160  27.089  28.779  1.00  0.00    -0.354 N 
ATOM     21  C   UNL A   1      46.440  26.541  29.023  1.00  0.00     0.074 A 
ATOM     22  C   UNL A   1      46.831  25.232  28.544  1.00  0.00     0.031 C 
ATOM     23  C   UNL A   1      40.049  26.504  28.312  1.00  0.00     0.029 A 
ATOM     24  C   UNL A   1      40.884  27.597  28.795  1.00  0.00     0.049 A 
ATOM     25  H   UNL A   1      42.950  27.603  29.063  1.00  0.00     0.167 HD
ATOM     26  C   UNL A   1      47.302  27.481  29.482  1.00  0.00     0.037 A 
ATOM     27  C   UNL A   1      40.430  28.804  29.172  1.00  0.00     0.037 A 
ATOM     28  C   UNL A   1      46.910  28.793  29.926  1.00  0.00     0.049 A 
ATOM     29  C   UNL A   1      41.407  29.825  29.671  1.00  0.00     0.074 A 
ATOM     30  C   UNL A   1      47.713  29.825  30.383  1.00  0.00     0.029 A 
ATOM     31  N   UNL A   1      45.604  29.258  29.964  1.00  0.00    -0.354 N 
ATOM     32  N   UNL A   1      42.710  29.736  29.773  1.00  0.00    -0.248 NA
ATOM     33  C   UNL A   1      40.849  31.107  30.120  1.00  0.00     0.031 C 
ATOM     34  C   UNL A   1      46.888  30.903  30.727  1.00  0.00     0.029 A 
ATOM     35  C   UNL A   1      45.576  30.555  30.450  1.00  0.00     0.049 A 
ATOM     36  H   UNL A   1      44.813  28.742  29.686  1.00  0.00     0.167 HD
ATOM     37  C   UNL A   1      43.131  30.950  30.296  1.00  0.00     0.074 A 
ATOM     38  C   UNL A   1      41.945  31.767  30.465  1.00  0.00     0.031 C 
ATOM     39  C   UNL A   1      44.386  31.348  30.617  1.00  0.00     0.037 A 
BRANCH  26  40
ATOM     40  C   UNL A   1      48.757  27.118  29.550  1.00  0.00     0.057 A 
ATOM     41  C   UNL A   1      49.314  26.491  30.670  1.00  0.00     0.134 A 
ATOM     42  C   UNL A   1      49.599  27.351  28.454  1.00  0.00     0.134 A 
ATOM     43  F   UNL A   1      48.566  26.249  31.757  1.00  0.00    -0.206 F 
ATOM     44  C   UNL A   1      50.662  26.122  30.706  1.00  0.00     0.040 A 
ATOM     45  C   UNL A   1      50.941  26.969  28.470  1.00  0.00     0.040 A 
ATOM     46  F   UNL A   1      49.127  27.944  27.347  1.00  0.00    -0.206 F 
ATOM     47  C   UNL A   1      51.477  26.355  29.599  1.00  0.00     0.006 A 
ENDBRANCH  26  40
BRANCH  27  48
ATOM     48  C   UNL A   1      38.979  29.098  29.093  1.00  0.00     0.057 A 
ATOM     49  C   UNL A   1      38.155  28.978  30.217  1.00  0.00     0.134 A 
ATOM     50  C   UNL A   1      38.391  29.542  27.902  1.00  0.00     0.134 A 
ATOM     51  F   UNL A   1      38.660  28.545  31.381  1.00  0.00    -0.206 F 
ATOM     52  C   UNL A   1      36.796  29.284  30.159  1.00  0.00     0.040 A 
ATOM     53  C   UNL A   1      37.039  29.876  27.836  1.00  0.00     0.040 A 
ATOM     54  F   UNL A   1      39.132  29.687  26.794  1.00  0.00    -0.206 F 
ATOM     55  C   UNL A   1      36.236  29.744  28.967  1.00  0.00     0.006 A 
ENDBRANCH  27  48
BRANCH  39  56
ATOM     56  C   UNL A   1      44.529  32.731  31.172  1.00  0.00     0.057 A 
ATOM     57  C   UNL A   1      44.703  33.842  30.337  1.00  0.00     0.134 A 
ATOM     58  C   UNL A   1      44.484  32.955  32.553  1.00  0.00     0.134 A 
ATOM     59  F   UNL A   1      44.771  33.687  29.006  1.00  0.00    -0.206 F 
ATOM     60  C   UNL A   1      44.851  35.128  30.859  1.00  0.00     0.040 A 
ATOM     61  C   UNL A   1      44.610  34.239  33.085  1.00  0.00     0.040 A 
ATOM     62  F   UNL A   1      44.315  31.933  33.405  1.00  0.00    -0.206 F 
ATOM     63  C   UNL A   1      44.800  35.329  32.237  1.00  0.00     0.006 A 
ENDBRANCH  39  56
ENDBRANCH  13  14
ENDBRANCH   6   8
ENDBRANCH   3   4
ENDBRANCH   2   3
ENDBRANCH   1   2
BRANCH   1  64
ATOM     64  C   UNL A   1      37.737  23.720  25.869  1.00  0.00     0.116 C 
BRANCH  64  65
ATOM     65  N   UNL A   1      37.423  23.440  24.477  1.00  0.00    -0.356 N 
ATOM     66  C   UNL A   1      36.199  23.188  23.913  1.00  0.00     0.227 C 
ATOM     67  H   UNL A   1      38.189  23.431  23.860  1.00  0.00     0.163 HD
ATOM     68  O   UNL A   1      36.147  22.856  22.732  1.00  0.00    -0.275 OA
BRANCH  66  69
ATOM     69  C   UNL A   1      34.979  23.309  24.799  1.00  0.00     0.127 C 
ATOM     70  C   UNL A   1      34.006  22.107  24.806  1.00  0.00     0.127 C 
ATOM     71  C   UNL A   1      34.054  24.452  24.344  1.00  0.00     0.155 C 
ATOM     72  C   UNL A   1      32.681  22.770  24.387  1.00  0.00     0.155 C 
ATOM     73  C   UNL A   1      33.591  24.264  22.931  1.00  0.00     0.004 C 
ATOM     74  O   UNL A   1      32.840  24.064  25.040  1.00  0.00    -0.365 OA
ATOM     75  C   UNL A   1      32.751  23.221  22.955  1.00  0.00     0.004 C 
BRANCH  70  76
ATOM     76  C   UNL A   1      33.725  21.266  26.052  1.00  0.00     0.231 C 
ATOM     77  O   UNL A   1      33.892  21.798  27.160  1.00  0.00    -0.274 OA
ATOM     78  N   UNL A   1      33.106  20.055  26.074  1.00  0.00    -0.325 N 
ATOM     79  H   UNL A   1      32.509  19.945  26.850  1.00  0.00     0.169 HD
BRANCH  78  80
ATOM     80  C   UNL A   1      33.129  18.932  25.240  1.00  0.00     0.048 A 
ATOM     81  C   UNL A   1      32.718  19.116  23.913  1.00  0.00     0.026 A 
ATOM     82  C   UNL A   1      33.486  17.657  25.678  1.00  0.00     0.111 A 
ATOM     83  C   UNL A   1      32.774  18.064  22.995  1.00  0.00     0.009 A 
ATOM     84  C   UNL A   1      33.571  16.613  24.744  1.00  0.00     0.271 A 
ATOM     85  C   UNL A   1      33.221  16.810  23.402  1.00  0.00     0.086 A 
BRANCH  84  86
ATOM     86  N   UNL A   1      34.140  15.328  25.154  1.00  0.00     0.062 N 
ATOM     87  O   UNL A   1      35.369  15.275  25.305  1.00  0.00    -0.258 OA
ATOM     88  O   UNL A   1      33.359  14.397  25.383  1.00  0.00    -0.258 OA
ENDBRANCH  84  86
ENDBRANCH  78  80
ENDBRANCH  70  76
ENDBRANCH  66  69
ENDBRANCH  64  65
ENDBRANCH   1  64
TORSDOF 14
ENDMDL
MODEL 2
REMARK VINA RESULT:     -12.3      1.939      3.910
REMARK SMILES O=C(NCCCCNC(=O)[C@@H]1[C@@H](C(=O)Nc2cccc([N+](=O)[O-])c2)[C@@H]2C=C[C@H]1O2)c1ccc(-c2c3nc(c(-c4c(F)cccc4F)c4ccc([nH]4)c(-c4c(F)cccc4F)c4nc(c(-c5c(F)cccc5F)c5ccc2[nH]5)C=C4)C=C3)cc1
REMARK SMILES IDX 6 1 5 2 4 3 3 4 1 5 2 6 30 8 31 9 83 10 32 11 82 12 33 13
REMARK SMILES IDX 34 14 35 15 76 16 36 17 81 18 75 19 77 20 37 21 80 22 74 23
REMARK SMILES IDX 73 24 38 26 64 27 47 28 63 29 48 30 51 31 62 32 78 33 49 34
REMARK SMILES IDX 50 35 61 37 79 38 52 39 39 40 40 41 45 42 41 43 42 44 44 45
REMARK SMILES IDX 46 46 43 47 65 48 66 49 71 50 67 51 68 52 70 53 72 54 69 55
REMARK SMILES IDX 53 56 54 57 59 58 55 59 56 60 58 61 60 62 57 63 7 64 8 65
REMARK SMILES IDX 9 66 10 68 11 69 12 70 28 71 25 72 27 73 29 74 26 75 13 76
REMARK SMILES IDX 14 77 15 78 16 80 17 81 24 82 18 83 20 84 19 85 21 86 22 87
REMARK SMILES IDX 23 88
REMARK H PARENT 3 7 77 25 51 36 8 67 15 79
REMARK Flexibility Score: inf
ROOT
ATOM      1  C   UNL A   1      37.097  22.003  24.329  1.00  0.00     0.023 C 
ENDROOT
BRANCH   1   2
ATOM      2  C   UNL A   1      37.637  20.698  24.902  1.00  0.00     0.023 C 
BRANCH   2   3
ATOM      3  C   UNL A   1      38.889  20.848  25.755  1.00  0.00     0.116 C 
BRANCH   3   4
ATOM      4  N   UNL A   1      39.824  19.735  25.652  1.00  0.00    -0.352 N 
ATOM      5  O   UNL A   1      41.860  18.745  25.784  1.00  0.00    -0.269 OA
ATOM      6  C   UNL A   1      41.163  19.721  25.994  1.00  0.00     0.251 C 
ATOM      7  H   UNL A   1      39.459  18.892  25.297  1.00  0.00     0.163 HD
BRANCH   6   8
ATOM      8  C   UNL A   1      41.747  20.950  26.575  1.00  0.00     0.039 A 
ATOM      9  C   UNL A   1      41.747  21.134  27.957  1.00  0.00     0.014 A 
ATOM     10  C   UNL A   1      42.201  21.958  25.723  1.00  0.00     0.014 A 
ATOM     11  C   UNL A   1      42.016  22.392  28.475  1.00  0.00     0.010 A 
ATOM     12  C   UNL A   1      42.574  23.194  26.258  1.00  0.00     0.010 A 
ATOM     13  C   UNL A   1      42.436  23.436  27.633  1.00  0.00    -0.014 A 
BRANCH  13  14
ATOM     14  C   UNL A   1      42.751  24.755  28.234  1.00  0.00     0.031 A 
ATOM     15  C   UNL A   1      44.165  25.147  28.567  1.00  0.00     0.074 A 
ATOM     16  C   UNL A   1      41.745  25.631  28.421  1.00  0.00     0.049 A 
ATOM     17  N   UNL A   1      44.609  26.272  29.070  1.00  0.00    -0.248 NA
ATOM     18  C   UNL A   1      45.217  24.150  28.313  1.00  0.00     0.031 C 
ATOM     19  C   UNL A   1      40.333  25.358  28.138  1.00  0.00     0.029 A 
ATOM     20  N   UNL A   1      41.752  26.929  28.855  1.00  0.00    -0.354 N 
ATOM     21  C   UNL A   1      45.980  26.108  29.223  1.00  0.00     0.074 A 
ATOM     22  C   UNL A   1      46.298  24.771  28.770  1.00  0.00     0.031 C 
ATOM     23  C   UNL A   1      39.622  26.476  28.337  1.00  0.00     0.029 A 
ATOM     24  C   UNL A   1      40.512  27.519  28.831  1.00  0.00     0.049 A 
ATOM     25  H   UNL A   1      42.567  27.395  29.155  1.00  0.00     0.167 HD
ATOM     26  C   UNL A   1      46.889  26.996  29.695  1.00  0.00     0.037 A 
ATOM     27  C   UNL A   1      40.129  28.759  29.181  1.00  0.00     0.037 A 
ATOM     28  C   UNL A   1      46.572  28.337  30.114  1.00  0.00     0.049 A 
ATOM     29  C   UNL A   1      41.156  29.720  29.696  1.00  0.00     0.074 A 
ATOM     30  C   UNL A   1      47.427  29.321  30.581  1.00  0.00     0.029 A 
ATOM     31  N   UNL A   1      45.298  28.886  30.111  1.00  0.00    -0.354 N 
ATOM     32  N   UNL A   1      42.447  29.549  29.834  1.00  0.00    -0.248 NA
ATOM     33  C   UNL A   1      40.671  31.041  30.115  1.00  0.00     0.031 C 
ATOM     34  C   UNL A   1      46.666  30.454  30.890  1.00  0.00     0.029 A 
ATOM     35  C   UNL A   1      45.342  30.188  30.581  1.00  0.00     0.049 A 
ATOM     36  H   UNL A   1      44.483  28.419  29.817  1.00  0.00     0.167 HD
ATOM     37  C   UNL A   1      42.932  30.738  30.356  1.00  0.00     0.074 A 
ATOM     38  C   UNL A   1      41.799  31.633  30.482  1.00  0.00     0.031 C 
ATOM     39  C   UNL A   1      44.201  31.058  30.706  1.00  0.00     0.037 A 
BRANCH  26  40
ATOM     40  C   UNL A   1      48.315  26.541  29.807  1.00  0.00     0.057 A 
ATOM     41  C   UNL A   1      49.258  26.801  28.806  1.00  0.00     0.134 A 
ATOM     42  C   UNL A   1      48.761  25.879  30.959  1.00  0.00     0.134 A 
ATOM     43  F   UNL A   1      48.894  27.420  27.673  1.00  0.00    -0.206 F 
ATOM     44  C   UNL A   1      50.592  26.407  28.939  1.00  0.00     0.040 A 
ATOM     45  C   UNL A   1      50.095  25.499  31.113  1.00  0.00     0.040 A 
ATOM     46  F   UNL A   1      47.910  25.603  31.959  1.00  0.00    -0.206 F 
ATOM     47  C   UNL A   1      51.014  25.760  30.100  1.00  0.00     0.006 A 
ENDBRANCH  26  40
BRANCH  27  48
ATOM     48  C   UNL A   1      38.702  29.145  29.059  1.00  0.00     0.057 A 
ATOM     49  C   UNL A   1      37.852  29.128  30.169  1.00  0.00     0.134 A 
ATOM     50  C   UNL A   1      38.168  29.575  27.839  1.00  0.00     0.134 A 
ATOM     51  F   UNL A   1      38.304  28.712  31.360  1.00  0.00    -0.206 F 
ATOM     52  C   UNL A   1      36.517  29.521  30.069  1.00  0.00     0.040 A 
ATOM     53  C   UNL A   1      36.842  29.996  27.730  1.00  0.00     0.040 A 
ATOM     54  F   UNL A   1      38.938  29.623  26.741  1.00  0.00    -0.206 F 
ATOM     55  C   UNL A   1      36.012  29.966  28.848  1.00  0.00     0.006 A 
ENDBRANCH  27  48
BRANCH  39  56
ATOM     56  C   UNL A   1      44.420  32.437  31.250  1.00  0.00     0.057 A 
ATOM     57  C   UNL A   1      44.355  32.702  32.623  1.00  0.00     0.134 A 
ATOM     58  C   UNL A   1      44.707  33.506  30.393  1.00  0.00     0.134 A 
ATOM     59  F   UNL A   1      44.068  31.721  33.492  1.00  0.00    -0.206 F 
ATOM     60  C   UNL A   1      44.546  33.990  33.125  1.00  0.00     0.040 A 
ATOM     61  C   UNL A   1      44.919  34.794  30.884  1.00  0.00     0.040 A 
ATOM     62  F   UNL A   1      44.785  33.315  29.067  1.00  0.00    -0.206 F 
ATOM     63  C   UNL A   1      44.833  35.040  32.254  1.00  0.00     0.006 A 
ENDBRANCH  39  56
ENDBRANCH  13  14
ENDBRANCH   6   8
ENDBRANCH   3   4
ENDBRANCH   2   3
ENDBRANCH   1   2
BRANCH   1  64
ATOM     64  C   UNL A   1      36.471  22.940  25.357  1.00  0.00     0.116 C 
BRANCH  64  65
ATOM     65  N   UNL A   1      35.889  22.211  26.472  1.00  0.00    -0.356 N 
ATOM     66  C   UNL A   1      34.572  22.129  26.844  1.00  0.00     0.227 C 
ATOM     67  H   UNL A   1      36.524  21.710  27.033  1.00  0.00     0.163 HD
ATOM     68  O   UNL A   1      34.285  21.555  27.891  1.00  0.00    -0.275 OA
BRANCH  66  69
ATOM     69  C   UNL A   1      33.547  22.783  25.945  1.00  0.00     0.127 C 
ATOM     70  C   UNL A   1      32.061  22.564  26.314  1.00  0.00     0.127 C 
ATOM     71  C   UNL A   1      33.597  22.214  24.515  1.00  0.00     0.155 C 
ATOM     72  C   UNL A   1      31.503  21.938  25.022  1.00  0.00     0.155 C 
ATOM     73  C   UNL A   1      33.362  20.734  24.496  1.00  0.00     0.004 C 
ATOM     74  O   UNL A   1      32.300  22.662  24.038  1.00  0.00    -0.365 OA
ATOM     75  C   UNL A   1      32.073  20.563  24.817  1.00  0.00     0.004 C 
BRANCH  70  76
ATOM     76  C   UNL A   1      31.122  23.703  26.715  1.00  0.00     0.231 C 
ATOM     77  O   UNL A   1      30.084  23.410  27.327  1.00  0.00    -0.274 OA
ATOM     78  N   UNL A   1      31.410  25.031  26.657  1.00  0.00    -0.325 N 
ATOM     79  H   UNL A   1      31.041  25.536  27.418  1.00  0.00     0.169 HD
BRANCH  78  80
ATOM     80  C   UNL A   1      32.113  25.839  25.757  1.00  0.00     0.048 A 
ATOM     81  C   UNL A   1      33.023  26.755  26.301  1.00  0.00     0.026 A 
ATOM     82  C   UNL A   1      31.913  25.807  24.377  1.00  0.00     0.111 A 
ATOM     83  C   UNL A   1      33.816  27.553  25.472  1.00  0.00     0.009 A 
ATOM     84  C   UNL A   1      32.735  26.586  23.549  1.00  0.00     0.271 A 
ATOM     85  C   UNL A   1      33.690  27.458  24.089  1.00  0.00     0.086 A 
BRANCH  84  86
ATOM     86  N   UNL A   1      32.672  26.405  22.098  1.00  0.00     0.062 N 
ATOM     87  O   UNL A   1      31.546  26.367  21.581  1.00  0.00    -0.258 OA
ATOM     88  O   UNL A   1      33.738  26.362  21.474  1.00  0.00    -0.258 OA
ENDBRANCH  84  86
ENDBRANCH  78  80
ENDBRANCH  70  76
ENDBRANCH  66  69
ENDBRANCH  64  65
ENDBRANCH   1  64
TORSDOF 14
ENDMDL
MODEL 3
REMARK VINA RESULT:     -12.2      1.181      6.235
REMARK SMILES O=C(NCCCCNC(=O)[C@@H]1[C@@H](C(=O)Nc2cccc([N+](=O)[O-])c2)[C@@H]2C=C[C@H]1O2)c1ccc(-c2c3nc(c(-c4c(F)cccc4F)c4ccc([nH]4)c(-c4c(F)cccc4F)c4nc(c(-c5c(F)cccc5F)c5ccc2[nH]5)C=C4)C=C3)cc1
REMARK SMILES IDX 6 1 5 2 4 3 3 4 1 5 2 6 30 8 31 9 83 10 32 11 82 12 33 13
REMARK SMILES IDX 34 14 35 15 76 16 36 17 81 18 75 19 77 20 37 21 80 22 74 23
REMARK SMILES IDX 73 24 38 26 64 27 47 28 63 29 48 30 51 31 62 32 78 33 49 34
REMARK SMILES IDX 50 35 61 37 79 38 52 39 39 40 40 41 45 42 41 43 42 44 44 45
REMARK SMILES IDX 46 46 43 47 65 48 66 49 71 50 67 51 68 52 70 53 72 54 69 55
REMARK SMILES IDX 53 56 54 57 59 58 55 59 56 60 58 61 60 62 57 63 7 64 8 65
REMARK SMILES IDX 9 66 10 68 11 69 12 70 28 71 25 72 27 73 29 74 26 75 13 76
REMARK SMILES IDX 14 77 15 78 16 80 17 81 24 82 18 83 20 84 19 85 21 86 22 87
REMARK SMILES IDX 23 88
REMARK H PARENT 3 7 77 25 51 36 8 67 15 79
REMARK Flexibility Score: inf
ROOT
ATOM      1  C   UNL A   1      36.648  21.991  24.367  1.00  0.00     0.023 C 
ENDROOT
BRANCH   1   2
ATOM      2  C   UNL A   1      37.267  20.736  24.969  1.00  0.00     0.023 C 
BRANCH   2   3
ATOM      3  C   UNL A   1      38.601  20.958  25.668  1.00  0.00     0.116 C 
BRANCH   3   4
ATOM      4  N   UNL A   1      39.498  19.810  25.630  1.00  0.00    -0.352 N 
ATOM      5  O   UNL A   1      41.495  18.756  25.852  1.00  0.00    -0.269 OA
ATOM      6  C   UNL A   1      40.827  19.763  26.008  1.00  0.00     0.251 C 
ATOM      7  H   UNL A   1      39.113  18.968  25.295  1.00  0.00     0.163 HD
BRANCH   6   8
ATOM      8  C   UNL A   1      41.438  20.991  26.562  1.00  0.00     0.039 A 
ATOM      9  C   UNL A   1      41.366  21.249  27.930  1.00  0.00     0.014 A 
ATOM     10  C   UNL A   1      41.994  21.929  25.690  1.00  0.00     0.014 A 
ATOM     11  C   UNL A   1      41.669  22.518  28.400  1.00  0.00     0.010 A 
ATOM     12  C   UNL A   1      42.398  23.173  26.184  1.00  0.00     0.010 A 
ATOM     13  C   UNL A   1      42.192  23.494  27.534  1.00  0.00    -0.014 A 
BRANCH  13  14
ATOM     14  C   UNL A   1      42.539  24.826  28.086  1.00  0.00     0.031 A 
ATOM     15  C   UNL A   1      41.482  25.866  28.345  1.00  0.00     0.074 A 
ATOM     16  C   UNL A   1      43.822  25.069  28.416  1.00  0.00     0.049 A 
ATOM     17  N   UNL A   1      41.619  27.067  28.851  1.00  0.00    -0.248 NA
ATOM     18  C   UNL A   1      40.098  25.524  27.984  1.00  0.00     0.031 C 
ATOM     19  C   UNL A   1      44.932  24.135  28.207  1.00  0.00     0.029 A 
ATOM     20  N   UNL A   1      44.405  26.148  29.024  1.00  0.00    -0.354 N 
ATOM     21  C   UNL A   1      40.350  27.633  28.839  1.00  0.00     0.074 A 
ATOM     22  C   UNL A   1      39.456  26.650  28.266  1.00  0.00     0.031 C 
ATOM     23  C   UNL A   1      46.047  24.651  28.743  1.00  0.00     0.029 A 
ATOM     24  C   UNL A   1      45.747  25.978  29.265  1.00  0.00     0.049 A 
ATOM     25  H   UNL A   1      43.911  26.965  29.266  1.00  0.00     0.167 HD
ATOM     26  C   UNL A   1      39.970  28.861  29.270  1.00  0.00     0.037 A 
ATOM     27  C   UNL A   1      46.643  26.805  29.831  1.00  0.00     0.037 A 
ATOM     28  C   UNL A   1      40.859  29.822  29.870  1.00  0.00     0.049 A 
ATOM     29  C   UNL A   1      46.193  28.153  30.303  1.00  0.00     0.074 A 
ATOM     30  C   UNL A   1      40.563  31.081  30.364  1.00  0.00     0.029 A 
ATOM     31  N   UNL A   1      42.219  29.629  30.062  1.00  0.00    -0.354 N 
ATOM     32  N   UNL A   1      44.990  28.673  30.283  1.00  0.00    -0.248 NA
ATOM     33  C   UNL A   1      47.225  29.035  30.861  1.00  0.00     0.031 C 
ATOM     34  C   UNL A   1      41.749  31.662  30.826  1.00  0.00     0.029 A 
ATOM     35  C   UNL A   1      42.778  30.750  30.653  1.00  0.00     0.049 A 
ATOM     36  H   UNL A   1      42.713  28.815  29.815  1.00  0.00     0.167 HD
ATOM     37  C   UNL A   1      45.118  29.942  30.827  1.00  0.00     0.074 A 
ATOM     38  C   UNL A   1      46.512  30.102  31.193  1.00  0.00     0.031 C 
ATOM     39  C   UNL A   1      44.168  30.892  31.001  1.00  0.00     0.037 A 
BRANCH  26  40
ATOM     40  C   UNL A   1      38.530  29.247  29.091  1.00  0.00     0.057 A 
ATOM     41  C   UNL A   1      37.622  29.239  30.156  1.00  0.00     0.134 A 
ATOM     42  C   UNL A   1      38.062  29.684  27.845  1.00  0.00     0.134 A 
ATOM     43  F   UNL A   1      38.003  28.821  31.372  1.00  0.00    -0.206 F 
ATOM     44  C   UNL A   1      36.293  29.639  29.986  1.00  0.00     0.040 A 
ATOM     45  C   UNL A   1      36.743  30.105  27.667  1.00  0.00     0.040 A 
ATOM     46  F   UNL A   1      38.882  29.720  26.784  1.00  0.00    -0.206 F 
ATOM     47  C   UNL A   1      35.854  30.080  28.738  1.00  0.00     0.006 A 
ENDBRANCH  26  40
BRANCH  27  48
ATOM     48  C   UNL A   1      48.054  26.370  29.968  1.00  0.00     0.057 A 
ATOM     49  C   UNL A   1      48.501  25.721  31.123  1.00  0.00     0.134 A 
ATOM     50  C   UNL A   1      48.977  26.561  28.933  1.00  0.00     0.134 A 
ATOM     51  F   UNL A   1      47.665  25.524  32.153  1.00  0.00    -0.206 F 
ATOM     52  C   UNL A   1      49.819  25.280  31.247  1.00  0.00     0.040 A 
ATOM     53  C   UNL A   1      50.290  26.102  29.032  1.00  0.00     0.040 A 
ATOM     54  F   UNL A   1      48.604  27.168  27.796  1.00  0.00    -0.206 F 
ATOM     55  C   UNL A   1      50.715  25.463  30.194  1.00  0.00     0.006 A 
ENDBRANCH  27  48
BRANCH  39  56
ATOM     56  C   UNL A   1      44.614  32.180  31.621  1.00  0.00     0.057 A 
ATOM     57  C   UNL A   1      44.606  32.367  33.009  1.00  0.00     0.134 A 
ATOM     58  C   UNL A   1      45.063  33.240  30.824  1.00  0.00     0.134 A 
ATOM     59  F   UNL A   1      44.171  31.394  33.824  1.00  0.00    -0.206 F 
ATOM     60  C   UNL A   1      45.009  33.574  33.583  1.00  0.00     0.040 A 
ATOM     61  C   UNL A   1      45.487  34.444  31.387  1.00  0.00     0.040 A 
ATOM     62  F   UNL A   1      45.097  33.121  29.488  1.00  0.00    -0.206 F 
ATOM     63  C   UNL A   1      45.455  34.615  32.770  1.00  0.00     0.006 A 
ENDBRANCH  39  56
ENDBRANCH  13  14
ENDBRANCH   6   8
ENDBRANCH   3   4
ENDBRANCH   2   3
ENDBRANCH   1   2
BRANCH   1  64
ATOM     64  C   UNL A   1      36.378  23.112  25.366  1.00  0.00     0.116 C 
BRANCH  64  65
ATOM     65  N   UNL A   1      35.710  24.244  24.744  1.00  0.00    -0.356 N 
ATOM     66  C   UNL A   1      34.469  24.759  25.020  1.00  0.00     0.227 C 
ATOM     67  H   UNL A   1      36.215  24.701  24.034  1.00  0.00     0.163 HD
ATOM     68  O   UNL A   1      34.025  25.652  24.304  1.00  0.00    -0.275 OA
BRANCH  66  69
ATOM     69  C   UNL A   1      33.706  24.166  26.183  1.00  0.00     0.127 C 
ATOM     70  C   UNL A   1      33.082  22.768  25.963  1.00  0.00     0.127 C 
ATOM     71  C   UNL A   1      32.466  25.005  26.539  1.00  0.00     0.155 C 
ATOM     72  C   UNL A   1      31.595  23.035  26.263  1.00  0.00     0.155 C 
ATOM     73  C   UNL A   1      31.527  25.131  25.378  1.00  0.00     0.004 C 
ATOM     74  O   UNL A   1      31.736  24.025  27.324  1.00  0.00    -0.365 OA
ATOM     75  C   UNL A   1      30.997  23.914  25.201  1.00  0.00     0.004 C 
BRANCH  70  76
ATOM     76  C   UNL A   1      33.497  21.532  26.761  1.00  0.00     0.231 C 
ATOM     77  O   UNL A   1      34.051  21.708  27.857  1.00  0.00    -0.274 OA
ATOM     78  N   UNL A   1      33.132  20.250  26.491  1.00  0.00    -0.325 N 
ATOM     79  H   UNL A   1      32.956  19.723  27.305  1.00  0.00     0.169 HD
BRANCH  78  80
ATOM     80  C   UNL A   1      32.951  19.512  25.316  1.00  0.00     0.048 A 
ATOM     81  C   UNL A   1      32.315  20.160  24.249  1.00  0.00     0.026 A 
ATOM     82  C   UNL A   1      33.323  18.175  25.184  1.00  0.00     0.111 A 
ATOM     83  C   UNL A   1      32.155  19.521  23.017  1.00  0.00     0.009 A 
ATOM     84  C   UNL A   1      33.190  17.549  23.935  1.00  0.00     0.271 A 
ATOM     85  C   UNL A   1      32.611  18.217  22.848  1.00  0.00     0.086 A 
BRANCH  84  86
ATOM     86  N   UNL A   1      33.764  16.218  23.733  1.00  0.00     0.062 N 
ATOM     87  O   UNL A   1      33.536  15.365  24.603  1.00  0.00    -0.258 OA
ATOM     88  O   UNL A   1      34.387  16.010  22.685  1.00  0.00    -0.258 OA
ENDBRANCH  84  86
ENDBRANCH  78  80
ENDBRANCH  70  76
ENDBRANCH  66  69
ENDBRANCH  64  65
ENDBRANCH   1  64
TORSDOF 14
ENDMDL
