MODEL 1
REMARK VINA RESULT:     -12.6      0.000      0.000
REMARK SMILES C=CCn1nc(C(=O)NCCCCNC(=O)c2ccc(-c3c4nc(c(-c5c(F)cccc5F)c5ccc([nH]5)c(-c5c(F)cccc5F)c5nc(c(-c6c(F)cccc6F)c6ccc3[nH]6)C=C5)C=C4)cc2)c2c1CC[C@@H]([NH+]1CCC(C(C)(C)O)CC1)C2
REMARK SMILES IDX 11 1 10 2 9 3 7 4 8 5 6 7 4 8 5 9 72 10 71 11 73 12 86 13
REMARK SMILES IDX 74 14 75 15 3 16 2 17 1 18 76 19 77 20 85 21 78 23 84 24
REMARK SMILES IDX 79 25 80 26 81 27 82 28 83 29 12 31 13 32 14 33 15 34 16 36
REMARK SMILES IDX 17 37 18 38 70 39 19 40 69 41 20 42 21 43 22 44 63 45 23 46
REMARK SMILES IDX 68 47 62 48 64 49 24 50 67 51 61 52 60 53 25 55 51 56 34 57
REMARK SMILES IDX 50 58 35 59 38 60 49 61 65 62 36 63 37 64 48 66 66 67 39 68
REMARK SMILES IDX 26 69 27 70 32 71 28 72 29 73 31 74 33 75 30 76 52 77 53 78
REMARK SMILES IDX 58 79 54 80 55 81 57 82 59 83 56 84 40 85 41 86 46 87 42 88
REMARK SMILES IDX 43 89 45 90 47 91 44 92
REMARK H PARENT 9 6 76 22 83 30 14 35 64 54 38 65
REMARK Flexibility Score: inf
ROOT
ATOM      1  C   UNL A   1      40.331  21.062  26.420  1.00  0.00     0.023 C 
ENDROOT
BRANCH   1   2
ATOM      2  C   UNL A   1      38.961  21.220  25.727  1.00  0.00     0.116 C 
BRANCH   2   3
ATOM      3  N   UNL A   1      38.369  22.538  25.917  1.00  0.00    -0.351 N 
ATOM      4  C   UNL A   1      37.117  23.112  25.790  1.00  0.00     0.272 C 
ATOM      5  O   UNL A   1      37.069  24.267  26.238  1.00  0.00    -0.267 OA
ATOM      6  H   UNL A   1      39.039  23.195  26.215  1.00  0.00     0.163 HD
BRANCH   4   7
ATOM      7  C   UNL A   1      35.906  22.470  25.204  1.00  0.00     0.153 A 
ATOM      8  N   UNL A   1      34.520  20.835  24.848  1.00  0.00    -0.265 N 
ATOM      9  N   UNL A   1      35.724  21.139  25.386  1.00  0.00    -0.167 NA
ATOM     10  C   UNL A   1      34.008  21.886  24.143  1.00  0.00     0.043 A 
ATOM     11  C   UNL A   1      34.783  22.971  24.499  1.00  0.00     0.012 A 
ATOM     12  C   UNL A   1      32.800  21.939  23.279  1.00  0.00     0.062 C 
ATOM     13  C   UNL A   1      34.359  24.347  24.200  1.00  0.00     0.105 C 
ATOM     14  C   UNL A   1      32.452  23.406  22.921  1.00  0.00     0.072 C 
ATOM     15  C   UNL A   1      32.859  24.520  23.921  1.00  0.00     0.189 C 
BRANCH   8  16
ATOM     16  C   UNL A   1      34.002  19.480  25.066  1.00  0.00     0.171 C 
BRANCH  16  17
ATOM     17  C   UNL A   1      34.714  18.365  24.349  1.00  0.00    -0.011 C 
ATOM     18  C   UNL A   1      34.091  17.368  23.703  1.00  0.00     0.006 C 
ENDBRANCH  16  17
ENDBRANCH   8  16
BRANCH  15  19
ATOM     19  N   UNL A   1      32.171  24.878  25.182  1.00  0.00    -0.332 N 
ATOM     20  C   UNL A   1      30.729  25.029  25.213  1.00  0.00     0.262 C 
ATOM     21  C   UNL A   1      32.788  25.922  25.982  1.00  0.00     0.262 C 
ATOM     22  H   UNL A   1      32.335  23.970  25.618  1.00  0.00     0.348 HD
ATOM     23  C   UNL A   1      30.251  26.353  24.647  1.00  0.00     0.068 C 
ATOM     24  C   UNL A   1      32.563  27.303  25.398  1.00  0.00     0.068 C 
ATOM     25  C   UNL A   1      31.106  27.606  24.962  1.00  0.00     0.031 C 
BRANCH  25  26
ATOM     26  C   UNL A   1      31.079  28.662  23.799  1.00  0.00     0.062 C 
ATOM     27  C   UNL A   1      32.290  28.570  22.868  1.00  0.00     0.042 C 
ATOM     28  C   UNL A   1      29.789  28.550  22.983  1.00  0.00     0.042 C 
BRANCH  26  29
ATOM     29  O   UNL A   1      31.103  29.983  24.345  1.00  0.00    -0.390 OA
ATOM     30  H   UNL A   1      30.766  30.611  23.686  1.00  0.00     0.211 HD
ENDBRANCH  26  29
ENDBRANCH  25  26
ENDBRANCH  15  19
ENDBRANCH   4   7
ENDBRANCH   2   3
ENDBRANCH   1   2
BRANCH   1  31
ATOM     31  C   UNL A   1      41.114  19.779  26.142  1.00  0.00     0.023 C 
BRANCH  31  32
ATOM     32  C   UNL A   1      42.507  19.776  26.761  1.00  0.00     0.116 C 
BRANCH  32  33
ATOM     33  N   UNL A   1      43.580  19.453  25.813  1.00  0.00    -0.352 N 
ATOM     34  C   UNL A   1      44.190  20.330  24.925  1.00  0.00     0.251 C 
ATOM     35  H   UNL A   1      43.899  18.521  25.805  1.00  0.00     0.163 HD
ATOM     36  O   UNL A   1      44.748  19.954  23.914  1.00  0.00    -0.269 OA
BRANCH  34  37
ATOM     37  C   UNL A   1      44.163  21.759  25.285  1.00  0.00     0.039 A 
ATOM     38  C   UNL A   1      43.204  22.636  24.774  1.00  0.00     0.014 A 
ATOM     39  C   UNL A   1      45.077  22.160  26.256  1.00  0.00     0.014 A 
ATOM     40  C   UNL A   1      43.115  23.912  25.324  1.00  0.00     0.010 A 
ATOM     41  C   UNL A   1      44.878  23.350  26.903  1.00  0.00     0.010 A 
ATOM     42  C   UNL A   1      43.941  24.252  26.408  1.00  0.00    -0.014 A 
BRANCH  42  43
ATOM     43  C   UNL A   1      43.756  25.502  27.140  1.00  0.00     0.031 A 
ATOM     44  C   UNL A   1      44.744  26.565  26.803  1.00  0.00     0.074 A 
ATOM     45  C   UNL A   1      42.645  25.752  27.868  1.00  0.00     0.049 A 
ATOM     46  N   UNL A   1      45.652  27.068  27.571  1.00  0.00    -0.248 NA
ATOM     47  C   UNL A   1      44.834  27.027  25.406  1.00  0.00     0.031 C 
ATOM     48  C   UNL A   1      41.446  24.917  28.016  1.00  0.00     0.029 A 
ATOM     49  N   UNL A   1      42.300  26.877  28.553  1.00  0.00    -0.354 N 
ATOM     50  C   UNL A   1      46.274  28.071  26.829  1.00  0.00     0.074 A 
ATOM     51  C   UNL A   1      45.873  27.864  25.464  1.00  0.00     0.031 C 
ATOM     52  C   UNL A   1      40.435  25.653  28.525  1.00  0.00     0.029 A 
ATOM     53  C   UNL A   1      40.955  26.951  28.905  1.00  0.00     0.049 A 
ATOM     54  H   UNL A   1      42.950  27.581  28.782  1.00  0.00     0.167 HD
ATOM     55  C   UNL A   1      46.852  29.139  27.449  1.00  0.00     0.037 A 
ATOM     56  C   UNL A   1      40.315  28.018  29.449  1.00  0.00     0.037 A 
ATOM     57  C   UNL A   1      47.049  28.870  28.854  1.00  0.00     0.049 A 
ATOM     58  C   UNL A   1      41.354  28.905  30.025  1.00  0.00     0.074 A 
ATOM     59  C   UNL A   1      47.738  27.914  29.576  1.00  0.00     0.029 A 
ATOM     60  N   UNL A   1      46.155  29.428  29.735  1.00  0.00    -0.354 N 
ATOM     61  N   UNL A   1      42.084  28.587  31.058  1.00  0.00    -0.248 NA
ATOM     62  C   UNL A   1      41.909  29.933  29.160  1.00  0.00     0.031 C 
ATOM     63  C   UNL A   1      46.887  27.606  30.679  1.00  0.00     0.029 A 
ATOM     64  C   UNL A   1      45.777  28.450  30.617  1.00  0.00     0.049 A 
ATOM     65  H   UNL A   1      45.843  30.362  29.733  1.00  0.00     0.167 HD
ATOM     66  C   UNL A   1      43.360  29.020  30.730  1.00  0.00     0.074 A 
ATOM     67  C   UNL A   1      43.174  29.913  29.586  1.00  0.00     0.031 C 
ATOM     68  C   UNL A   1      44.465  28.383  31.218  1.00  0.00     0.037 A 
BRANCH  55  69
ATOM     69  C   UNL A   1      46.854  30.552  26.906  1.00  0.00     0.057 A 
ATOM     70  C   UNL A   1      48.050  31.296  26.957  1.00  0.00     0.134 A 
ATOM     71  C   UNL A   1      45.697  31.309  26.635  1.00  0.00     0.134 A 
ATOM     72  F   UNL A   1      49.225  30.697  27.207  1.00  0.00    -0.206 F 
ATOM     73  C   UNL A   1      48.074  32.692  26.851  1.00  0.00     0.040 A 
ATOM     74  C   UNL A   1      45.718  32.699  26.477  1.00  0.00     0.040 A 
ATOM     75  F   UNL A   1      44.472  30.774  26.607  1.00  0.00    -0.206 F 
ATOM     76  C   UNL A   1      46.903  33.400  26.622  1.00  0.00     0.006 A 
ENDBRANCH  55  69
BRANCH  56  77
ATOM     77  C   UNL A   1      38.927  28.483  29.219  1.00  0.00     0.057 A 
ATOM     78  C   UNL A   1      38.006  28.560  30.276  1.00  0.00     0.134 A 
ATOM     79  C   UNL A   1      38.559  29.144  28.035  1.00  0.00     0.134 A 
ATOM     80  F   UNL A   1      38.281  27.992  31.460  1.00  0.00    -0.206 F 
ATOM     81  C   UNL A   1      36.809  29.282  30.174  1.00  0.00     0.040 A 
ATOM     82  C   UNL A   1      37.365  29.864  27.917  1.00  0.00     0.040 A 
ATOM     83  F   UNL A   1      39.389  29.192  26.982  1.00  0.00    -0.206 F 
ATOM     84  C   UNL A   1      36.492  29.951  28.996  1.00  0.00     0.006 A 
ENDBRANCH  56  77
BRANCH  68  85
ATOM     85  C   UNL A   1      44.269  27.378  32.321  1.00  0.00     0.057 A 
ATOM     86  C   UNL A   1      44.133  25.993  32.128  1.00  0.00     0.134 A 
ATOM     87  C   UNL A   1      44.352  27.819  33.646  1.00  0.00     0.134 A 
ATOM     88  F   UNL A   1      44.147  25.458  30.901  1.00  0.00    -0.206 F 
ATOM     89  C   UNL A   1      44.030  25.102  33.201  1.00  0.00     0.040 A 
ATOM     90  C   UNL A   1      44.287  26.937  34.726  1.00  0.00     0.040 A 
ATOM     91  F   UNL A   1      44.539  29.121  33.913  1.00  0.00    -0.206 F 
ATOM     92  C   UNL A   1      44.111  25.574  34.506  1.00  0.00     0.006 A 
ENDBRANCH  68  85
ENDBRANCH  42  43
ENDBRANCH  34  37
ENDBRANCH  32  33
ENDBRANCH  31  32
ENDBRANCH   1  31
TORSDOF 16
ENDMDL
MODEL 2
REMARK VINA RESULT:     -11.8      1.822      5.606
REMARK SMILES C=CCn1nc(C(=O)NCCCCNC(=O)c2ccc(-c3c4nc(c(-c5c(F)cccc5F)c5ccc([nH]5)c(-c5c(F)cccc5F)c5nc(c(-c6c(F)cccc6F)c6ccc3[nH]6)C=C5)C=C4)cc2)c2c1CC[C@@H]([NH+]1CCC(C(C)(C)O)CC1)C2
REMARK SMILES IDX 11 1 10 2 9 3 7 4 8 5 6 7 4 8 5 9 72 10 71 11 73 12 86 13
REMARK SMILES IDX 74 14 75 15 3 16 2 17 1 18 76 19 77 20 85 21 78 23 84 24
REMARK SMILES IDX 79 25 80 26 81 27 82 28 83 29 12 31 13 32 14 33 15 34 16 36
REMARK SMILES IDX 17 37 18 38 70 39 19 40 69 41 20 42 21 43 22 44 63 45 23 46
REMARK SMILES IDX 68 47 62 48 64 49 24 50 67 51 61 52 60 53 25 55 51 56 34 57
REMARK SMILES IDX 50 58 35 59 38 60 49 61 65 62 36 63 37 64 48 66 66 67 39 68
REMARK SMILES IDX 26 69 27 70 32 71 28 72 29 73 31 74 33 75 30 76 52 77 53 78
REMARK SMILES IDX 58 79 54 80 55 81 57 82 59 83 56 84 40 85 41 86 46 87 42 88
REMARK SMILES IDX 43 89 45 90 47 91 44 92
REMARK H PARENT 9 6 76 22 83 30 14 35 64 54 38 65
REMARK Flexibility Score: inf
ROOT
ATOM      1  C   UNL A   1      38.024  21.493  25.383  1.00  0.00     0.023 C 
ENDROOT
BRANCH   1   2
ATOM      2  C   UNL A   1      37.541  22.906  25.771  1.00  0.00     0.116 C 
BRANCH   2   3
ATOM      3  N   UNL A   1      36.364  22.895  26.631  1.00  0.00    -0.351 N 
ATOM      4  C   UNL A   1      34.999  22.738  26.475  1.00  0.00     0.272 C 
ATOM      5  O   UNL A   1      34.399  22.637  27.555  1.00  0.00    -0.267 OA
ATOM      6  H   UNL A   1      36.606  23.038  27.576  1.00  0.00     0.163 HD
BRANCH   4   7
ATOM      7  C   UNL A   1      34.261  22.672  25.182  1.00  0.00     0.153 A 
ATOM      8  N   UNL A   1      33.150  21.688  23.595  1.00  0.00    -0.265 N 
ATOM      9  N   UNL A   1      33.876  21.460  24.714  1.00  0.00    -0.167 NA
ATOM     10  C   UNL A   1      33.224  22.996  23.210  1.00  0.00     0.043 A 
ATOM     11  C   UNL A   1      33.775  23.659  24.287  1.00  0.00     0.012 A 
ATOM     12  C   UNL A   1      32.711  23.642  21.973  1.00  0.00     0.062 C 
ATOM     13  C   UNL A   1      33.728  25.125  24.391  1.00  0.00     0.105 C 
ATOM     14  C   UNL A   1      32.769  25.185  22.102  1.00  0.00     0.072 C 
ATOM     15  C   UNL A   1      32.662  25.806  23.520  1.00  0.00     0.189 C 
BRANCH   8  16
ATOM     16  C   UNL A   1      32.465  20.543  22.985  1.00  0.00     0.171 C 
BRANCH  16  17
ATOM     17  C   UNL A   1      32.578  19.229  23.709  1.00  0.00    -0.011 C 
ATOM     18  C   UNL A   1      32.659  18.037  23.097  1.00  0.00     0.006 C 
ENDBRANCH  16  17
ENDBRANCH   8  16
BRANCH  15  19
ATOM     19  N   UNL A   1      31.429  25.987  24.320  1.00  0.00    -0.332 N 
ATOM     20  C   UNL A   1      30.525  27.085  24.035  1.00  0.00     0.262 C 
ATOM     21  C   UNL A   1      31.561  25.825  25.758  1.00  0.00     0.262 C 
ATOM     22  H   UNL A   1      30.962  25.171  23.925  1.00  0.00     0.348 HD
ATOM     23  C   UNL A   1      31.005  28.416  24.582  1.00  0.00     0.068 C 
ATOM     24  C   UNL A   1      32.232  27.017  26.412  1.00  0.00     0.068 C 
ATOM     25  C   UNL A   1      31.695  28.403  25.969  1.00  0.00     0.031 C 
BRANCH  25  26
ATOM     26  C   UNL A   1      32.810  29.502  26.099  1.00  0.00     0.062 C 
ATOM     27  C   UNL A   1      32.329  30.772  26.803  1.00  0.00     0.042 C 
ATOM     28  C   UNL A   1      34.046  28.950  26.814  1.00  0.00     0.042 C 
BRANCH  26  29
ATOM     29  O   UNL A   1      33.241  29.911  24.800  1.00  0.00    -0.390 OA
ATOM     30  H   UNL A   1      33.644  30.793  24.855  1.00  0.00     0.211 HD
ENDBRANCH  26  29
ENDBRANCH  25  26
ENDBRANCH  15  19
ENDBRANCH   4   7
ENDBRANCH   2   3
ENDBRANCH   1   2
BRANCH   1  31
ATOM     31  C   UNL A   1      39.512  21.186  25.558  1.00  0.00     0.023 C 
BRANCH  31  32
ATOM     32  C   UNL A   1      39.776  19.933  26.383  1.00  0.00     0.116 C 
BRANCH  32  33
ATOM     33  N   UNL A   1      40.956  19.173  25.952  1.00  0.00    -0.352 N 
ATOM     34  C   UNL A   1      42.220  19.688  25.692  1.00  0.00     0.251 C 
ATOM     35  H   UNL A   1      40.840  18.203  25.835  1.00  0.00     0.163 HD
ATOM     36  O   UNL A   1      43.018  19.128  24.967  1.00  0.00    -0.269 OA
BRANCH  34  37
ATOM     37  C   UNL A   1      42.574  20.947  26.372  1.00  0.00     0.039 A 
ATOM     38  C   UNL A   1      42.917  22.102  25.666  1.00  0.00     0.014 A 
ATOM     39  C   UNL A   1      42.430  20.953  27.757  1.00  0.00     0.014 A 
ATOM     40  C   UNL A   1      43.027  23.299  26.369  1.00  0.00     0.010 A 
ATOM     41  C   UNL A   1      42.377  22.152  28.414  1.00  0.00     0.010 A 
ATOM     42  C   UNL A   1      42.730  23.319  27.743  1.00  0.00    -0.014 A 
BRANCH  42  43
ATOM     43  C   UNL A   1      42.645  24.575  28.482  1.00  0.00     0.031 A 
ATOM     44  C   UNL A   1      41.388  25.341  28.254  1.00  0.00     0.074 A 
ATOM     45  C   UNL A   1      43.515  24.889  29.468  1.00  0.00     0.049 A 
ATOM     46  N   UNL A   1      41.260  26.488  27.674  1.00  0.00    -0.248 NA
ATOM     47  C   UNL A   1      40.102  24.698  28.577  1.00  0.00     0.031 C 
ATOM     48  C   UNL A   1      44.606  24.072  30.015  1.00  0.00     0.029 A 
ATOM     49  N   UNL A   1      43.538  25.981  30.280  1.00  0.00    -0.354 N 
ATOM     50  C   UNL A   1      39.909  26.818  27.766  1.00  0.00     0.074 A 
ATOM     51  C   UNL A   1      39.227  25.609  28.143  1.00  0.00     0.031 C 
ATOM     52  C   UNL A   1      45.009  24.579  31.200  1.00  0.00     0.029 A 
ATOM     53  C   UNL A   1      44.339  25.846  31.411  1.00  0.00     0.049 A 
ATOM     54  H   UNL A   1      43.028  26.801  30.084  1.00  0.00     0.167 HD
ATOM     55  C   UNL A   1      39.510  28.121  27.780  1.00  0.00     0.037 A 
ATOM     56  C   UNL A   1      44.422  26.709  32.455  1.00  0.00     0.037 A 
ATOM     57  C   UNL A   1      40.569  28.986  27.317  1.00  0.00     0.049 A 
ATOM     58  C   UNL A   1      43.888  28.012  31.991  1.00  0.00     0.074 A 
ATOM     59  C   UNL A   1      41.304  29.089  26.152  1.00  0.00     0.029 A 
ATOM     60  N   UNL A   1      41.283  29.674  28.268  1.00  0.00    -0.354 N 
ATOM     61  N   UNL A   1      44.476  28.756  31.096  1.00  0.00    -0.248 NA
ATOM     62  C   UNL A   1      42.465  28.252  32.166  1.00  0.00     0.031 C 
ATOM     63  C   UNL A   1      42.632  29.386  26.582  1.00  0.00     0.029 A 
ATOM     64  C   UNL A   1      42.613  29.534  27.969  1.00  0.00     0.049 A 
ATOM     65  H   UNL A   1      40.907  30.176  29.026  1.00  0.00     0.167 HD
ATOM     66  C   UNL A   1      43.444  29.213  30.290  1.00  0.00     0.074 A 
ATOM     67  C   UNL A   1      42.223  28.937  31.046  1.00  0.00     0.031 C 
ATOM     68  C   UNL A   1      43.654  29.492  28.970  1.00  0.00     0.037 A 
BRANCH  55  69
ATOM     69  C   UNL A   1      38.348  28.658  28.589  1.00  0.00     0.057 A 
ATOM     70  C   UNL A   1      37.515  29.638  28.012  1.00  0.00     0.134 A 
ATOM     71  C   UNL A   1      38.198  28.498  29.981  1.00  0.00     0.134 A 
ATOM     72  F   UNL A   1      37.558  29.890  26.694  1.00  0.00    -0.206 F 
ATOM     73  C   UNL A   1      36.680  30.462  28.776  1.00  0.00     0.040 A 
ATOM     74  C   UNL A   1      37.328  29.283  30.746  1.00  0.00     0.040 A 
ATOM     75  F   UNL A   1      38.947  27.654  30.697  1.00  0.00    -0.206 F 
ATOM     76  C   UNL A   1      36.594  30.294  30.151  1.00  0.00     0.006 A 
ENDBRANCH  55  69
BRANCH  56  77
ATOM     77  C   UNL A   1      44.614  26.409  33.894  1.00  0.00     0.057 A 
ATOM     78  C   UNL A   1      45.863  26.591  34.510  1.00  0.00     0.134 A 
ATOM     79  C   UNL A   1      43.523  26.229  34.761  1.00  0.00     0.134 A 
ATOM     80  F   UNL A   1      46.961  26.806  33.770  1.00  0.00    -0.206 F 
ATOM     81  C   UNL A   1      46.010  26.630  35.903  1.00  0.00     0.040 A 
ATOM     82  C   UNL A   1      43.656  26.261  36.153  1.00  0.00     0.040 A 
ATOM     83  F   UNL A   1      42.274  26.112  34.286  1.00  0.00    -0.206 F 
ATOM     84  C   UNL A   1      44.901  26.480  36.730  1.00  0.00     0.006 A 
ENDBRANCH  56  77
BRANCH  68  85
ATOM     85  C   UNL A   1      45.076  29.546  28.479  1.00  0.00     0.057 A 
ATOM     86  C   UNL A   1      45.789  28.450  27.965  1.00  0.00     0.134 A 
ATOM     87  C   UNL A   1      45.708  30.793  28.404  1.00  0.00     0.134 A 
ATOM     88  F   UNL A   1      45.236  27.233  27.895  1.00  0.00    -0.206 F 
ATOM     89  C   UNL A   1      47.084  28.583  27.454  1.00  0.00     0.040 A 
ATOM     90  C   UNL A   1      46.985  30.945  27.863  1.00  0.00     0.040 A 
ATOM     91  F   UNL A   1      45.070  31.898  28.822  1.00  0.00    -0.206 F 
ATOM     92  C   UNL A   1      47.684  29.835  27.398  1.00  0.00     0.006 A 
ENDBRANCH  68  85
ENDBRANCH  42  43
ENDBRANCH  34  37
ENDBRANCH  32  33
ENDBRANCH  31  32
ENDBRANCH   1  31
TORSDOF 16
ENDMDL
MODEL 3
REMARK VINA RESULT:     -11.6      2.305      3.226
REMARK SMILES C=CCn1nc(C(=O)NCCCCNC(=O)c2ccc(-c3c4nc(c(-c5c(F)cccc5F)c5ccc([nH]5)c(-c5c(F)cccc5F)c5nc(c(-c6c(F)cccc6F)c6ccc3[nH]6)C=C5)C=C4)cc2)c2c1CC[C@@H]([NH+]1CCC(C(C)(C)O)CC1)C2
REMARK SMILES IDX 11 1 10 2 9 3 7 4 8 5 6 7 4 8 5 9 72 10 71 11 73 12 86 13
REMARK SMILES IDX 74 14 75 15 3 16 2 17 1 18 76 19 77 20 85 21 78 23 84 24
REMARK SMILES IDX 79 25 80 26 81 27 82 28 83 29 12 31 13 32 14 33 15 34 16 36
REMARK SMILES IDX 17 37 18 38 70 39 19 40 69 41 20 42 21 43 22 44 63 45 23 46
REMARK SMILES IDX 68 47 62 48 64 49 24 50 67 51 61 52 60 53 25 55 51 56 34 57
REMARK SMILES IDX 50 58 35 59 38 60 49 61 65 62 36 63 37 64 48 66 66 67 39 68
REMARK SMILES IDX 26 69 27 70 32 71 28 72 29 73 31 74 33 75 30 76 52 77 53 78
REMARK SMILES IDX 58 79 54 80 55 81 57 82 59 83 56 84 40 85 41 86 46 87 42 88
REMARK SMILES IDX 43 89 45 90 47 91 44 92
REMARK H PARENT 9 6 76 22 83 30 14 35 64 54 38 65
REMARK Flexibility Score: inf
ROOT
ATOM      1  C   UNL A   1      38.745  23.173  26.624  1.00  0.00     0.023 C 
ENDROOT
BRANCH   1   2
ATOM      2  C   UNL A   1      37.491  23.663  25.869  1.00  0.00     0.116 C 
BRANCH   2   3
ATOM      3  N   UNL A   1      37.479  23.278  24.463  1.00  0.00    -0.351 N 
ATOM      4  C   UNL A   1      36.537  22.885  23.531  1.00  0.00     0.272 C 
ATOM      5  O   UNL A   1      36.996  22.821  22.381  1.00  0.00    -0.267 OA
ATOM      6  H   UNL A   1      38.384  23.307  24.074  1.00  0.00     0.163 HD
BRANCH   4   7
ATOM      7  C   UNL A   1      35.106  22.568  23.801  1.00  0.00     0.153 A 
ATOM      8  N   UNL A   1      33.468  21.418  24.644  1.00  0.00    -0.265 N 
ATOM      9  N   UNL A   1      34.805  21.412  24.440  1.00  0.00    -0.167 NA
ATOM     10  C   UNL A   1      32.865  22.445  23.977  1.00  0.00     0.043 A 
ATOM     11  C   UNL A   1      33.896  23.274  23.585  1.00  0.00     0.012 A 
ATOM     12  C   UNL A   1      31.416  22.733  23.805  1.00  0.00     0.062 C 
ATOM     13  C   UNL A   1      33.641  24.645  23.117  1.00  0.00     0.105 C 
ATOM     14  C   UNL A   1      31.210  24.154  23.225  1.00  0.00     0.072 C 
ATOM     15  C   UNL A   1      32.284  25.233  23.530  1.00  0.00     0.189 C 
BRANCH   8  16
ATOM     16  C   UNL A   1      32.903  20.349  25.477  1.00  0.00     0.171 C 
BRANCH  16  17
ATOM     17  C   UNL A   1      32.633  19.036  24.793  1.00  0.00    -0.011 C 
ATOM     18  C   UNL A   1      32.458  18.900  23.470  1.00  0.00     0.006 C 
ENDBRANCH  16  17
ENDBRANCH   8  16
BRANCH  15  19
ATOM     19  N   UNL A   1      32.449  25.990  24.791  1.00  0.00    -0.332 N 
ATOM     20  C   UNL A   1      31.310  26.233  25.655  1.00  0.00     0.262 C 
ATOM     21  C   UNL A   1      33.274  27.185  24.724  1.00  0.00     0.262 C 
ATOM     22  H   UNL A   1      32.963  25.245  25.260  1.00  0.00     0.348 HD
ATOM     23  C   UNL A   1      30.414  27.356  25.168  1.00  0.00     0.068 C 
ATOM     24  C   UNL A   1      32.558  28.341  24.053  1.00  0.00     0.068 C 
ATOM     25  C   UNL A   1      31.106  28.590  24.538  1.00  0.00     0.031 C 
BRANCH  25  26
ATOM     26  C   UNL A   1      30.245  29.253  23.403  1.00  0.00     0.062 C 
ATOM     27  C   UNL A   1      30.998  29.406  22.081  1.00  0.00     0.042 C 
ATOM     28  C   UNL A   1      28.946  28.475  23.173  1.00  0.00     0.042 C 
BRANCH  26  29
ATOM     29  O   UNL A   1      29.864  30.574  23.794  1.00  0.00    -0.390 OA
ATOM     30  H   UNL A   1      28.943  30.736  23.532  1.00  0.00     0.211 HD
ENDBRANCH  26  29
ENDBRANCH  25  26
ENDBRANCH  15  19
ENDBRANCH   4   7
ENDBRANCH   2   3
ENDBRANCH   1   2
BRANCH   1  31
ATOM     31  C   UNL A   1      39.474  21.954  26.057  1.00  0.00     0.023 C 
BRANCH  31  32
ATOM     32  C   UNL A   1      40.800  21.667  26.751  1.00  0.00     0.116 C 
BRANCH  32  33
ATOM     33  N   UNL A   1      41.980  22.011  25.948  1.00  0.00    -0.352 N 
ATOM     34  C   UNL A   1      42.447  23.290  25.673  1.00  0.00     0.251 C 
ATOM     35  H   UNL A   1      42.490  21.261  25.566  1.00  0.00     0.163 HD
ATOM     36  O   UNL A   1      43.140  23.539  24.707  1.00  0.00    -0.269 OA
BRANCH  34  37
ATOM     37  C   UNL A   1      42.091  24.346  26.638  1.00  0.00     0.039 A 
ATOM     38  C   UNL A   1      42.640  24.396  27.921  1.00  0.00     0.014 A 
ATOM     39  C   UNL A   1      41.264  25.358  26.156  1.00  0.00     0.014 A 
ATOM     40  C   UNL A   1      42.420  25.536  28.690  1.00  0.00     0.010 A 
ATOM     41  C   UNL A   1      41.188  26.537  26.846  1.00  0.00     0.010 A 
ATOM     42  C   UNL A   1      41.712  26.615  28.133  1.00  0.00    -0.014 A 
BRANCH  42  43
ATOM     43  C   UNL A   1      41.618  27.897  28.824  1.00  0.00     0.031 A 
ATOM     44  C   UNL A   1      42.681  28.874  28.458  1.00  0.00     0.074 A 
ATOM     45  C   UNL A   1      40.527  28.250  29.541  1.00  0.00     0.049 A 
ATOM     46  N   UNL A   1      43.622  29.333  29.214  1.00  0.00    -0.248 NA
ATOM     47  C   UNL A   1      42.806  29.284  27.048  1.00  0.00     0.031 C 
ATOM     48  C   UNL A   1      39.270  27.509  29.711  1.00  0.00     0.029 A 
ATOM     49  N   UNL A   1      40.264  29.418  30.190  1.00  0.00    -0.354 N 
ATOM     50  C   UNL A   1      44.317  30.264  28.443  1.00  0.00     0.074 A 
ATOM     51  C   UNL A   1      43.903  30.045  27.083  1.00  0.00     0.031 C 
ATOM     52  C   UNL A   1      38.315  28.333  30.193  1.00  0.00     0.029 A 
ATOM     53  C   UNL A   1      38.928  29.601  30.535  1.00  0.00     0.049 A 
ATOM     54  H   UNL A   1      40.963  30.079  30.398  1.00  0.00     0.167 HD
ATOM     55  C   UNL A   1      44.970  31.306  29.031  1.00  0.00     0.037 A 
ATOM     56  C   UNL A   1      38.366  30.727  31.042  1.00  0.00     0.037 A 
ATOM     57  C   UNL A   1      45.146  31.068  30.444  1.00  0.00     0.049 A 
ATOM     58  C   UNL A   1      39.467  31.554  31.594  1.00  0.00     0.074 A 
ATOM     59  C   UNL A   1      45.762  30.088  31.198  1.00  0.00     0.029 A 
ATOM     60  N   UNL A   1      44.293  31.717  31.304  1.00  0.00    -0.354 N 
ATOM     61  N   UNL A   1      40.170  31.216  32.639  1.00  0.00    -0.248 NA
ATOM     62  C   UNL A   1      40.096  32.512  30.699  1.00  0.00     0.031 C 
ATOM     63  C   UNL A   1      44.889  29.877  32.308  1.00  0.00     0.029 A 
ATOM     64  C   UNL A   1      43.844  30.797  32.215  1.00  0.00     0.049 A 
ATOM     65  H   UNL A   1      44.050  32.670  31.272  1.00  0.00     0.167 HD
ATOM     66  C   UNL A   1      41.475  31.544  32.302  1.00  0.00     0.074 A 
ATOM     67  C   UNL A   1      41.356  32.413  31.130  1.00  0.00     0.031 C 
ATOM     68  C   UNL A   1      42.530  30.845  32.813  1.00  0.00     0.037 A 
BRANCH  55  69
ATOM     69  C   UNL A   1      45.076  32.698  28.445  1.00  0.00     0.057 A 
ATOM     70  C   UNL A   1      43.893  33.427  28.208  1.00  0.00     0.134 A 
ATOM     71  C   UNL A   1      46.228  33.221  27.823  1.00  0.00     0.134 A 
ATOM     72  F   UNL A   1      42.724  33.037  28.742  1.00  0.00    -0.206 F 
ATOM     73  C   UNL A   1      43.845  34.523  27.338  1.00  0.00     0.040 A 
ATOM     74  C   UNL A   1      46.198  34.346  26.992  1.00  0.00     0.040 A 
ATOM     75  F   UNL A   1      47.422  32.624  27.895  1.00  0.00    -0.206 F 
ATOM     76  C   UNL A   1      44.998  34.979  26.716  1.00  0.00     0.006 A 
ENDBRANCH  55  69
BRANCH  56  77
ATOM     77  C   UNL A   1      37.016  31.285  30.794  1.00  0.00     0.057 A 
ATOM     78  C   UNL A   1      36.140  31.559  31.856  1.00  0.00     0.134 A 
ATOM     79  C   UNL A   1      36.667  31.841  29.551  1.00  0.00     0.134 A 
ATOM     80  F   UNL A   1      36.405  31.103  33.090  1.00  0.00    -0.206 F 
ATOM     81  C   UNL A   1      35.006  32.368  31.701  1.00  0.00     0.040 A 
ATOM     82  C   UNL A   1      35.535  32.646  29.380  1.00  0.00     0.040 A 
ATOM     83  F   UNL A   1      37.463  31.700  28.481  1.00  0.00    -0.206 F 
ATOM     84  C   UNL A   1      34.709  32.928  30.462  1.00  0.00     0.006 A 
ENDBRANCH  56  77
BRANCH  68  85
ATOM     85  C   UNL A   1      42.260  29.891  33.947  1.00  0.00     0.057 A 
ATOM     86  C   UNL A   1      41.910  28.540  33.790  1.00  0.00     0.134 A 
ATOM     87  C   UNL A   1      42.492  30.330  35.255  1.00  0.00     0.134 A 
ATOM     88  F   UNL A   1      41.767  27.996  32.576  1.00  0.00    -0.206 F 
ATOM     89  C   UNL A   1      41.747  27.686  34.885  1.00  0.00     0.040 A 
ATOM     90  C   UNL A   1      42.368  29.478  36.354  1.00  0.00     0.040 A 
ATOM     91  F   UNL A   1      42.885  31.593  35.483  1.00  0.00    -0.206 F 
ATOM     92  C   UNL A   1      41.980  28.154  36.173  1.00  0.00     0.006 A 
ENDBRANCH  68  85
ENDBRANCH  42  43
ENDBRANCH  34  37
ENDBRANCH  32  33
ENDBRANCH  31  32
ENDBRANCH   1  31
TORSDOF 16
ENDMDL
