MODEL 1
REMARK VINA RESULT:     -12.6      0.000      0.000
REMARK SMILES Cc1ccccc1CNc1ccc(C(=O)NCCCCNC(=O)c2ccc(-c3c4nc(c(-c5c(F)cccc5F)c5ccc([nH]5)c(-c5c(F)cccc5F)c5nc(c(-c6c(F)cccc6F)c6ccc3[nH]6)C=C5)C=C4)cc2)c(F)c1F
REMARK SMILES IDX 18 1 17 2 16 3 14 4 15 5 13 7 10 8 11 9 80 10 12 11 78 12
REMARK SMILES IDX 81 13 79 14 9 15 8 17 7 18 1 19 2 20 3 21 4 22 6 23 5 24
REMARK SMILES IDX 19 25 20 26 21 27 22 28 23 30 24 31 25 32 77 33 26 34 76 35
REMARK SMILES IDX 27 36 28 37 29 38 70 39 30 40 75 41 69 42 71 43 31 44 74 45
REMARK SMILES IDX 68 46 67 47 32 49 58 50 41 51 57 52 42 53 45 54 56 55 72 56
REMARK SMILES IDX 43 57 44 58 55 60 73 61 46 62 33 63 34 64 39 65 35 66 36 67
REMARK SMILES IDX 38 68 40 69 37 70 59 71 60 72 65 73 61 74 62 75 64 76 66 77
REMARK SMILES IDX 63 78 47 79 48 80 53 81 49 82 50 83 52 84 54 85 51 86
REMARK H PARENT 16 6 9 16 21 29 71 48 45 59
REMARK Flexibility Score: inf
ROOT
ATOM      1  C   UNL A   1      36.346  21.453  24.637  1.00  0.00     0.023 C 
ENDROOT
BRANCH   1   2
ATOM      2  C   UNL A   1      35.348  21.317  25.786  1.00  0.00     0.116 C 
BRANCH   2   3
ATOM      3  N   UNL A   1      34.338  20.287  25.579  1.00  0.00    -0.352 N 
ATOM      4  C   UNL A   1      32.970  20.339  25.435  1.00  0.00     0.254 C 
ATOM      5  O   UNL A   1      32.359  19.282  25.297  1.00  0.00    -0.269 OA
ATOM      6  H   UNL A   1      34.707  19.375  25.535  1.00  0.00     0.163 HD
BRANCH   4   7
ATOM      7  C   UNL A   1      32.231  21.619  25.422  1.00  0.00     0.078 A 
ATOM      8  C   UNL A   1      30.798  24.066  25.382  1.00  0.00     0.074 A 
ATOM      9  C   UNL A   1      31.273  23.525  26.576  1.00  0.00     0.030 A 
ATOM     10  C   UNL A   1      31.079  23.357  24.201  1.00  0.00     0.182 A 
ATOM     11  C   UNL A   1      32.031  22.353  26.591  1.00  0.00     0.019 A 
ATOM     12  C   UNL A   1      31.777  22.149  24.215  1.00  0.00     0.173 A 
ATOM     13  F   UNL A   1      30.669  23.862  23.023  1.00  0.00    -0.201 F 
ATOM     14  F   UNL A   1      31.991  21.515  23.052  1.00  0.00    -0.203 F 
BRANCH   8  15
ATOM     15  N   UNL A   1      30.107  25.261  25.322  1.00  0.00    -0.379 N 
ATOM     16  H   UNL A   1      29.209  25.282  25.723  1.00  0.00     0.161 HD
BRANCH  15  17
ATOM     17  C   UNL A   1      30.592  26.490  24.718  1.00  0.00     0.149 C 
BRANCH  17  18
ATOM     18  C   UNL A   1      31.682  27.109  25.567  1.00  0.00    -0.026 A 
ATOM     19  C   UNL A   1      33.597  26.191  24.112  1.00  0.00     0.044 C 
ATOM     20  C   UNL A   1      33.054  26.991  25.266  1.00  0.00    -0.046 A 
ATOM     21  C   UNL A   1      33.992  27.629  26.098  1.00  0.00     0.004 A 
ATOM     22  C   UNL A   1      33.589  28.407  27.183  1.00  0.00     0.000 A 
ATOM     23  C   UNL A   1      31.296  27.924  26.654  1.00  0.00     0.006 A 
ATOM     24  C   UNL A   1      32.238  28.563  27.458  1.00  0.00     0.000 A 
ENDBRANCH  17  18
ENDBRANCH  15  17
ENDBRANCH   8  15
ENDBRANCH   4   7
ENDBRANCH   2   3
ENDBRANCH   1   2
BRANCH   1  25
ATOM     25  C   UNL A   1      37.822  21.386  25.019  1.00  0.00     0.023 C 
BRANCH  25  26
ATOM     26  C   UNL A   1      38.317  22.555  25.858  1.00  0.00     0.116 C 
BRANCH  26  27
ATOM     27  N   UNL A   1      39.722  22.501  26.227  1.00  0.00    -0.352 N 
ATOM     28  C   UNL A   1      40.591  23.509  26.623  1.00  0.00     0.251 C 
ATOM     29  H   UNL A   1      40.123  21.603  26.190  1.00  0.00     0.163 HD
ATOM     30  O   UNL A   1      41.763  23.248  26.774  1.00  0.00    -0.269 OA
BRANCH  28  31
ATOM     31  C   UNL A   1      40.077  24.861  27.013  1.00  0.00     0.039 A 
ATOM     32  C   UNL A   1      40.502  25.959  26.246  1.00  0.00     0.014 A 
ATOM     33  C   UNL A   1      39.378  25.091  28.190  1.00  0.00     0.014 A 
ATOM     34  C   UNL A   1      40.471  27.241  26.794  1.00  0.00     0.010 A 
ATOM     35  C   UNL A   1      39.445  26.332  28.784  1.00  0.00     0.010 A 
ATOM     36  C   UNL A   1      40.059  27.389  28.112  1.00  0.00    -0.014 A 
BRANCH  36  37
ATOM     37  C   UNL A   1      40.330  28.563  28.927  1.00  0.00     0.031 A 
ATOM     38  C   UNL A   1      39.284  29.578  29.145  1.00  0.00     0.074 A 
ATOM     39  C   UNL A   1      41.496  28.606  29.609  1.00  0.00     0.049 A 
ATOM     40  N   UNL A   1      39.504  30.774  29.567  1.00  0.00    -0.248 NA
ATOM     41  C   UNL A   1      37.878  29.319  28.863  1.00  0.00     0.031 C 
ATOM     42  C   UNL A   1      41.854  29.484  30.718  1.00  0.00     0.029 A 
ATOM     43  N   UNL A   1      42.693  27.954  29.280  1.00  0.00    -0.354 N 
ATOM     44  C   UNL A   1      38.289  31.350  29.866  1.00  0.00     0.074 A 
ATOM     45  C   UNL A   1      37.307  30.421  29.357  1.00  0.00     0.031 C 
ATOM     46  C   UNL A   1      43.193  29.547  30.801  1.00  0.00     0.029 A 
ATOM     47  C   UNL A   1      43.727  28.840  29.650  1.00  0.00     0.049 A 
ATOM     48  H   UNL A   1      42.791  27.063  28.874  1.00  0.00     0.167 HD
ATOM     49  C   UNL A   1      38.264  32.487  30.622  1.00  0.00     0.037 A 
ATOM     50  C   UNL A   1      44.536  29.397  28.702  1.00  0.00     0.037 A 
ATOM     51  C   UNL A   1      39.623  32.959  30.886  1.00  0.00     0.049 A 
ATOM     52  C   UNL A   1      44.446  30.906  28.639  1.00  0.00     0.074 A 
ATOM     53  C   UNL A   1      40.481  32.791  31.962  1.00  0.00     0.029 A 
ATOM     54  N   UNL A   1      40.400  33.429  29.834  1.00  0.00    -0.354 N 
ATOM     55  N   UNL A   1      43.463  31.601  29.141  1.00  0.00    -0.248 NA
ATOM     56  C   UNL A   1      45.448  31.748  27.988  1.00  0.00     0.031 C 
ATOM     57  C   UNL A   1      41.798  33.081  31.522  1.00  0.00     0.029 A 
ATOM     58  C   UNL A   1      41.735  33.456  30.191  1.00  0.00     0.049 A 
ATOM     59  H   UNL A   1      40.049  33.703  28.956  1.00  0.00     0.167 HD
ATOM     60  C   UNL A   1      43.657  32.930  28.875  1.00  0.00     0.074 A 
ATOM     61  C   UNL A   1      44.927  32.974  28.172  1.00  0.00     0.031 C 
ATOM     62  C   UNL A   1      42.750  33.883  29.239  1.00  0.00     0.037 A 
BRANCH  49  63
ATOM     63  C   UNL A   1      37.041  32.997  31.359  1.00  0.00     0.057 A 
ATOM     64  C   UNL A   1      36.826  32.667  32.713  1.00  0.00     0.134 A 
ATOM     65  C   UNL A   1      36.011  33.764  30.788  1.00  0.00     0.134 A 
ATOM     66  F   UNL A   1      37.757  32.038  33.443  1.00  0.00    -0.206 F 
ATOM     67  C   UNL A   1      35.638  32.964  33.397  1.00  0.00     0.040 A 
ATOM     68  C   UNL A   1      34.794  34.023  31.440  1.00  0.00     0.040 A 
ATOM     69  F   UNL A   1      36.152  34.357  29.599  1.00  0.00    -0.206 F 
ATOM     70  C   UNL A   1      34.598  33.609  32.748  1.00  0.00     0.006 A 
ENDBRANCH  49  63
BRANCH  50  71
ATOM     71  C   UNL A   1      44.770  28.500  27.536  1.00  0.00     0.057 A 
ATOM     72  C   UNL A   1      45.648  27.413  27.696  1.00  0.00     0.134 A 
ATOM     73  C   UNL A   1      43.888  28.450  26.454  1.00  0.00     0.134 A 
ATOM     74  F   UNL A   1      46.522  27.396  28.717  1.00  0.00    -0.206 F 
ATOM     75  C   UNL A   1      45.568  26.272  26.893  1.00  0.00     0.040 A 
ATOM     76  C   UNL A   1      43.809  27.317  25.632  1.00  0.00     0.040 A 
ATOM     77  F   UNL A   1      43.004  29.436  26.246  1.00  0.00    -0.206 F 
ATOM     78  C   UNL A   1      44.619  26.209  25.878  1.00  0.00     0.006 A 
ENDBRANCH  50  71
BRANCH  62  79
ATOM     79  C   UNL A   1      42.762  35.323  28.792  1.00  0.00     0.057 A 
ATOM     80  C   UNL A   1      43.110  36.399  29.620  1.00  0.00     0.134 A 
ATOM     81  C   UNL A   1      42.570  35.648  27.431  1.00  0.00     0.134 A 
ATOM     82  F   UNL A   1      43.423  36.218  30.911  1.00  0.00    -0.206 F 
ATOM     83  C   UNL A   1      43.211  37.712  29.142  1.00  0.00     0.040 A 
ATOM     84  C   UNL A   1      42.722  36.945  26.932  1.00  0.00     0.040 A 
ATOM     85  F   UNL A   1      42.252  34.714  26.522  1.00  0.00    -0.206 F 
ATOM     86  C   UNL A   1      43.030  37.987  27.791  1.00  0.00     0.006 A 
ENDBRANCH  62  79
ENDBRANCH  36  37
ENDBRANCH  28  31
ENDBRANCH  26  27
ENDBRANCH  25  26
ENDBRANCH   1  25
TORSDOF 14
ENDMDL
MODEL 2
REMARK VINA RESULT:     -12.5      1.216      2.133
REMARK SMILES Cc1ccccc1CNc1ccc(C(=O)NCCCCNC(=O)c2ccc(-c3c4nc(c(-c5c(F)cccc5F)c5ccc([nH]5)c(-c5c(F)cccc5F)c5nc(c(-c6c(F)cccc6F)c6ccc3[nH]6)C=C5)C=C4)cc2)c(F)c1F
REMARK SMILES IDX 18 1 17 2 16 3 14 4 15 5 13 7 10 8 11 9 80 10 12 11 78 12
REMARK SMILES IDX 81 13 79 14 9 15 8 17 7 18 1 19 2 20 3 21 4 22 6 23 5 24
REMARK SMILES IDX 19 25 20 26 21 27 22 28 23 30 24 31 25 32 77 33 26 34 76 35
REMARK SMILES IDX 27 36 28 37 29 38 70 39 30 40 75 41 69 42 71 43 31 44 74 45
REMARK SMILES IDX 68 46 67 47 32 49 58 50 41 51 57 52 42 53 45 54 56 55 72 56
REMARK SMILES IDX 43 57 44 58 55 60 73 61 46 62 33 63 34 64 39 65 35 66 36 67
REMARK SMILES IDX 38 68 40 69 37 70 59 71 60 72 65 73 61 74 62 75 64 76 66 77
REMARK SMILES IDX 63 78 47 79 48 80 53 81 49 82 50 83 52 84 54 85 51 86
REMARK H PARENT 16 6 9 16 21 29 71 48 45 59
REMARK Flexibility Score: inf
ROOT
ATOM      1  C   UNL A   1      37.393  21.230  24.653  1.00  0.00     0.023 C 
ENDROOT
BRANCH   1   2
ATOM      2  C   UNL A   1      35.989  21.321  25.250  1.00  0.00     0.116 C 
BRANCH   2   3
ATOM      3  N   UNL A   1      35.168  20.138  25.022  1.00  0.00    -0.352 N 
ATOM      4  C   UNL A   1      33.828  19.972  24.754  1.00  0.00     0.254 C 
ATOM      5  O   UNL A   1      33.396  18.829  24.631  1.00  0.00    -0.269 OA
ATOM      6  H   UNL A   1      35.670  19.293  25.069  1.00  0.00     0.163 HD
BRANCH   4   7
ATOM      7  C   UNL A   1      32.911  21.121  24.594  1.00  0.00     0.078 A 
ATOM      8  C   UNL A   1      31.164  23.336  24.304  1.00  0.00     0.074 A 
ATOM      9  C   UNL A   1      31.627  22.629  23.194  1.00  0.00     0.030 A 
ATOM     10  C   UNL A   1      31.585  22.890  25.569  1.00  0.00     0.182 A 
ATOM     11  C   UNL A   1      32.437  21.502  23.339  1.00  0.00     0.019 A 
ATOM     12  C   UNL A   1      32.450  21.806  25.717  1.00  0.00     0.173 A 
ATOM     13  F   UNL A   1      31.134  23.523  26.667  1.00  0.00    -0.201 F 
ATOM     14  F   UNL A   1      32.827  21.447  26.955  1.00  0.00    -0.203 F 
BRANCH   8  15
ATOM     15  N   UNL A   1      30.304  24.413  24.202  1.00  0.00    -0.379 N 
ATOM     16  H   UNL A   1      29.357  24.255  24.416  1.00  0.00     0.161 HD
BRANCH  15  17
ATOM     17  C   UNL A   1      30.678  25.759  23.806  1.00  0.00     0.149 C 
BRANCH  17  18
ATOM     18  C   UNL A   1      31.566  26.398  24.853  1.00  0.00    -0.026 A 
ATOM     19  C   UNL A   1      33.745  25.916  23.571  1.00  0.00     0.044 C 
ATOM     20  C   UNL A   1      32.967  26.491  24.724  1.00  0.00    -0.046 A 
ATOM     21  C   UNL A   1      33.704  27.131  25.738  1.00  0.00     0.004 A 
ATOM     22  C   UNL A   1      33.073  27.710  26.838  1.00  0.00     0.000 A 
ATOM     23  C   UNL A   1      30.947  27.016  25.963  1.00  0.00     0.006 A 
ATOM     24  C   UNL A   1      31.692  27.660  26.948  1.00  0.00     0.000 A 
ENDBRANCH  17  18
ENDBRANCH  15  17
ENDBRANCH   8  15
ENDBRANCH   4   7
ENDBRANCH   2   3
ENDBRANCH   1   2
BRANCH   1  25
ATOM     25  C   UNL A   1      38.549  21.272  25.648  1.00  0.00     0.023 C 
BRANCH  25  26
ATOM     26  C   UNL A   1      38.938  22.666  26.115  1.00  0.00     0.116 C 
BRANCH  26  27
ATOM     27  N   UNL A   1      40.297  22.795  26.616  1.00  0.00    -0.352 N 
ATOM     28  C   UNL A   1      41.005  23.916  27.029  1.00  0.00     0.251 C 
ATOM     29  H   UNL A   1      40.797  21.949  26.671  1.00  0.00     0.163 HD
ATOM     30  O   UNL A   1      42.177  23.801  27.304  1.00  0.00    -0.269 OA
BRANCH  28  31
ATOM     31  C   UNL A   1      40.308  25.217  27.286  1.00  0.00     0.039 A 
ATOM     32  C   UNL A   1      40.662  26.310  26.479  1.00  0.00     0.014 A 
ATOM     33  C   UNL A   1      39.494  25.430  28.391  1.00  0.00     0.014 A 
ATOM     34  C   UNL A   1      40.439  27.610  26.933  1.00  0.00     0.010 A 
ATOM     35  C   UNL A   1      39.369  26.704  28.901  1.00  0.00     0.010 A 
ATOM     36  C   UNL A   1      39.908  27.785  28.205  1.00  0.00    -0.014 A 
BRANCH  36  37
ATOM     37  C   UNL A   1      39.974  29.030  28.954  1.00  0.00     0.031 A 
ATOM     38  C   UNL A   1      38.926  30.054  28.794  1.00  0.00     0.074 A 
ATOM     39  C   UNL A   1      40.918  29.142  29.914  1.00  0.00     0.049 A 
ATOM     40  N   UNL A   1      39.048  31.285  29.152  1.00  0.00    -0.248 NA
ATOM     41  C   UNL A   1      37.641  29.762  28.172  1.00  0.00     0.031 C 
ATOM     42  C   UNL A   1      40.985  30.119  30.996  1.00  0.00     0.029 A 
ATOM     43  N   UNL A   1      42.147  28.471  29.975  1.00  0.00    -0.354 N 
ATOM     44  C   UNL A   1      37.808  31.878  29.063  1.00  0.00     0.074 A 
ATOM     45  C   UNL A   1      36.979  30.901  28.396  1.00  0.00     0.031 C 
ATOM     46  C   UNL A   1      42.255  30.198  31.426  1.00  0.00     0.029 A 
ATOM     47  C   UNL A   1      43.062  29.392  30.526  1.00  0.00     0.049 A 
ATOM     48  H   UNL A   1      42.333  27.547  29.691  1.00  0.00     0.167 HD
ATOM     49  C   UNL A   1      37.604  33.078  29.681  1.00  0.00     0.037 A 
ATOM     50  C   UNL A   1      44.103  29.867  29.781  1.00  0.00     0.037 A 
ATOM     51  C   UNL A   1      38.853  33.581  30.254  1.00  0.00     0.049 A 
ATOM     52  C   UNL A   1      44.061  31.362  29.562  1.00  0.00     0.074 A 
ATOM     53  C   UNL A   1      39.392  33.517  31.530  1.00  0.00     0.029 A 
ATOM     54  N   UNL A   1      39.889  33.958  29.408  1.00  0.00    -0.354 N 
ATOM     55  N   UNL A   1      42.993  32.094  29.721  1.00  0.00    -0.248 NA
ATOM     56  C   UNL A   1      45.215  32.148  29.129  1.00  0.00     0.031 C 
ATOM     57  C   UNL A   1      40.783  33.774  31.431  1.00  0.00     0.029 A 
ATOM     58  C   UNL A   1      41.082  34.026  30.103  1.00  0.00     0.049 A 
ATOM     59  H   UNL A   1      39.789  34.149  28.448  1.00  0.00     0.167 HD
ATOM     60  C   UNL A   1      43.275  33.394  29.398  1.00  0.00     0.074 A 
ATOM     61  C   UNL A   1      44.686  33.383  29.058  1.00  0.00     0.031 C 
ATOM     62  C   UNL A   1      42.321  34.371  29.422  1.00  0.00     0.037 A 
BRANCH  49  63
ATOM     63  C   UNL A   1      36.239  33.646  30.018  1.00  0.00     0.057 A 
ATOM     64  C   UNL A   1      35.383  34.114  29.000  1.00  0.00     0.134 A 
ATOM     65  C   UNL A   1      35.729  33.817  31.316  1.00  0.00     0.134 A 
ATOM     66  F   UNL A   1      35.660  33.928  27.703  1.00  0.00    -0.206 F 
ATOM     67  C   UNL A   1      34.188  34.802  29.258  1.00  0.00     0.040 A 
ATOM     68  C   UNL A   1      34.564  34.550  31.593  1.00  0.00     0.040 A 
ATOM     69  F   UNL A   1      36.293  33.230  32.377  1.00  0.00    -0.206 F 
ATOM     70  C   UNL A   1      33.793  35.059  30.561  1.00  0.00     0.006 A 
ENDBRANCH  49  63
BRANCH  50  71
ATOM     71  C   UNL A   1      44.622  28.869  28.805  1.00  0.00     0.057 A 
ATOM     72  C   UNL A   1      44.202  28.964  27.466  1.00  0.00     0.134 A 
ATOM     73  C   UNL A   1      45.773  28.118  29.058  1.00  0.00     0.134 A 
ATOM     74  F   UNL A   1      43.104  29.671  27.152  1.00  0.00    -0.206 F 
ATOM     75  C   UNL A   1      44.959  28.441  26.413  1.00  0.00     0.040 A 
ATOM     76  C   UNL A   1      46.533  27.577  28.011  1.00  0.00     0.040 A 
ATOM     77  F   UNL A   1      46.251  27.998  30.304  1.00  0.00    -0.206 F 
ATOM     78  C   UNL A   1      46.150  27.776  26.685  1.00  0.00     0.006 A 
ENDBRANCH  50  71
BRANCH  62  79
ATOM     79  C   UNL A   1      42.477  35.764  28.868  1.00  0.00     0.057 A 
ATOM     80  C   UNL A   1      41.910  36.198  27.661  1.00  0.00     0.134 A 
ATOM     81  C   UNL A   1      43.090  36.775  29.642  1.00  0.00     0.134 A 
ATOM     82  F   UNL A   1      41.207  35.367  26.879  1.00  0.00    -0.206 F 
ATOM     83  C   UNL A   1      41.988  37.529  27.231  1.00  0.00     0.040 A 
ATOM     84  C   UNL A   1      43.126  38.116  29.248  1.00  0.00     0.040 A 
ATOM     85  F   UNL A   1      43.656  36.507  30.828  1.00  0.00    -0.206 F 
ATOM     86  C   UNL A   1      42.585  38.496  28.031  1.00  0.00     0.006 A 
ENDBRANCH  62  79
ENDBRANCH  36  37
ENDBRANCH  28  31
ENDBRANCH  26  27
ENDBRANCH  25  26
ENDBRANCH   1  25
TORSDOF 14
ENDMDL
MODEL 3
REMARK VINA RESULT:     -12.5      3.607      8.679
REMARK SMILES Cc1ccccc1CNc1ccc(C(=O)NCCCCNC(=O)c2ccc(-c3c4nc(c(-c5c(F)cccc5F)c5ccc([nH]5)c(-c5c(F)cccc5F)c5nc(c(-c6c(F)cccc6F)c6ccc3[nH]6)C=C5)C=C4)cc2)c(F)c1F
REMARK SMILES IDX 18 1 17 2 16 3 14 4 15 5 13 7 10 8 11 9 80 10 12 11 78 12
REMARK SMILES IDX 81 13 79 14 9 15 8 17 7 18 1 19 2 20 3 21 4 22 6 23 5 24
REMARK SMILES IDX 19 25 20 26 21 27 22 28 23 30 24 31 25 32 77 33 26 34 76 35
REMARK SMILES IDX 27 36 28 37 29 38 70 39 30 40 75 41 69 42 71 43 31 44 74 45
REMARK SMILES IDX 68 46 67 47 32 49 58 50 41 51 57 52 42 53 45 54 56 55 72 56
REMARK SMILES IDX 43 57 44 58 55 60 73 61 46 62 33 63 34 64 39 65 35 66 36 67
REMARK SMILES IDX 38 68 40 69 37 70 59 71 60 72 65 73 61 74 62 75 64 76 66 77
REMARK SMILES IDX 63 78 47 79 48 80 53 81 49 82 50 83 52 84 54 85 51 86
REMARK H PARENT 16 6 9 16 21 29 71 48 45 59
REMARK Flexibility Score: inf
ROOT
ATOM      1  C   UNL A   1      32.941  28.822  25.539  1.00  0.00     0.023 C 
ENDROOT
BRANCH   1   2
ATOM      2  C   UNL A   1      31.414  28.809  25.478  1.00  0.00     0.116 C 
BRANCH   2   3
ATOM      3  N   UNL A   1      30.866  29.211  24.188  1.00  0.00    -0.352 N 
ATOM      4  C   UNL A   1      30.821  28.589  22.961  1.00  0.00     0.254 C 
ATOM      5  O   UNL A   1      30.307  29.192  22.022  1.00  0.00    -0.269 OA
ATOM      6  H   UNL A   1      30.447  30.102  24.196  1.00  0.00     0.163 HD
BRANCH   4   7
ATOM      7  C   UNL A   1      31.352  27.225  22.752  1.00  0.00     0.078 A 
ATOM      8  C   UNL A   1      32.348  24.601  22.347  1.00  0.00     0.074 A 
ATOM      9  C   UNL A   1      33.103  25.723  22.004  1.00  0.00     0.030 A 
ATOM     10  C   UNL A   1      31.085  24.829  22.919  1.00  0.00     0.182 A 
ATOM     11  C   UNL A   1      32.640  27.014  22.260  1.00  0.00     0.019 A 
ATOM     12  C   UNL A   1      30.586  26.118  23.115  1.00  0.00     0.173 A 
ATOM     13  F   UNL A   1      30.339  23.775  23.296  1.00  0.00    -0.201 F 
ATOM     14  F   UNL A   1      29.363  26.261  23.647  1.00  0.00    -0.203 F 
BRANCH   8  15
ATOM     15  N   UNL A   1      32.805  23.309  22.174  1.00  0.00    -0.379 N 
ATOM     16  H   UNL A   1      32.850  22.966  21.253  1.00  0.00     0.161 HD
BRANCH  15  17
ATOM     17  C   UNL A   1      33.225  22.411  23.236  1.00  0.00     0.149 C 
BRANCH  17  18
ATOM     18  C   UNL A   1      34.490  22.918  23.897  1.00  0.00    -0.026 A 
ATOM     19  C   UNL A   1      33.252  23.947  25.906  1.00  0.00     0.044 C 
ATOM     20  C   UNL A   1      34.495  23.596  25.133  1.00  0.00    -0.046 A 
ATOM     21  C   UNL A   1      35.725  24.002  25.682  1.00  0.00     0.004 A 
ATOM     22  C   UNL A   1      36.934  23.709  25.051  1.00  0.00     0.000 A 
ATOM     23  C   UNL A   1      35.727  22.609  23.289  1.00  0.00     0.006 A 
ATOM     24  C   UNL A   1      36.936  23.005  23.856  1.00  0.00     0.000 A 
ENDBRANCH  17  18
ENDBRANCH  15  17
ENDBRANCH   8  15
ENDBRANCH   4   7
ENDBRANCH   2   3
ENDBRANCH   1   2
BRANCH   1  25
ATOM     25  C   UNL A   1      33.577  30.076  26.131  1.00  0.00     0.023 C 
BRANCH  25  26
ATOM     26  C   UNL A   1      33.137  30.406  27.550  1.00  0.00     0.116 C 
BRANCH  26  27
ATOM     27  N   UNL A   1      33.852  31.503  28.181  1.00  0.00    -0.352 N 
ATOM     28  C   UNL A   1      35.080  31.527  28.829  1.00  0.00     0.251 C 
ATOM     29  H   UNL A   1      33.389  32.371  28.144  1.00  0.00     0.163 HD
ATOM     30  O   UNL A   1      35.431  32.543  29.385  1.00  0.00    -0.269 OA
BRANCH  28  31
ATOM     31  C   UNL A   1      36.034  30.378  28.715  1.00  0.00     0.039 A 
ATOM     32  C   UNL A   1      36.348  29.680  29.893  1.00  0.00     0.014 A 
ATOM     33  C   UNL A   1      36.755  30.108  27.560  1.00  0.00     0.014 A 
ATOM     34  C   UNL A   1      37.532  28.947  29.972  1.00  0.00     0.010 A 
ATOM     35  C   UNL A   1      37.979  29.483  27.658  1.00  0.00     0.010 A 
ATOM     36  C   UNL A   1      38.397  28.967  28.885  1.00  0.00    -0.014 A 
BRANCH  36  37
ATOM     37  C   UNL A   1      39.800  28.589  28.949  1.00  0.00     0.031 A 
ATOM     38  C   UNL A   1      40.237  27.259  28.487  1.00  0.00     0.074 A 
ATOM     39  C   UNL A   1      40.699  29.542  29.278  1.00  0.00     0.049 A 
ATOM     40  N   UNL A   1      41.366  26.717  28.786  1.00  0.00    -0.248 NA
ATOM     41  C   UNL A   1      39.393  26.408  27.658  1.00  0.00     0.031 C 
ATOM     42  C   UNL A   1      42.146  29.511  29.097  1.00  0.00     0.029 A 
ATOM     43  N   UNL A   1      40.469  30.694  30.044  1.00  0.00    -0.354 N 
ATOM     44  C   UNL A   1      41.520  25.596  28.000  1.00  0.00     0.074 A 
ATOM     45  C   UNL A   1      40.239  25.419  27.357  1.00  0.00     0.031 C 
ATOM     46  C   UNL A   1      42.705  30.392  29.943  1.00  0.00     0.029 A 
ATOM     47  C   UNL A   1      41.644  30.896  30.798  1.00  0.00     0.049 A 
ATOM     48  H   UNL A   1      39.655  31.248  30.053  1.00  0.00     0.167 HD
ATOM     49  C   UNL A   1      42.757  25.028  27.896  1.00  0.00     0.037 A 
ATOM     50  C   UNL A   1      41.623  30.782  32.159  1.00  0.00     0.037 A 
ATOM     51  C   UNL A   1      43.708  25.697  28.784  1.00  0.00     0.049 A 
ATOM     52  C   UNL A   1      42.509  29.677  32.689  1.00  0.00     0.074 A 
ATOM     53  C   UNL A   1      44.638  26.703  28.573  1.00  0.00     0.029 A 
ATOM     54  N   UNL A   1      43.548  25.592  30.161  1.00  0.00    -0.354 N 
ATOM     55  N   UNL A   1      42.960  28.691  31.964  1.00  0.00    -0.248 NA
ATOM     56  C   UNL A   1      42.942  29.587  34.082  1.00  0.00     0.031 C 
ATOM     57  C   UNL A   1      44.972  27.262  29.833  1.00  0.00     0.029 A 
ATOM     58  C   UNL A   1      44.271  26.575  30.809  1.00  0.00     0.049 A 
ATOM     59  H   UNL A   1      42.996  24.912  30.611  1.00  0.00     0.167 HD
ATOM     60  C   UNL A   1      43.690  27.839  32.750  1.00  0.00     0.074 A 
ATOM     61  C   UNL A   1      43.670  28.457  34.064  1.00  0.00     0.031 C 
ATOM     62  C   UNL A   1      44.236  26.688  32.260  1.00  0.00     0.037 A 
BRANCH  49  63
ATOM     63  C   UNL A   1      43.170  24.075  26.792  1.00  0.00     0.057 A 
ATOM     64  C   UNL A   1      43.180  22.682  27.009  1.00  0.00     0.134 A 
ATOM     65  C   UNL A   1      43.623  24.456  25.517  1.00  0.00     0.134 A 
ATOM     66  F   UNL A   1      42.677  22.137  28.125  1.00  0.00    -0.206 F 
ATOM     67  C   UNL A   1      43.712  21.764  26.090  1.00  0.00     0.040 A 
ATOM     68  C   UNL A   1      44.206  23.559  24.609  1.00  0.00     0.040 A 
ATOM     69  F   UNL A   1      43.464  25.702  25.058  1.00  0.00    -0.206 F 
ATOM     70  C   UNL A   1      44.266  22.205  24.900  1.00  0.00     0.006 A 
ENDBRANCH  49  63
BRANCH  50  71
ATOM     71  C   UNL A   1      40.329  31.209  32.758  1.00  0.00     0.057 A 
ATOM     72  C   UNL A   1      39.406  30.215  33.132  1.00  0.00     0.134 A 
ATOM     73  C   UNL A   1      40.156  32.478  33.317  1.00  0.00     0.134 A 
ATOM     74  F   UNL A   1      39.514  28.972  32.634  1.00  0.00    -0.206 F 
ATOM     75  C   UNL A   1      38.433  30.438  34.111  1.00  0.00     0.040 A 
ATOM     76  C   UNL A   1      39.175  32.717  34.289  1.00  0.00     0.040 A 
ATOM     77  F   UNL A   1      41.006  33.473  33.029  1.00  0.00    -0.206 F 
ATOM     78  C   UNL A   1      38.340  31.685  34.719  1.00  0.00     0.006 A 
ENDBRANCH  50  71
BRANCH  62  79
ATOM     79  C   UNL A   1      44.849  25.586  33.086  1.00  0.00     0.057 A 
ATOM     80  C   UNL A   1      46.205  25.235  33.045  1.00  0.00     0.134 A 
ATOM     81  C   UNL A   1      44.090  24.941  34.089  1.00  0.00     0.134 A 
ATOM     82  F   UNL A   1      47.062  25.845  32.214  1.00  0.00    -0.206 F 
ATOM     83  C   UNL A   1      46.759  24.276  33.903  1.00  0.00     0.040 A 
ATOM     84  C   UNL A   1      44.644  24.023  34.986  1.00  0.00     0.040 A 
ATOM     85  F   UNL A   1      42.784  25.195  34.256  1.00  0.00    -0.206 F 
ATOM     86  C   UNL A   1      45.982  23.677  34.887  1.00  0.00     0.006 A 
ENDBRANCH  62  79
ENDBRANCH  36  37
ENDBRANCH  28  31
ENDBRANCH  26  27
ENDBRANCH  25  26
ENDBRANCH   1  25
TORSDOF 14
ENDMDL
