MODEL 1
REMARK VINA RESULT:     -11.8      0.000      0.000
REMARK SMILES C[C@@H](Oc1ccc(I)cc1)C(=O)NCc1ccc(C(=O)NCCCCNC(=O)c2ccc(-c3c4nc(c(-c5c(F)cccc5F)c5ccc([nH]5)c(-c5c(F)cccc5F)c5nc(c(-c6c(F)cccc6F)c6ccc3[nH]6)C=C5)C=C4)cc2)cc1
REMARK SMILES IDX 22 1 21 2 19 3 20 4 18 6 15 7 16 8 84 9 17 10 83 11 14 12
REMARK SMILES IDX 13 13 11 14 12 15 2 17 1 18 3 19 4 20 5 21 10 22 6 23 9 24
REMARK SMILES IDX 7 25 8 26 23 27 24 28 25 29 26 30 27 31 28 33 29 34 30 35
REMARK SMILES IDX 82 36 31 37 81 38 32 39 33 40 34 41 75 42 35 43 80 44 74 45
REMARK SMILES IDX 76 46 36 47 79 48 73 49 72 50 37 52 63 53 46 54 62 55 47 56
REMARK SMILES IDX 50 57 61 58 77 59 48 60 49 61 60 63 78 64 51 65 38 66 39 67
REMARK SMILES IDX 44 68 40 69 41 70 43 71 45 72 42 73 64 74 65 75 70 76 66 77
REMARK SMILES IDX 67 78 69 79 71 80 68 81 52 82 53 83 58 84 54 85 55 86 57 87
REMARK SMILES IDX 59 88 56 89
REMARK H PARENT 21 5 13 16 26 32 76 51 50 62
REMARK Flexibility Score: inf
ROOT
ATOM      1  C   UNL A   1      36.559  22.071  25.666  1.00  0.00     0.116 C 
ENDROOT
BRANCH   1   2
ATOM      2  N   UNL A   1      35.534  21.408  26.448  1.00  0.00    -0.352 N 
ATOM      3  C   UNL A   1      34.311  21.842  26.894  1.00  0.00     0.251 C 
ATOM      4  O   UNL A   1      33.609  21.045  27.517  1.00  0.00    -0.269 OA
ATOM      5  H   UNL A   1      35.755  20.483  26.704  1.00  0.00     0.163 HD
BRANCH   3   6
ATOM      6  C   UNL A   1      33.784  23.204  26.607  1.00  0.00     0.039 A 
ATOM      7  C   UNL A   1      32.614  25.727  26.083  1.00  0.00    -0.029 A 
ATOM      8  C   UNL A   1      31.884  24.727  26.735  1.00  0.00     0.006 A 
ATOM      9  C   UNL A   1      33.947  25.462  25.740  1.00  0.00     0.006 A 
ATOM     10  C   UNL A   1      32.464  23.479  26.995  1.00  0.00     0.014 A 
ATOM     11  C   UNL A   1      34.531  24.225  26.022  1.00  0.00     0.014 A 
BRANCH   7  12
ATOM     12  C   UNL A   1      32.063  27.089  25.741  1.00  0.00     0.151 C 
BRANCH  12  13
ATOM     13  N   UNL A   1      32.791  27.814  24.722  1.00  0.00    -0.349 N 
ATOM     14  C   UNL A   1      32.402  28.203  23.472  1.00  0.00     0.261 C 
ATOM     15  O   UNL A   1      33.183  28.911  22.828  1.00  0.00    -0.271 OA
ATOM     16  H   UNL A   1      33.710  28.066  24.967  1.00  0.00     0.163 HD
BRANCH  14  17
ATOM     17  C   UNL A   1      31.092  27.695  22.837  1.00  0.00     0.258 C 
ATOM     18  C   UNL A   1      30.366  28.900  22.243  1.00  0.00     0.064 C 
BRANCH  17  19
ATOM     19  O   UNL A   1      31.392  26.666  21.890  1.00  0.00    -0.481 OA
BRANCH  19  20
ATOM     20  C   UNL A   1      31.659  25.436  22.412  1.00  0.00     0.120 A 
ATOM     21  C   UNL A   1      30.680  24.710  23.087  1.00  0.00     0.047 A 
ATOM     22  C   UNL A   1      32.873  24.836  22.084  1.00  0.00     0.047 A 
ATOM     23  C   UNL A   1      30.935  23.398  23.490  1.00  0.00     0.018 A 
ATOM     24  C   UNL A   1      33.127  23.517  22.472  1.00  0.00     0.018 A 
ATOM     25  C   UNL A   1      32.158  22.805  23.180  1.00  0.00     0.013 A 
ATOM     26  I   UNL A   1      32.514  20.836  23.735  1.00  0.00    -0.044 I 
ENDBRANCH  19  20
ENDBRANCH  17  19
ENDBRANCH  14  17
ENDBRANCH  12  13
ENDBRANCH   7  12
ENDBRANCH   3   6
ENDBRANCH   1   2
BRANCH   1  27
ATOM     27  C   UNL A   1      36.995  21.187  24.494  1.00  0.00     0.023 C 
BRANCH  27  28
ATOM     28  C   UNL A   1      37.830  19.969  24.899  1.00  0.00     0.023 C 
BRANCH  28  29
ATOM     29  C   UNL A   1      38.998  20.274  25.828  1.00  0.00     0.116 C 
BRANCH  29  30
ATOM     30  N   UNL A   1      40.034  19.256  25.803  1.00  0.00    -0.352 N 
ATOM     31  C   UNL A   1      41.375  19.384  26.085  1.00  0.00     0.251 C 
ATOM     32  H   UNL A   1      39.737  18.352  25.548  1.00  0.00     0.163 HD
ATOM     33  O   UNL A   1      42.134  18.446  25.910  1.00  0.00    -0.269 OA
BRANCH  31  34
ATOM     34  C   UNL A   1      41.892  20.686  26.557  1.00  0.00     0.039 A 
ATOM     35  C   UNL A   1      42.299  21.623  25.605  1.00  0.00     0.014 A 
ATOM     36  C   UNL A   1      41.955  20.991  27.919  1.00  0.00     0.014 A 
ATOM     37  C   UNL A   1      42.712  22.889  26.019  1.00  0.00     0.010 A 
ATOM     38  C   UNL A   1      42.294  22.277  28.326  1.00  0.00     0.010 A 
ATOM     39  C   UNL A   1      42.680  23.237  27.381  1.00  0.00    -0.014 A 
BRANCH  39  40
ATOM     40  C   UNL A   1      43.035  24.611  27.814  1.00  0.00     0.031 A 
ATOM     41  C   UNL A   1      44.473  25.044  27.879  1.00  0.00     0.074 A 
ATOM     42  C   UNL A   1      42.056  25.458  28.186  1.00  0.00     0.049 A 
ATOM     43  N   UNL A   1      44.969  26.211  28.206  1.00  0.00    -0.248 NA
ATOM     44  C   UNL A   1      45.489  24.029  27.561  1.00  0.00     0.031 C 
ATOM     45  C   UNL A   1      40.629  25.131  28.236  1.00  0.00     0.029 A 
ATOM     46  N   UNL A   1      42.111  26.768  28.587  1.00  0.00    -0.354 N 
ATOM     47  C   UNL A   1      46.348  26.069  28.138  1.00  0.00     0.074 A 
ATOM     48  C   UNL A   1      46.614  24.687  27.800  1.00  0.00     0.031 C 
ATOM     49  C   UNL A   1      39.941  26.223  28.606  1.00  0.00     0.029 A 
ATOM     50  C   UNL A   1      40.877  27.316  28.844  1.00  0.00     0.049 A 
ATOM     51  H   UNL A   1      42.953  27.268  28.684  1.00  0.00     0.167 HD
ATOM     52  C   UNL A   1      47.307  27.009  28.313  1.00  0.00     0.037 A 
ATOM     53  C   UNL A   1      40.540  28.565  29.215  1.00  0.00     0.037 A 
ATOM     54  C   UNL A   1      47.038  28.387  28.632  1.00  0.00     0.049 A 
ATOM     55  C   UNL A   1      41.620  29.598  29.375  1.00  0.00     0.074 A 
ATOM     56  C   UNL A   1      47.934  29.431  28.776  1.00  0.00     0.029 A 
ATOM     57  N   UNL A   1      45.774  28.913  28.856  1.00  0.00    -0.354 N 
ATOM     58  N   UNL A   1      42.915  29.470  29.225  1.00  0.00    -0.248 NA
ATOM     59  C   UNL A   1      41.187  30.954  29.739  1.00  0.00     0.031 C 
ATOM     60  C   UNL A   1      47.217  30.579  29.127  1.00  0.00     0.029 A 
ATOM     61  C   UNL A   1      45.868  30.263  29.152  1.00  0.00     0.049 A 
ATOM     62  H   UNL A   1      44.933  28.401  28.812  1.00  0.00     0.167 HD
ATOM     63  C   UNL A   1      43.450  30.734  29.444  1.00  0.00     0.074 A 
ATOM     64  C   UNL A   1      42.335  31.615  29.720  1.00  0.00     0.031 C 
ATOM     65  C   UNL A   1      44.747  31.128  29.418  1.00  0.00     0.037 A 
BRANCH  52  66
ATOM     66  C   UNL A   1      48.736  26.577  28.152  1.00  0.00     0.057 A 
ATOM     67  C   UNL A   1      49.502  26.139  29.241  1.00  0.00     0.134 A 
ATOM     68  C   UNL A   1      49.347  26.571  26.891  1.00  0.00     0.134 A 
ATOM     69  F   UNL A   1      48.983  26.132  30.478  1.00  0.00    -0.206 F 
ATOM     70  C   UNL A   1      50.829  25.737  29.088  1.00  0.00     0.040 A 
ATOM     71  C   UNL A   1      50.665  26.145  26.720  1.00  0.00     0.040 A 
ATOM     72  F   UNL A   1      48.671  26.974  25.804  1.00  0.00    -0.206 F 
ATOM     73  C   UNL A   1      51.412  25.732  27.822  1.00  0.00     0.006 A 
ENDBRANCH  52  66
BRANCH  53  74
ATOM     74  C   UNL A   1      39.113  28.922  29.409  1.00  0.00     0.057 A 
ATOM     75  C   UNL A   1      38.349  29.443  28.358  1.00  0.00     0.134 A 
ATOM     76  C   UNL A   1      38.478  28.757  30.646  1.00  0.00     0.134 A 
ATOM     77  F   UNL A   1      38.905  29.638  27.152  1.00  0.00    -0.206 F 
ATOM     78  C   UNL A   1      37.014  29.809  28.533  1.00  0.00     0.040 A 
ATOM     79  C   UNL A   1      37.136  29.095  30.830  1.00  0.00     0.040 A 
ATOM     80  F   UNL A   1      39.152  28.252  31.690  1.00  0.00    -0.206 F 
ATOM     81  C   UNL A   1      36.403  29.631  29.773  1.00  0.00     0.006 A 
ENDBRANCH  53  74
BRANCH  65  82
ATOM     82  C   UNL A   1      45.021  32.585  29.656  1.00  0.00     0.057 A 
ATOM     83  C   UNL A   1      45.298  33.091  30.932  1.00  0.00     0.134 A 
ATOM     84  C   UNL A   1      45.018  33.490  28.587  1.00  0.00     0.134 A 
ATOM     85  F   UNL A   1      45.302  32.278  31.999  1.00  0.00    -0.206 F 
ATOM     86  C   UNL A   1      45.528  34.452  31.142  1.00  0.00     0.040 A 
ATOM     87  C   UNL A   1      45.276  34.848  28.780  1.00  0.00     0.040 A 
ATOM     88  F   UNL A   1      44.771  33.070  27.338  1.00  0.00    -0.206 F 
ATOM     89  C   UNL A   1      45.522  35.334  30.063  1.00  0.00     0.006 A 
ENDBRANCH  65  82
ENDBRANCH  39  40
ENDBRANCH  31  34
ENDBRANCH  29  30
ENDBRANCH  28  29
ENDBRANCH  27  28
ENDBRANCH   1  27
TORSDOF 16
ENDMDL
MODEL 2
REMARK VINA RESULT:     -11.6      1.227      2.242
REMARK SMILES C[C@@H](Oc1ccc(I)cc1)C(=O)NCc1ccc(C(=O)NCCCCNC(=O)c2ccc(-c3c4nc(c(-c5c(F)cccc5F)c5ccc([nH]5)c(-c5c(F)cccc5F)c5nc(c(-c6c(F)cccc6F)c6ccc3[nH]6)C=C5)C=C4)cc2)cc1
REMARK SMILES IDX 22 1 21 2 19 3 20 4 18 6 15 7 16 8 84 9 17 10 83 11 14 12
REMARK SMILES IDX 13 13 11 14 12 15 2 17 1 18 3 19 4 20 5 21 10 22 6 23 9 24
REMARK SMILES IDX 7 25 8 26 23 27 24 28 25 29 26 30 27 31 28 33 29 34 30 35
REMARK SMILES IDX 82 36 31 37 81 38 32 39 33 40 34 41 75 42 35 43 80 44 74 45
REMARK SMILES IDX 76 46 36 47 79 48 73 49 72 50 37 52 63 53 46 54 62 55 47 56
REMARK SMILES IDX 50 57 61 58 77 59 48 60 49 61 60 63 78 64 51 65 38 66 39 67
REMARK SMILES IDX 44 68 40 69 41 70 43 71 45 72 42 73 64 74 65 75 70 76 66 77
REMARK SMILES IDX 67 78 69 79 71 80 68 81 52 82 53 83 58 84 54 85 55 86 57 87
REMARK SMILES IDX 59 88 56 89
REMARK H PARENT 21 5 13 16 26 32 76 51 50 62
REMARK Flexibility Score: inf
ROOT
ATOM      1  C   UNL A   1      35.630  20.715  24.965  1.00  0.00     0.116 C 
ENDROOT
BRANCH   1   2
ATOM      2  N   UNL A   1      34.309  20.214  24.643  1.00  0.00    -0.352 N 
ATOM      3  C   UNL A   1      33.225  20.822  24.061  1.00  0.00     0.251 C 
ATOM      4  O   UNL A   1      32.219  20.141  23.863  1.00  0.00    -0.269 OA
ATOM      5  H   UNL A   1      34.164  19.270  24.884  1.00  0.00     0.163 HD
BRANCH   3   6
ATOM      6  C   UNL A   1      33.240  22.242  23.613  1.00  0.00     0.039 A 
ATOM      7  C   UNL A   1      33.112  24.908  22.674  1.00  0.00    -0.029 A 
ATOM      8  C   UNL A   1      31.965  24.105  22.692  1.00  0.00     0.006 A 
ATOM      9  C   UNL A   1      34.307  24.373  23.174  1.00  0.00     0.006 A 
ATOM     10  C   UNL A   1      32.030  22.786  23.159  1.00  0.00     0.014 A 
ATOM     11  C   UNL A   1      34.364  23.065  23.660  1.00  0.00     0.014 A 
BRANCH   7  12
ATOM     12  C   UNL A   1      33.141  26.329  22.168  1.00  0.00     0.151 C 
BRANCH  12  13
ATOM     13  N   UNL A   1      31.853  26.892  21.826  1.00  0.00    -0.349 N 
ATOM     14  C   UNL A   1      31.011  27.673  22.565  1.00  0.00     0.261 C 
ATOM     15  O   UNL A   1      30.005  28.117  22.002  1.00  0.00    -0.271 OA
ATOM     16  H   UNL A   1      31.532  26.678  20.921  1.00  0.00     0.163 HD
BRANCH  14  17
ATOM     17  C   UNL A   1      31.239  27.911  24.071  1.00  0.00     0.258 C 
ATOM     18  C   UNL A   1      31.063  29.403  24.339  1.00  0.00     0.064 C 
BRANCH  17  19
ATOM     19  O   UNL A   1      30.356  27.072  24.822  1.00  0.00    -0.481 OA
BRANCH  19  20
ATOM     20  C   UNL A   1      30.947  26.083  25.548  1.00  0.00     0.120 A 
ATOM     21  C   UNL A   1      30.276  24.894  25.830  1.00  0.00     0.047 A 
ATOM     22  C   UNL A   1      32.306  26.204  25.834  1.00  0.00     0.047 A 
ATOM     23  C   UNL A   1      30.949  23.842  26.455  1.00  0.00     0.018 A 
ATOM     24  C   UNL A   1      32.987  25.147  26.445  1.00  0.00     0.018 A 
ATOM     25  C   UNL A   1      32.303  23.972  26.758  1.00  0.00     0.013 A 
ATOM     26  I   UNL A   1      33.313  22.386  27.640  1.00  0.00    -0.044 I 
ENDBRANCH  19  20
ENDBRANCH  17  19
ENDBRANCH  14  17
ENDBRANCH  12  13
ENDBRANCH   7  12
ENDBRANCH   3   6
ENDBRANCH   1   2
BRANCH   1  27
ATOM     27  C   UNL A   1      36.646  19.570  24.998  1.00  0.00     0.023 C 
BRANCH  27  28
ATOM     28  C   UNL A   1      38.073  19.981  24.624  1.00  0.00     0.023 C 
BRANCH  28  29
ATOM     29  C   UNL A   1      39.046  20.049  25.794  1.00  0.00     0.116 C 
BRANCH  29  30
ATOM     30  N   UNL A   1      40.066  19.015  25.754  1.00  0.00    -0.352 N 
ATOM     31  C   UNL A   1      41.420  19.132  25.970  1.00  0.00     0.251 C 
ATOM     32  H   UNL A   1      39.745  18.109  25.544  1.00  0.00     0.163 HD
ATOM     33  O   UNL A   1      42.157  18.179  25.791  1.00  0.00    -0.269 OA
BRANCH  31  34
ATOM     34  C   UNL A   1      41.977  20.441  26.374  1.00  0.00     0.039 A 
ATOM     35  C   UNL A   1      42.315  21.356  25.374  1.00  0.00     0.014 A 
ATOM     36  C   UNL A   1      42.142  20.775  27.721  1.00  0.00     0.014 A 
ATOM     37  C   UNL A   1      42.763  22.628  25.729  1.00  0.00     0.010 A 
ATOM     38  C   UNL A   1      42.516  22.067  28.073  1.00  0.00     0.010 A 
ATOM     39  C   UNL A   1      42.834  23.005  27.081  1.00  0.00    -0.014 A 
BRANCH  39  40
ATOM     40  C   UNL A   1      43.226  24.386  27.457  1.00  0.00     0.031 A 
ATOM     41  C   UNL A   1      44.662  24.821  27.374  1.00  0.00     0.074 A 
ATOM     42  C   UNL A   1      42.286  25.237  27.910  1.00  0.00     0.049 A 
ATOM     43  N   UNL A   1      45.185  25.994  27.634  1.00  0.00    -0.248 NA
ATOM     44  C   UNL A   1      45.645  23.803  26.973  1.00  0.00     0.031 C 
ATOM     45  C   UNL A   1      40.871  24.909  28.105  1.00  0.00     0.029 A 
ATOM     46  N   UNL A   1      42.376  26.553  28.285  1.00  0.00    -0.354 N 
ATOM     47  C   UNL A   1      46.551  25.852  27.433  1.00  0.00     0.074 A 
ATOM     48  C   UNL A   1      46.786  24.466  27.092  1.00  0.00     0.031 C 
ATOM     49  C   UNL A   1      40.220  26.005  28.524  1.00  0.00     0.029 A 
ATOM     50  C   UNL A   1      41.172  27.104  28.653  1.00  0.00     0.049 A 
ATOM     51  H   UNL A   1      43.222  27.056  28.291  1.00  0.00     0.167 HD
ATOM     52  C   UNL A   1      47.519  26.797  27.499  1.00  0.00     0.037 A 
ATOM     53  C   UNL A   1      40.869  28.358  29.036  1.00  0.00     0.037 A 
ATOM     54  C   UNL A   1      47.279  28.179  27.822  1.00  0.00     0.049 A 
ATOM     55  C   UNL A   1      41.956  29.394  29.075  1.00  0.00     0.074 A 
ATOM     56  C   UNL A   1      48.183  29.226  27.862  1.00  0.00     0.029 A 
ATOM     57  N   UNL A   1      46.041  28.707  28.161  1.00  0.00    -0.354 N 
ATOM     58  N   UNL A   1      43.232  29.266  28.800  1.00  0.00    -0.248 NA
ATOM     59  C   UNL A   1      41.557  30.755  29.458  1.00  0.00     0.031 C 
ATOM     60  C   UNL A   1      47.499  30.379  28.265  1.00  0.00     0.029 A 
ATOM     61  C   UNL A   1      46.161  30.061  28.426  1.00  0.00     0.049 A 
ATOM     62  H   UNL A   1      45.202  28.193  28.207  1.00  0.00     0.167 HD
ATOM     63  C   UNL A   1      43.781  30.533  28.947  1.00  0.00     0.074 A 
ATOM     64  C   UNL A   1      42.696  31.417  29.318  1.00  0.00     0.031 C 
ATOM     65  C   UNL A   1      45.069  30.929  28.788  1.00  0.00     0.037 A 
BRANCH  52  66
ATOM     66  C   UNL A   1      48.927  26.364  27.206  1.00  0.00     0.057 A 
ATOM     67  C   UNL A   1      49.444  26.368  25.903  1.00  0.00     0.134 A 
ATOM     68  C   UNL A   1      49.786  25.966  28.239  1.00  0.00     0.134 A 
ATOM     69  F   UNL A   1      48.671  26.725  24.866  1.00  0.00    -0.206 F 
ATOM     70  C   UNL A   1      50.753  25.967  25.634  1.00  0.00     0.040 A 
ATOM     71  C   UNL A   1      51.106  25.590  27.986  1.00  0.00     0.040 A 
ATOM     72  F   UNL A   1      49.359  25.943  29.510  1.00  0.00    -0.206 F 
ATOM     73  C   UNL A   1      51.591  25.583  26.679  1.00  0.00     0.006 A 
ENDBRANCH  52  66
BRANCH  53  74
ATOM     74  C   UNL A   1      39.466  28.715  29.363  1.00  0.00     0.057 A 
ATOM     75  C   UNL A   1      38.595  29.196  28.379  1.00  0.00     0.134 A 
ATOM     76  C   UNL A   1      38.964  28.592  30.664  1.00  0.00     0.134 A 
ATOM     77  F   UNL A   1      39.023  29.351  27.116  1.00  0.00    -0.206 F 
ATOM     78  C   UNL A   1      37.282  29.563  28.678  1.00  0.00     0.040 A 
ATOM     79  C   UNL A   1      37.646  28.931  30.973  1.00  0.00     0.040 A 
ATOM     80  F   UNL A   1      39.745  28.126  31.650  1.00  0.00    -0.206 F 
ATOM     81  C   UNL A   1      36.804  29.426  29.980  1.00  0.00     0.006 A 
ENDBRANCH  53  74
BRANCH  65  82
ATOM     82  C   UNL A   1      45.360  32.389  28.976  1.00  0.00     0.057 A 
ATOM     83  C   UNL A   1      45.181  33.322  27.946  1.00  0.00     0.134 A 
ATOM     84  C   UNL A   1      45.814  32.869  30.211  1.00  0.00     0.134 A 
ATOM     85  F   UNL A   1      44.761  32.925  26.735  1.00  0.00    -0.206 F 
ATOM     86  C   UNL A   1      45.477  34.673  28.127  1.00  0.00     0.040 A 
ATOM     87  C   UNL A   1      46.085  34.223  30.413  1.00  0.00     0.040 A 
ATOM     88  F   UNL A   1      45.996  32.031  31.243  1.00  0.00    -0.206 F 
ATOM     89  C   UNL A   1      45.926  35.128  29.365  1.00  0.00     0.006 A 
ENDBRANCH  65  82
ENDBRANCH  39  40
ENDBRANCH  31  34
ENDBRANCH  29  30
ENDBRANCH  28  29
ENDBRANCH  27  28
ENDBRANCH   1  27
TORSDOF 16
ENDMDL
MODEL 3
REMARK VINA RESULT:     -11.4      1.361      6.286
REMARK SMILES C[C@@H](Oc1ccc(I)cc1)C(=O)NCc1ccc(C(=O)NCCCCNC(=O)c2ccc(-c3c4nc(c(-c5c(F)cccc5F)c5ccc([nH]5)c(-c5c(F)cccc5F)c5nc(c(-c6c(F)cccc6F)c6ccc3[nH]6)C=C5)C=C4)cc2)cc1
REMARK SMILES IDX 22 1 21 2 19 3 20 4 18 6 15 7 16 8 84 9 17 10 83 11 14 12
REMARK SMILES IDX 13 13 11 14 12 15 2 17 1 18 3 19 4 20 5 21 10 22 6 23 9 24
REMARK SMILES IDX 7 25 8 26 23 27 24 28 25 29 26 30 27 31 28 33 29 34 30 35
REMARK SMILES IDX 82 36 31 37 81 38 32 39 33 40 34 41 75 42 35 43 80 44 74 45
REMARK SMILES IDX 76 46 36 47 79 48 73 49 72 50 37 52 63 53 46 54 62 55 47 56
REMARK SMILES IDX 50 57 61 58 77 59 48 60 49 61 60 63 78 64 51 65 38 66 39 67
REMARK SMILES IDX 44 68 40 69 41 70 43 71 45 72 42 73 64 74 65 75 70 76 66 77
REMARK SMILES IDX 67 78 69 79 71 80 68 81 52 82 53 83 58 84 54 85 55 86 57 87
REMARK SMILES IDX 59 88 56 89
REMARK H PARENT 21 5 13 16 26 32 76 51 50 62
REMARK Flexibility Score: inf
ROOT
ATOM      1  C   UNL A   1      35.700  20.734  24.981  1.00  0.00     0.116 C 
ENDROOT
BRANCH   1   2
ATOM      2  N   UNL A   1      34.381  20.207  24.693  1.00  0.00    -0.352 N 
ATOM      3  C   UNL A   1      33.281  20.783  24.107  1.00  0.00     0.251 C 
ATOM      4  O   UNL A   1      32.281  20.084  23.945  1.00  0.00    -0.269 OA
ATOM      5  H   UNL A   1      34.250  19.270  24.965  1.00  0.00     0.163 HD
BRANCH   3   6
ATOM      6  C   UNL A   1      33.272  22.188  23.614  1.00  0.00     0.039 A 
ATOM      7  C   UNL A   1      33.100  24.820  22.589  1.00  0.00    -0.029 A 
ATOM      8  C   UNL A   1      31.969  23.996  22.625  1.00  0.00     0.006 A 
ATOM      9  C   UNL A   1      34.302  24.325  23.115  1.00  0.00     0.006 A 
ATOM     10  C   UNL A   1      32.056  22.694  23.134  1.00  0.00     0.014 A 
ATOM     11  C   UNL A   1      34.380  23.034  23.643  1.00  0.00     0.014 A 
BRANCH   7  12
ATOM     12  C   UNL A   1      33.106  26.225  22.039  1.00  0.00     0.151 C 
BRANCH  12  13
ATOM     13  N   UNL A   1      31.803  26.784  21.754  1.00  0.00    -0.349 N 
ATOM     14  C   UNL A   1      30.998  27.575  22.524  1.00  0.00     0.261 C 
ATOM     15  O   UNL A   1      29.966  28.012  22.006  1.00  0.00    -0.271 OA
ATOM     16  H   UNL A   1      31.438  26.560  20.868  1.00  0.00     0.163 HD
BRANCH  14  17
ATOM     17  C   UNL A   1      31.299  27.829  24.014  1.00  0.00     0.258 C 
ATOM     18  C   UNL A   1      31.210  29.334  24.257  1.00  0.00     0.064 C 
BRANCH  17  19
ATOM     19  O   UNL A   1      30.408  27.052  24.818  1.00  0.00    -0.481 OA
BRANCH  19  20
ATOM     20  C   UNL A   1      30.979  26.050  25.544  1.00  0.00     0.120 A 
ATOM     21  C   UNL A   1      30.276  24.884  25.843  1.00  0.00     0.047 A 
ATOM     22  C   UNL A   1      32.344  26.132  25.810  1.00  0.00     0.047 A 
ATOM     23  C   UNL A   1      30.925  23.816  26.465  1.00  0.00     0.018 A 
ATOM     24  C   UNL A   1      33.002  25.060  26.420  1.00  0.00     0.018 A 
ATOM     25  C   UNL A   1      32.287  23.908  26.751  1.00  0.00     0.013 A 
ATOM     26  I   UNL A   1      33.261  22.298  27.630  1.00  0.00    -0.044 I 
ENDBRANCH  19  20
ENDBRANCH  17  19
ENDBRANCH  14  17
ENDBRANCH  12  13
ENDBRANCH   7  12
ENDBRANCH   3   6
ENDBRANCH   1   2
BRANCH   1  27
ATOM     27  C   UNL A   1      36.736  19.607  25.000  1.00  0.00     0.023 C 
BRANCH  27  28
ATOM     28  C   UNL A   1      38.153  20.046  24.620  1.00  0.00     0.023 C 
BRANCH  28  29
ATOM     29  C   UNL A   1      39.115  20.185  25.792  1.00  0.00     0.116 C 
BRANCH  29  30
ATOM     30  N   UNL A   1      40.085  19.106  25.872  1.00  0.00    -0.352 N 
ATOM     31  C   UNL A   1      41.437  19.180  26.119  1.00  0.00     0.251 C 
ATOM     32  H   UNL A   1      39.726  18.201  25.728  1.00  0.00     0.163 HD
ATOM     33  O   UNL A   1      42.132  18.181  26.044  1.00  0.00    -0.269 OA
BRANCH  31  34
ATOM     34  C   UNL A   1      42.044  20.491  26.429  1.00  0.00     0.039 A 
ATOM     35  C   UNL A   1      42.439  21.308  25.368  1.00  0.00     0.014 A 
ATOM     36  C   UNL A   1      42.202  20.924  27.749  1.00  0.00     0.014 A 
ATOM     37  C   UNL A   1      42.938  22.584  25.630  1.00  0.00     0.010 A 
ATOM     38  C   UNL A   1      42.627  22.223  28.006  1.00  0.00     0.010 A 
ATOM     39  C   UNL A   1      43.003  23.065  26.949  1.00  0.00    -0.014 A 
BRANCH  39  40
ATOM     40  C   UNL A   1      43.449  24.453  27.223  1.00  0.00     0.031 A 
ATOM     41  C   UNL A   1      42.465  25.498  27.666  1.00  0.00     0.074 A 
ATOM     42  C   UNL A   1      44.743  24.777  27.033  1.00  0.00     0.049 A 
ATOM     43  N   UNL A   1      42.679  26.753  27.978  1.00  0.00    -0.248 NA
ATOM     44  C   UNL A   1      41.053  25.093  27.746  1.00  0.00     0.031 C 
ATOM     45  C   UNL A   1      45.778  23.869  26.535  1.00  0.00     0.029 A 
ATOM     46  N   UNL A   1      45.408  25.958  27.241  1.00  0.00    -0.354 N 
ATOM     47  C   UNL A   1      41.433  27.283  28.284  1.00  0.00     0.074 A 
ATOM     48  C   UNL A   1      40.461  26.236  28.061  1.00  0.00     0.031 C 
ATOM     49  C   UNL A   1      46.956  24.514  26.515  1.00  0.00     0.029 A 
ATOM     50  C   UNL A   1      46.754  25.885  26.972  1.00  0.00     0.049 A 
ATOM     51  H   UNL A   1      44.965  26.779  27.553  1.00  0.00     0.167 HD
ATOM     52  C   UNL A   1      41.129  28.523  28.737  1.00  0.00     0.037 A 
ATOM     53  C   UNL A   1      47.718  26.816  27.094  1.00  0.00     0.037 A 
ATOM     54  C   UNL A   1      42.101  29.557  28.975  1.00  0.00     0.049 A 
ATOM     55  C   UNL A   1      47.359  28.175  27.626  1.00  0.00     0.074 A 
ATOM     56  C   UNL A   1      41.903  30.829  29.485  1.00  0.00     0.029 A 
ATOM     57  N   UNL A   1      43.460  29.438  28.717  1.00  0.00    -0.354 N 
ATOM     58  N   UNL A   1      46.189  28.638  27.992  1.00  0.00    -0.248 NA
ATOM     59  C   UNL A   1      48.461  29.136  27.779  1.00  0.00     0.031 C 
ATOM     60  C   UNL A   1      43.135  31.492  29.498  1.00  0.00     0.029 A 
ATOM     61  C   UNL A   1      44.108  30.617  29.044  1.00  0.00     0.049 A 
ATOM     62  H   UNL A   1      43.897  28.633  28.355  1.00  0.00     0.167 HD
ATOM     63  C   UNL A   1      46.417  29.931  28.448  1.00  0.00     0.074 A 
ATOM     64  C   UNL A   1      47.840  30.170  28.327  1.00  0.00     0.031 C 
ATOM     65  C   UNL A   1      45.527  30.837  28.924  1.00  0.00     0.037 A 
BRANCH  52  66
ATOM     66  C   UNL A   1      39.684  28.821  29.015  1.00  0.00     0.057 A 
ATOM     67  C   UNL A   1      39.129  28.660  30.292  1.00  0.00     0.134 A 
ATOM     68  C   UNL A   1      38.842  29.302  28.003  1.00  0.00     0.134 A 
ATOM     69  F   UNL A   1      39.875  28.191  31.303  1.00  0.00    -0.206 F 
ATOM     70  C   UNL A   1      37.785  28.940  30.547  1.00  0.00     0.040 A 
ATOM     71  C   UNL A   1      37.504  29.612  28.252  1.00  0.00     0.040 A 
ATOM     72  F   UNL A   1      39.308  29.484  26.758  1.00  0.00    -0.206 F 
ATOM     73  C   UNL A   1      36.971  29.424  29.525  1.00  0.00     0.006 A 
ENDBRANCH  52  66
BRANCH  53  74
ATOM     74  C   UNL A   1      49.123  26.479  26.756  1.00  0.00     0.057 A 
ATOM     75  C   UNL A   1      49.637  26.724  25.477  1.00  0.00     0.134 A 
ATOM     76  C   UNL A   1      49.983  25.900  27.696  1.00  0.00     0.134 A 
ATOM     77  F   UNL A   1      48.856  27.264  24.528  1.00  0.00    -0.206 F 
ATOM     78  C   UNL A   1      50.948  26.386  25.137  1.00  0.00     0.040 A 
ATOM     79  C   UNL A   1      51.304  25.580  27.378  1.00  0.00     0.040 A 
ATOM     80  F   UNL A   1      49.554  25.651  28.943  1.00  0.00    -0.206 F 
ATOM     81  C   UNL A   1      51.786  25.815  26.093  1.00  0.00     0.006 A 
ENDBRANCH  53  74
BRANCH  65  82
ATOM     82  C   UNL A   1      46.080  32.154  29.387  1.00  0.00     0.057 A 
ATOM     83  C   UNL A   1      46.508  32.359  30.704  1.00  0.00     0.134 A 
ATOM     84  C   UNL A   1      46.196  33.227  28.494  1.00  0.00     0.134 A 
ATOM     85  F   UNL A   1      46.412  31.375  31.611  1.00  0.00    -0.206 F 
ATOM     86  C   UNL A   1      46.999  33.595  31.127  1.00  0.00     0.040 A 
ATOM     87  C   UNL A   1      46.712  34.459  28.898  1.00  0.00     0.040 A 
ATOM     88  F   UNL A   1      45.814  33.095  27.215  1.00  0.00    -0.206 F 
ATOM     89  C   UNL A   1      47.106  34.648  30.221  1.00  0.00     0.006 A 
ENDBRANCH  65  82
ENDBRANCH  39  40
ENDBRANCH  31  34
ENDBRANCH  29  30
ENDBRANCH  28  29
ENDBRANCH  27  28
ENDBRANCH   1  27
TORSDOF 16
ENDMDL
