MODEL 1
REMARK VINA RESULT:     -10.5      0.000      0.000
REMARK SMILES C[C@@H](NS(=O)(=O)c1ccccc1)C(=O)NCCCCNC(=O)c1ccc(-c2c3nc(c(-c4c(F)cccc4F)c4ccc([nH]4)c(-c4c(F)cccc4F)c4nc(c(-c5c(F)cccc5F)c5ccc2[nH]5)C=C4)C=C3)cc1
REMARK SMILES IDX 17 1 16 2 15 3 13 4 14 5 2 7 1 8 3 9 4 11 5 12 6 13 7 14
REMARK SMILES IDX 8 15 12 16 9 17 11 18 10 19 18 20 19 21 20 22 21 23 22 25
REMARK SMILES IDX 23 26 24 27 76 28 25 29 75 30 26 31 27 32 28 33 69 34 29 35
REMARK SMILES IDX 74 36 68 37 70 38 30 39 73 40 67 41 66 42 31 44 57 45 40 46
REMARK SMILES IDX 56 47 41 48 44 49 55 50 71 51 42 52 43 53 54 55 72 56 45 57
REMARK SMILES IDX 32 58 33 59 38 60 34 61 35 62 37 63 39 64 36 65 58 66 59 67
REMARK SMILES IDX 64 68 60 69 61 70 63 71 65 72 62 73 46 74 47 75 52 76 48 77
REMARK SMILES IDX 49 78 51 79 53 80 50 81
REMARK H PARENT 15 6 3 10 20 24 70 43 44 54
REMARK Flexibility Score: inf
ROOT
ATOM      1  C   UNL A   1      33.840  35.653  28.418  1.00  0.00     0.023 C 
ENDROOT
BRANCH   1   2
ATOM      2  C   UNL A   1      33.297  36.679  29.405  1.00  0.00     0.116 C 
BRANCH   2   3
ATOM      3  N   UNL A   1      32.429  36.062  30.397  1.00  0.00    -0.355 N 
ATOM      4  C   UNL A   1      32.622  35.875  31.739  1.00  0.00     0.237 C 
ATOM      5  O   UNL A   1      31.666  35.458  32.396  1.00  0.00    -0.273 OA
ATOM      6  H   UNL A   1      31.571  35.728  30.050  1.00  0.00     0.163 HD
BRANCH   4   7
ATOM      7  C   UNL A   1      33.970  36.160  32.395  1.00  0.00     0.155 C 
ATOM      8  C   UNL A   1      34.107  37.654  32.694  1.00  0.00     0.036 C 
BRANCH   7   9
ATOM      9  N   UNL A   1      34.175  35.345  33.619  1.00  0.00    -0.199 NA
ATOM     10  H   UNL A   1      33.258  35.204  34.040  1.00  0.00     0.142 HD
BRANCH   9  11
ATOM     11  S   UNL A   1      34.898  33.819  33.479  1.00  0.00     0.241 S 
ATOM     12  O   UNL A   1      35.310  33.391  34.800  1.00  0.00    -0.207 OA
ATOM     13  O   UNL A   1      33.955  33.052  32.700  1.00  0.00    -0.207 OA
BRANCH  11  14
ATOM     14  C   UNL A   1      36.354  33.979  32.476  1.00  0.00     0.082 A 
ATOM     15  C   UNL A   1      37.531  34.548  32.950  1.00  0.00     0.022 A 
ATOM     16  C   UNL A   1      36.301  33.507  31.160  1.00  0.00     0.022 A 
ATOM     17  C   UNL A   1      38.672  34.600  32.149  1.00  0.00     0.001 A 
ATOM     18  C   UNL A   1      37.437  33.580  30.347  1.00  0.00     0.001 A 
ATOM     19  C   UNL A   1      38.626  34.113  30.847  1.00  0.00     0.000 A 
ENDBRANCH  11  14
ENDBRANCH   9  11
ENDBRANCH   7   9
ENDBRANCH   4   7
ENDBRANCH   2   3
ENDBRANCH   1   2
BRANCH   1  20
ATOM     20  C   UNL A   1      33.596  34.200  28.832  1.00  0.00     0.023 C 
BRANCH  20  21
ATOM     21  C   UNL A   1      34.556  33.187  28.213  1.00  0.00     0.116 C 
BRANCH  21  22
ATOM     22  N   UNL A   1      33.869  32.002  27.723  1.00  0.00    -0.352 N 
ATOM     23  C   UNL A   1      34.333  30.715  27.589  1.00  0.00     0.251 C 
ATOM     24  H   UNL A   1      32.935  32.142  27.447  1.00  0.00     0.163 HD
ATOM     25  O   UNL A   1      33.681  29.889  26.961  1.00  0.00    -0.269 OA
BRANCH  23  26
ATOM     26  C   UNL A   1      35.630  30.333  28.187  1.00  0.00     0.039 A 
ATOM     27  C   UNL A   1      35.648  29.778  29.469  1.00  0.00     0.014 A 
ATOM     28  C   UNL A   1      36.824  30.525  27.486  1.00  0.00     0.014 A 
ATOM     29  C   UNL A   1      36.858  29.352  30.019  1.00  0.00     0.010 A 
ATOM     30  C   UNL A   1      38.015  30.025  28.001  1.00  0.00     0.010 A 
ATOM     31  C   UNL A   1      38.046  29.435  29.274  1.00  0.00    -0.014 A 
BRANCH  31  32
ATOM     32  C   UNL A   1      39.327  28.907  29.809  1.00  0.00     0.031 A 
ATOM     33  C   UNL A   1      39.977  29.552  31.003  1.00  0.00     0.074 A 
ATOM     34  C   UNL A   1      39.940  27.883  29.181  1.00  0.00     0.049 A 
ATOM     35  N   UNL A   1      41.120  29.274  31.573  1.00  0.00    -0.248 NA
ATOM     36  C   UNL A   1      39.254  30.675  31.621  1.00  0.00     0.031 C 
ATOM     37  C   UNL A   1      39.440  27.201  27.986  1.00  0.00     0.029 A 
ATOM     38  N   UNL A   1      41.123  27.244  29.457  1.00  0.00    -0.354 N 
ATOM     39  C   UNL A   1      41.259  30.189  32.609  1.00  0.00     0.074 A 
ATOM     40  C   UNL A   1      40.113  31.070  32.550  1.00  0.00     0.031 C 
ATOM     41  C   UNL A   1      40.296  26.226  27.645  1.00  0.00     0.029 A 
ATOM     42  C   UNL A   1      41.426  26.240  28.568  1.00  0.00     0.049 A 
ATOM     43  H   UNL A   1      41.700  27.481  30.218  1.00  0.00     0.167 HD
ATOM     44  C   UNL A   1      42.239  30.272  33.541  1.00  0.00     0.037 A 
ATOM     45  C   UNL A   1      42.499  25.429  28.498  1.00  0.00     0.037 A 
ATOM     46  C   UNL A   1      43.372  29.387  33.605  1.00  0.00     0.049 A 
ATOM     47  C   UNL A   1      43.585  25.556  29.531  1.00  0.00     0.074 A 
ATOM     48  C   UNL A   1      44.393  29.360  34.540  1.00  0.00     0.029 A 
ATOM     49  N   UNL A   1      43.638  28.376  32.693  1.00  0.00    -0.354 N 
ATOM     50  N   UNL A   1      43.668  26.383  30.545  1.00  0.00    -0.248 NA
ATOM     51  C   UNL A   1      44.722  24.632  29.414  1.00  0.00     0.031 C 
ATOM     52  C   UNL A   1      45.304  28.369  34.163  1.00  0.00     0.029 A 
ATOM     53  C   UNL A   1      44.821  27.736  33.029  1.00  0.00     0.049 A 
ATOM     54  H   UNL A   1      43.071  28.147  31.922  1.00  0.00     0.167 HD
ATOM     55  C   UNL A   1      44.850  26.061  31.203  1.00  0.00     0.074 A 
ATOM     56  C   UNL A   1      45.440  24.952  30.481  1.00  0.00     0.031 C 
ATOM     57  C   UNL A   1      45.396  26.630  32.305  1.00  0.00     0.037 A 
BRANCH  44  58
ATOM     58  C   UNL A   1      42.123  31.361  34.571  1.00  0.00     0.057 A 
ATOM     59  C   UNL A   1      42.683  32.630  34.373  1.00  0.00     0.134 A 
ATOM     60  C   UNL A   1      41.415  31.150  35.761  1.00  0.00     0.134 A 
ATOM     61  F   UNL A   1      43.383  32.898  33.259  1.00  0.00    -0.206 F 
ATOM     62  C   UNL A   1      42.573  33.638  35.332  1.00  0.00     0.040 A 
ATOM     63  C   UNL A   1      41.270  32.159  36.714  1.00  0.00     0.040 A 
ATOM     64  F   UNL A   1      40.845  29.962  36.015  1.00  0.00    -0.206 F 
ATOM     65  C   UNL A   1      41.857  33.405  36.505  1.00  0.00     0.006 A 
ENDBRANCH  44  58
BRANCH  45  66
ATOM     66  C   UNL A   1      42.594  24.414  27.416  1.00  0.00     0.057 A 
ATOM     67  C   UNL A   1      43.132  24.740  26.165  1.00  0.00     0.134 A 
ATOM     68  C   UNL A   1      42.145  23.102  27.603  1.00  0.00     0.134 A 
ATOM     69  F   UNL A   1      43.564  25.985  25.918  1.00  0.00    -0.206 F 
ATOM     70  C   UNL A   1      43.197  23.802  25.132  1.00  0.00     0.040 A 
ATOM     71  C   UNL A   1      42.231  22.147  26.588  1.00  0.00     0.040 A 
ATOM     72  F   UNL A   1      41.628  22.724  28.781  1.00  0.00    -0.206 F 
ATOM     73  C   UNL A   1      42.751  22.500  25.345  1.00  0.00     0.006 A 
ENDBRANCH  45  66
BRANCH  57  74
ATOM     74  C   UNL A   1      46.676  26.042  32.823  1.00  0.00     0.057 A 
ATOM     75  C   UNL A   1      46.690  24.992  33.750  1.00  0.00     0.134 A 
ATOM     76  C   UNL A   1      47.912  26.507  32.357  1.00  0.00     0.134 A 
ATOM     77  F   UNL A   1      45.541  24.507  34.246  1.00  0.00    -0.206 F 
ATOM     78  C   UNL A   1      47.887  24.444  34.214  1.00  0.00     0.040 A 
ATOM     79  C   UNL A   1      49.115  25.948  32.790  1.00  0.00     0.040 A 
ATOM     80  F   UNL A   1      47.972  27.505  31.460  1.00  0.00    -0.206 F 
ATOM     81  C   UNL A   1      49.105  24.917  33.727  1.00  0.00     0.006 A 
ENDBRANCH  57  74
ENDBRANCH  31  32
ENDBRANCH  23  26
ENDBRANCH  21  22
ENDBRANCH  20  21
ENDBRANCH   1  20
TORSDOF 14
ENDMDL
MODEL 2
REMARK VINA RESULT:     -10.4      5.073     10.361
REMARK SMILES C[C@@H](NS(=O)(=O)c1ccccc1)C(=O)NCCCCNC(=O)c1ccc(-c2c3nc(c(-c4c(F)cccc4F)c4ccc([nH]4)c(-c4c(F)cccc4F)c4nc(c(-c5c(F)cccc5F)c5ccc2[nH]5)C=C4)C=C3)cc1
REMARK SMILES IDX 17 1 16 2 15 3 13 4 14 5 2 7 1 8 3 9 4 11 5 12 6 13 7 14
REMARK SMILES IDX 8 15 12 16 9 17 11 18 10 19 18 20 19 21 20 22 21 23 22 25
REMARK SMILES IDX 23 26 24 27 76 28 25 29 75 30 26 31 27 32 28 33 69 34 29 35
REMARK SMILES IDX 74 36 68 37 70 38 30 39 73 40 67 41 66 42 31 44 57 45 40 46
REMARK SMILES IDX 56 47 41 48 44 49 55 50 71 51 42 52 43 53 54 55 72 56 45 57
REMARK SMILES IDX 32 58 33 59 38 60 34 61 35 62 37 63 39 64 36 65 58 66 59 67
REMARK SMILES IDX 64 68 60 69 61 70 63 71 65 72 62 73 46 74 47 75 52 76 48 77
REMARK SMILES IDX 49 78 51 79 53 80 50 81
REMARK H PARENT 15 6 3 10 20 24 70 43 44 54
REMARK Flexibility Score: inf
ROOT
ATOM      1  C   UNL A   1      36.734  19.461  24.770  1.00  0.00     0.023 C 
ENDROOT
BRANCH   1   2
ATOM      2  C   UNL A   1      35.514  20.344  25.009  1.00  0.00     0.116 C 
BRANCH   2   3
ATOM      3  N   UNL A   1      34.326  19.553  25.286  1.00  0.00    -0.355 N 
ATOM      4  C   UNL A   1      33.004  19.906  25.241  1.00  0.00     0.237 C 
ATOM      5  O   UNL A   1      32.171  19.006  25.373  1.00  0.00    -0.273 OA
ATOM      6  H   UNL A   1      34.497  18.618  25.544  1.00  0.00     0.163 HD
BRANCH   4   7
ATOM      7  C   UNL A   1      32.577  21.359  25.046  1.00  0.00     0.155 C 
ATOM      8  C   UNL A   1      32.336  21.644  23.563  1.00  0.00     0.036 C 
BRANCH   7   9
ATOM      9  N   UNL A   1      31.383  21.700  25.860  1.00  0.00    -0.199 NA
ATOM     10  H   UNL A   1      31.150  20.873  26.410  1.00  0.00     0.142 HD
BRANCH   9  11
ATOM     11  S   UNL A   1      31.468  23.005  26.939  1.00  0.00     0.241 S 
ATOM     12  O   UNL A   1      30.120  23.354  27.334  1.00  0.00    -0.207 OA
ATOM     13  O   UNL A   1      32.455  22.595  27.911  1.00  0.00    -0.207 OA
BRANCH  11  14
ATOM     14  C   UNL A   1      32.166  24.394  26.082  1.00  0.00     0.082 A 
ATOM     15  C   UNL A   1      33.530  24.666  26.083  1.00  0.00     0.022 A 
ATOM     16  C   UNL A   1      31.299  25.237  25.378  1.00  0.00     0.022 A 
ATOM     17  C   UNL A   1      34.046  25.731  25.346  1.00  0.00     0.001 A 
ATOM     18  C   UNL A   1      31.812  26.321  24.659  1.00  0.00     0.001 A 
ATOM     19  C   UNL A   1      33.187  26.559  24.632  1.00  0.00     0.000 A 
ENDBRANCH  11  14
ENDBRANCH   9  11
ENDBRANCH   7   9
ENDBRANCH   4   7
ENDBRANCH   2   3
ENDBRANCH   1   2
BRANCH   1  20
ATOM     20  C   UNL A   1      38.053  20.232  24.680  1.00  0.00     0.023 C 
BRANCH  20  21
ATOM     21  C   UNL A   1      38.891  20.221  25.956  1.00  0.00     0.116 C 
BRANCH  21  22
ATOM     22  N   UNL A   1      40.027  19.316  25.864  1.00  0.00    -0.352 N 
ATOM     23  C   UNL A   1      41.367  19.576  26.021  1.00  0.00     0.251 C 
ATOM     24  H   UNL A   1      39.802  18.379  25.661  1.00  0.00     0.163 HD
ATOM     25  O   UNL A   1      42.199  18.735  25.699  1.00  0.00    -0.269 OA
BRANCH  23  26
ATOM     26  C   UNL A   1      41.806  20.881  26.558  1.00  0.00     0.039 A 
ATOM     27  C   UNL A   1      42.276  21.855  25.672  1.00  0.00     0.014 A 
ATOM     28  C   UNL A   1      41.759  21.143  27.930  1.00  0.00     0.014 A 
ATOM     29  C   UNL A   1      42.631  23.114  26.157  1.00  0.00     0.010 A 
ATOM     30  C   UNL A   1      42.035  22.423  28.400  1.00  0.00     0.010 A 
ATOM     31  C   UNL A   1      42.477  23.422  27.519  1.00  0.00    -0.014 A 
BRANCH  31  32
ATOM     32  C   UNL A   1      42.768  24.783  28.038  1.00  0.00     0.031 A 
ATOM     33  C   UNL A   1      44.165  25.158  28.448  1.00  0.00     0.074 A 
ATOM     34  C   UNL A   1      41.760  25.664  28.199  1.00  0.00     0.049 A 
ATOM     35  N   UNL A   1      44.601  26.271  28.980  1.00  0.00    -0.248 NA
ATOM     36  C   UNL A   1      45.207  24.135  28.258  1.00  0.00     0.031 C 
ATOM     37  C   UNL A   1      40.353  25.409  27.885  1.00  0.00     0.029 A 
ATOM     38  N   UNL A   1      41.764  26.951  28.677  1.00  0.00    -0.354 N 
ATOM     39  C   UNL A   1      45.960  26.081  29.195  1.00  0.00     0.074 A 
ATOM     40  C   UNL A   1      46.265  24.725  28.794  1.00  0.00     0.031 C 
ATOM     41  C   UNL A   1      39.635  26.509  28.156  1.00  0.00     0.029 A 
ATOM     42  C   UNL A   1      40.519  27.533  28.703  1.00  0.00     0.049 A 
ATOM     43  H   UNL A   1      42.581  27.414  28.973  1.00  0.00     0.167 HD
ATOM     44  C   UNL A   1      46.877  26.965  29.658  1.00  0.00     0.037 A 
ATOM     45  C   UNL A   1      40.132  28.749  29.131  1.00  0.00     0.037 A 
ATOM     46  C   UNL A   1      46.573  28.318  30.045  1.00  0.00     0.049 A 
ATOM     47  C   UNL A   1      41.164  29.704  29.664  1.00  0.00     0.074 A 
ATOM     48  C   UNL A   1      47.440  29.304  30.483  1.00  0.00     0.029 A 
ATOM     49  N   UNL A   1      45.301  28.872  30.048  1.00  0.00    -0.354 N 
ATOM     50  N   UNL A   1      42.457  29.533  29.798  1.00  0.00    -0.248 NA
ATOM     51  C   UNL A   1      40.685  31.024  30.099  1.00  0.00     0.031 C 
ATOM     52  C   UNL A   1      46.686  30.438  30.801  1.00  0.00     0.029 A 
ATOM     53  C   UNL A   1      45.358  30.180  30.504  1.00  0.00     0.049 A 
ATOM     54  H   UNL A   1      44.481  28.407  29.767  1.00  0.00     0.167 HD
ATOM     55  C   UNL A   1      42.949  30.731  30.303  1.00  0.00     0.074 A 
ATOM     56  C   UNL A   1      41.817  31.624  30.436  1.00  0.00     0.031 C 
ATOM     57  C   UNL A   1      44.223  31.061  30.627  1.00  0.00     0.037 A 
BRANCH  44  58
ATOM     58  C   UNL A   1      48.299  26.491  29.770  1.00  0.00     0.057 A 
ATOM     59  C   UNL A   1      49.230  26.693  28.743  1.00  0.00     0.134 A 
ATOM     60  C   UNL A   1      48.752  25.852  30.932  1.00  0.00     0.134 A 
ATOM     61  F   UNL A   1      48.861  27.289  27.598  1.00  0.00    -0.206 F 
ATOM     62  C   UNL A   1      50.549  26.251  28.852  1.00  0.00     0.040 A 
ATOM     63  C   UNL A   1      50.077  25.434  31.066  1.00  0.00     0.040 A 
ATOM     64  F   UNL A   1      47.918  25.632  31.960  1.00  0.00    -0.206 F 
ATOM     65  C   UNL A   1      50.978  25.626  30.021  1.00  0.00     0.006 A 
ENDBRANCH  44  58
BRANCH  45  66
ATOM     66  C   UNL A   1      38.700  29.140  29.061  1.00  0.00     0.057 A 
ATOM     67  C   UNL A   1      37.869  29.047  30.184  1.00  0.00     0.134 A 
ATOM     68  C   UNL A   1      38.126  29.607  27.873  1.00  0.00     0.134 A 
ATOM     69  F   UNL A   1      38.354  28.590  31.348  1.00  0.00    -0.206 F 
ATOM     70  C   UNL A   1      36.515  29.382  30.121  1.00  0.00     0.040 A 
ATOM     71  C   UNL A   1      36.781  29.973  27.803  1.00  0.00     0.040 A 
ATOM     72  F   UNL A   1      38.870  29.729  26.764  1.00  0.00    -0.206 F 
ATOM     73  C   UNL A   1      35.969  29.852  28.929  1.00  0.00     0.006 A 
ENDBRANCH  45  66
BRANCH  57  74
ATOM     74  C   UNL A   1      44.470  32.458  31.120  1.00  0.00     0.057 A 
ATOM     75  C   UNL A   1      44.461  32.777  32.484  1.00  0.00     0.134 A 
ATOM     76  C   UNL A   1      44.758  33.490  30.218  1.00  0.00     0.134 A 
ATOM     77  F   UNL A   1      44.180  31.837  33.401  1.00  0.00    -0.206 F 
ATOM     78  C   UNL A   1      44.705  34.077  32.931  1.00  0.00     0.040 A 
ATOM     79  C   UNL A   1      45.033  34.786  30.654  1.00  0.00     0.040 A 
ATOM     80  F   UNL A   1      44.792  33.252  28.897  1.00  0.00    -0.206 F 
ATOM     81  C   UNL A   1      45.001  35.084  32.014  1.00  0.00     0.006 A 
ENDBRANCH  57  74
ENDBRANCH  31  32
ENDBRANCH  23  26
ENDBRANCH  21  22
ENDBRANCH  20  21
ENDBRANCH   1  20
TORSDOF 14
ENDMDL
MODEL 3
REMARK VINA RESULT:     -10.4      5.778      9.919
REMARK SMILES C[C@@H](NS(=O)(=O)c1ccccc1)C(=O)NCCCCNC(=O)c1ccc(-c2c3nc(c(-c4c(F)cccc4F)c4ccc([nH]4)c(-c4c(F)cccc4F)c4nc(c(-c5c(F)cccc5F)c5ccc2[nH]5)C=C4)C=C3)cc1
REMARK SMILES IDX 17 1 16 2 15 3 13 4 14 5 2 7 1 8 3 9 4 11 5 12 6 13 7 14
REMARK SMILES IDX 8 15 12 16 9 17 11 18 10 19 18 20 19 21 20 22 21 23 22 25
REMARK SMILES IDX 23 26 24 27 76 28 25 29 75 30 26 31 27 32 28 33 69 34 29 35
REMARK SMILES IDX 74 36 68 37 70 38 30 39 73 40 67 41 66 42 31 44 57 45 40 46
REMARK SMILES IDX 56 47 41 48 44 49 55 50 71 51 42 52 43 53 54 55 72 56 45 57
REMARK SMILES IDX 32 58 33 59 38 60 34 61 35 62 37 63 39 64 36 65 58 66 59 67
REMARK SMILES IDX 64 68 60 69 61 70 63 71 65 72 62 73 46 74 47 75 52 76 48 77
REMARK SMILES IDX 49 78 51 79 53 80 50 81
REMARK H PARENT 15 6 3 10 20 24 70 43 44 54
REMARK Flexibility Score: inf
ROOT
ATOM      1  C   UNL A   1      36.698  20.979  24.624  1.00  0.00     0.023 C 
ENDROOT
BRANCH   1   2
ATOM      2  C   UNL A   1      35.666  21.296  25.699  1.00  0.00     0.116 C 
BRANCH   2   3
ATOM      3  N   UNL A   1      34.618  20.288  25.750  1.00  0.00    -0.355 N 
ATOM      4  C   UNL A   1      33.305  20.367  25.374  1.00  0.00     0.237 C 
ATOM      5  O   UNL A   1      32.651  19.321  25.375  1.00  0.00    -0.273 OA
ATOM      6  H   UNL A   1      34.897  19.414  26.108  1.00  0.00     0.163 HD
BRANCH   4   7
ATOM      7  C   UNL A   1      32.669  21.697  24.980  1.00  0.00     0.155 C 
ATOM      8  C   UNL A   1      32.396  21.727  23.475  1.00  0.00     0.036 C 
BRANCH   7   9
ATOM      9  N   UNL A   1      31.435  21.975  25.757  1.00  0.00    -0.199 NA
ATOM     10  H   UNL A   1      31.159  21.100  26.202  1.00  0.00     0.142 HD
BRANCH   9  11
ATOM     11  S   UNL A   1      31.475  23.158  26.969  1.00  0.00     0.241 S 
ATOM     12  O   UNL A   1      30.114  23.565  27.250  1.00  0.00    -0.207 OA
ATOM     13  O   UNL A   1      32.315  22.584  27.995  1.00  0.00    -0.207 OA
BRANCH  11  14
ATOM     14  C   UNL A   1      32.351  24.570  26.345  1.00  0.00     0.082 A 
ATOM     15  C   UNL A   1      33.670  24.500  25.911  1.00  0.00     0.022 A 
ATOM     16  C   UNL A   1      31.674  25.793  26.289  1.00  0.00     0.022 A 
ATOM     17  C   UNL A   1      34.304  25.618  25.369  1.00  0.00     0.001 A 
ATOM     18  C   UNL A   1      32.316  26.922  25.770  1.00  0.00     0.001 A 
ATOM     19  C   UNL A   1      33.625  26.830  25.296  1.00  0.00     0.000 A 
ENDBRANCH  11  14
ENDBRANCH   9  11
ENDBRANCH   7   9
ENDBRANCH   4   7
ENDBRANCH   2   3
ENDBRANCH   1   2
BRANCH   1  20
ATOM     20  C   UNL A   1      37.653  19.841  24.992  1.00  0.00     0.023 C 
BRANCH  20  21
ATOM     21  C   UNL A   1      38.905  20.274  25.750  1.00  0.00     0.116 C 
BRANCH  21  22
ATOM     22  N   UNL A   1      39.886  19.204  25.857  1.00  0.00    -0.352 N 
ATOM     23  C   UNL A   1      41.245  19.279  26.043  1.00  0.00     0.251 C 
ATOM     24  H   UNL A   1      39.521  18.292  25.786  1.00  0.00     0.163 HD
ATOM     25  O   UNL A   1      41.942  18.280  25.898  1.00  0.00    -0.269 OA
BRANCH  23  26
ATOM     26  C   UNL A   1      41.871  20.570  26.398  1.00  0.00     0.039 A 
ATOM     27  C   UNL A   1      42.281  21.429  25.376  1.00  0.00     0.014 A 
ATOM     28  C   UNL A   1      42.054  20.932  27.736  1.00  0.00     0.014 A 
ATOM     29  C   UNL A   1      42.812  22.679  25.696  1.00  0.00     0.010 A 
ATOM     30  C   UNL A   1      42.507  22.209  28.051  1.00  0.00     0.010 A 
ATOM     31  C   UNL A   1      42.893  23.096  27.035  1.00  0.00    -0.014 A 
BRANCH  31  32
ATOM     32  C   UNL A   1      43.374  24.456  27.389  1.00  0.00     0.031 A 
ATOM     33  C   UNL A   1      42.400  25.521  27.812  1.00  0.00     0.074 A 
ATOM     34  C   UNL A   1      44.684  24.751  27.269  1.00  0.00     0.049 A 
ATOM     35  N   UNL A   1      42.621  26.778  28.099  1.00  0.00    -0.248 NA
ATOM     36  C   UNL A   1      40.985  25.125  27.902  1.00  0.00     0.031 C 
ATOM     37  C   UNL A   1      45.724  23.823  26.823  1.00  0.00     0.029 A 
ATOM     38  N   UNL A   1      45.362  25.922  27.504  1.00  0.00    -0.354 N 
ATOM     39  C   UNL A   1      41.378  27.324  28.393  1.00  0.00     0.074 A 
ATOM     40  C   UNL A   1      40.399  26.278  28.191  1.00  0.00     0.031 C 
ATOM     41  C   UNL A   1      46.910  24.451  26.837  1.00  0.00     0.029 A 
ATOM     42  C   UNL A   1      46.711  25.836  27.252  1.00  0.00     0.049 A 
ATOM     43  H   UNL A   1      44.925  26.744  27.822  1.00  0.00     0.167 HD
ATOM     44  C   UNL A   1      41.081  28.575  28.819  1.00  0.00     0.037 A 
ATOM     45  C   UNL A   1      47.676  26.771  27.334  1.00  0.00     0.037 A 
ATOM     46  C   UNL A   1      42.058  29.611  29.031  1.00  0.00     0.049 A 
ATOM     47  C   UNL A   1      47.318  28.160  27.786  1.00  0.00     0.074 A 
ATOM     48  C   UNL A   1      41.862  30.896  29.506  1.00  0.00     0.029 A 
ATOM     49  N   UNL A   1      43.415  29.482  28.774  1.00  0.00    -0.354 N 
ATOM     50  N   UNL A   1      46.147  28.642  28.126  1.00  0.00    -0.248 NA
ATOM     51  C   UNL A   1      48.417  29.132  27.873  1.00  0.00     0.031 C 
ATOM     52  C   UNL A   1      43.092  31.562  29.486  1.00  0.00     0.029 A 
ATOM     53  C   UNL A   1      44.064  30.673  29.057  1.00  0.00     0.049 A 
ATOM     54  H   UNL A   1      43.852  28.665  28.441  1.00  0.00     0.167 HD
ATOM     55  C   UNL A   1      46.372  29.963  28.495  1.00  0.00     0.074 A 
ATOM     56  C   UNL A   1      47.794  30.200  28.352  1.00  0.00     0.031 C 
ATOM     57  C   UNL A   1      45.482  30.895  28.915  1.00  0.00     0.037 A 
BRANCH  44  58
ATOM     58  C   UNL A   1      39.636  28.890  29.086  1.00  0.00     0.057 A 
ATOM     59  C   UNL A   1      38.780  29.353  28.077  1.00  0.00     0.134 A 
ATOM     60  C   UNL A   1      39.083  28.698  30.359  1.00  0.00     0.134 A 
ATOM     61  F   UNL A   1      39.246  29.569  26.837  1.00  0.00    -0.206 F 
ATOM     62  C   UNL A   1      37.439  29.644  28.330  1.00  0.00     0.040 A 
ATOM     63  C   UNL A   1      37.736  28.955  30.617  1.00  0.00     0.040 A 
ATOM     64  F   UNL A   1      39.842  28.249  31.371  1.00  0.00    -0.206 F 
ATOM     65  C   UNL A   1      36.912  29.437  29.603  1.00  0.00     0.006 A 
ENDBRANCH  44  58
BRANCH  45  66
ATOM     66  C   UNL A   1      49.080  26.422  26.991  1.00  0.00     0.057 A 
ATOM     67  C   UNL A   1      49.567  26.583  25.688  1.00  0.00     0.134 A 
ATOM     68  C   UNL A   1      49.962  25.913  27.951  1.00  0.00     0.134 A 
ATOM     69  F   UNL A   1      48.766  27.050  24.720  1.00  0.00    -0.206 F 
ATOM     70  C   UNL A   1      50.875  26.229  25.348  1.00  0.00     0.040 A 
ATOM     71  C   UNL A   1      51.280  25.582  27.631  1.00  0.00     0.040 A 
ATOM     72  F   UNL A   1      49.559  25.744  29.219  1.00  0.00    -0.206 F 
ATOM     73  C   UNL A   1      51.736  25.732  26.324  1.00  0.00     0.006 A 
ENDBRANCH  45  66
BRANCH  57  74
ATOM     74  C   UNL A   1      46.022  32.246  29.288  1.00  0.00     0.057 A 
ATOM     75  C   UNL A   1      46.476  32.533  30.581  1.00  0.00     0.134 A 
ATOM     76  C   UNL A   1      46.125  33.260  28.328  1.00  0.00     0.134 A 
ATOM     77  F   UNL A   1      46.395  31.609  31.552  1.00  0.00    -0.206 F 
ATOM     78  C   UNL A   1      46.988  33.788  30.913  1.00  0.00     0.040 A 
ATOM     79  C   UNL A   1      46.663  34.510  28.639  1.00  0.00     0.040 A 
ATOM     80  F   UNL A   1      45.717  33.050  27.066  1.00  0.00    -0.206 F 
ATOM     81  C   UNL A   1      47.091  34.779  29.937  1.00  0.00     0.006 A 
ENDBRANCH  57  74
ENDBRANCH  31  32
ENDBRANCH  23  26
ENDBRANCH  21  22
ENDBRANCH  20  21
ENDBRANCH   1  20
TORSDOF 14
ENDMDL
