MODEL 1
REMARK VINA RESULT:     -10.4      0.000      0.000
REMARK SMILES Cc1ccnc(C(=O)c2[nH]c3cc(F)ccc3c2CC(=O)NCCCCNC(=O)c2ccc(-c3c4nc(c(-c5c(F)cccc5F)c5ccc([nH]5)c(-c5c(F)cccc5F)c5nc(c(-c6c(F)cccc6F)c6ccc3[nH]6)C=C5)C=C4)cc2)c1
REMARK SMILES IDX 24 1 23 2 22 3 20 4 21 5 19 7 18 8 9 9 10 10 11 11 17 13
REMARK SMILES IDX 12 14 16 15 13 16 15 17 14 18 7 19 8 20 6 21 1 22 2 23 3 24
REMARK SMILES IDX 84 25 4 26 5 27 25 28 26 29 27 30 28 31 29 33 30 34 31 35
REMARK SMILES IDX 83 36 32 37 82 38 33 39 34 40 35 41 76 42 36 43 81 44 75 45
REMARK SMILES IDX 77 46 37 47 80 48 74 49 73 50 38 52 64 53 47 54 63 55 48 56
REMARK SMILES IDX 51 57 62 58 78 59 49 60 50 61 61 63 79 64 52 65 39 66 40 67
REMARK SMILES IDX 45 68 41 69 42 70 44 71 46 72 43 73 65 74 66 75 71 76 67 77
REMARK SMILES IDX 68 78 70 79 72 80 69 81 53 82 54 83 59 84 55 85 56 86 58 87
REMARK SMILES IDX 60 88 57 89
REMARK H PARENT 22 6 10 12 27 32 77 51 51 62
REMARK Flexibility Score: inf
ROOT
ATOM      1  C   UNL A   1      33.379  35.428  32.135  1.00  0.00     0.023 C 
ENDROOT
BRANCH   1   2
ATOM      2  C   UNL A   1      34.751  35.636  32.777  1.00  0.00     0.116 C 
BRANCH   2   3
ATOM      3  N   UNL A   1      34.858  35.042  34.093  1.00  0.00    -0.356 N 
ATOM      4  C   UNL A   1      35.330  33.811  34.449  1.00  0.00     0.224 C 
ATOM      5  O   UNL A   1      35.477  33.569  35.649  1.00  0.00    -0.275 OA
ATOM      6  H   UNL A   1      34.546  35.607  34.837  1.00  0.00     0.163 HD
BRANCH   4   7
ATOM      7  C   UNL A   1      35.775  32.811  33.394  1.00  0.00     0.138 C 
BRANCH   7   8
ATOM      8  C   UNL A   1      37.157  32.253  33.586  1.00  0.00    -0.002 A 
ATOM      9  C   UNL A   1      38.240  32.865  34.211  1.00  0.00     0.093 A 
ATOM     10  N   UNL A   1      39.284  31.970  34.206  1.00  0.00    -0.351 N 
ATOM     11  C   UNL A   1      38.940  30.824  33.533  1.00  0.00     0.049 A 
ATOM     12  H   UNL A   1      40.159  32.129  34.628  1.00  0.00     0.167 HD
ATOM     13  C   UNL A   1      37.618  30.976  33.114  1.00  0.00     0.004 A 
ATOM     14  C   UNL A   1      39.689  29.670  33.283  1.00  0.00     0.066 A 
ATOM     15  C   UNL A   1      37.019  29.919  32.392  1.00  0.00     0.013 A 
ATOM     16  C   UNL A   1      39.064  28.646  32.576  1.00  0.00     0.125 A 
ATOM     17  C   UNL A   1      37.754  28.757  32.130  1.00  0.00     0.040 A 
ATOM     18  F   UNL A   1      39.746  27.521  32.321  1.00  0.00    -0.207 F 
BRANCH   9  19
ATOM     19  C   UNL A   1      38.328  34.162  34.863  1.00  0.00     0.227 C 
ATOM     20  O   UNL A   1      38.057  35.193  34.254  1.00  0.00    -0.285 OA
BRANCH  19  21
ATOM     21  C   UNL A   1      38.688  34.199  36.329  1.00  0.00     0.113 A 
ATOM     22  C   UNL A   1      40.138  36.504  38.971  1.00  0.00     0.044 C 
ATOM     23  C   UNL A   1      39.569  35.301  38.281  1.00  0.00    -0.047 A 
ATOM     24  C   UNL A   1      39.357  34.118  38.989  1.00  0.00     0.023 A 
ATOM     25  C   UNL A   1      39.205  35.347  36.931  1.00  0.00     0.036 A 
ATOM     26  C   UNL A   1      38.824  33.029  38.319  1.00  0.00     0.112 A 
ATOM     27  N   UNL A   1      38.502  33.040  37.010  1.00  0.00    -0.253 NA
ENDBRANCH  19  21
ENDBRANCH   9  19
ENDBRANCH   7   8
ENDBRANCH   4   7
ENDBRANCH   2   3
ENDBRANCH   1   2
BRANCH   1  28
ATOM     28  C   UNL A   1      32.933  36.518  31.157  1.00  0.00     0.023 C 
BRANCH  28  29
ATOM     29  C   UNL A   1      33.489  36.414  29.739  1.00  0.00     0.116 C 
BRANCH  29  30
ATOM     30  N   UNL A   1      32.741  35.496  28.896  1.00  0.00    -0.352 N 
ATOM     31  C   UNL A   1      33.115  34.282  28.379  1.00  0.00     0.251 C 
ATOM     32  H   UNL A   1      31.831  35.789  28.663  1.00  0.00     0.163 HD
ATOM     33  O   UNL A   1      32.359  33.689  27.613  1.00  0.00    -0.269 OA
BRANCH  31  34
ATOM     34  C   UNL A   1      34.434  33.693  28.700  1.00  0.00     0.039 A 
ATOM     35  C   UNL A   1      35.517  34.016  27.874  1.00  0.00     0.014 A 
ATOM     36  C   UNL A   1      34.608  32.807  29.767  1.00  0.00     0.014 A 
ATOM     37  C   UNL A   1      36.785  33.498  28.150  1.00  0.00     0.010 A 
ATOM     38  C   UNL A   1      35.879  32.311  30.058  1.00  0.00     0.010 A 
ATOM     39  C   UNL A   1      36.976  32.660  29.257  1.00  0.00    -0.014 A 
BRANCH  39  40
ATOM     40  C   UNL A   1      38.324  32.151  29.599  1.00  0.00     0.031 A 
ATOM     41  C   UNL A   1      38.761  30.793  29.141  1.00  0.00     0.074 A 
ATOM     42  C   UNL A   1      39.135  32.897  30.370  1.00  0.00     0.049 A 
ATOM     43  N   UNL A   1      39.852  30.135  29.439  1.00  0.00    -0.248 NA
ATOM     44  C   UNL A   1      37.849  30.076  28.237  1.00  0.00     0.031 C 
ATOM     45  C   UNL A   1      38.822  34.228  30.893  1.00  0.00     0.029 A 
ATOM     46  N   UNL A   1      40.390  32.631  30.856  1.00  0.00    -0.354 N 
ATOM     47  C   UNL A   1      39.743  28.913  28.794  1.00  0.00     0.074 A 
ATOM     48  C   UNL A   1      38.487  28.925  28.071  1.00  0.00     0.031 C 
ATOM     49  C   UNL A   1      39.862  34.666  31.621  1.00  0.00     0.029 A 
ATOM     50  C   UNL A   1      40.900  33.640  31.633  1.00  0.00     0.049 A 
ATOM     51  H   UNL A   1      40.876  31.797  30.666  1.00  0.00     0.167 HD
ATOM     52  C   UNL A   1      40.607  27.872  28.807  1.00  0.00     0.037 A 
ATOM     53  C   UNL A   1      42.070  33.721  32.290  1.00  0.00     0.037 A 
ATOM     54  C   UNL A   1      41.875  27.864  29.486  1.00  0.00     0.049 A 
ATOM     55  C   UNL A   1      43.032  32.574  32.249  1.00  0.00     0.074 A 
ATOM     56  C   UNL A   1      42.826  26.859  29.531  1.00  0.00     0.029 A 
ATOM     57  N   UNL A   1      42.372  28.920  30.232  1.00  0.00    -0.354 N 
ATOM     58  N   UNL A   1      42.909  31.417  31.647  1.00  0.00    -0.248 NA
ATOM     59  C   UNL A   1      44.292  32.741  32.989  1.00  0.00     0.031 C 
ATOM     60  C   UNL A   1      43.904  27.310  30.304  1.00  0.00     0.029 A 
ATOM     61  C   UNL A   1      43.618  28.595  30.738  1.00  0.00     0.049 A 
ATOM     62  H   UNL A   1      41.907  29.776  30.379  1.00  0.00     0.167 HD
ATOM     63  C   UNL A   1      44.070  30.716  31.936  1.00  0.00     0.074 A 
ATOM     64  C   UNL A   1      44.891  31.578  32.762  1.00  0.00     0.031 C 
ATOM     65  C   UNL A   1      44.421  29.466  31.553  1.00  0.00     0.037 A 
BRANCH  52  66
ATOM     66  C   UNL A   1      40.193  26.643  28.067  1.00  0.00     0.057 A 
ATOM     67  C   UNL A   1      40.657  26.378  26.775  1.00  0.00     0.134 A 
ATOM     68  C   UNL A   1      39.330  25.712  28.658  1.00  0.00     0.134 A 
ATOM     69  F   UNL A   1      41.474  27.243  26.156  1.00  0.00    -0.206 F 
ATOM     70  C   UNL A   1      40.271  25.226  26.089  1.00  0.00     0.040 A 
ATOM     71  C   UNL A   1      38.940  24.555  27.983  1.00  0.00     0.040 A 
ATOM     72  F   UNL A   1      38.846  25.920  29.891  1.00  0.00    -0.206 F 
ATOM     73  C   UNL A   1      39.411  24.309  26.695  1.00  0.00     0.006 A 
ENDBRANCH  52  66
BRANCH  53  74
ATOM     74  C   UNL A   1      42.390  34.944  33.056  1.00  0.00     0.057 A 
ATOM     75  C   UNL A   1      42.109  35.026  34.423  1.00  0.00     0.134 A 
ATOM     76  C   UNL A   1      42.993  36.045  32.442  1.00  0.00     0.134 A 
ATOM     77  F   UNL A   1      41.521  34.000  35.055  1.00  0.00    -0.206 F 
ATOM     78  C   UNL A   1      42.418  36.169  35.160  1.00  0.00     0.040 A 
ATOM     79  C   UNL A   1      43.312  37.194  33.168  1.00  0.00     0.040 A 
ATOM     80  F   UNL A   1      43.278  36.018  31.133  1.00  0.00    -0.206 F 
ATOM     81  C   UNL A   1      43.024  37.256  34.531  1.00  0.00     0.006 A 
ENDBRANCH  53  74
BRANCH  65  82
ATOM     82  C   UNL A   1      45.747  28.965  32.025  1.00  0.00     0.057 A 
ATOM     83  C   UNL A   1      46.904  29.162  31.265  1.00  0.00     0.134 A 
ATOM     84  C   UNL A   1      45.869  28.298  33.248  1.00  0.00     0.134 A 
ATOM     85  F   UNL A   1      46.842  29.785  30.079  1.00  0.00    -0.206 F 
ATOM     86  C   UNL A   1      48.147  28.706  31.708  1.00  0.00     0.040 A 
ATOM     87  C   UNL A   1      47.106  27.839  33.702  1.00  0.00     0.040 A 
ATOM     88  F   UNL A   1      44.790  28.074  34.013  1.00  0.00    -0.206 F 
ATOM     89  C   UNL A   1      48.250  28.045  32.930  1.00  0.00     0.006 A 
ENDBRANCH  65  82
ENDBRANCH  39  40
ENDBRANCH  31  34
ENDBRANCH  29  30
ENDBRANCH  28  29
ENDBRANCH   1  28
TORSDOF 14
ENDMDL
MODEL 2
REMARK VINA RESULT:     -10.4      5.241     11.328
REMARK SMILES Cc1ccnc(C(=O)c2[nH]c3cc(F)ccc3c2CC(=O)NCCCCNC(=O)c2ccc(-c3c4nc(c(-c5c(F)cccc5F)c5ccc([nH]5)c(-c5c(F)cccc5F)c5nc(c(-c6c(F)cccc6F)c6ccc3[nH]6)C=C5)C=C4)cc2)c1
REMARK SMILES IDX 24 1 23 2 22 3 20 4 21 5 19 7 18 8 9 9 10 10 11 11 17 13
REMARK SMILES IDX 12 14 16 15 13 16 15 17 14 18 7 19 8 20 6 21 1 22 2 23 3 24
REMARK SMILES IDX 84 25 4 26 5 27 25 28 26 29 27 30 28 31 29 33 30 34 31 35
REMARK SMILES IDX 83 36 32 37 82 38 33 39 34 40 35 41 76 42 36 43 81 44 75 45
REMARK SMILES IDX 77 46 37 47 80 48 74 49 73 50 38 52 64 53 47 54 63 55 48 56
REMARK SMILES IDX 51 57 62 58 78 59 49 60 50 61 61 63 79 64 52 65 39 66 40 67
REMARK SMILES IDX 45 68 41 69 42 70 44 71 46 72 43 73 65 74 66 75 71 76 67 77
REMARK SMILES IDX 68 78 70 79 72 80 69 81 53 82 54 83 59 84 55 85 56 86 58 87
REMARK SMILES IDX 60 88 57 89
REMARK H PARENT 22 6 10 12 27 32 77 51 51 62
REMARK Flexibility Score: inf
ROOT
ATOM      1  C   UNL A   1      31.603  27.286  26.646  1.00  0.00     0.023 C 
ENDROOT
BRANCH   1   2
ATOM      2  C   UNL A   1      31.299  25.925  26.021  1.00  0.00     0.116 C 
BRANCH   2   3
ATOM      3  N   UNL A   1      31.477  24.823  26.943  1.00  0.00    -0.356 N 
ATOM      4  C   UNL A   1      32.146  23.646  26.762  1.00  0.00     0.224 C 
ATOM      5  O   UNL A   1      32.305  22.911  27.741  1.00  0.00    -0.275 OA
ATOM      6  H   UNL A   1      31.057  24.939  27.825  1.00  0.00     0.163 HD
BRANCH   4   7
ATOM      7  C   UNL A   1      32.779  23.305  25.423  1.00  0.00     0.138 C 
BRANCH   7   8
ATOM      8  C   UNL A   1      33.941  22.353  25.490  1.00  0.00    -0.002 A 
ATOM      9  C   UNL A   1      33.903  20.964  25.418  1.00  0.00     0.093 A 
ATOM     10  N   UNL A   1      35.201  20.510  25.465  1.00  0.00    -0.351 N 
ATOM     11  C   UNL A   1      36.076  21.553  25.640  1.00  0.00     0.049 A 
ATOM     12  H   UNL A   1      35.466  19.565  25.384  1.00  0.00     0.167 HD
ATOM     13  C   UNL A   1      35.317  22.723  25.678  1.00  0.00     0.004 A 
ATOM     14  C   UNL A   1      37.471  21.547  25.748  1.00  0.00     0.066 A 
ATOM     15  C   UNL A   1      35.991  23.953  25.850  1.00  0.00     0.013 A 
ATOM     16  C   UNL A   1      38.101  22.779  25.908  1.00  0.00     0.125 A 
ATOM     17  C   UNL A   1      37.386  23.967  25.962  1.00  0.00     0.040 A 
ATOM     18  F   UNL A   1      39.437  22.816  26.009  1.00  0.00    -0.207 F 
BRANCH   9  19
ATOM     19  C   UNL A   1      32.771  20.071  25.231  1.00  0.00     0.227 C 
ATOM     20  O   UNL A   1      31.620  20.487  25.314  1.00  0.00    -0.285 OA
BRANCH  19  21
ATOM     21  C   UNL A   1      33.051  18.634  24.859  1.00  0.00     0.113 A 
ATOM     22  C   UNL A   1      32.310  15.082  25.968  1.00  0.00     0.044 C 
ATOM     23  C   UNL A   1      32.853  16.261  25.218  1.00  0.00    -0.047 A 
ATOM     24  C   UNL A   1      33.684  16.070  24.114  1.00  0.00     0.023 A 
ATOM     25  C   UNL A   1      32.513  17.568  25.581  1.00  0.00     0.036 A 
ATOM     26  C   UNL A   1      34.163  17.183  23.442  1.00  0.00     0.112 A 
ATOM     27  N   UNL A   1      33.878  18.452  23.798  1.00  0.00    -0.253 NA
ENDBRANCH  19  21
ENDBRANCH   9  19
ENDBRANCH   7   8
ENDBRANCH   4   7
ENDBRANCH   2   3
ENDBRANCH   1   2
BRANCH   1  28
ATOM     28  C   UNL A   1      32.820  28.020  26.078  1.00  0.00     0.023 C 
BRANCH  28  29
ATOM     29  C   UNL A   1      33.907  28.391  27.083  1.00  0.00     0.116 C 
BRANCH  29  30
ATOM     30  N   UNL A   1      33.796  29.757  27.570  1.00  0.00    -0.352 N 
ATOM     31  C   UNL A   1      34.727  30.536  28.208  1.00  0.00     0.251 C 
ATOM     32  H   UNL A   1      32.923  30.186  27.418  1.00  0.00     0.163 HD
ATOM     33  O   UNL A   1      34.409  31.651  28.616  1.00  0.00    -0.269 OA
BRANCH  31  34
ATOM     34  C   UNL A   1      36.100  30.039  28.445  1.00  0.00     0.039 A 
ATOM     35  C   UNL A   1      37.027  30.145  27.402  1.00  0.00     0.014 A 
ATOM     36  C   UNL A   1      36.471  29.440  29.652  1.00  0.00     0.014 A 
ATOM     37  C   UNL A   1      38.341  29.706  27.587  1.00  0.00     0.010 A 
ATOM     38  C   UNL A   1      37.790  29.026  29.846  1.00  0.00     0.010 A 
ATOM     39  C   UNL A   1      38.733  29.163  28.818  1.00  0.00    -0.014 A 
BRANCH  39  40
ATOM     40  C   UNL A   1      40.135  28.749  29.051  1.00  0.00     0.031 A 
ATOM     41  C   UNL A   1      41.109  29.693  29.689  1.00  0.00     0.074 A 
ATOM     42  C   UNL A   1      40.543  27.536  28.638  1.00  0.00     0.049 A 
ATOM     43  N   UNL A   1      42.397  29.551  29.867  1.00  0.00    -0.248 NA
ATOM     44  C   UNL A   1      40.566  30.967  30.183  1.00  0.00     0.031 C 
ATOM     45  C   UNL A   1      39.698  26.531  27.992  1.00  0.00     0.029 A 
ATOM     46  N   UNL A   1      41.781  26.948  28.696  1.00  0.00    -0.354 N 
ATOM     47  C   UNL A   1      42.828  30.730  30.456  1.00  0.00     0.074 A 
ATOM     48  C   UNL A   1      41.661  31.571  30.625  1.00  0.00     0.031 C 
ATOM     49  C   UNL A   1      40.442  25.446  27.718  1.00  0.00     0.029 A 
ATOM     50  C   UNL A   1      41.815  25.690  28.150  1.00  0.00     0.049 A 
ATOM     51  H   UNL A   1      42.569  27.387  29.089  1.00  0.00     0.167 HD
ATOM     52  C   UNL A   1      44.084  31.081  30.819  1.00  0.00     0.037 A 
ATOM     53  C   UNL A   1      42.841  24.834  28.005  1.00  0.00     0.037 A 
ATOM     54  C   UNL A   1      45.242  30.239  30.695  1.00  0.00     0.049 A 
ATOM     55  C   UNL A   1      44.214  25.229  28.459  1.00  0.00     0.074 A 
ATOM     56  C   UNL A   1      46.550  30.507  31.062  1.00  0.00     0.029 A 
ATOM     57  N   UNL A   1      45.228  28.957  30.172  1.00  0.00    -0.354 N 
ATOM     58  N   UNL A   1      44.610  26.353  29.002  1.00  0.00    -0.248 NA
ATOM     59  C   UNL A   1      45.283  24.237  28.270  1.00  0.00     0.031 C 
ATOM     60  C   UNL A   1      47.329  29.382  30.762  1.00  0.00     0.029 A 
ATOM     61  C   UNL A   1      46.502  28.417  30.208  1.00  0.00     0.049 A 
ATOM     62  H   UNL A   1      44.429  28.497  29.825  1.00  0.00     0.167 HD
ATOM     63  C   UNL A   1      45.972  26.209  29.217  1.00  0.00     0.074 A 
ATOM     64  C   UNL A   1      46.336  24.885  28.753  1.00  0.00     0.031 C 
ATOM     65  C   UNL A   1      46.843  27.099  29.747  1.00  0.00     0.037 A 
BRANCH  52  66
ATOM     66  C   UNL A   1      44.264  32.456  31.376  1.00  0.00     0.057 A 
ATOM     67  C   UNL A   1      44.172  32.704  32.748  1.00  0.00     0.134 A 
ATOM     68  C   UNL A   1      44.541  33.536  30.530  1.00  0.00     0.134 A 
ATOM     69  F   UNL A   1      43.894  31.708  33.602  1.00  0.00    -0.206 F 
ATOM     70  C   UNL A   1      44.346  33.989  33.265  1.00  0.00     0.040 A 
ATOM     71  C   UNL A   1      44.720  34.824  31.035  1.00  0.00     0.040 A 
ATOM     72  F   UNL A   1      44.630  33.357  29.204  1.00  0.00    -0.206 F 
ATOM     73  C   UNL A   1      44.623  35.053  32.407  1.00  0.00     0.006 A 
ENDBRANCH  52  66
BRANCH  53  74
ATOM     74  C   UNL A   1      42.605  23.513  27.388  1.00  0.00     0.057 A 
ATOM     75  C   UNL A   1      42.757  23.329  26.010  1.00  0.00     0.134 A 
ATOM     76  C   UNL A   1      42.238  22.408  28.161  1.00  0.00     0.134 A 
ATOM     77  F   UNL A   1      43.097  24.361  25.224  1.00  0.00    -0.206 F 
ATOM     78  C   UNL A   1      42.550  22.084  25.417  1.00  0.00     0.040 A 
ATOM     79  C   UNL A   1      42.031  21.156  27.582  1.00  0.00     0.040 A 
ATOM     80  F   UNL A   1      42.075  22.534  29.485  1.00  0.00    -0.206 F 
ATOM     81  C   UNL A   1      42.188  20.992  26.205  1.00  0.00     0.006 A 
ENDBRANCH  53  74
BRANCH  65  82
ATOM     82  C   UNL A   1      48.268  26.664  29.853  1.00  0.00     0.057 A 
ATOM     83  C   UNL A   1      48.718  25.926  30.952  1.00  0.00     0.134 A 
ATOM     84  C   UNL A   1      49.190  26.969  28.846  1.00  0.00     0.134 A 
ATOM     85  F   UNL A   1      47.880  25.615  31.952  1.00  0.00    -0.206 F 
ATOM     86  C   UNL A   1      50.045  25.506  31.050  1.00  0.00     0.040 A 
ATOM     87  C   UNL A   1      50.519  26.554  28.931  1.00  0.00     0.040 A 
ATOM     88  F   UNL A   1      48.815  27.682  27.773  1.00  0.00    -0.206 F 
ATOM     89  C   UNL A   1      50.949  25.819  30.036  1.00  0.00     0.006 A 
ENDBRANCH  65  82
ENDBRANCH  39  40
ENDBRANCH  31  34
ENDBRANCH  29  30
ENDBRANCH  28  29
ENDBRANCH   1  28
TORSDOF 14
ENDMDL
MODEL 3
REMARK VINA RESULT:     -10.2      5.167     11.230
REMARK SMILES Cc1ccnc(C(=O)c2[nH]c3cc(F)ccc3c2CC(=O)NCCCCNC(=O)c2ccc(-c3c4nc(c(-c5c(F)cccc5F)c5ccc([nH]5)c(-c5c(F)cccc5F)c5nc(c(-c6c(F)cccc6F)c6ccc3[nH]6)C=C5)C=C4)cc2)c1
REMARK SMILES IDX 24 1 23 2 22 3 20 4 21 5 19 7 18 8 9 9 10 10 11 11 17 13
REMARK SMILES IDX 12 14 16 15 13 16 15 17 14 18 7 19 8 20 6 21 1 22 2 23 3 24
REMARK SMILES IDX 84 25 4 26 5 27 25 28 26 29 27 30 28 31 29 33 30 34 31 35
REMARK SMILES IDX 83 36 32 37 82 38 33 39 34 40 35 41 76 42 36 43 81 44 75 45
REMARK SMILES IDX 77 46 37 47 80 48 74 49 73 50 38 52 64 53 47 54 63 55 48 56
REMARK SMILES IDX 51 57 62 58 78 59 49 60 50 61 61 63 79 64 52 65 39 66 40 67
REMARK SMILES IDX 45 68 41 69 42 70 44 71 46 72 43 73 65 74 66 75 71 76 67 77
REMARK SMILES IDX 68 78 70 79 72 80 69 81 53 82 54 83 59 84 55 85 56 86 58 87
REMARK SMILES IDX 60 88 57 89
REMARK H PARENT 22 6 10 12 27 32 77 51 51 62
REMARK Flexibility Score: inf
ROOT
ATOM      1  C   UNL A   1      33.747  26.577  25.585  1.00  0.00     0.023 C 
ENDROOT
BRANCH   1   2
ATOM      2  C   UNL A   1      32.285  26.135  25.630  1.00  0.00     0.116 C 
BRANCH   2   3
ATOM      3  N   UNL A   1      32.034  25.098  26.608  1.00  0.00    -0.356 N 
ATOM      4  C   UNL A   1      32.229  23.750  26.506  1.00  0.00     0.224 C 
ATOM      5  O   UNL A   1      32.094  23.064  27.522  1.00  0.00    -0.275 OA
ATOM      6  H   UNL A   1      31.671  25.408  27.469  1.00  0.00     0.163 HD
BRANCH   4   7
ATOM      7  C   UNL A   1      32.715  23.128  25.207  1.00  0.00     0.138 C 
BRANCH   7   8
ATOM      8  C   UNL A   1      33.899  22.210  25.342  1.00  0.00    -0.002 A 
ATOM      9  C   UNL A   1      33.900  20.819  25.315  1.00  0.00     0.093 A 
ATOM     10  N   UNL A   1      35.207  20.402  25.419  1.00  0.00    -0.351 N 
ATOM     11  C   UNL A   1      36.048  21.473  25.587  1.00  0.00     0.049 A 
ATOM     12  H   UNL A   1      35.499  19.463  25.377  1.00  0.00     0.167 HD
ATOM     13  C   UNL A   1      35.258  22.623  25.563  1.00  0.00     0.004 A 
ATOM     14  C   UNL A   1      37.438  21.509  25.740  1.00  0.00     0.066 A 
ATOM     15  C   UNL A   1      35.894  23.876  25.715  1.00  0.00     0.013 A 
ATOM     16  C   UNL A   1      38.031  22.761  25.879  1.00  0.00     0.125 A 
ATOM     17  C   UNL A   1      37.283  23.931  25.872  1.00  0.00     0.040 A 
ATOM     18  F   UNL A   1      39.361  22.838  26.022  1.00  0.00    -0.207 F 
BRANCH   9  19
ATOM     19  C   UNL A   1      32.798  19.890  25.121  1.00  0.00     0.227 C 
ATOM     20  O   UNL A   1      31.637  20.285  25.104  1.00  0.00    -0.285 OA
BRANCH  19  21
ATOM     21  C   UNL A   1      33.127  18.438  24.868  1.00  0.00     0.113 A 
ATOM     22  C   UNL A   1      32.309  14.948  26.113  1.00  0.00     0.044 C 
ATOM     23  C   UNL A   1      32.914  16.088  25.350  1.00  0.00    -0.047 A 
ATOM     24  C   UNL A   1      33.854  15.844  24.349  1.00  0.00     0.023 A 
ATOM     25  C   UNL A   1      32.528  17.409  25.596  1.00  0.00     0.036 A 
ATOM     26  C   UNL A   1      34.389  16.921  23.661  1.00  0.00     0.112 A 
ATOM     27  N   UNL A   1      34.058  18.204  23.909  1.00  0.00    -0.253 NA
ENDBRANCH  19  21
ENDBRANCH   9  19
ENDBRANCH   7   8
ENDBRANCH   4   7
ENDBRANCH   2   3
ENDBRANCH   1   2
BRANCH   1  28
ATOM     28  C   UNL A   1      34.012  28.034  25.972  1.00  0.00     0.023 C 
BRANCH  28  29
ATOM     29  C   UNL A   1      33.701  28.408  27.419  1.00  0.00     0.116 C 
BRANCH  29  30
ATOM     30  N   UNL A   1      33.670  29.844  27.645  1.00  0.00    -0.352 N 
ATOM     31  C   UNL A   1      34.660  30.679  28.097  1.00  0.00     0.251 C 
ATOM     32  H   UNL A   1      32.812  30.281  27.444  1.00  0.00     0.163 HD
ATOM     33  O   UNL A   1      34.409  31.865  28.299  1.00  0.00    -0.269 OA
BRANCH  31  34
ATOM     34  C   UNL A   1      36.019  30.165  28.378  1.00  0.00     0.039 A 
ATOM     35  C   UNL A   1      36.959  30.188  27.342  1.00  0.00     0.014 A 
ATOM     36  C   UNL A   1      36.363  29.629  29.623  1.00  0.00     0.014 A 
ATOM     37  C   UNL A   1      38.260  29.731  27.568  1.00  0.00     0.010 A 
ATOM     38  C   UNL A   1      37.669  29.197  29.856  1.00  0.00     0.010 A 
ATOM     39  C   UNL A   1      38.626  29.252  28.833  1.00  0.00    -0.014 A 
BRANCH  39  40
ATOM     40  C   UNL A   1      40.016  28.820  29.106  1.00  0.00     0.031 A 
ATOM     41  C   UNL A   1      40.975  29.741  29.798  1.00  0.00     0.074 A 
ATOM     42  C   UNL A   1      40.427  27.611  28.682  1.00  0.00     0.049 A 
ATOM     43  N   UNL A   1      42.255  29.583  30.017  1.00  0.00    -0.248 NA
ATOM     44  C   UNL A   1      40.426  31.009  30.299  1.00  0.00     0.031 C 
ATOM     45  C   UNL A   1      39.597  26.628  27.985  1.00  0.00     0.029 A 
ATOM     46  N   UNL A   1      41.657  27.011  28.770  1.00  0.00    -0.354 N 
ATOM     47  C   UNL A   1      42.675  30.745  30.646  1.00  0.00     0.074 A 
ATOM     48  C   UNL A   1      41.510  31.594  30.791  1.00  0.00     0.031 C 
ATOM     49  C   UNL A   1      40.340  25.543  27.715  1.00  0.00     0.029 A 
ATOM     50  C   UNL A   1      41.699  25.764  28.200  1.00  0.00     0.049 A 
ATOM     51  H   UNL A   1      42.435  27.435  29.201  1.00  0.00     0.167 HD
ATOM     52  C   UNL A   1      43.919  31.077  31.060  1.00  0.00     0.037 A 
ATOM     53  C   UNL A   1      42.723  24.902  28.072  1.00  0.00     0.037 A 
ATOM     54  C   UNL A   1      45.074  30.227  30.959  1.00  0.00     0.049 A 
ATOM     55  C   UNL A   1      44.081  25.274  28.583  1.00  0.00     0.074 A 
ATOM     56  C   UNL A   1      46.371  30.474  31.377  1.00  0.00     0.029 A 
ATOM     57  N   UNL A   1      45.067  28.956  30.408  1.00  0.00    -0.354 N 
ATOM     58  N   UNL A   1      44.468  26.383  29.163  1.00  0.00    -0.248 NA
ATOM     59  C   UNL A   1      45.148  24.277  28.411  1.00  0.00     0.031 C 
ATOM     60  C   UNL A   1      47.150  29.348  31.080  1.00  0.00     0.029 A 
ATOM     61  C   UNL A   1      46.334  28.403  30.478  1.00  0.00     0.049 A 
ATOM     62  H   UNL A   1      44.277  28.511  30.024  1.00  0.00     0.167 HD
ATOM     63  C   UNL A   1      45.820  26.222  29.422  1.00  0.00     0.074 A 
ATOM     64  C   UNL A   1      46.189  24.904  28.944  1.00  0.00     0.031 C 
ATOM     65  C   UNL A   1      46.680  27.092  30.002  1.00  0.00     0.037 A 
BRANCH  52  66
ATOM     66  C   UNL A   1      44.092  32.438  31.651  1.00  0.00     0.057 A 
ATOM     67  C   UNL A   1      44.385  33.548  30.853  1.00  0.00     0.134 A 
ATOM     68  C   UNL A   1      43.953  32.639  33.030  1.00  0.00     0.134 A 
ATOM     69  F   UNL A   1      44.543  33.410  29.529  1.00  0.00    -0.206 F 
ATOM     70  C   UNL A   1      44.541  34.818  31.409  1.00  0.00     0.040 A 
ATOM     71  C   UNL A   1      44.103  33.905  33.596  1.00  0.00     0.040 A 
ATOM     72  F   UNL A   1      43.682  31.608  33.843  1.00  0.00    -0.206 F 
ATOM     73  C   UNL A   1      44.397  34.999  32.785  1.00  0.00     0.006 A 
ENDBRANCH  52  66
BRANCH  53  74
ATOM     74  C   UNL A   1      42.497  23.596  27.420  1.00  0.00     0.057 A 
ATOM     75  C   UNL A   1      42.074  22.489  28.162  1.00  0.00     0.134 A 
ATOM     76  C   UNL A   1      42.686  23.431  26.045  1.00  0.00     0.134 A 
ATOM     77  F   UNL A   1      41.889  22.594  29.486  1.00  0.00    -0.206 F 
ATOM     78  C   UNL A   1      41.845  21.254  27.556  1.00  0.00     0.040 A 
ATOM     79  C   UNL A   1      42.457  22.203  25.424  1.00  0.00     0.040 A 
ATOM     80  F   UNL A   1      43.095  24.461  25.291  1.00  0.00    -0.206 F 
ATOM     81  C   UNL A   1      42.034  21.110  26.182  1.00  0.00     0.006 A 
ENDBRANCH  53  74
BRANCH  65  82
ATOM     82  C   UNL A   1      48.097  26.641  30.148  1.00  0.00     0.057 A 
ATOM     83  C   UNL A   1      49.043  26.901  29.151  1.00  0.00     0.134 A 
ATOM     84  C   UNL A   1      48.520  25.960  31.294  1.00  0.00     0.134 A 
ATOM     85  F   UNL A   1      48.689  27.540  28.026  1.00  0.00    -0.206 F 
ATOM     86  C   UNL A   1      50.370  26.493  29.288  1.00  0.00     0.040 A 
ATOM     87  C   UNL A   1      49.845  25.549  31.443  1.00  0.00     0.040 A 
ATOM     88  F   UNL A   1      47.653  25.677  32.277  1.00  0.00    -0.206 F 
ATOM     89  C   UNL A   1      50.775  25.816  30.438  1.00  0.00     0.006 A 
ENDBRANCH  65  82
ENDBRANCH  39  40
ENDBRANCH  31  34
ENDBRANCH  29  30
ENDBRANCH  28  29
ENDBRANCH   1  28
TORSDOF 14
ENDMDL
