MODEL 1
REMARK VINA RESULT:     -13.4      0.000      0.000
REMARK SMILES CC1=Nc2c(c(C)nn2-c2ccc(F)cc2)[C@H](c2ccc(C(=O)NCCCCNC(=O)c3ccc(-c4c5nc(c(-c6c(F)cccc6F)c6ccc([nH]6)c(-c6c(F)cccc6F)c6nc(c(-c7c(F)cccc7F)c7ccc4[nH]7)C=C6)C=C5)cc3)cc2)S1
REMARK SMILES IDX 26 1 25 2 24 3 22 4 23 5 21 7 18 8 19 9 87 10 20 11 86 12
REMARK SMILES IDX 17 13 1 14 2 15 3 16 88 17 4 18 5 19 9 20 6 21 8 22 7 23
REMARK SMILES IDX 10 24 11 25 16 26 12 27 15 28 13 29 14 30 27 31 28 32 29 33
REMARK SMILES IDX 30 34 31 36 32 37 33 38 85 39 34 40 84 41 35 42 36 43 37 44
REMARK SMILES IDX 78 45 38 46 83 47 77 48 79 49 39 50 82 51 76 52 75 53 40 55
REMARK SMILES IDX 66 56 49 57 65 58 50 59 53 60 64 61 80 62 51 63 52 64 63 66
REMARK SMILES IDX 81 67 54 68 41 69 42 70 47 71 43 72 44 73 46 74 48 75 45 76
REMARK SMILES IDX 67 77 68 78 73 79 69 80 70 81 72 82 74 83 71 84 55 85 56 86
REMARK SMILES IDX 61 87 57 88 58 89 60 90 62 91 59 92
REMARK H PARENT 24 6 29 35 79 54 53 65
REMARK Flexibility Score: inf
ROOT
ATOM      1  C   UNL A   1      32.526  29.611  26.495  1.00  0.00     0.023 C 
ENDROOT
BRANCH   1   2
ATOM      2  C   UNL A   1      32.628  29.733  24.970  1.00  0.00     0.116 C 
BRANCH   2   3
ATOM      3  N   UNL A   1      31.318  29.749  24.347  1.00  0.00    -0.352 N 
ATOM      4  C   UNL A   1      30.472  28.744  23.951  1.00  0.00     0.251 C 
ATOM      5  O   UNL A   1      29.373  29.068  23.500  1.00  0.00    -0.269 OA
ATOM      6  H   UNL A   1      30.969  30.653  24.177  1.00  0.00     0.163 HD
BRANCH   4   7
ATOM      7  C   UNL A   1      30.793  27.297  24.091  1.00  0.00     0.039 A 
ATOM      8  C   UNL A   1      31.416  24.526  24.175  1.00  0.00    -0.030 A 
ATOM      9  C   UNL A   1      31.319  25.209  22.952  1.00  0.00     0.006 A 
ATOM     10  C   UNL A   1      31.231  25.269  25.353  1.00  0.00     0.006 A 
ATOM     11  C   UNL A   1      31.024  26.576  22.911  1.00  0.00     0.014 A 
ATOM     12  C   UNL A   1      30.934  26.636  25.310  1.00  0.00     0.014 A 
BRANCH   8  13
ATOM     13  C   UNL A   1      31.775  23.046  24.178  1.00  0.00     0.119 C 
ATOM     14  C   UNL A   1      32.567  22.261  28.152  1.00  0.00     0.075 C 
ATOM     15  C   UNL A   1      32.770  22.305  26.660  1.00  0.00     0.074 C 
ATOM     16  N   UNL A   1      33.977  22.466  26.218  1.00  0.00    -0.227 NA
ATOM     17  S   UNL A   1      31.296  22.178  25.708  1.00  0.00    -0.098 SA
ATOM     18  C   UNL A   1      34.156  22.658  24.888  1.00  0.00     0.161 A 
ATOM     19  C   UNL A   1      33.231  22.976  23.920  1.00  0.00     0.038 A 
ATOM     20  N   UNL A   1      35.396  22.706  24.271  1.00  0.00    -0.215 N 
ATOM     21  C   UNL A   1      33.994  23.230  22.752  1.00  0.00     0.067 A 
ATOM     22  N   UNL A   1      35.310  23.165  22.996  1.00  0.00    -0.171 NA
ATOM     23  C   UNL A   1      33.520  23.589  21.392  1.00  0.00     0.069 C 
BRANCH  20  24
ATOM     24  C   UNL A   1      36.642  22.333  24.827  1.00  0.00     0.067 A 
ATOM     25  C   UNL A   1      37.100  21.015  24.679  1.00  0.00     0.031 A 
ATOM     26  C   UNL A   1      37.401  23.280  25.524  1.00  0.00     0.031 A 
ATOM     27  C   UNL A   1      38.323  20.645  25.237  1.00  0.00     0.041 A 
ATOM     28  C   UNL A   1      38.597  22.885  26.126  1.00  0.00     0.041 A 
ATOM     29  C   UNL A   1      39.049  21.576  25.971  1.00  0.00     0.123 A 
ATOM     30  F   UNL A   1      40.204  21.206  26.538  1.00  0.00    -0.207 F 
ENDBRANCH  20  24
ENDBRANCH   8  13
ENDBRANCH   4   7
ENDBRANCH   2   3
ENDBRANCH   1   2
BRANCH   1  31
ATOM     31  C   UNL A   1      33.497  28.614  27.147  1.00  0.00     0.023 C 
BRANCH  31  32
ATOM     32  C   UNL A   1      34.935  29.104  27.277  1.00  0.00     0.116 C 
BRANCH  32  33
ATOM     33  N   UNL A   1      35.121  30.065  28.367  1.00  0.00    -0.352 N 
ATOM     34  C   UNL A   1      36.155  30.124  29.290  1.00  0.00     0.251 C 
ATOM     35  H   UNL A   1      34.426  30.756  28.455  1.00  0.00     0.163 HD
ATOM     36  O   UNL A   1      36.039  30.705  30.350  1.00  0.00    -0.269 OA
BRANCH  34  37
ATOM     37  C   UNL A   1      37.426  29.476  28.925  1.00  0.00     0.039 A 
ATOM     38  C   UNL A   1      38.125  29.802  27.760  1.00  0.00     0.014 A 
ATOM     39  C   UNL A   1      37.944  28.578  29.848  1.00  0.00     0.014 A 
ATOM     40  C   UNL A   1      39.404  29.277  27.581  1.00  0.00     0.010 A 
ATOM     41  C   UNL A   1      39.262  28.223  29.764  1.00  0.00     0.010 A 
ATOM     42  C   UNL A   1      39.972  28.501  28.602  1.00  0.00    -0.014 A 
BRANCH  42  43
ATOM     43  C   UNL A   1      41.342  28.005  28.521  1.00  0.00     0.031 A 
ATOM     44  C   UNL A   1      41.518  26.721  27.785  1.00  0.00     0.074 A 
ATOM     45  C   UNL A   1      42.394  28.791  28.847  1.00  0.00     0.049 A 
ATOM     46  N   UNL A   1      41.959  25.596  28.240  1.00  0.00    -0.248 NA
ATOM     47  C   UNL A   1      41.059  26.653  26.388  1.00  0.00     0.031 C 
ATOM     48  C   UNL A   1      42.374  30.214  29.228  1.00  0.00     0.029 A 
ATOM     49  N   UNL A   1      43.728  28.520  28.797  1.00  0.00    -0.354 N 
ATOM     50  C   UNL A   1      42.026  24.734  27.144  1.00  0.00     0.074 A 
ATOM     51  C   UNL A   1      41.306  25.378  26.078  1.00  0.00     0.031 C 
ATOM     52  C   UNL A   1      43.614  30.734  29.125  1.00  0.00     0.029 A 
ATOM     53  C   UNL A   1      44.539  29.643  28.898  1.00  0.00     0.049 A 
ATOM     54  H   UNL A   1      44.086  27.608  28.697  1.00  0.00     0.167 HD
ATOM     55  C   UNL A   1      42.881  23.673  27.133  1.00  0.00     0.037 A 
ATOM     56  C   UNL A   1      45.888  29.679  28.821  1.00  0.00     0.037 A 
ATOM     57  C   UNL A   1      43.442  23.452  28.439  1.00  0.00     0.049 A 
ATOM     58  C   UNL A   1      46.385  28.319  29.114  1.00  0.00     0.074 A 
ATOM     59  C   UNL A   1      43.056  22.819  29.598  1.00  0.00     0.029 A 
ATOM     60  N   UNL A   1      44.471  24.299  28.752  1.00  0.00    -0.354 N 
ATOM     61  N   UNL A   1      46.229  27.728  30.267  1.00  0.00    -0.248 NA
ATOM     62  C   UNL A   1      46.775  27.450  28.011  1.00  0.00     0.031 C 
ATOM     63  C   UNL A   1      43.778  23.451  30.654  1.00  0.00     0.029 A 
ATOM     64  C   UNL A   1      44.610  24.425  30.108  1.00  0.00     0.049 A 
ATOM     65  H   UNL A   1      45.036  24.757  28.089  1.00  0.00     0.167 HD
ATOM     66  C   UNL A   1      46.098  26.392  29.950  1.00  0.00     0.074 A 
ATOM     67  C   UNL A   1      46.614  26.260  28.594  1.00  0.00     0.031 C 
ATOM     68  C   UNL A   1      45.287  25.571  30.673  1.00  0.00     0.037 A 
BRANCH  55  69
ATOM     69  C   UNL A   1      43.541  23.082  25.907  1.00  0.00     0.057 A 
ATOM     70  C   UNL A   1      44.362  23.811  25.026  1.00  0.00     0.134 A 
ATOM     71  C   UNL A   1      43.597  21.683  25.751  1.00  0.00     0.134 A 
ATOM     72  F   UNL A   1      44.513  25.137  25.127  1.00  0.00    -0.206 F 
ATOM     73  C   UNL A   1      45.161  23.203  24.050  1.00  0.00     0.040 A 
ATOM     74  C   UNL A   1      44.434  21.060  24.813  1.00  0.00     0.040 A 
ATOM     75  F   UNL A   1      42.888  20.871  26.550  1.00  0.00    -0.206 F 
ATOM     76  C   UNL A   1      45.219  21.821  23.956  1.00  0.00     0.006 A 
ENDBRANCH  55  69
BRANCH  56  77
ATOM     77  C   UNL A   1      46.754  30.734  28.261  1.00  0.00     0.057 A 
ATOM     78  C   UNL A   1      47.555  31.530  29.098  1.00  0.00     0.134 A 
ATOM     79  C   UNL A   1      46.581  31.186  26.947  1.00  0.00     0.134 A 
ATOM     80  F   UNL A   1      47.742  31.204  30.385  1.00  0.00    -0.206 F 
ATOM     81  C   UNL A   1      48.108  32.740  28.666  1.00  0.00     0.040 A 
ATOM     82  C   UNL A   1      47.128  32.395  26.502  1.00  0.00     0.040 A 
ATOM     83  F   UNL A   1      45.816  30.498  26.088  1.00  0.00    -0.206 F 
ATOM     84  C   UNL A   1      47.876  33.186  27.370  1.00  0.00     0.006 A 
ENDBRANCH  56  77
BRANCH  68  85
ATOM     85  C   UNL A   1      44.931  25.980  32.068  1.00  0.00     0.057 A 
ATOM     86  C   UNL A   1      45.746  25.536  33.114  1.00  0.00     0.134 A 
ATOM     87  C   UNL A   1      43.771  26.682  32.422  1.00  0.00     0.134 A 
ATOM     88  F   UNL A   1      46.856  24.828  32.849  1.00  0.00    -0.206 F 
ATOM     89  C   UNL A   1      45.419  25.760  34.451  1.00  0.00     0.040 A 
ATOM     90  C   UNL A   1      43.446  26.940  33.757  1.00  0.00     0.040 A 
ATOM     91  F   UNL A   1      42.899  27.092  31.494  1.00  0.00    -0.206 F 
ATOM     92  C   UNL A   1      44.266  26.468  34.778  1.00  0.00     0.006 A 
ENDBRANCH  68  85
ENDBRANCH  42  43
ENDBRANCH  34  37
ENDBRANCH  32  33
ENDBRANCH  31  32
ENDBRANCH   1  31
TORSDOF 13
ENDMDL
MODEL 2
REMARK VINA RESULT:     -13.2      1.784      2.482
REMARK SMILES CC1=Nc2c(c(C)nn2-c2ccc(F)cc2)[C@H](c2ccc(C(=O)NCCCCNC(=O)c3ccc(-c4c5nc(c(-c6c(F)cccc6F)c6ccc([nH]6)c(-c6c(F)cccc6F)c6nc(c(-c7c(F)cccc7F)c7ccc4[nH]7)C=C6)C=C5)cc3)cc2)S1
REMARK SMILES IDX 26 1 25 2 24 3 22 4 23 5 21 7 18 8 19 9 87 10 20 11 86 12
REMARK SMILES IDX 17 13 1 14 2 15 3 16 88 17 4 18 5 19 9 20 6 21 8 22 7 23
REMARK SMILES IDX 10 24 11 25 16 26 12 27 15 28 13 29 14 30 27 31 28 32 29 33
REMARK SMILES IDX 30 34 31 36 32 37 33 38 85 39 34 40 84 41 35 42 36 43 37 44
REMARK SMILES IDX 78 45 38 46 83 47 77 48 79 49 39 50 82 51 76 52 75 53 40 55
REMARK SMILES IDX 66 56 49 57 65 58 50 59 53 60 64 61 80 62 51 63 52 64 63 66
REMARK SMILES IDX 81 67 54 68 41 69 42 70 47 71 43 72 44 73 46 74 48 75 45 76
REMARK SMILES IDX 67 77 68 78 73 79 69 80 70 81 72 82 74 83 71 84 55 85 56 86
REMARK SMILES IDX 61 87 57 88 58 89 60 90 62 91 59 92
REMARK H PARENT 24 6 29 35 79 54 53 65
REMARK Flexibility Score: inf
ROOT
ATOM      1  C   UNL A   1      33.124  29.837  25.560  1.00  0.00     0.023 C 
ENDROOT
BRANCH   1   2
ATOM      2  C   UNL A   1      31.629  30.028  25.276  1.00  0.00     0.116 C 
BRANCH   2   3
ATOM      3  N   UNL A   1      31.246  29.432  24.010  1.00  0.00    -0.352 N 
ATOM      4  C   UNL A   1      31.370  28.159  23.514  1.00  0.00     0.251 C 
ATOM      5  O   UNL A   1      30.883  27.929  22.407  1.00  0.00    -0.269 OA
ATOM      6  H   UNL A   1      30.814  30.062  23.388  1.00  0.00     0.163 HD
BRANCH   4   7
ATOM      7  C   UNL A   1      32.006  27.043  24.267  1.00  0.00     0.039 A 
ATOM      8  C   UNL A   1      33.076  24.916  25.817  1.00  0.00    -0.030 A 
ATOM      9  C   UNL A   1      31.838  25.495  26.140  1.00  0.00     0.006 A 
ATOM     10  C   UNL A   1      33.746  25.401  24.682  1.00  0.00     0.006 A 
ATOM     11  C   UNL A   1      31.306  26.534  25.369  1.00  0.00     0.014 A 
ATOM     12  C   UNL A   1      33.214  26.443  23.914  1.00  0.00     0.014 A 
BRANCH   8  13
ATOM     13  C   UNL A   1      33.604  23.763  26.659  1.00  0.00     0.119 C 
ATOM     14  C   UNL A   1      37.180  22.803  24.836  1.00  0.00     0.075 C 
ATOM     15  C   UNL A   1      35.811  22.610  25.434  1.00  0.00     0.074 C 
ATOM     16  N   UNL A   1      35.042  21.709  24.911  1.00  0.00    -0.227 NA
ATOM     17  S   UNL A   1      35.423  23.700  26.761  1.00  0.00    -0.098 SA
ATOM     18  C   UNL A   1      33.759  21.629  25.339  1.00  0.00     0.161 A 
ATOM     19  C   UNL A   1      33.027  22.531  26.077  1.00  0.00     0.038 A 
ATOM     20  N   UNL A   1      32.877  20.628  24.963  1.00  0.00    -0.215 N 
ATOM     21  C   UNL A   1      31.704  22.018  26.077  1.00  0.00     0.067 A 
ATOM     22  N   UNL A   1      31.599  20.920  25.316  1.00  0.00    -0.171 NA
ATOM     23  C   UNL A   1      30.497  22.564  26.744  1.00  0.00     0.069 C 
BRANCH  20  24
ATOM     24  C   UNL A   1      33.189  19.419  24.299  1.00  0.00     0.067 A 
ATOM     25  C   UNL A   1      34.203  18.591  24.806  1.00  0.00     0.031 A 
ATOM     26  C   UNL A   1      32.489  19.063  23.140  1.00  0.00     0.031 A 
ATOM     27  C   UNL A   1      34.518  17.406  24.146  1.00  0.00     0.041 A 
ATOM     28  C   UNL A   1      32.850  17.901  22.456  1.00  0.00     0.041 A 
ATOM     29  C   UNL A   1      33.854  17.082  22.967  1.00  0.00     0.123 A 
ATOM     30  F   UNL A   1      34.187  15.961  22.314  1.00  0.00    -0.207 F 
ENDBRANCH  20  24
ENDBRANCH   8  13
ENDBRANCH   4   7
ENDBRANCH   2   3
ENDBRANCH   1   2
BRANCH   1  31
ATOM     31  C   UNL A   1      33.460  28.971  26.783  1.00  0.00     0.023 C 
BRANCH  31  32
ATOM     32  C   UNL A   1      34.898  29.081  27.278  1.00  0.00     0.116 C 
BRANCH  32  33
ATOM     33  N   UNL A   1      35.062  30.052  28.363  1.00  0.00    -0.352 N 
ATOM     34  C   UNL A   1      36.091  30.135  29.290  1.00  0.00     0.251 C 
ATOM     35  H   UNL A   1      34.354  30.730  28.444  1.00  0.00     0.163 HD
ATOM     36  O   UNL A   1      35.960  30.721  30.346  1.00  0.00    -0.269 OA
BRANCH  34  37
ATOM     37  C   UNL A   1      37.375  29.508  28.934  1.00  0.00     0.039 A 
ATOM     38  C   UNL A   1      38.081  29.852  27.778  1.00  0.00     0.014 A 
ATOM     39  C   UNL A   1      37.897  28.612  29.857  1.00  0.00     0.014 A 
ATOM     40  C   UNL A   1      39.370  29.346  27.609  1.00  0.00     0.010 A 
ATOM     41  C   UNL A   1      39.220  28.276  29.784  1.00  0.00     0.010 A 
ATOM     42  C   UNL A   1      39.939  28.572  28.631  1.00  0.00    -0.014 A 
BRANCH  42  43
ATOM     43  C   UNL A   1      41.316  28.097  28.561  1.00  0.00     0.031 A 
ATOM     44  C   UNL A   1      41.518  26.821  27.819  1.00  0.00     0.074 A 
ATOM     45  C   UNL A   1      42.354  28.895  28.904  1.00  0.00     0.049 A 
ATOM     46  N   UNL A   1      41.971  25.699  28.271  1.00  0.00    -0.248 NA
ATOM     47  C   UNL A   1      41.076  26.755  26.416  1.00  0.00     0.031 C 
ATOM     48  C   UNL A   1      42.308  30.315  29.294  1.00  0.00     0.029 A 
ATOM     49  N   UNL A   1      43.692  28.644  28.866  1.00  0.00    -0.354 N 
ATOM     50  C   UNL A   1      42.062  24.845  27.170  1.00  0.00     0.074 A 
ATOM     51  C   UNL A   1      41.344  25.486  26.100  1.00  0.00     0.031 C 
ATOM     52  C   UNL A   1      43.542  30.854  29.208  1.00  0.00     0.029 A 
ATOM     53  C   UNL A   1      44.485  29.778  28.983  1.00  0.00     0.049 A 
ATOM     54  H   UNL A   1      44.063  27.738  28.763  1.00  0.00     0.167 HD
ATOM     55  C   UNL A   1      42.933  23.797  27.160  1.00  0.00     0.037 A 
ATOM     56  C   UNL A   1      45.834  29.834  28.921  1.00  0.00     0.037 A 
ATOM     57  C   UNL A   1      43.483  23.575  28.470  1.00  0.00     0.049 A 
ATOM     58  C   UNL A   1      46.348  28.479  29.209  1.00  0.00     0.074 A 
ATOM     59  C   UNL A   1      43.094  22.929  29.621  1.00  0.00     0.029 A 
ATOM     60  N   UNL A   1      44.496  24.434  28.800  1.00  0.00    -0.354 N 
ATOM     61  N   UNL A   1      46.188  27.878  30.357  1.00  0.00    -0.248 NA
ATOM     62  C   UNL A   1      46.762  27.624  28.105  1.00  0.00     0.031 C 
ATOM     63  C   UNL A   1      43.796  23.563  30.689  1.00  0.00     0.029 A 
ATOM     64  C   UNL A   1      44.620  24.553  30.159  1.00  0.00     0.049 A 
ATOM     65  H   UNL A   1      45.062  24.905  28.147  1.00  0.00     0.167 HD
ATOM     66  C   UNL A   1      46.080  26.543  30.029  1.00  0.00     0.074 A 
ATOM     67  C   UNL A   1      46.613  26.427  28.678  1.00  0.00     0.031 C 
ATOM     68  C   UNL A   1      45.274  25.705  30.739  1.00  0.00     0.037 A 
BRANCH  55  69
ATOM     69  C   UNL A   1      43.614  23.224  25.937  1.00  0.00     0.057 A 
ATOM     70  C   UNL A   1      44.530  23.936  25.140  1.00  0.00     0.134 A 
ATOM     71  C   UNL A   1      43.580  21.834  25.707  1.00  0.00     0.134 A 
ATOM     72  F   UNL A   1      44.768  25.241  25.322  1.00  0.00    -0.206 F 
ATOM     73  C   UNL A   1      45.335  23.323  24.173  1.00  0.00     0.040 A 
ATOM     74  C   UNL A   1      44.420  21.202  24.778  1.00  0.00     0.040 A 
ATOM     75  F   UNL A   1      42.774  21.036  26.423  1.00  0.00    -0.206 F 
ATOM     76  C   UNL A   1      45.301  21.948  24.005  1.00  0.00     0.006 A 
ENDBRANCH  55  69
BRANCH  56  77
ATOM     77  C   UNL A   1      46.691  30.905  28.377  1.00  0.00     0.057 A 
ATOM     78  C   UNL A   1      47.345  31.809  29.231  1.00  0.00     0.134 A 
ATOM     79  C   UNL A   1      46.635  31.254  27.022  1.00  0.00     0.134 A 
ATOM     80  F   UNL A   1      47.409  31.586  30.552  1.00  0.00    -0.206 F 
ATOM     81  C   UNL A   1      47.867  33.022  28.770  1.00  0.00     0.040 A 
ATOM     82  C   UNL A   1      47.153  32.465  26.547  1.00  0.00     0.040 A 
ATOM     83  F   UNL A   1      46.012  30.457  26.142  1.00  0.00    -0.206 F 
ATOM     84  C   UNL A   1      47.753  33.362  27.427  1.00  0.00     0.006 A 
ENDBRANCH  56  77
BRANCH  68  85
ATOM     85  C   UNL A   1      44.897  26.099  32.132  1.00  0.00     0.057 A 
ATOM     86  C   UNL A   1      45.694  25.640  33.185  1.00  0.00     0.134 A 
ATOM     87  C   UNL A   1      43.734  26.801  32.476  1.00  0.00     0.134 A 
ATOM     88  F   UNL A   1      46.806  24.931  32.930  1.00  0.00    -0.206 F 
ATOM     89  C   UNL A   1      45.347  25.849  34.520  1.00  0.00     0.040 A 
ATOM     90  C   UNL A   1      43.389  27.044  33.809  1.00  0.00     0.040 A 
ATOM     91  F   UNL A   1      42.878  27.225  31.540  1.00  0.00    -0.206 F 
ATOM     92  C   UNL A   1      44.191  26.558  34.836  1.00  0.00     0.006 A 
ENDBRANCH  68  85
ENDBRANCH  42  43
ENDBRANCH  34  37
ENDBRANCH  32  33
ENDBRANCH  31  32
ENDBRANCH   1  31
TORSDOF 13
ENDMDL
MODEL 3
REMARK VINA RESULT:     -12.8      3.175      7.807
REMARK SMILES CC1=Nc2c(c(C)nn2-c2ccc(F)cc2)[C@H](c2ccc(C(=O)NCCCCNC(=O)c3ccc(-c4c5nc(c(-c6c(F)cccc6F)c6ccc([nH]6)c(-c6c(F)cccc6F)c6nc(c(-c7c(F)cccc7F)c7ccc4[nH]7)C=C6)C=C5)cc3)cc2)S1
REMARK SMILES IDX 26 1 25 2 24 3 22 4 23 5 21 7 18 8 19 9 87 10 20 11 86 12
REMARK SMILES IDX 17 13 1 14 2 15 3 16 88 17 4 18 5 19 9 20 6 21 8 22 7 23
REMARK SMILES IDX 10 24 11 25 16 26 12 27 15 28 13 29 14 30 27 31 28 32 29 33
REMARK SMILES IDX 30 34 31 36 32 37 33 38 85 39 34 40 84 41 35 42 36 43 37 44
REMARK SMILES IDX 78 45 38 46 83 47 77 48 79 49 39 50 82 51 76 52 75 53 40 55
REMARK SMILES IDX 66 56 49 57 65 58 50 59 53 60 64 61 80 62 51 63 52 64 63 66
REMARK SMILES IDX 81 67 54 68 41 69 42 70 47 71 43 72 44 73 46 74 48 75 45 76
REMARK SMILES IDX 67 77 68 78 73 79 69 80 70 81 72 82 74 83 71 84 55 85 56 86
REMARK SMILES IDX 61 87 57 88 58 89 60 90 62 91 59 92
REMARK H PARENT 24 6 29 35 79 54 53 65
REMARK Flexibility Score: inf
ROOT
ATOM      1  C   UNL A   1      39.993  21.596  26.421  1.00  0.00     0.023 C 
ENDROOT
BRANCH   1   2
ATOM      2  C   UNL A   1      38.618  21.737  25.755  1.00  0.00     0.116 C 
BRANCH   2   3
ATOM      3  N   UNL A   1      38.057  20.444  25.413  1.00  0.00    -0.352 N 
ATOM      4  C   UNL A   1      36.827  20.069  24.935  1.00  0.00     0.251 C 
ATOM      5  O   UNL A   1      36.656  18.878  24.672  1.00  0.00    -0.269 OA
ATOM      6  H   UNL A   1      38.677  19.691  25.549  1.00  0.00     0.163 HD
BRANCH   4   7
ATOM      7  C   UNL A   1      35.721  21.030  24.669  1.00  0.00     0.039 A 
ATOM      8  C   UNL A   1      33.495  22.737  24.220  1.00  0.00    -0.030 A 
ATOM      9  C   UNL A   1      33.321  21.440  24.732  1.00  0.00     0.006 A 
ATOM     10  C   UNL A   1      34.808  23.171  23.975  1.00  0.00     0.006 A 
ATOM     11  C   UNL A   1      34.419  20.605  24.963  1.00  0.00     0.014 A 
ATOM     12  C   UNL A   1      35.904  22.332  24.205  1.00  0.00     0.014 A 
BRANCH   8  13
ATOM     13  C   UNL A   1      32.278  23.629  24.016  1.00  0.00     0.119 C 
ATOM     14  C   UNL A   1      33.691  26.634  21.565  1.00  0.00     0.075 C 
ATOM     15  C   UNL A   1      33.013  25.982  22.742  1.00  0.00     0.074 C 
ATOM     16  N   UNL A   1      33.094  26.572  23.892  1.00  0.00    -0.227 NA
ATOM     17  S   UNL A   1      32.230  24.446  22.387  1.00  0.00    -0.098 SA
ATOM     18  C   UNL A   1      32.621  25.924  24.984  1.00  0.00     0.161 A 
ATOM     19  C   UNL A   1      32.286  24.597  25.135  1.00  0.00     0.038 A 
ATOM     20  N   UNL A   1      32.522  26.495  26.243  1.00  0.00    -0.215 N 
ATOM     21  C   UNL A   1      32.025  24.440  26.521  1.00  0.00     0.067 A 
ATOM     22  N   UNL A   1      32.269  25.568  27.202  1.00  0.00    -0.171 NA
ATOM     23  C   UNL A   1      31.591  23.223  27.251  1.00  0.00     0.069 C 
BRANCH  20  24
ATOM     24  C   UNL A   1      32.648  27.865  26.572  1.00  0.00     0.067 A 
ATOM     25  C   UNL A   1      31.508  28.682  26.587  1.00  0.00     0.031 A 
ATOM     26  C   UNL A   1      33.910  28.392  26.873  1.00  0.00     0.031 A 
ATOM     27  C   UNL A   1      31.634  30.034  26.900  1.00  0.00     0.041 A 
ATOM     28  C   UNL A   1      34.033  29.759  27.131  1.00  0.00     0.041 A 
ATOM     29  C   UNL A   1      32.896  30.564  27.149  1.00  0.00     0.123 A 
ATOM     30  F   UNL A   1      33.018  31.871  27.410  1.00  0.00    -0.207 F 
ENDBRANCH  20  24
ENDBRANCH   8  13
ENDBRANCH   4   7
ENDBRANCH   2   3
ENDBRANCH   1   2
BRANCH   1  31
ATOM     31  C   UNL A   1      40.667  20.224  26.264  1.00  0.00     0.023 C 
BRANCH  31  32
ATOM     32  C   UNL A   1      42.014  20.082  26.964  1.00  0.00     0.116 C 
BRANCH  32  33
ATOM     33  N   UNL A   1      43.118  19.805  26.041  1.00  0.00    -0.352 N 
ATOM     34  C   UNL A   1      43.821  20.705  25.252  1.00  0.00     0.251 C 
ATOM     35  H   UNL A   1      43.395  18.864  25.971  1.00  0.00     0.163 HD
ATOM     36  O   UNL A   1      44.448  20.350  24.274  1.00  0.00    -0.269 OA
BRANCH  34  37
ATOM     37  C   UNL A   1      43.809  22.119  25.663  1.00  0.00     0.039 A 
ATOM     38  C   UNL A   1      43.039  23.083  25.006  1.00  0.00     0.014 A 
ATOM     39  C   UNL A   1      44.541  22.433  26.800  1.00  0.00     0.014 A 
ATOM     40  C   UNL A   1      42.944  24.356  25.568  1.00  0.00     0.010 A 
ATOM     41  C   UNL A   1      44.293  23.612  27.446  1.00  0.00     0.010 A 
ATOM     42  C   UNL A   1      43.562  24.604  26.803  1.00  0.00    -0.014 A 
BRANCH  42  43
ATOM     43  C   UNL A   1      43.418  25.882  27.492  1.00  0.00     0.031 A 
ATOM     44  C   UNL A   1      44.410  26.929  27.118  1.00  0.00     0.074 A 
ATOM     45  C   UNL A   1      42.306  26.175  28.205  1.00  0.00     0.049 A 
ATOM     46  N   UNL A   1      45.288  27.501  27.872  1.00  0.00    -0.248 NA
ATOM     47  C   UNL A   1      44.500  27.327  25.703  1.00  0.00     0.031 C 
ATOM     48  C   UNL A   1      41.081  25.366  28.338  1.00  0.00     0.029 A 
ATOM     49  N   UNL A   1      41.979  27.315  28.874  1.00  0.00    -0.354 N 
ATOM     50  C   UNL A   1      45.904  28.473  27.082  1.00  0.00     0.074 A 
ATOM     51  C   UNL A   1      45.504  28.206  25.726  1.00  0.00     0.031 C 
ATOM     52  C   UNL A   1      40.077  26.131  28.815  1.00  0.00     0.029 A 
ATOM     53  C   UNL A   1      40.638  27.400  29.230  1.00  0.00     0.049 A 
ATOM     54  H   UNL A   1      42.635  28.018  29.086  1.00  0.00     0.167 HD
ATOM     55  C   UNL A   1      46.493  29.567  27.641  1.00  0.00     0.037 A 
ATOM     56  C   UNL A   1      40.026  28.436  29.844  1.00  0.00     0.037 A 
ATOM     57  C   UNL A   1      46.609  29.415  29.067  1.00  0.00     0.049 A 
ATOM     58  C   UNL A   1      41.072  29.232  30.519  1.00  0.00     0.074 A 
ATOM     59  C   UNL A   1      47.478  28.801  29.939  1.00  0.00     0.029 A 
ATOM     60  N   UNL A   1      45.450  29.671  29.749  1.00  0.00    -0.354 N 
ATOM     61  N   UNL A   1      41.805  28.775  31.497  1.00  0.00    -0.248 NA
ATOM     62  C   UNL A   1      41.557  30.452  29.887  1.00  0.00     0.031 C 
ATOM     63  C   UNL A   1      46.731  28.538  31.126  1.00  0.00     0.029 A 
ATOM     64  C   UNL A   1      45.439  29.031  30.959  1.00  0.00     0.049 A 
ATOM     65  H   UNL A   1      44.721  30.240  29.413  1.00  0.00     0.167 HD
ATOM     66  C   UNL A   1      43.023  29.401  31.330  1.00  0.00     0.074 A 
ATOM     67  C   UNL A   1      42.763  30.535  30.454  1.00  0.00     0.031 C 
ATOM     68  C   UNL A   1      44.190  28.769  31.639  1.00  0.00     0.037 A 
BRANCH  55  69
ATOM     69  C   UNL A   1      46.600  30.936  27.007  1.00  0.00     0.057 A 
ATOM     70  C   UNL A   1      45.492  31.737  26.670  1.00  0.00     0.134 A 
ATOM     71  C   UNL A   1      47.841  31.602  26.991  1.00  0.00     0.134 A 
ATOM     72  F   UNL A   1      44.235  31.284  26.758  1.00  0.00    -0.206 F 
ATOM     73  C   UNL A   1      45.606  33.088  26.322  1.00  0.00     0.040 A 
ATOM     74  C   UNL A   1      47.961  32.968  26.695  1.00  0.00     0.040 A 
ATOM     75  F   UNL A   1      48.972  30.962  27.324  1.00  0.00    -0.206 F 
ATOM     76  C   UNL A   1      46.840  33.716  26.357  1.00  0.00     0.006 A 
ENDBRANCH  55  69
BRANCH  56  77
ATOM     77  C   UNL A   1      38.645  28.928  29.673  1.00  0.00     0.057 A 
ATOM     78  C   UNL A   1      38.280  29.669  28.536  1.00  0.00     0.134 A 
ATOM     79  C   UNL A   1      37.751  28.952  30.749  1.00  0.00     0.134 A 
ATOM     80  F   UNL A   1      39.093  29.745  27.473  1.00  0.00    -0.206 F 
ATOM     81  C   UNL A   1      37.112  30.437  28.495  1.00  0.00     0.040 A 
ATOM     82  C   UNL A   1      36.579  29.717  30.721  1.00  0.00     0.040 A 
ATOM     83  F   UNL A   1      38.032  28.288  31.880  1.00  0.00    -0.206 F 
ATOM     84  C   UNL A   1      36.268  30.480  29.599  1.00  0.00     0.006 A 
ENDBRANCH  56  77
BRANCH  68  85
ATOM     85  C   UNL A   1      44.138  27.618  32.595  1.00  0.00     0.057 A 
ATOM     86  C   UNL A   1      44.230  27.893  33.962  1.00  0.00     0.134 A 
ATOM     87  C   UNL A   1      44.122  26.268  32.218  1.00  0.00     0.134 A 
ATOM     88  F   UNL A   1      44.284  29.164  34.392  1.00  0.00    -0.206 F 
ATOM     89  C   UNL A   1      44.320  26.878  34.915  1.00  0.00     0.040 A 
ATOM     90  C   UNL A   1      44.181  25.240  33.164  1.00  0.00     0.040 A 
ATOM     91  F   UNL A   1      44.098  25.909  30.930  1.00  0.00    -0.206 F 
ATOM     92  C   UNL A   1      44.292  25.544  34.517  1.00  0.00     0.006 A 
ENDBRANCH  68  85
ENDBRANCH  42  43
ENDBRANCH  34  37
ENDBRANCH  32  33
ENDBRANCH  31  32
ENDBRANCH   1  31
TORSDOF 13
ENDMDL
