MODEL 1
REMARK VINA RESULT:     -11.0      0.000      0.000
REMARK SMILES C[C@@H](C(=O)NCCCCNC(=O)c1ccc(-c2c3nc(c(-c4c(F)cccc4F)c4ccc([nH]4)c(-c4c(F)cccc4F)c4nc(c(-c5c(F)cccc5F)c5ccc2[nH]5)C=C4)C=C3)cc1)c1ccc(Cc2ccco2)cc1F
REMARK SMILES IDX 7 1 6 2 5 3 3 4 4 5 2 7 1 8 67 9 68 10 78 11 69 12 77 13
REMARK SMILES IDX 79 14 70 15 71 16 72 17 73 18 76 19 74 20 75 21 8 22 9 23
REMARK SMILES IDX 10 24 11 25 12 27 13 28 14 29 66 30 15 31 65 32 16 33 17 34
REMARK SMILES IDX 18 35 59 36 19 37 64 38 58 39 60 40 20 41 63 42 57 43 56 44
REMARK SMILES IDX 21 46 47 47 30 48 46 49 31 50 34 51 45 52 61 53 32 54 33 55
REMARK SMILES IDX 44 57 62 58 35 59 22 60 23 61 28 62 24 63 25 64 27 65 29 66
REMARK SMILES IDX 26 67 48 68 49 69 54 70 50 71 51 72 53 73 55 74 52 75 36 76
REMARK SMILES IDX 37 77 42 78 38 79 39 80 41 81 43 82 40 83
REMARK H PARENT 5 6 10 26 60 45 34 56
REMARK Flexibility Score: inf
ROOT
ATOM      1  C   UNL A   1      36.266  19.332  25.017  1.00  0.00     0.023 C 
ENDROOT
BRANCH   1   2
ATOM      2  C   UNL A   1      35.033  20.201  24.763  1.00  0.00     0.116 C 
BRANCH   2   3
ATOM      3  N   UNL A   1      34.659  20.940  25.950  1.00  0.00    -0.356 N 
ATOM      4  C   UNL A   1      34.942  22.222  26.322  1.00  0.00     0.227 C 
ATOM      5  O   UNL A   1      34.506  22.562  27.424  1.00  0.00    -0.274 OA
ATOM      6  H   UNL A   1      34.112  20.435  26.594  1.00  0.00     0.163 HD
BRANCH   4   7
ATOM      7  C   UNL A   1      35.716  23.158  25.374  1.00  0.00     0.108 C 
ATOM      8  C   UNL A   1      36.889  23.868  26.054  1.00  0.00     0.023 C 
BRANCH   7   9
ATOM      9  C   UNL A   1      34.854  24.229  24.714  1.00  0.00    -0.000 A 
ATOM     10  C   UNL A   1      34.572  25.450  25.343  1.00  0.00     0.008 A 
ATOM     11  C   UNL A   1      34.399  24.048  23.404  1.00  0.00     0.127 A 
ATOM     12  C   UNL A   1      33.818  26.430  24.695  1.00  0.00     0.005 A 
ATOM     13  C   UNL A   1      33.643  25.021  22.751  1.00  0.00     0.043 A 
ATOM     14  F   UNL A   1      34.713  22.927  22.739  1.00  0.00    -0.207 F 
ATOM     15  C   UNL A   1      33.330  26.222  23.399  1.00  0.00    -0.038 A 
BRANCH  15  16
ATOM     16  C   UNL A   1      32.488  27.278  22.719  1.00  0.00     0.111 C 
BRANCH  16  17
ATOM     17  C   UNL A   1      31.038  27.208  23.064  1.00  0.00     0.108 A 
ATOM     18  C   UNL A   1      30.254  26.294  23.740  1.00  0.00     0.046 A 
ATOM     19  O   UNL A   1      30.275  28.274  22.682  1.00  0.00    -0.469 OA
ATOM     20  C   UNL A   1      28.943  26.825  23.764  1.00  0.00     0.042 A 
ATOM     21  C   UNL A   1      29.008  28.030  23.109  1.00  0.00     0.195 A 
ENDBRANCH  16  17
ENDBRANCH  15  16
ENDBRANCH   7   9
ENDBRANCH   4   7
ENDBRANCH   2   3
ENDBRANCH   1   2
BRANCH   1  22
ATOM     22  C   UNL A   1      37.595  19.956  24.589  1.00  0.00     0.023 C 
BRANCH  22  23
ATOM     23  C   UNL A   1      38.572  20.237  25.722  1.00  0.00     0.116 C 
BRANCH  23  24
ATOM     24  N   UNL A   1      39.710  19.332  25.720  1.00  0.00    -0.352 N 
ATOM     25  C   UNL A   1      41.021  19.595  26.022  1.00  0.00     0.251 C 
ATOM     26  H   UNL A   1      39.512  18.401  25.465  1.00  0.00     0.163 HD
ATOM     27  O   UNL A   1      41.882  18.740  25.826  1.00  0.00    -0.269 OA
BRANCH  25  28
ATOM     28  C   UNL A   1      41.401  20.917  26.563  1.00  0.00     0.039 A 
ATOM     29  C   UNL A   1      41.339  21.123  27.943  1.00  0.00     0.014 A 
ATOM     30  C   UNL A   1      41.809  21.950  25.715  1.00  0.00     0.014 A 
ATOM     31  C   UNL A   1      41.724  22.355  28.475  1.00  0.00     0.010 A 
ATOM     32  C   UNL A   1      42.276  23.144  26.253  1.00  0.00     0.010 A 
ATOM     33  C   UNL A   1      42.214  23.369  27.636  1.00  0.00    -0.014 A 
BRANCH  33  34
ATOM     34  C   UNL A   1      42.618  24.688  28.183  1.00  0.00     0.031 A 
ATOM     35  C   UNL A   1      41.584  25.760  28.394  1.00  0.00     0.074 A 
ATOM     36  C   UNL A   1      43.915  24.940  28.447  1.00  0.00     0.049 A 
ATOM     37  N   UNL A   1      41.735  26.984  28.833  1.00  0.00    -0.248 NA
ATOM     38  C   UNL A   1      40.197  25.421  28.032  1.00  0.00     0.031 C 
ATOM     39  C   UNL A   1      45.018  24.000  28.243  1.00  0.00     0.029 A 
ATOM     40  N   UNL A   1      44.522  26.064  28.944  1.00  0.00    -0.354 N 
ATOM     41  C   UNL A   1      40.472  27.563  28.780  1.00  0.00     0.074 A 
ATOM     42  C   UNL A   1      39.581  26.580  28.206  1.00  0.00     0.031 C 
ATOM     43  C   UNL A   1      46.163  24.574  28.648  1.00  0.00     0.029 A 
ATOM     44  C   UNL A   1      45.879  25.931  29.105  1.00  0.00     0.049 A 
ATOM     45  H   UNL A   1      44.031  26.889  29.164  1.00  0.00     0.167 HD
ATOM     46  C   UNL A   1      40.084  28.792  29.196  1.00  0.00     0.037 A 
ATOM     47  C   UNL A   1      46.790  26.805  29.575  1.00  0.00     0.037 A 
ATOM     48  C   UNL A   1      40.971  29.758  29.791  1.00  0.00     0.049 A 
ATOM     49  C   UNL A   1      46.336  28.164  30.030  1.00  0.00     0.074 A 
ATOM     50  C   UNL A   1      40.667  31.006  30.303  1.00  0.00     0.029 A 
ATOM     51  N   UNL A   1      42.338  29.581  29.946  1.00  0.00    -0.354 N 
ATOM     52  N   UNL A   1      45.128  28.673  30.045  1.00  0.00    -0.248 NA
ATOM     53  C   UNL A   1      47.374  29.066  30.546  1.00  0.00     0.031 C 
ATOM     54  C   UNL A   1      41.860  31.607  30.721  1.00  0.00     0.029 A 
ATOM     55  C   UNL A   1      42.897  30.708  30.526  1.00  0.00     0.049 A 
ATOM     56  H   UNL A   1      42.837  28.775  29.683  1.00  0.00     0.167 HD
ATOM     57  C   UNL A   1      45.253  29.937  30.610  1.00  0.00     0.074 A 
ATOM     58  C   UNL A   1      46.654  30.112  30.929  1.00  0.00     0.031 C 
ATOM     59  C   UNL A   1      44.292  30.864  30.850  1.00  0.00     0.037 A 
BRANCH  46  60
ATOM     60  C   UNL A   1      38.638  29.157  29.009  1.00  0.00     0.057 A 
ATOM     61  C   UNL A   1      38.135  29.602  27.778  1.00  0.00     0.134 A 
ATOM     62  C   UNL A   1      37.734  29.060  30.075  1.00  0.00     0.134 A 
ATOM     63  F   UNL A   1      38.947  29.730  26.717  1.00  0.00    -0.206 F 
ATOM     64  C   UNL A   1      36.798  29.977  27.626  1.00  0.00     0.040 A 
ATOM     65  C   UNL A   1      36.388  29.400  29.926  1.00  0.00     0.040 A 
ATOM     66  F   UNL A   1      38.144  28.635  31.280  1.00  0.00    -0.206 F 
ATOM     67  C   UNL A   1      35.920  29.871  28.701  1.00  0.00     0.006 A 
ENDBRANCH  46  60
BRANCH  47  68
ATOM     68  C   UNL A   1      48.214  26.402  29.689  1.00  0.00     0.057 A 
ATOM     69  C   UNL A   1      48.702  25.811  30.861  1.00  0.00     0.134 A 
ATOM     70  C   UNL A   1      49.120  26.599  28.640  1.00  0.00     0.134 A 
ATOM     71  F   UNL A   1      47.886  25.613  31.906  1.00  0.00    -0.206 F 
ATOM     72  C   UNL A   1      50.043  25.448  30.995  1.00  0.00     0.040 A 
ATOM     73  C   UNL A   1      50.459  26.218  28.751  1.00  0.00     0.040 A 
ATOM     74  F   UNL A   1      48.714  27.152  27.489  1.00  0.00    -0.206 F 
ATOM     75  C   UNL A   1      50.925  25.647  29.934  1.00  0.00     0.006 A 
ENDBRANCH  47  68
BRANCH  59  76
ATOM     76  C   UNL A   1      44.715  32.127  31.545  1.00  0.00     0.057 A 
ATOM     77  C   UNL A   1      45.114  33.271  30.843  1.00  0.00     0.134 A 
ATOM     78  C   UNL A   1      44.694  32.204  32.945  1.00  0.00     0.134 A 
ATOM     79  F   UNL A   1      45.167  33.262  29.502  1.00  0.00    -0.206 F 
ATOM     80  C   UNL A   1      45.508  34.434  31.506  1.00  0.00     0.040 A 
ATOM     81  C   UNL A   1      45.054  33.372  33.618  1.00  0.00     0.040 A 
ATOM     82  F   UNL A   1      44.311  31.149  33.680  1.00  0.00    -0.206 F 
ATOM     83  C   UNL A   1      45.472  34.488  32.898  1.00  0.00     0.006 A 
ENDBRANCH  59  76
ENDBRANCH  33  34
ENDBRANCH  25  28
ENDBRANCH  23  24
ENDBRANCH  22  23
ENDBRANCH   1  22
TORSDOF 14
ENDMDL
MODEL 2
REMARK VINA RESULT:     -11.0      1.089      6.475
REMARK SMILES C[C@@H](C(=O)NCCCCNC(=O)c1ccc(-c2c3nc(c(-c4c(F)cccc4F)c4ccc([nH]4)c(-c4c(F)cccc4F)c4nc(c(-c5c(F)cccc5F)c5ccc2[nH]5)C=C4)C=C3)cc1)c1ccc(Cc2ccco2)cc1F
REMARK SMILES IDX 7 1 6 2 5 3 3 4 4 5 2 7 1 8 67 9 68 10 78 11 69 12 77 13
REMARK SMILES IDX 79 14 70 15 71 16 72 17 73 18 76 19 74 20 75 21 8 22 9 23
REMARK SMILES IDX 10 24 11 25 12 27 13 28 14 29 66 30 15 31 65 32 16 33 17 34
REMARK SMILES IDX 18 35 59 36 19 37 64 38 58 39 60 40 20 41 63 42 57 43 56 44
REMARK SMILES IDX 21 46 47 47 30 48 46 49 31 50 34 51 45 52 61 53 32 54 33 55
REMARK SMILES IDX 44 57 62 58 35 59 22 60 23 61 28 62 24 63 25 64 27 65 29 66
REMARK SMILES IDX 26 67 48 68 49 69 54 70 50 71 51 72 53 73 55 74 52 75 36 76
REMARK SMILES IDX 37 77 42 78 38 79 39 80 41 81 43 82 40 83
REMARK H PARENT 5 6 10 26 60 45 34 56
REMARK Flexibility Score: inf
ROOT
ATOM      1  C   UNL A   1      37.325  20.833  24.478  1.00  0.00     0.023 C 
ENDROOT
BRANCH   1   2
ATOM      2  C   UNL A   1      36.260  21.276  25.484  1.00  0.00     0.116 C 
BRANCH   2   3
ATOM      3  N   UNL A   1      34.950  21.323  24.874  1.00  0.00    -0.356 N 
ATOM      4  C   UNL A   1      33.813  21.969  25.262  1.00  0.00     0.227 C 
ATOM      5  O   UNL A   1      32.827  21.788  24.543  1.00  0.00    -0.274 OA
ATOM      6  H   UNL A   1      34.864  20.803  24.042  1.00  0.00     0.163 HD
BRANCH   4   7
ATOM      7  C   UNL A   1      33.822  22.891  26.497  1.00  0.00     0.108 C 
ATOM      8  C   UNL A   1      32.982  22.352  27.657  1.00  0.00     0.023 C 
BRANCH   7   9
ATOM      9  C   UNL A   1      33.353  24.314  26.216  1.00  0.00    -0.000 A 
ATOM     10  C   UNL A   1      32.114  24.793  26.667  1.00  0.00     0.008 A 
ATOM     11  C   UNL A   1      34.206  25.217  25.573  1.00  0.00     0.127 A 
ATOM     12  C   UNL A   1      31.730  26.114  26.434  1.00  0.00     0.005 A 
ATOM     13  C   UNL A   1      33.830  26.538  25.336  1.00  0.00     0.043 A 
ATOM     14  F   UNL A   1      35.431  24.821  25.196  1.00  0.00    -0.207 F 
ATOM     15  C   UNL A   1      32.574  26.999  25.752  1.00  0.00    -0.038 A 
BRANCH  15  16
ATOM     16  C   UNL A   1      32.136  28.420  25.479  1.00  0.00     0.111 C 
BRANCH  16  17
ATOM     17  C   UNL A   1      31.093  28.536  24.418  1.00  0.00     0.108 A 
ATOM     18  C   UNL A   1      30.508  27.641  23.543  1.00  0.00     0.046 A 
ATOM     19  O   UNL A   1      30.532  29.770  24.256  1.00  0.00    -0.469 OA
ATOM     20  C   UNL A   1      29.547  28.369  22.802  1.00  0.00     0.042 A 
ATOM     21  C   UNL A   1      29.599  29.658  23.274  1.00  0.00     0.195 A 
ENDBRANCH  16  17
ENDBRANCH  15  16
ENDBRANCH   7   9
ENDBRANCH   4   7
ENDBRANCH   2   3
ENDBRANCH   1   2
BRANCH   1  22
ATOM     22  C   UNL A   1      38.148  19.616  24.904  1.00  0.00     0.023 C 
BRANCH  22  23
ATOM     23  C   UNL A   1      39.173  19.880  25.997  1.00  0.00     0.116 C 
BRANCH  23  24
ATOM     24  N   UNL A   1      40.400  19.122  25.812  1.00  0.00    -0.352 N 
ATOM     25  C   UNL A   1      41.699  19.533  25.967  1.00  0.00     0.251 C 
ATOM     26  H   UNL A   1      40.282  18.184  25.537  1.00  0.00     0.163 HD
ATOM     27  O   UNL A   1      42.623  18.798  25.625  1.00  0.00    -0.269 OA
BRANCH  25  28
ATOM     28  C   UNL A   1      41.986  20.871  26.524  1.00  0.00     0.039 A 
ATOM     29  C   UNL A   1      42.269  21.920  25.645  1.00  0.00     0.014 A 
ATOM     30  C   UNL A   1      41.983  21.091  27.904  1.00  0.00     0.014 A 
ATOM     31  C   UNL A   1      42.511  23.198  26.152  1.00  0.00     0.010 A 
ATOM     32  C   UNL A   1      42.137  22.381  28.400  1.00  0.00     0.010 A 
ATOM     33  C   UNL A   1      42.428  23.443  27.532  1.00  0.00    -0.014 A 
BRANCH  33  34
ATOM     34  C   UNL A   1      42.692  24.793  28.088  1.00  0.00     0.031 A 
ATOM     35  C   UNL A   1      44.092  25.179  28.486  1.00  0.00     0.074 A 
ATOM     36  C   UNL A   1      41.674  25.655  28.280  1.00  0.00     0.049 A 
ATOM     37  N   UNL A   1      44.526  26.295  29.014  1.00  0.00    -0.248 NA
ATOM     38  C   UNL A   1      45.138  24.161  28.292  1.00  0.00     0.031 C 
ATOM     39  C   UNL A   1      40.268  25.384  27.978  1.00  0.00     0.029 A 
ATOM     40  N   UNL A   1      41.670  26.934  28.775  1.00  0.00    -0.354 N 
ATOM     41  C   UNL A   1      45.885  26.105  29.233  1.00  0.00     0.074 A 
ATOM     42  C   UNL A   1      46.190  24.746  28.842  1.00  0.00     0.031 C 
ATOM     43  C   UNL A   1      39.541  26.478  28.258  1.00  0.00     0.029 A 
ATOM     44  C   UNL A   1      40.424  27.512  28.792  1.00  0.00     0.049 A 
ATOM     45  H   UNL A   1      42.482  27.393  29.088  1.00  0.00     0.167 HD
ATOM     46  C   UNL A   1      46.803  26.988  29.694  1.00  0.00     0.037 A 
ATOM     47  C   UNL A   1      40.040  28.740  29.188  1.00  0.00     0.037 A 
ATOM     48  C   UNL A   1      46.499  28.347  30.058  1.00  0.00     0.049 A 
ATOM     49  C   UNL A   1      41.075  29.705  29.697  1.00  0.00     0.074 A 
ATOM     50  C   UNL A   1      47.364  29.343  30.475  1.00  0.00     0.029 A 
ATOM     51  N   UNL A   1      45.226  28.898  30.052  1.00  0.00    -0.354 N 
ATOM     52  N   UNL A   1      42.369  29.538  29.830  1.00  0.00    -0.248 NA
ATOM     53  C   UNL A   1      40.596  31.033  30.101  1.00  0.00     0.031 C 
ATOM     54  C   UNL A   1      46.608  30.482  30.773  1.00  0.00     0.029 A 
ATOM     55  C   UNL A   1      45.280  30.215  30.480  1.00  0.00     0.049 A 
ATOM     56  H   UNL A   1      44.406  28.426  29.782  1.00  0.00     0.167 HD
ATOM     57  C   UNL A   1      42.865  30.752  30.289  1.00  0.00     0.074 A 
ATOM     58  C   UNL A   1      41.732  31.646  30.407  1.00  0.00     0.031 C 
ATOM     59  C   UNL A   1      44.144  31.098  30.580  1.00  0.00     0.037 A 
BRANCH  46  60
ATOM     60  C   UNL A   1      48.217  26.500  29.836  1.00  0.00     0.057 A 
ATOM     61  C   UNL A   1      49.168  26.664  28.819  1.00  0.00     0.134 A 
ATOM     62  C   UNL A   1      48.636  25.859  31.009  1.00  0.00     0.134 A 
ATOM     63  F   UNL A   1      48.833  27.259  27.663  1.00  0.00    -0.206 F 
ATOM     64  C   UNL A   1      50.469  26.172  28.946  1.00  0.00     0.040 A 
ATOM     65  C   UNL A   1      49.943  25.392  31.161  1.00  0.00     0.040 A 
ATOM     66  F   UNL A   1      47.782  25.673  32.027  1.00  0.00    -0.206 F 
ATOM     67  C   UNL A   1      50.860  25.538  30.122  1.00  0.00     0.006 A 
ENDBRANCH  46  60
BRANCH  47  68
ATOM     68  C   UNL A   1      38.617  29.147  29.070  1.00  0.00     0.057 A 
ATOM     69  C   UNL A   1      38.103  29.616  27.855  1.00  0.00     0.134 A 
ATOM     70  C   UNL A   1      37.741  29.083  30.160  1.00  0.00     0.134 A 
ATOM     71  F   UNL A   1      38.898  29.716  26.780  1.00  0.00    -0.206 F 
ATOM     72  C   UNL A   1      36.774  30.024  27.731  1.00  0.00     0.040 A 
ATOM     73  C   UNL A   1      36.403  29.465  30.043  1.00  0.00     0.040 A 
ATOM     74  F   UNL A   1      38.169  28.635  31.348  1.00  0.00    -0.206 F 
ATOM     75  C   UNL A   1      35.918  29.944  28.828  1.00  0.00     0.006 A 
ENDBRANCH  47  68
BRANCH  59  76
ATOM     76  C   UNL A   1      44.395  32.520  30.995  1.00  0.00     0.057 A 
ATOM     77  C   UNL A   1      44.395  32.919  32.337  1.00  0.00     0.134 A 
ATOM     78  C   UNL A   1      44.668  33.499  30.030  1.00  0.00     0.134 A 
ATOM     79  F   UNL A   1      44.130  32.035  33.310  1.00  0.00    -0.206 F 
ATOM     80  C   UNL A   1      44.625  34.247  32.703  1.00  0.00     0.040 A 
ATOM     81  C   UNL A   1      44.932  34.822  30.386  1.00  0.00     0.040 A 
ATOM     82  F   UNL A   1      44.695  33.183  28.726  1.00  0.00    -0.206 F 
ATOM     83  C   UNL A   1      44.902  35.200  31.725  1.00  0.00     0.006 A 
ENDBRANCH  59  76
ENDBRANCH  33  34
ENDBRANCH  25  28
ENDBRANCH  23  24
ENDBRANCH  22  23
ENDBRANCH   1  22
TORSDOF 14
ENDMDL
MODEL 3
REMARK VINA RESULT:     -11.0      1.249      6.526
REMARK SMILES C[C@@H](C(=O)NCCCCNC(=O)c1ccc(-c2c3nc(c(-c4c(F)cccc4F)c4ccc([nH]4)c(-c4c(F)cccc4F)c4nc(c(-c5c(F)cccc5F)c5ccc2[nH]5)C=C4)C=C3)cc1)c1ccc(Cc2ccco2)cc1F
REMARK SMILES IDX 7 1 6 2 5 3 3 4 4 5 2 7 1 8 67 9 68 10 78 11 69 12 77 13
REMARK SMILES IDX 79 14 70 15 71 16 72 17 73 18 76 19 74 20 75 21 8 22 9 23
REMARK SMILES IDX 10 24 11 25 12 27 13 28 14 29 66 30 15 31 65 32 16 33 17 34
REMARK SMILES IDX 18 35 59 36 19 37 64 38 58 39 60 40 20 41 63 42 57 43 56 44
REMARK SMILES IDX 21 46 47 47 30 48 46 49 31 50 34 51 45 52 61 53 32 54 33 55
REMARK SMILES IDX 44 57 62 58 35 59 22 60 23 61 28 62 24 63 25 64 27 65 29 66
REMARK SMILES IDX 26 67 48 68 49 69 54 70 50 71 51 72 53 73 55 74 52 75 36 76
REMARK SMILES IDX 37 77 42 78 38 79 39 80 41 81 43 82 40 83
REMARK H PARENT 5 6 10 26 60 45 34 56
REMARK Flexibility Score: inf
ROOT
ATOM      1  C   UNL A   1      38.907  22.267  26.126  1.00  0.00     0.023 C 
ENDROOT
BRANCH   1   2
ATOM      2  C   UNL A   1      37.645  23.065  25.791  1.00  0.00     0.116 C 
BRANCH   2   3
ATOM      3  N   UNL A   1      37.399  23.082  24.366  1.00  0.00    -0.356 N 
ATOM      4  C   UNL A   1      36.229  23.020  23.667  1.00  0.00     0.227 C 
ATOM      5  O   UNL A   1      36.344  23.020  22.439  1.00  0.00    -0.274 OA
ATOM      6  H   UNL A   1      38.208  23.149  23.808  1.00  0.00     0.163 HD
BRANCH   4   7
ATOM      7  C   UNL A   1      34.878  23.000  24.407  1.00  0.00     0.108 C 
ATOM      8  C   UNL A   1      33.841  22.090  23.744  1.00  0.00     0.023 C 
BRANCH   7   9
ATOM      9  C   UNL A   1      34.239  24.374  24.575  1.00  0.00    -0.000 A 
ATOM     10  C   UNL A   1      34.044  25.243  23.492  1.00  0.00     0.008 A 
ATOM     11  C   UNL A   1      33.738  24.762  25.822  1.00  0.00     0.127 A 
ATOM     12  C   UNL A   1      33.415  26.476  23.669  1.00  0.00     0.005 A 
ATOM     13  C   UNL A   1      33.109  25.993  26.007  1.00  0.00     0.043 A 
ATOM     14  F   UNL A   1      33.833  23.928  26.867  1.00  0.00    -0.207 F 
ATOM     15  C   UNL A   1      32.956  26.875  24.930  1.00  0.00    -0.038 A 
BRANCH  15  16
ATOM     16  C   UNL A   1      32.302  28.226  25.116  1.00  0.00     0.111 C 
BRANCH  16  17
ATOM     17  C   UNL A   1      31.079  28.423  24.285  1.00  0.00     0.108 A 
ATOM     18  C   UNL A   1      30.187  27.568  23.668  1.00  0.00     0.046 A 
ATOM     19  O   UNL A   1      30.686  29.716  24.087  1.00  0.00    -0.469 OA
ATOM     20  C   UNL A   1      29.205  28.380  23.054  1.00  0.00     0.042 A 
ATOM     21  C   UNL A   1      29.553  29.678  23.339  1.00  0.00     0.195 A 
ENDBRANCH  16  17
ENDBRANCH  15  16
ENDBRANCH   7   9
ENDBRANCH   4   7
ENDBRANCH   2   3
ENDBRANCH   1   2
BRANCH   1  22
ATOM     22  C   UNL A   1      39.036  20.929  25.396  1.00  0.00     0.023 C 
BRANCH  22  23
ATOM     23  C   UNL A   1      39.469  19.758  26.267  1.00  0.00     0.116 C 
BRANCH  23  24
ATOM     24  N   UNL A   1      40.707  19.146  25.811  1.00  0.00    -0.352 N 
ATOM     25  C   UNL A   1      41.969  19.682  25.768  1.00  0.00     0.251 C 
ATOM     26  H   UNL A   1      40.629  18.220  25.487  1.00  0.00     0.163 HD
ATOM     27  O   UNL A   1      42.879  19.070  25.212  1.00  0.00    -0.269 OA
BRANCH  25  28
ATOM     28  C   UNL A   1      42.227  21.006  26.370  1.00  0.00     0.039 A 
ATOM     29  C   UNL A   1      42.557  22.075  25.532  1.00  0.00     0.014 A 
ATOM     30  C   UNL A   1      42.151  21.195  27.752  1.00  0.00     0.014 A 
ATOM     31  C   UNL A   1      42.773  23.340  26.079  1.00  0.00     0.010 A 
ATOM     32  C   UNL A   1      42.279  22.473  28.286  1.00  0.00     0.010 A 
ATOM     33  C   UNL A   1      42.617  23.553  27.458  1.00  0.00    -0.014 A 
BRANCH  33  34
ATOM     34  C   UNL A   1      42.852  24.890  28.059  1.00  0.00     0.031 A 
ATOM     35  C   UNL A   1      44.237  25.280  28.500  1.00  0.00     0.074 A 
ATOM     36  C   UNL A   1      41.820  25.734  28.251  1.00  0.00     0.049 A 
ATOM     37  N   UNL A   1      44.646  26.385  29.070  1.00  0.00    -0.248 NA
ATOM     38  C   UNL A   1      45.300  24.280  28.302  1.00  0.00     0.031 C 
ATOM     39  C   UNL A   1      40.424  25.457  27.909  1.00  0.00     0.029 A 
ATOM     40  N   UNL A   1      41.789  26.999  28.782  1.00  0.00    -0.354 N 
ATOM     41  C   UNL A   1      46.003  26.204  29.315  1.00  0.00     0.074 A 
ATOM     42  C   UNL A   1      46.332  24.861  28.892  1.00  0.00     0.031 C 
ATOM     43  C   UNL A   1      39.678  26.534  28.204  1.00  0.00     0.029 A 
ATOM     44  C   UNL A   1      40.536  27.562  28.787  1.00  0.00     0.049 A 
ATOM     45  H   UNL A   1      42.588  27.458  29.127  1.00  0.00     0.167 HD
ATOM     46  C   UNL A   1      46.899  27.083  29.821  1.00  0.00     0.037 A 
ATOM     47  C   UNL A   1      40.129  28.774  29.209  1.00  0.00     0.037 A 
ATOM     48  C   UNL A   1      46.570  28.429  30.217  1.00  0.00     0.049 A 
ATOM     49  C   UNL A   1      41.141  29.735  29.769  1.00  0.00     0.074 A 
ATOM     50  C   UNL A   1      47.414  29.421  30.682  1.00  0.00     0.029 A 
ATOM     51  N   UNL A   1      45.291  28.965  30.197  1.00  0.00    -0.354 N 
ATOM     52  N   UNL A   1      42.433  29.579  29.927  1.00  0.00    -0.248 NA
ATOM     53  C   UNL A   1      40.637  31.045  30.199  1.00  0.00     0.031 C 
ATOM     54  C   UNL A   1      46.637  30.543  30.994  1.00  0.00     0.029 A 
ATOM     55  C   UNL A   1      45.320  30.270  30.664  1.00  0.00     0.049 A 
ATOM     56  H   UNL A   1      44.483  28.491  29.895  1.00  0.00     0.167 HD
ATOM     57  C   UNL A   1      42.904  30.785  30.432  1.00  0.00     0.074 A 
ATOM     58  C   UNL A   1      41.757  31.662  30.549  1.00  0.00     0.031 C 
ATOM     59  C   UNL A   1      44.172  31.136  30.762  1.00  0.00     0.037 A 
BRANCH  46  60
ATOM     60  C   UNL A   1      48.315  26.608  29.983  1.00  0.00     0.057 A 
ATOM     61  C   UNL A   1      48.745  25.920  31.127  1.00  0.00     0.134 A 
ATOM     62  C   UNL A   1      49.264  26.839  28.978  1.00  0.00     0.134 A 
ATOM     63  F   UNL A   1      47.892  25.675  32.134  1.00  0.00    -0.206 F 
ATOM     64  C   UNL A   1      50.073  25.518  31.284  1.00  0.00     0.040 A 
ATOM     65  C   UNL A   1      50.587  26.412  29.109  1.00  0.00     0.040 A 
ATOM     66  F   UNL A   1      48.923  27.485  27.853  1.00  0.00    -0.206 F 
ATOM     67  C   UNL A   1      50.996  25.760  30.271  1.00  0.00     0.006 A 
ENDBRANCH  46  60
BRANCH  47  68
ATOM     68  C   UNL A   1      38.704  29.167  29.069  1.00  0.00     0.057 A 
ATOM     69  C   UNL A   1      37.831  29.101  30.163  1.00  0.00     0.134 A 
ATOM     70  C   UNL A   1      38.179  29.613  27.851  1.00  0.00     0.134 A 
ATOM     71  F   UNL A   1      38.271  28.666  31.352  1.00  0.00    -0.206 F 
ATOM     72  C   UNL A   1      36.483  29.445  30.045  1.00  0.00     0.040 A 
ATOM     73  C   UNL A   1      36.839  29.983  27.725  1.00  0.00     0.040 A 
ATOM     74  F   UNL A   1      38.965  29.706  26.769  1.00  0.00    -0.206 F 
ATOM     75  C   UNL A   1      35.985  29.893  28.823  1.00  0.00     0.006 A 
ENDBRANCH  47  68
BRANCH  59  76
ATOM     76  C   UNL A   1      44.396  32.548  31.223  1.00  0.00     0.057 A 
ATOM     77  C   UNL A   1      44.361  32.909  32.576  1.00  0.00     0.134 A 
ATOM     78  C   UNL A   1      44.679  33.558  30.293  1.00  0.00     0.134 A 
ATOM     79  F   UNL A   1      44.085  31.994  33.517  1.00  0.00    -0.206 F 
ATOM     80  C   UNL A   1      44.567  34.228  32.984  1.00  0.00     0.040 A 
ATOM     81  C   UNL A   1      44.919  34.873  30.692  1.00  0.00     0.040 A 
ATOM     82  F   UNL A   1      44.738  33.280  28.982  1.00  0.00    -0.206 F 
ATOM     83  C   UNL A   1      44.854  35.213  32.041  1.00  0.00     0.006 A 
ENDBRANCH  59  76
ENDBRANCH  33  34
ENDBRANCH  25  28
ENDBRANCH  23  24
ENDBRANCH  22  23
ENDBRANCH   1  22
TORSDOF 14
ENDMDL
