MODEL 1
REMARK VINA RESULT:     -11.0      0.000      0.000
REMARK SMILES C[C@H](C(=O)NCCCCNC(=O)c1ccc(-c2c3nc(c(-c4c(F)cccc4F)c4ccc([nH]4)c(-c4c(F)cccc4F)c4nc(c(-c5c(F)cccc5F)c5ccc2[nH]5)C=C4)C=C3)cc1)c1ccc2ncccc2c1
REMARK SMILES IDX 8 1 7 2 6 3 5 4 3 5 4 6 2 8 1 9 67 10 68 11 76 12 69 13
REMARK SMILES IDX 75 14 70 15 74 16 71 17 73 18 72 19 9 20 10 21 11 22 12 24
REMARK SMILES IDX 13 25 14 26 66 27 15 28 65 29 16 30 17 31 18 32 59 33 19 34
REMARK SMILES IDX 64 35 58 36 60 37 20 38 63 39 57 40 56 41 21 43 47 44 30 45
REMARK SMILES IDX 46 46 31 47 34 48 45 49 61 50 32 51 33 52 44 54 62 55 35 56
REMARK SMILES IDX 22 57 23 58 28 59 24 60 25 61 27 62 29 63 26 64 48 65 49 66
REMARK SMILES IDX 54 67 50 68 51 69 53 70 55 71 52 72 36 73 37 74 42 75 38 76
REMARK SMILES IDX 39 77 41 78 43 79 40 80
REMARK H PARENT 5 7 10 23 60 42 34 53
REMARK Flexibility Score: inf
ROOT
ATOM      1  C   UNL A   1      34.717  33.517  28.259  1.00  0.00     0.023 C 
ENDROOT
BRANCH   1   2
ATOM      2  C   UNL A   1      33.459  34.371  28.326  1.00  0.00     0.023 C 
BRANCH   2   3
ATOM      3  C   UNL A   1      33.537  35.558  29.288  1.00  0.00     0.116 C 
BRANCH   3   4
ATOM      4  N   UNL A   1      32.653  35.347  30.414  1.00  0.00    -0.356 N 
ATOM      5  C   UNL A   1      32.905  35.461  31.753  1.00  0.00     0.227 C 
ATOM      6  O   UNL A   1      32.053  35.002  32.521  1.00  0.00    -0.274 OA
ATOM      7  H   UNL A   1      31.733  35.083  30.181  1.00  0.00     0.163 HD
BRANCH   5   8
ATOM      8  C   UNL A   1      34.180  36.164  32.269  1.00  0.00     0.105 C 
ATOM      9  C   UNL A   1      33.745  37.324  33.178  1.00  0.00     0.023 C 
BRANCH   8  10
ATOM     10  C   UNL A   1      35.145  35.194  32.947  1.00  0.00    -0.035 A 
ATOM     11  C   UNL A   1      35.112  34.925  34.318  1.00  0.00     0.007 A 
ATOM     12  C   UNL A   1      36.045  34.449  32.171  1.00  0.00     0.015 A 
ATOM     13  C   UNL A   1      35.881  33.886  34.864  1.00  0.00     0.029 A 
ATOM     14  C   UNL A   1      36.717  33.327  32.695  1.00  0.00     0.000 A 
ATOM     15  C   UNL A   1      36.637  33.037  34.069  1.00  0.00     0.070 A 
ATOM     16  C   UNL A   1      37.412  32.429  31.871  1.00  0.00     0.012 A 
ATOM     17  N   UNL A   1      37.224  31.953  34.609  1.00  0.00    -0.256 NA
ATOM     18  C   UNL A   1      37.967  31.279  32.414  1.00  0.00     0.021 A 
ATOM     19  C   UNL A   1      37.856  31.092  33.779  1.00  0.00     0.112 A 
ENDBRANCH   8  10
ENDBRANCH   5   8
ENDBRANCH   3   4
ENDBRANCH   2   3
ENDBRANCH   1   2
BRANCH   1  20
ATOM     20  C   UNL A   1      34.641  32.260  29.110  1.00  0.00     0.116 C 
BRANCH  20  21
ATOM     21  N   UNL A   1      34.099  31.102  28.404  1.00  0.00    -0.352 N 
ATOM     22  C   UNL A   1      34.753  29.962  28.002  1.00  0.00     0.251 C 
ATOM     23  H   UNL A   1      33.139  31.145  28.187  1.00  0.00     0.163 HD
ATOM     24  O   UNL A   1      34.175  29.102  27.346  1.00  0.00    -0.269 OA
BRANCH  22  25
ATOM     25  C   UNL A   1      36.183  29.821  28.333  1.00  0.00     0.039 A 
ATOM     26  C   UNL A   1      36.545  29.299  29.576  1.00  0.00     0.014 A 
ATOM     27  C   UNL A   1      37.150  30.096  27.366  1.00  0.00     0.014 A 
ATOM     28  C   UNL A   1      37.879  28.963  29.815  1.00  0.00     0.010 A 
ATOM     29  C   UNL A   1      38.453  29.666  27.566  1.00  0.00     0.010 A 
ATOM     30  C   UNL A   1      38.831  29.096  28.793  1.00  0.00    -0.014 A 
BRANCH  30  31
ATOM     31  C   UNL A   1      40.240  28.668  28.967  1.00  0.00     0.031 A 
ATOM     32  C   UNL A   1      41.246  29.654  29.491  1.00  0.00     0.074 A 
ATOM     33  C   UNL A   1      40.634  27.449  28.552  1.00  0.00     0.049 A 
ATOM     34  N   UNL A   1      42.549  29.555  29.555  1.00  0.00    -0.248 NA
ATOM     35  C   UNL A   1      40.718  30.946  29.957  1.00  0.00     0.031 C 
ATOM     36  C   UNL A   1      39.764  26.423  27.972  1.00  0.00     0.029 A 
ATOM     37  N   UNL A   1      41.879  26.872  28.540  1.00  0.00    -0.354 N 
ATOM     38  C   UNL A   1      42.994  30.783  30.024  1.00  0.00     0.074 A 
ATOM     39  C   UNL A   1      41.831  31.629  30.176  1.00  0.00     0.031 C 
ATOM     40  C   UNL A   1      40.498  25.336  27.682  1.00  0.00     0.029 A 
ATOM     41  C   UNL A   1      41.893  25.601  28.018  1.00  0.00     0.049 A 
ATOM     42  H   UNL A   1      42.685  27.326  28.875  1.00  0.00     0.167 HD
ATOM     43  C   UNL A   1      44.257  31.165  30.328  1.00  0.00     0.037 A 
ATOM     44  C   UNL A   1      42.920  24.751  27.827  1.00  0.00     0.037 A 
ATOM     45  C   UNL A   1      45.401  30.300  30.234  1.00  0.00     0.049 A 
ATOM     46  C   UNL A   1      44.307  25.179  28.219  1.00  0.00     0.074 A 
ATOM     47  C   UNL A   1      46.711  30.561  30.591  1.00  0.00     0.029 A 
ATOM     48  N   UNL A   1      45.363  28.997  29.761  1.00  0.00    -0.354 N 
ATOM     49  N   UNL A   1      44.709  26.325  28.712  1.00  0.00    -0.248 NA
ATOM     50  C   UNL A   1      45.381  24.194  28.032  1.00  0.00     0.031 C 
ATOM     51  C   UNL A   1      47.474  29.421  30.309  1.00  0.00     0.029 A 
ATOM     52  C   UNL A   1      46.630  28.440  29.811  1.00  0.00     0.049 A 
ATOM     53  H   UNL A   1      44.556  28.536  29.437  1.00  0.00     0.167 HD
ATOM     54  C   UNL A   1      46.074  26.190  28.922  1.00  0.00     0.074 A 
ATOM     55  C   UNL A   1      46.430  24.848  28.509  1.00  0.00     0.031 C 
ATOM     56  C   UNL A   1      46.956  27.096  29.413  1.00  0.00     0.037 A 
BRANCH  43  57
ATOM     57  C   UNL A   1      44.453  32.576  30.799  1.00  0.00     0.057 A 
ATOM     58  C   UNL A   1      44.725  33.622  29.909  1.00  0.00     0.134 A 
ATOM     59  C   UNL A   1      44.368  32.892  32.161  1.00  0.00     0.134 A 
ATOM     60  F   UNL A   1      44.838  33.383  28.592  1.00  0.00    -0.206 F 
ATOM     61  C   UNL A   1      44.944  34.925  30.357  1.00  0.00     0.040 A 
ATOM     62  C   UNL A   1      44.555  34.198  32.619  1.00  0.00     0.040 A 
ATOM     63  F   UNL A   1      44.106  31.939  33.068  1.00  0.00    -0.206 F 
ATOM     64  C   UNL A   1      44.855  35.216  31.716  1.00  0.00     0.006 A 
ENDBRANCH  43  57
BRANCH  44  65
ATOM     65  C   UNL A   1      42.669  23.397  27.273  1.00  0.00     0.057 A 
ATOM     66  C   UNL A   1      42.352  22.326  28.116  1.00  0.00     0.134 A 
ATOM     67  C   UNL A   1      42.739  23.139  25.900  1.00  0.00     0.134 A 
ATOM     68  F   UNL A   1      42.288  22.508  29.442  1.00  0.00    -0.206 F 
ATOM     69  C   UNL A   1      42.129  21.042  27.616  1.00  0.00     0.040 A 
ATOM     70  C   UNL A   1      42.498  21.864  25.383  1.00  0.00     0.040 A 
ATOM     71  F   UNL A   1      43.030  24.125  25.039  1.00  0.00    -0.206 F 
ATOM     72  C   UNL A   1      42.198  20.810  26.244  1.00  0.00     0.006 A 
ENDBRANCH  44  65
BRANCH  56  73
ATOM     73  C   UNL A   1      48.379  26.652  29.570  1.00  0.00     0.057 A 
ATOM     74  C   UNL A   1      49.356  26.950  28.614  1.00  0.00     0.134 A 
ATOM     75  C   UNL A   1      48.783  25.964  30.722  1.00  0.00     0.134 A 
ATOM     76  F   UNL A   1      49.028  27.596  27.485  1.00  0.00    -0.206 F 
ATOM     77  C   UNL A   1      50.686  26.565  28.790  1.00  0.00     0.040 A 
ATOM     78  C   UNL A   1      50.113  25.594  30.919  1.00  0.00     0.040 A 
ATOM     79  F   UNL A   1      47.894  25.656  31.678  1.00  0.00    -0.206 F 
ATOM     80  C   UNL A   1      51.068  25.892  29.949  1.00  0.00     0.006 A 
ENDBRANCH  56  73
ENDBRANCH  30  31
ENDBRANCH  22  25
ENDBRANCH  20  21
ENDBRANCH   1  20
TORSDOF 12
ENDMDL
MODEL 2
REMARK VINA RESULT:     -11.0      3.793      9.447
REMARK SMILES C[C@H](C(=O)NCCCCNC(=O)c1ccc(-c2c3nc(c(-c4c(F)cccc4F)c4ccc([nH]4)c(-c4c(F)cccc4F)c4nc(c(-c5c(F)cccc5F)c5ccc2[nH]5)C=C4)C=C3)cc1)c1ccc2ncccc2c1
REMARK SMILES IDX 8 1 7 2 6 3 5 4 3 5 4 6 2 8 1 9 67 10 68 11 76 12 69 13
REMARK SMILES IDX 75 14 70 15 74 16 71 17 73 18 72 19 9 20 10 21 11 22 12 24
REMARK SMILES IDX 13 25 14 26 66 27 15 28 65 29 16 30 17 31 18 32 59 33 19 34
REMARK SMILES IDX 64 35 58 36 60 37 20 38 63 39 57 40 56 41 21 43 47 44 30 45
REMARK SMILES IDX 46 46 31 47 34 48 45 49 61 50 32 51 33 52 44 54 62 55 35 56
REMARK SMILES IDX 22 57 23 58 28 59 24 60 25 61 27 62 29 63 26 64 48 65 49 66
REMARK SMILES IDX 54 67 50 68 51 69 53 70 55 71 52 72 36 73 37 74 42 75 38 76
REMARK SMILES IDX 39 77 41 78 43 79 40 80
REMARK H PARENT 5 7 10 23 60 42 34 53
REMARK Flexibility Score: inf
ROOT
ATOM      1  C   UNL A   1      37.810  20.323  25.002  1.00  0.00     0.023 C 
ENDROOT
BRANCH   1   2
ATOM      2  C   UNL A   1      37.180  21.600  24.464  1.00  0.00     0.023 C 
BRANCH   2   3
ATOM      3  C   UNL A   1      36.725  22.593  25.534  1.00  0.00     0.116 C 
BRANCH   3   4
ATOM      4  N   UNL A   1      35.862  21.935  26.492  1.00  0.00    -0.356 N 
ATOM      5  C   UNL A   1      34.496  21.869  26.532  1.00  0.00     0.227 C 
ATOM      6  O   UNL A   1      33.991  21.447  27.577  1.00  0.00    -0.274 OA
ATOM      7  H   UNL A   1      36.326  21.465  27.222  1.00  0.00     0.163 HD
BRANCH   5   8
ATOM      8  C   UNL A   1      33.641  22.271  25.311  1.00  0.00     0.105 C 
ATOM      9  C   UNL A   1      32.727  21.085  24.963  1.00  0.00     0.023 C 
BRANCH   8  10
ATOM     10  C   UNL A   1      32.879  23.575  25.538  1.00  0.00    -0.035 A 
ATOM     11  C   UNL A   1      31.526  23.612  25.892  1.00  0.00     0.007 A 
ATOM     12  C   UNL A   1      33.563  24.799  25.500  1.00  0.00     0.015 A 
ATOM     13  C   UNL A   1      30.920  24.815  26.283  1.00  0.00     0.029 A 
ATOM     14  C   UNL A   1      32.990  25.979  26.013  1.00  0.00     0.000 A 
ATOM     15  C   UNL A   1      31.642  25.992  26.413  1.00  0.00     0.070 A 
ATOM     16  C   UNL A   1      33.749  27.141  26.216  1.00  0.00     0.012 A 
ATOM     17  N   UNL A   1      31.063  27.083  26.949  1.00  0.00    -0.256 NA
ATOM     18  C   UNL A   1      33.172  28.247  26.825  1.00  0.00     0.021 A 
ATOM     19  C   UNL A   1      31.834  28.172  27.162  1.00  0.00     0.112 A 
ENDBRANCH   8  10
ENDBRANCH   5   8
ENDBRANCH   3   4
ENDBRANCH   2   3
ENDBRANCH   1   2
BRANCH   1  20
ATOM     20  C   UNL A   1      39.036  20.571  25.865  1.00  0.00     0.116 C 
BRANCH  20  21
ATOM     21  N   UNL A   1      40.022  19.495  25.811  1.00  0.00    -0.352 N 
ATOM     22  C   UNL A   1      41.362  19.546  26.118  1.00  0.00     0.251 C 
ATOM     23  H   UNL A   1      39.682  18.619  25.518  1.00  0.00     0.163 HD
ATOM     24  O   UNL A   1      42.084  18.569  25.950  1.00  0.00    -0.269 OA
BRANCH  22  25
ATOM     25  C   UNL A   1      41.922  20.821  26.603  1.00  0.00     0.039 A 
ATOM     26  C   UNL A   1      42.385  21.756  25.675  1.00  0.00     0.014 A 
ATOM     27  C   UNL A   1      41.877  21.127  27.963  1.00  0.00     0.014 A 
ATOM     28  C   UNL A   1      42.714  23.042  26.107  1.00  0.00     0.010 A 
ATOM     29  C   UNL A   1      42.106  22.430  28.374  1.00  0.00     0.010 A 
ATOM     30  C   UNL A   1      42.527  23.402  27.451  1.00  0.00    -0.014 A 
BRANCH  30  31
ATOM     31  C   UNL A   1      42.776  24.779  27.940  1.00  0.00     0.031 A 
ATOM     32  C   UNL A   1      44.163  25.163  28.376  1.00  0.00     0.074 A 
ATOM     33  C   UNL A   1      41.751  25.637  28.101  1.00  0.00     0.049 A 
ATOM     34  N   UNL A   1      44.569  26.241  28.997  1.00  0.00    -0.248 NA
ATOM     35  C   UNL A   1      45.227  24.176  28.126  1.00  0.00     0.031 C 
ATOM     36  C   UNL A   1      40.351  25.363  27.771  1.00  0.00     0.029 A 
ATOM     37  N   UNL A   1      41.729  26.914  28.603  1.00  0.00    -0.354 N 
ATOM     38  C   UNL A   1      45.920  26.040  29.249  1.00  0.00     0.074 A 
ATOM     39  C   UNL A   1      46.252  24.718  28.765  1.00  0.00     0.031 C 
ATOM     40  C   UNL A   1      39.610  26.447  28.058  1.00  0.00     0.029 A 
ATOM     41  C   UNL A   1      40.475  27.476  28.627  1.00  0.00     0.049 A 
ATOM     42  H   UNL A   1      42.535  27.383  28.915  1.00  0.00     0.167 HD
ATOM     43  C   UNL A   1      46.811  26.890  29.809  1.00  0.00     0.037 A 
ATOM     44  C   UNL A   1      40.071  28.683  29.067  1.00  0.00     0.037 A 
ATOM     45  C   UNL A   1      46.488  28.226  30.230  1.00  0.00     0.049 A 
ATOM     46  C   UNL A   1      41.089  29.631  29.639  1.00  0.00     0.074 A 
ATOM     47  C   UNL A   1      47.332  29.198  30.737  1.00  0.00     0.029 A 
ATOM     48  N   UNL A   1      45.218  28.781  30.179  1.00  0.00    -0.354 N 
ATOM     49  N   UNL A   1      42.374  29.451  29.823  1.00  0.00    -0.248 NA
ATOM     50  C   UNL A   1      40.599  30.951  30.059  1.00  0.00     0.031 C 
ATOM     51  C   UNL A   1      46.566  30.336  31.017  1.00  0.00     0.029 A 
ATOM     52  C   UNL A   1      45.253  30.082  30.649  1.00  0.00     0.049 A 
ATOM     53  H   UNL A   1      44.412  28.318  29.855  1.00  0.00     0.167 HD
ATOM     54  C   UNL A   1      42.853  30.641  30.352  1.00  0.00     0.074 A 
ATOM     55  C   UNL A   1      41.721  31.539  30.452  1.00  0.00     0.031 C 
ATOM     56  C   UNL A   1      44.117  30.963  30.722  1.00  0.00     0.037 A 
BRANCH  43  57
ATOM     57  C   UNL A   1      48.217  26.396  29.980  1.00  0.00     0.057 A 
ATOM     58  C   UNL A   1      49.182  26.547  28.975  1.00  0.00     0.134 A 
ATOM     59  C   UNL A   1      48.612  25.761  31.164  1.00  0.00     0.134 A 
ATOM     60  F   UNL A   1      48.863  27.130  27.809  1.00  0.00    -0.206 F 
ATOM     61  C   UNL A   1      50.477  26.050  29.125  1.00  0.00     0.040 A 
ATOM     62  C   UNL A   1      49.914  25.287  31.338  1.00  0.00     0.040 A 
ATOM     63  F   UNL A   1      47.741  25.587  32.169  1.00  0.00    -0.206 F 
ATOM     64  C   UNL A   1      50.847  25.423  30.312  1.00  0.00     0.006 A 
ENDBRANCH  43  57
BRANCH  44  65
ATOM     65  C   UNL A   1      38.646  29.077  28.948  1.00  0.00     0.057 A 
ATOM     66  C   UNL A   1      37.781  28.976  30.044  1.00  0.00     0.134 A 
ATOM     67  C   UNL A   1      38.113  29.561  27.749  1.00  0.00     0.134 A 
ATOM     68  F   UNL A   1      38.230  28.502  31.215  1.00  0.00    -0.206 F 
ATOM     69  C   UNL A   1      36.433  29.326  29.948  1.00  0.00     0.040 A 
ATOM     70  C   UNL A   1      36.772  29.936  27.643  1.00  0.00     0.040 A 
ATOM     71  F   UNL A   1      38.893  29.690  26.665  1.00  0.00    -0.206 F 
ATOM     72  C   UNL A   1      35.927  29.812  28.745  1.00  0.00     0.006 A 
ENDBRANCH  44  65
BRANCH  56  73
ATOM     73  C   UNL A   1      44.350  32.355  31.227  1.00  0.00     0.057 A 
ATOM     74  C   UNL A   1      44.648  33.415  30.363  1.00  0.00     0.134 A 
ATOM     75  C   UNL A   1      44.221  32.644  32.592  1.00  0.00     0.134 A 
ATOM     76  F   UNL A   1      44.797  33.198  29.048  1.00  0.00    -0.206 F 
ATOM     77  C   UNL A   1      44.825  34.714  30.841  1.00  0.00     0.040 A 
ATOM     78  C   UNL A   1      44.374  33.942  33.078  1.00  0.00     0.040 A 
ATOM     79  F   UNL A   1      43.929  31.672  33.469  1.00  0.00    -0.206 F 
ATOM     80  C   UNL A   1      44.680  34.980  32.202  1.00  0.00     0.006 A 
ENDBRANCH  56  73
ENDBRANCH  30  31
ENDBRANCH  22  25
ENDBRANCH  20  21
ENDBRANCH   1  20
TORSDOF 12
ENDMDL
MODEL 3
REMARK VINA RESULT:     -11.0      4.128      9.519
REMARK SMILES C[C@H](C(=O)NCCCCNC(=O)c1ccc(-c2c3nc(c(-c4c(F)cccc4F)c4ccc([nH]4)c(-c4c(F)cccc4F)c4nc(c(-c5c(F)cccc5F)c5ccc2[nH]5)C=C4)C=C3)cc1)c1ccc2ncccc2c1
REMARK SMILES IDX 8 1 7 2 6 3 5 4 3 5 4 6 2 8 1 9 67 10 68 11 76 12 69 13
REMARK SMILES IDX 75 14 70 15 74 16 71 17 73 18 72 19 9 20 10 21 11 22 12 24
REMARK SMILES IDX 13 25 14 26 66 27 15 28 65 29 16 30 17 31 18 32 59 33 19 34
REMARK SMILES IDX 64 35 58 36 60 37 20 38 63 39 57 40 56 41 21 43 47 44 30 45
REMARK SMILES IDX 46 46 31 47 34 48 45 49 61 50 32 51 33 52 44 54 62 55 35 56
REMARK SMILES IDX 22 57 23 58 28 59 24 60 25 61 27 62 29 63 26 64 48 65 49 66
REMARK SMILES IDX 54 67 50 68 51 69 53 70 55 71 52 72 36 73 37 74 42 75 38 76
REMARK SMILES IDX 39 77 41 78 43 79 40 80
REMARK H PARENT 5 7 10 23 60 42 34 53
REMARK Flexibility Score: inf
ROOT
ATOM      1  C   UNL A   1      32.021  30.254  26.528  1.00  0.00     0.023 C 
ENDROOT
BRANCH   1   2
ATOM      2  C   UNL A   1      31.792  28.953  27.284  1.00  0.00     0.023 C 
BRANCH   2   3
ATOM      3  C   UNL A   1      32.353  27.704  26.602  1.00  0.00     0.116 C 
BRANCH   3   4
ATOM      4  N   UNL A   1      31.478  26.575  26.832  1.00  0.00    -0.356 N 
ATOM      5  C   UNL A   1      30.668  25.907  25.955  1.00  0.00     0.227 C 
ATOM      6  O   UNL A   1      29.844  25.127  26.442  1.00  0.00    -0.274 OA
ATOM      7  H   UNL A   1      31.464  26.235  27.757  1.00  0.00     0.163 HD
BRANCH   5   8
ATOM      8  C   UNL A   1      30.812  26.101  24.429  1.00  0.00     0.105 C 
ATOM      9  C   UNL A   1      30.642  24.729  23.760  1.00  0.00     0.023 C 
BRANCH   8  10
ATOM     10  C   UNL A   1      29.857  27.162  23.886  1.00  0.00    -0.035 A 
ATOM     11  C   UNL A   1      28.509  26.904  23.619  1.00  0.00     0.007 A 
ATOM     12  C   UNL A   1      30.296  28.486  23.736  1.00  0.00     0.015 A 
ATOM     13  C   UNL A   1      27.626  27.950  23.311  1.00  0.00     0.029 A 
ATOM     14  C   UNL A   1      29.388  29.547  23.553  1.00  0.00     0.000 A 
ATOM     15  C   UNL A   1      28.025  29.278  23.336  1.00  0.00     0.070 A 
ATOM     16  C   UNL A   1      29.786  30.888  23.660  1.00  0.00     0.012 A 
ATOM     17  N   UNL A   1      27.113  30.259  23.200  1.00  0.00    -0.256 NA
ATOM     18  C   UNL A   1      28.839  31.900  23.583  1.00  0.00     0.021 A 
ATOM     19  C   UNL A   1      27.527  31.537  23.344  1.00  0.00     0.112 A 
ENDBRANCH   8  10
ENDBRANCH   5   8
ENDBRANCH   3   4
ENDBRANCH   2   3
ENDBRANCH   1   2
BRANCH   1  20
ATOM     20  C   UNL A   1      32.995  31.193  27.220  1.00  0.00     0.116 C 
BRANCH  20  21
ATOM     21  N   UNL A   1      32.476  32.545  27.411  1.00  0.00    -0.352 N 
ATOM     22  C   UNL A   1      33.051  33.594  28.089  1.00  0.00     0.251 C 
ATOM     23  H   UNL A   1      31.601  32.728  26.999  1.00  0.00     0.163 HD
ATOM     24  O   UNL A   1      32.454  34.656  28.227  1.00  0.00    -0.269 OA
BRANCH  22  25
ATOM     25  C   UNL A   1      34.381  33.394  28.693  1.00  0.00     0.039 A 
ATOM     26  C   UNL A   1      34.479  32.730  29.917  1.00  0.00     0.014 A 
ATOM     27  C   UNL A   1      35.527  33.762  27.988  1.00  0.00     0.014 A 
ATOM     28  C   UNL A   1      35.735  32.348  30.390  1.00  0.00     0.010 A 
ATOM     29  C   UNL A   1      36.762  33.292  28.406  1.00  0.00     0.010 A 
ATOM     30  C   UNL A   1      36.879  32.581  29.612  1.00  0.00    -0.014 A 
BRANCH  30  31
ATOM     31  C   UNL A   1      38.224  32.114  30.027  1.00  0.00     0.031 A 
ATOM     32  C   UNL A   1      38.749  30.814  29.484  1.00  0.00     0.074 A 
ATOM     33  C   UNL A   1      38.915  32.787  30.967  1.00  0.00     0.049 A 
ATOM     34  N   UNL A   1      39.806  30.132  29.842  1.00  0.00    -0.248 NA
ATOM     35  C   UNL A   1      37.944  30.170  28.433  1.00  0.00     0.031 C 
ATOM     36  C   UNL A   1      38.487  34.029  31.614  1.00  0.00     0.029 A 
ATOM     37  N   UNL A   1      40.123  32.507  31.555  1.00  0.00    -0.354 N 
ATOM     38  C   UNL A   1      39.767  28.964  29.093  1.00  0.00     0.074 A 
ATOM     39  C   UNL A   1      38.556  29.002  28.304  1.00  0.00     0.031 C 
ATOM     40  C   UNL A   1      39.428  34.415  32.492  1.00  0.00     0.029 A 
ATOM     41  C   UNL A   1      40.504  33.429  32.499  1.00  0.00     0.049 A 
ATOM     42  H   UNL A   1      40.665  31.719  31.322  1.00  0.00     0.167 HD
ATOM     43  C   UNL A   1      40.673  27.958  29.046  1.00  0.00     0.037 A 
ATOM     44  C   UNL A   1      41.596  33.469  33.285  1.00  0.00     0.037 A 
ATOM     45  C   UNL A   1      41.905  27.955  29.786  1.00  0.00     0.049 A 
ATOM     46  C   UNL A   1      42.614  32.367  33.179  1.00  0.00     0.074 A 
ATOM     47  C   UNL A   1      42.929  27.026  29.752  1.00  0.00     0.029 A 
ATOM     48  N   UNL A   1      42.285  28.942  30.684  1.00  0.00    -0.354 N 
ATOM     49  N   UNL A   1      42.593  31.293  32.428  1.00  0.00    -0.248 NA
ATOM     50  C   UNL A   1      43.809  32.487  34.026  1.00  0.00     0.031 C 
ATOM     51  C   UNL A   1      43.920  27.438  30.652  1.00  0.00     0.029 A 
ATOM     52  C   UNL A   1      43.527  28.641  31.216  1.00  0.00     0.049 A 
ATOM     53  H   UNL A   1      41.750  29.737  30.910  1.00  0.00     0.167 HD
ATOM     54  C   UNL A   1      43.781  30.624  32.689  1.00  0.00     0.074 A 
ATOM     55  C   UNL A   1      44.503  31.417  33.662  1.00  0.00     0.031 C 
ATOM     56  C   UNL A   1      44.234  29.457  32.169  1.00  0.00     0.037 A 
BRANCH  43  57
ATOM     57  C   UNL A   1      40.360  26.793  28.155  1.00  0.00     0.057 A 
ATOM     58  C   UNL A   1      39.507  25.759  28.561  1.00  0.00     0.134 A 
ATOM     59  C   UNL A   1      40.919  26.703  26.874  1.00  0.00     0.134 A 
ATOM     60  F   UNL A   1      38.953  25.775  29.784  1.00  0.00    -0.206 F 
ATOM     61  C   UNL A   1      39.250  24.659  27.742  1.00  0.00     0.040 A 
ATOM     62  C   UNL A   1      40.646  25.623  26.033  1.00  0.00     0.040 A 
ATOM     63  F   UNL A   1      41.741  27.661  26.419  1.00  0.00    -0.206 F 
ATOM     64  C   UNL A   1      39.817  24.592  26.472  1.00  0.00     0.006 A 
ENDBRANCH  43  57
BRANCH  44  65
ATOM     65  C   UNL A   1      41.803  34.610  34.212  1.00  0.00     0.057 A 
ATOM     66  C   UNL A   1      41.401  34.527  35.550  1.00  0.00     0.134 A 
ATOM     67  C   UNL A   1      42.403  35.801  33.791  1.00  0.00     0.134 A 
ATOM     68  F   UNL A   1      40.805  33.417  36.007  1.00  0.00    -0.206 F 
ATOM     69  C   UNL A   1      41.572  35.594  36.433  1.00  0.00     0.040 A 
ATOM     70  C   UNL A   1      42.600  36.870  34.668  1.00  0.00     0.040 A 
ATOM     71  F   UNL A   1      42.818  35.939  32.523  1.00  0.00    -0.206 F 
ATOM     72  C   UNL A   1      42.177  36.769  35.992  1.00  0.00     0.006 A 
ENDBRANCH  44  65
BRANCH  56  73
ATOM     73  C   UNL A   1      45.589  28.991  32.609  1.00  0.00     0.057 A 
ATOM     74  C   UNL A   1      46.758  29.389  31.950  1.00  0.00     0.134 A 
ATOM     75  C   UNL A   1      45.725  28.175  33.741  1.00  0.00     0.134 A 
ATOM     76  F   UNL A   1      46.691  30.158  30.853  1.00  0.00    -0.206 F 
ATOM     77  C   UNL A   1      48.017  28.979  32.392  1.00  0.00     0.040 A 
ATOM     78  C   UNL A   1      46.979  27.778  34.204  1.00  0.00     0.040 A 
ATOM     79  F   UNL A   1      44.643  27.767  34.419  1.00  0.00    -0.206 F 
ATOM     80  C   UNL A   1      48.129  28.178  33.527  1.00  0.00     0.006 A 
ENDBRANCH  56  73
ENDBRANCH  30  31
ENDBRANCH  22  25
ENDBRANCH  20  21
ENDBRANCH   1  20
TORSDOF 12
ENDMDL
