MODEL 1
REMARK VINA RESULT:     -13.1      0.000      0.000
REMARK SMILES Cc1ccc(-c2ncc(C(=O)NCCCCNC(=O)c3ccc(-c4c5nc(c(-c6c(F)cccc6F)c6ccc([nH]6)c(-c6c(F)cccc6F)c6nc(c(-c7c(F)cccc7F)c7ccc4[nH]7)C=C6)C=C5)cc3)c(Nc3ccccc3)n2)cc1
REMARK SMILES IDX 14 1 13 2 12 3 10 4 11 5 9 7 6 8 7 9 82 10 8 11 74 12 5 13
REMARK SMILES IDX 1 14 2 15 3 16 84 17 4 18 83 19 75 20 76 22 77 23 81 24
REMARK SMILES IDX 78 25 80 26 79 27 15 28 16 29 17 30 18 31 19 33 20 34 21 35
REMARK SMILES IDX 73 36 22 37 72 38 23 39 24 40 25 41 66 42 26 43 71 44 65 45
REMARK SMILES IDX 67 46 27 47 70 48 64 49 63 50 28 52 54 53 37 54 53 55 38 56
REMARK SMILES IDX 41 57 52 58 68 59 39 60 40 61 51 63 69 64 42 65 29 66 30 67
REMARK SMILES IDX 35 68 31 69 32 70 34 71 36 72 33 73 55 74 56 75 61 76 57 77
REMARK SMILES IDX 58 78 60 79 62 80 59 81 43 82 44 83 49 84 45 85 46 86 48 87
REMARK SMILES IDX 50 88 47 89
REMARK H PARENT 12 6 75 21 17 32 67 51 41 62
REMARK Flexibility Score: inf
ROOT
ATOM      1  C   UNL A   1      32.248  30.498  26.875  1.00  0.00     0.023 C 
ENDROOT
BRANCH   1   2
ATOM      2  C   UNL A   1      31.819  29.541  25.747  1.00  0.00     0.116 C 
BRANCH   2   3
ATOM      3  N   UNL A   1      32.663  29.679  24.571  1.00  0.00    -0.352 N 
ATOM      4  C   UNL A   1      33.275  28.797  23.712  1.00  0.00     0.256 C 
ATOM      5  O   UNL A   1      33.978  29.306  22.833  1.00  0.00    -0.269 OA
ATOM      6  H   UNL A   1      32.836  30.619  24.336  1.00  0.00     0.163 HD
BRANCH   4   7
ATOM      7  C   UNL A   1      33.154  27.317  23.766  1.00  0.00     0.100 A 
ATOM      8  C   UNL A   1      32.958  24.598  23.802  1.00  0.00     0.161 A 
ATOM      9  N   UNL A   1      33.887  25.159  24.584  1.00  0.00    -0.236 NA
ATOM     10  N   UNL A   1      32.139  25.278  22.993  1.00  0.00    -0.210 NA
ATOM     11  C   UNL A   1      33.973  26.503  24.519  1.00  0.00     0.131 A 
ATOM     12  C   UNL A   1      32.228  26.630  22.971  1.00  0.00     0.147 A 
BRANCH   8  13
ATOM     13  C   UNL A   1      32.877  23.141  23.800  1.00  0.00     0.019 A 
ATOM     14  C   UNL A   1      32.471  18.838  23.870  1.00  0.00     0.044 C 
ATOM     15  C   UNL A   1      32.624  20.329  23.849  1.00  0.00    -0.051 A 
ATOM     16  C   UNL A   1      32.106  21.068  22.780  1.00  0.00     0.004 A 
ATOM     17  C   UNL A   1      33.292  20.999  24.881  1.00  0.00     0.004 A 
ATOM     18  C   UNL A   1      32.223  22.460  22.762  1.00  0.00     0.012 A 
ATOM     19  C   UNL A   1      33.423  22.389  24.850  1.00  0.00     0.012 A 
ENDBRANCH   8  13
BRANCH  12  20
ATOM     20  N   UNL A   1      31.352  27.316  22.102  1.00  0.00    -0.339 N 
ATOM     21  H   UNL A   1      31.567  27.265  21.143  1.00  0.00     0.168 HD
BRANCH  20  22
ATOM     22  C   UNL A   1      30.208  28.061  22.439  1.00  0.00     0.040 A 
ATOM     23  C   UNL A   1      30.085  29.380  21.987  1.00  0.00     0.026 A 
ATOM     24  C   UNL A   1      29.125  27.488  23.116  1.00  0.00     0.026 A 
ATOM     25  C   UNL A   1      28.911  30.107  22.205  1.00  0.00     0.002 A 
ATOM     26  C   UNL A   1      27.959  28.218  23.357  1.00  0.00     0.002 A 
ATOM     27  C   UNL A   1      27.849  29.526  22.894  1.00  0.00     0.000 A 
ENDBRANCH  20  22
ENDBRANCH  12  20
ENDBRANCH   4   7
ENDBRANCH   2   3
ENDBRANCH   1   2
BRANCH   1  28
ATOM     28  C   UNL A   1      33.544  30.096  27.594  1.00  0.00     0.023 C 
BRANCH  28  29
ATOM     29  C   UNL A   1      34.593  31.199  27.618  1.00  0.00     0.116 C 
BRANCH  29  30
ATOM     30  N   UNL A   1      34.974  31.661  28.945  1.00  0.00    -0.352 N 
ATOM     31  C   UNL A   1      35.908  31.144  29.833  1.00  0.00     0.251 C 
ATOM     32  H   UNL A   1      34.496  32.461  29.261  1.00  0.00     0.163 HD
ATOM     33  O   UNL A   1      36.019  31.629  30.944  1.00  0.00    -0.269 OA
BRANCH  31  34
ATOM     34  C   UNL A   1      36.869  30.099  29.378  1.00  0.00     0.039 A 
ATOM     35  C   UNL A   1      37.083  29.002  30.222  1.00  0.00     0.014 A 
ATOM     36  C   UNL A   1      37.692  30.291  28.274  1.00  0.00     0.014 A 
ATOM     37  C   UNL A   1      38.271  28.280  30.119  1.00  0.00     0.010 A 
ATOM     38  C   UNL A   1      38.917  29.656  28.235  1.00  0.00     0.010 A 
ATOM     39  C   UNL A   1      39.234  28.700  29.202  1.00  0.00    -0.014 A 
BRANCH  39  40
ATOM     40  C   UNL A   1      40.627  28.282  29.269  1.00  0.00     0.031 A 
ATOM     41  C   UNL A   1      41.073  27.036  28.618  1.00  0.00     0.074 A 
ATOM     42  C   UNL A   1      41.532  29.061  29.904  1.00  0.00     0.049 A 
ATOM     43  N   UNL A   1      42.038  26.304  29.065  1.00  0.00    -0.248 NA
ATOM     44  C   UNL A   1      40.443  26.500  27.416  1.00  0.00     0.031 C 
ATOM     45  C   UNL A   1      42.985  28.917  29.892  1.00  0.00     0.029 A 
ATOM     46  N   UNL A   1      41.286  30.044  30.869  1.00  0.00    -0.354 N 
ATOM     47  C   UNL A   1      42.326  25.375  28.098  1.00  0.00     0.074 A 
ATOM     48  C   UNL A   1      41.265  25.488  27.122  1.00  0.00     0.031 C 
ATOM     49  C   UNL A   1      43.491  29.544  30.965  1.00  0.00     0.029 A 
ATOM     50  C   UNL A   1      42.370  29.999  31.770  1.00  0.00     0.049 A 
ATOM     51  H   UNL A   1      40.510  30.649  30.910  1.00  0.00     0.167 HD
ATOM     52  C   UNL A   1      43.506  24.698  28.126  1.00  0.00     0.037 A 
ATOM     53  C   UNL A   1      42.187  29.717  33.092  1.00  0.00     0.037 A 
ATOM     54  C   UNL A   1      44.345  25.110  29.241  1.00  0.00     0.049 A 
ATOM     55  C   UNL A   1      42.916  28.479  33.558  1.00  0.00     0.074 A 
ATOM     56  C   UNL A   1      45.366  26.042  29.336  1.00  0.00     0.029 A 
ATOM     57  N   UNL A   1      43.966  24.808  30.544  1.00  0.00    -0.354 N 
ATOM     58  N   UNL A   1      43.385  27.568  32.750  1.00  0.00    -0.248 NA
ATOM     59  C   UNL A   1      43.151  28.149  34.961  1.00  0.00     0.031 C 
ATOM     60  C   UNL A   1      45.565  26.343  30.703  1.00  0.00     0.029 A 
ATOM     61  C   UNL A   1      44.684  25.574  31.442  1.00  0.00     0.049 A 
ATOM     62  H   UNL A   1      43.283  24.143  30.791  1.00  0.00     0.167 HD
ATOM     63  C   UNL A   1      43.942  26.549  33.479  1.00  0.00     0.074 A 
ATOM     64  C   UNL A   1      43.789  26.969  34.858  1.00  0.00     0.031 C 
ATOM     65  C   UNL A   1      44.473  25.445  32.875  1.00  0.00     0.037 A 
BRANCH  52  66
ATOM     66  C   UNL A   1      43.978  23.910  26.938  1.00  0.00     0.057 A 
ATOM     67  C   UNL A   1      44.776  24.490  25.936  1.00  0.00     0.134 A 
ATOM     68  C   UNL A   1      43.617  22.571  26.715  1.00  0.00     0.134 A 
ATOM     69  F   UNL A   1      45.243  25.740  26.043  1.00  0.00    -0.206 F 
ATOM     70  C   UNL A   1      45.108  23.820  24.754  1.00  0.00     0.040 A 
ATOM     71  C   UNL A   1      43.906  21.902  25.518  1.00  0.00     0.040 A 
ATOM     72  F   UNL A   1      42.960  21.870  27.653  1.00  0.00    -0.206 F 
ATOM     73  C   UNL A   1      44.645  22.532  24.526  1.00  0.00     0.006 A 
ENDBRANCH  52  66
BRANCH  53  74
ATOM     74  C   UNL A   1      40.883  30.198  33.614  1.00  0.00     0.057 A 
ATOM     75  C   UNL A   1      40.759  31.560  33.947  1.00  0.00     0.134 A 
ATOM     76  C   UNL A   1      39.700  29.482  33.412  1.00  0.00     0.134 A 
ATOM     77  F   UNL A   1      41.858  32.304  34.151  1.00  0.00    -0.206 F 
ATOM     78  C   UNL A   1      39.522  32.208  33.959  1.00  0.00     0.040 A 
ATOM     79  C   UNL A   1      38.454  30.121  33.432  1.00  0.00     0.040 A 
ATOM     80  F   UNL A   1      39.737  28.186  33.072  1.00  0.00    -0.206 F 
ATOM     81  C   UNL A   1      38.367  31.493  33.663  1.00  0.00     0.006 A 
ENDBRANCH  53  74
BRANCH  65  82
ATOM     82  C   UNL A   1      44.932  24.179  33.556  1.00  0.00     0.057 A 
ATOM     83  C   UNL A   1      46.268  23.875  33.841  1.00  0.00     0.134 A 
ATOM     84  C   UNL A   1      43.982  23.280  34.098  1.00  0.00     0.134 A 
ATOM     85  F   UNL A   1      47.267  24.688  33.473  1.00  0.00    -0.206 F 
ATOM     86  C   UNL A   1      46.638  22.739  34.575  1.00  0.00     0.040 A 
ATOM     87  C   UNL A   1      44.337  22.175  34.875  1.00  0.00     0.040 A 
ATOM     88  F   UNL A   1      42.664  23.449  33.916  1.00  0.00    -0.206 F 
ATOM     89  C   UNL A   1      45.673  21.894  35.109  1.00  0.00     0.006 A 
ENDBRANCH  65  82
ENDBRANCH  39  40
ENDBRANCH  31  34
ENDBRANCH  29  30
ENDBRANCH  28  29
ENDBRANCH   1  28
TORSDOF 14
ENDMDL
MODEL 2
REMARK VINA RESULT:     -12.7      2.519      4.153
REMARK SMILES Cc1ccc(-c2ncc(C(=O)NCCCCNC(=O)c3ccc(-c4c5nc(c(-c6c(F)cccc6F)c6ccc([nH]6)c(-c6c(F)cccc6F)c6nc(c(-c7c(F)cccc7F)c7ccc4[nH]7)C=C6)C=C5)cc3)c(Nc3ccccc3)n2)cc1
REMARK SMILES IDX 14 1 13 2 12 3 10 4 11 5 9 7 6 8 7 9 82 10 8 11 74 12 5 13
REMARK SMILES IDX 1 14 2 15 3 16 84 17 4 18 83 19 75 20 76 22 77 23 81 24
REMARK SMILES IDX 78 25 80 26 79 27 15 28 16 29 17 30 18 31 19 33 20 34 21 35
REMARK SMILES IDX 73 36 22 37 72 38 23 39 24 40 25 41 66 42 26 43 71 44 65 45
REMARK SMILES IDX 67 46 27 47 70 48 64 49 63 50 28 52 54 53 37 54 53 55 38 56
REMARK SMILES IDX 41 57 52 58 68 59 39 60 40 61 51 63 69 64 42 65 29 66 30 67
REMARK SMILES IDX 35 68 31 69 32 70 34 71 36 72 33 73 55 74 56 75 61 76 57 77
REMARK SMILES IDX 58 78 60 79 62 80 59 81 43 82 44 83 49 84 45 85 46 86 48 87
REMARK SMILES IDX 50 88 47 89
REMARK H PARENT 12 6 75 21 17 32 67 51 41 62
REMARK Flexibility Score: inf
ROOT
ATOM      1  C   UNL A   1      35.542  31.823  28.190  1.00  0.00     0.023 C 
ENDROOT
BRANCH   1   2
ATOM      2  C   UNL A   1      34.744  30.745  27.434  1.00  0.00     0.116 C 
BRANCH   2   3
ATOM      3  N   UNL A   1      33.348  31.118  27.274  1.00  0.00    -0.352 N 
ATOM      4  C   UNL A   1      32.230  30.489  26.781  1.00  0.00     0.256 C 
ATOM      5  O   UNL A   1      31.198  31.169  26.759  1.00  0.00    -0.269 OA
ATOM      6  H   UNL A   1      33.160  32.032  27.591  1.00  0.00     0.163 HD
BRANCH   4   7
ATOM      7  C   UNL A   1      32.176  29.090  26.287  1.00  0.00     0.100 A 
ATOM      8  C   UNL A   1      32.127  26.534  25.337  1.00  0.00     0.161 A 
ATOM      9  N   UNL A   1      32.602  26.723  26.574  1.00  0.00    -0.236 NA
ATOM     10  N   UNL A   1      31.697  27.512  24.534  1.00  0.00    -0.210 NA
ATOM     11  C   UNL A   1      32.636  28.002  26.998  1.00  0.00     0.131 A 
ATOM     12  C   UNL A   1      31.716  28.785  24.999  1.00  0.00     0.147 A 
BRANCH   8  13
ATOM     13  C   UNL A   1      32.131  25.170  24.821  1.00  0.00     0.019 A 
ATOM     14  C   UNL A   1      32.251  21.183  23.153  1.00  0.00     0.044 C 
ATOM     15  C   UNL A   1      32.197  22.563  23.734  1.00  0.00    -0.051 A 
ATOM     16  C   UNL A   1      33.196  22.989  24.616  1.00  0.00     0.004 A 
ATOM     17  C   UNL A   1      31.150  23.437  23.417  1.00  0.00     0.004 A 
ATOM     18  C   UNL A   1      33.168  24.282  25.145  1.00  0.00     0.012 A 
ATOM     19  C   UNL A   1      31.115  24.723  23.962  1.00  0.00     0.012 A 
ENDBRANCH   8  13
BRANCH  12  20
ATOM     20  N   UNL A   1      31.260  29.795  24.124  1.00  0.00    -0.339 N 
ATOM     21  H   UNL A   1      31.944  30.419  23.791  1.00  0.00     0.168 HD
BRANCH  20  22
ATOM     22  C   UNL A   1      29.949  30.016  23.668  1.00  0.00     0.040 A 
ATOM     23  C   UNL A   1      29.242  28.971  23.060  1.00  0.00     0.026 A 
ATOM     24  C   UNL A   1      29.276  31.221  23.907  1.00  0.00     0.026 A 
ATOM     25  C   UNL A   1      27.900  29.126  22.702  1.00  0.00     0.002 A 
ATOM     26  C   UNL A   1      27.941  31.387  23.531  1.00  0.00     0.002 A 
ATOM     27  C   UNL A   1      27.251  30.336  22.934  1.00  0.00     0.000 A 
ENDBRANCH  20  22
ENDBRANCH  12  20
ENDBRANCH   4   7
ENDBRANCH   2   3
ENDBRANCH   1   2
BRANCH   1  28
ATOM     28  C   UNL A   1      34.922  32.257  29.526  1.00  0.00     0.023 C 
BRANCH  28  29
ATOM     29  C   UNL A   1      34.697  33.760  29.633  1.00  0.00     0.116 C 
BRANCH  29  30
ATOM     30  N   UNL A   1      33.897  34.185  30.773  1.00  0.00    -0.352 N 
ATOM     31  C   UNL A   1      34.174  34.107  32.131  1.00  0.00     0.251 C 
ATOM     32  H   UNL A   1      33.029  34.588  30.546  1.00  0.00     0.163 HD
ATOM     33  O   UNL A   1      33.328  34.442  32.940  1.00  0.00    -0.269 OA
BRANCH  31  34
ATOM     34  C   UNL A   1      35.547  33.755  32.593  1.00  0.00     0.039 A 
ATOM     35  C   UNL A   1      36.601  34.584  32.189  1.00  0.00     0.014 A 
ATOM     36  C   UNL A   1      35.822  32.542  33.216  1.00  0.00     0.014 A 
ATOM     37  C   UNL A   1      37.898  34.075  32.153  1.00  0.00     0.010 A 
ATOM     38  C   UNL A   1      37.082  31.993  33.080  1.00  0.00     0.010 A 
ATOM     39  C   UNL A   1      38.102  32.735  32.484  1.00  0.00    -0.014 A 
BRANCH  39  40
ATOM     40  C   UNL A   1      39.309  32.005  32.121  1.00  0.00     0.031 A 
ATOM     41  C   UNL A   1      39.246  30.853  31.203  1.00  0.00     0.074 A 
ATOM     42  C   UNL A   1      40.507  32.407  32.603  1.00  0.00     0.049 A 
ATOM     43  N   UNL A   1      40.048  29.843  31.270  1.00  0.00    -0.248 NA
ATOM     44  C   UNL A   1      38.249  30.737  30.143  1.00  0.00     0.031 C 
ATOM     45  C   UNL A   1      41.827  31.939  32.189  1.00  0.00     0.029 A 
ATOM     46  N   UNL A   1      40.754  33.198  33.731  1.00  0.00    -0.354 N 
ATOM     47  C   UNL A   1      39.855  29.095  30.136  1.00  0.00     0.074 A 
ATOM     48  C   UNL A   1      38.679  29.647  29.500  1.00  0.00     0.031 C 
ATOM     49  C   UNL A   1      42.705  32.197  33.171  1.00  0.00     0.029 A 
ATOM     50  C   UNL A   1      41.953  32.720  34.299  1.00  0.00     0.049 A 
ATOM     51  H   UNL A   1      40.200  33.942  34.061  1.00  0.00     0.167 HD
ATOM     52  C   UNL A   1      40.782  28.175  29.755  1.00  0.00     0.037 A 
ATOM     53  C   UNL A   1      41.990  32.219  35.567  1.00  0.00     0.037 A 
ATOM     54  C   UNL A   1      41.922  28.143  30.658  1.00  0.00     0.049 A 
ATOM     55  C   UNL A   1      42.436  30.778  35.641  1.00  0.00     0.074 A 
ATOM     56  C   UNL A   1      43.154  28.776  30.616  1.00  0.00     0.029 A 
ATOM     57  N   UNL A   1      41.767  27.672  31.957  1.00  0.00    -0.354 N 
ATOM     58  N   UNL A   1      42.452  29.972  34.615  1.00  0.00    -0.248 NA
ATOM     59  C   UNL A   1      42.871  30.118  36.870  1.00  0.00     0.031 C 
ATOM     60  C   UNL A   1      43.719  28.732  31.912  1.00  0.00     0.029 A 
ATOM     61  C   UNL A   1      42.843  28.050  32.737  1.00  0.00     0.049 A 
ATOM     62  H   UNL A   1      40.999  27.145  32.276  1.00  0.00     0.167 HD
ATOM     63  C   UNL A   1      42.854  28.723  35.016  1.00  0.00     0.074 A 
ATOM     64  C   UNL A   1      43.124  28.871  36.433  1.00  0.00     0.031 C 
ATOM     65  C   UNL A   1      42.920  27.678  34.140  1.00  0.00     0.037 A 
BRANCH  52  66
ATOM     66  C   UNL A   1      40.752  27.564  28.384  1.00  0.00     0.057 A 
ATOM     67  C   UNL A   1      40.100  26.345  28.132  1.00  0.00     0.134 A 
ATOM     68  C   UNL A   1      41.412  28.128  27.280  1.00  0.00     0.134 A 
ATOM     69  F   UNL A   1      39.382  25.722  29.075  1.00  0.00    -0.206 F 
ATOM     70  C   UNL A   1      40.178  25.687  26.900  1.00  0.00     0.040 A 
ATOM     71  C   UNL A   1      41.536  27.462  26.054  1.00  0.00     0.040 A 
ATOM     72  F   UNL A   1      41.969  29.347  27.360  1.00  0.00    -0.206 F 
ATOM     73  C   UNL A   1      40.927  26.229  25.864  1.00  0.00     0.006 A 
ENDBRANCH  52  66
BRANCH  53  74
ATOM     74  C   UNL A   1      41.013  32.867  36.477  1.00  0.00     0.057 A 
ATOM     75  C   UNL A   1      41.347  34.113  37.038  1.00  0.00     0.134 A 
ATOM     76  C   UNL A   1      39.662  32.509  36.480  1.00  0.00     0.134 A 
ATOM     77  F   UNL A   1      42.628  34.516  37.064  1.00  0.00    -0.206 F 
ATOM     78  C   UNL A   1      40.372  35.015  37.470  1.00  0.00     0.040 A 
ATOM     79  C   UNL A   1      38.677  33.402  36.921  1.00  0.00     0.040 A 
ATOM     80  F   UNL A   1      39.262  31.347  35.945  1.00  0.00    -0.206 F 
ATOM     81  C   UNL A   1      39.028  34.672  37.376  1.00  0.00     0.006 A 
ENDBRANCH  53  74
BRANCH  65  82
ATOM     82  C   UNL A   1      43.152  26.227  34.485  1.00  0.00     0.057 A 
ATOM     83  C   UNL A   1      42.209  25.404  35.113  1.00  0.00     0.134 A 
ATOM     84  C   UNL A   1      44.319  25.566  34.032  1.00  0.00     0.134 A 
ATOM     85  F   UNL A   1      41.018  25.875  35.508  1.00  0.00    -0.206 F 
ATOM     86  C   UNL A   1      42.426  24.033  35.313  1.00  0.00     0.040 A 
ATOM     87  C   UNL A   1      44.521  24.192  34.178  1.00  0.00     0.040 A 
ATOM     88  F   UNL A   1      45.304  26.225  33.403  1.00  0.00    -0.206 F 
ATOM     89  C   UNL A   1      43.576  23.420  34.832  1.00  0.00     0.006 A 
ENDBRANCH  65  82
ENDBRANCH  39  40
ENDBRANCH  31  34
ENDBRANCH  29  30
ENDBRANCH  28  29
ENDBRANCH   1  28
TORSDOF 14
ENDMDL
MODEL 3
REMARK VINA RESULT:     -12.4      1.602      2.338
REMARK SMILES Cc1ccc(-c2ncc(C(=O)NCCCCNC(=O)c3ccc(-c4c5nc(c(-c6c(F)cccc6F)c6ccc([nH]6)c(-c6c(F)cccc6F)c6nc(c(-c7c(F)cccc7F)c7ccc4[nH]7)C=C6)C=C5)cc3)c(Nc3ccccc3)n2)cc1
REMARK SMILES IDX 14 1 13 2 12 3 10 4 11 5 9 7 6 8 7 9 82 10 8 11 74 12 5 13
REMARK SMILES IDX 1 14 2 15 3 16 84 17 4 18 83 19 75 20 76 22 77 23 81 24
REMARK SMILES IDX 78 25 80 26 79 27 15 28 16 29 17 30 18 31 19 33 20 34 21 35
REMARK SMILES IDX 73 36 22 37 72 38 23 39 24 40 25 41 66 42 26 43 71 44 65 45
REMARK SMILES IDX 67 46 27 47 70 48 64 49 63 50 28 52 54 53 37 54 53 55 38 56
REMARK SMILES IDX 41 57 52 58 68 59 39 60 40 61 51 63 69 64 42 65 29 66 30 67
REMARK SMILES IDX 35 68 31 69 32 70 34 71 36 72 33 73 55 74 56 75 61 76 57 77
REMARK SMILES IDX 58 78 60 79 62 80 59 81 43 82 44 83 49 84 45 85 46 86 48 87
REMARK SMILES IDX 50 88 47 89
REMARK H PARENT 12 6 75 21 17 32 67 51 41 62
REMARK Flexibility Score: inf
ROOT
ATOM      1  C   UNL A   1      31.901  29.333  26.430  1.00  0.00     0.023 C 
ENDROOT
BRANCH   1   2
ATOM      2  C   UNL A   1      32.132  27.925  27.010  1.00  0.00     0.116 C 
BRANCH   2   3
ATOM      3  N   UNL A   1      30.986  27.057  26.792  1.00  0.00    -0.352 N 
ATOM      4  C   UNL A   1      30.825  25.747  26.408  1.00  0.00     0.256 C 
ATOM      5  O   UNL A   1      29.657  25.366  26.277  1.00  0.00    -0.269 OA
ATOM      6  H   UNL A   1      30.128  27.511  26.958  1.00  0.00     0.163 HD
BRANCH   4   7
ATOM      7  C   UNL A   1      31.926  24.784  26.147  1.00  0.00     0.100 A 
ATOM      8  C   UNL A   1      33.988  23.068  25.655  1.00  0.00     0.161 A 
ATOM      9  N   UNL A   1      33.573  23.187  26.922  1.00  0.00    -0.236 NA
ATOM     10  N   UNL A   1      33.474  23.748  24.625  1.00  0.00    -0.210 NA
ATOM     11  C   UNL A   1      32.571  24.064  27.130  1.00  0.00     0.131 A 
ATOM     12  C   UNL A   1      32.448  24.601  24.860  1.00  0.00     0.147 A 
BRANCH   8  13
ATOM     13  C   UNL A   1      35.111  22.174  25.400  1.00  0.00     0.019 A 
ATOM     14  C   UNL A   1      38.442  19.479  24.820  1.00  0.00     0.044 C 
ATOM     15  C   UNL A   1      37.293  20.422  25.013  1.00  0.00    -0.051 A 
ATOM     16  C   UNL A   1      35.980  19.939  24.974  1.00  0.00     0.004 A 
ATOM     17  C   UNL A   1      37.509  21.789  25.220  1.00  0.00     0.004 A 
ATOM     18  C   UNL A   1      34.902  20.804  25.176  1.00  0.00     0.012 A 
ATOM     19  C   UNL A   1      36.428  22.655  25.404  1.00  0.00     0.012 A 
ENDBRANCH   8  13
BRANCH  12  20
ATOM     20  N   UNL A   1      31.932  25.305  23.750  1.00  0.00    -0.339 N 
ATOM     21  H   UNL A   1      31.402  24.775  23.111  1.00  0.00     0.168 HD
BRANCH  20  22
ATOM     22  C   UNL A   1      32.081  26.669  23.446  1.00  0.00     0.040 A 
ATOM     23  C   UNL A   1      33.355  27.249  23.474  1.00  0.00     0.026 A 
ATOM     24  C   UNL A   1      31.007  27.448  22.998  1.00  0.00     0.026 A 
ATOM     25  C   UNL A   1      33.551  28.571  23.064  1.00  0.00     0.002 A 
ATOM     26  C   UNL A   1      31.194  28.777  22.608  1.00  0.00     0.002 A 
ATOM     27  C   UNL A   1      32.469  29.336  22.635  1.00  0.00     0.000 A 
ENDBRANCH  20  22
ENDBRANCH  12  20
ENDBRANCH   4   7
ENDBRANCH   2   3
ENDBRANCH   1   2
BRANCH   1  28
ATOM     28  C   UNL A   1      33.044  30.324  26.688  1.00  0.00     0.023 C 
BRANCH  28  29
ATOM     29  C   UNL A   1      34.052  29.837  27.721  1.00  0.00     0.116 C 
BRANCH  29  30
ATOM     30  N   UNL A   1      34.698  30.886  28.496  1.00  0.00    -0.352 N 
ATOM     31  C   UNL A   1      35.933  30.889  29.130  1.00  0.00     0.251 C 
ATOM     32  H   UNL A   1      34.181  31.718  28.585  1.00  0.00     0.163 HD
ATOM     33  O   UNL A   1      36.261  31.845  29.809  1.00  0.00    -0.269 OA
BRANCH  31  34
ATOM     34  C   UNL A   1      36.912  29.798  28.862  1.00  0.00     0.039 A 
ATOM     35  C   UNL A   1      37.190  28.903  29.903  1.00  0.00     0.014 A 
ATOM     36  C   UNL A   1      37.691  29.778  27.710  1.00  0.00     0.014 A 
ATOM     37  C   UNL A   1      38.397  28.205  29.904  1.00  0.00     0.010 A 
ATOM     38  C   UNL A   1      38.934  29.178  27.753  1.00  0.00     0.010 A 
ATOM     39  C   UNL A   1      39.314  28.451  28.882  1.00  0.00    -0.014 A 
BRANCH  39  40
ATOM     40  C   UNL A   1      40.722  28.090  28.978  1.00  0.00     0.031 A 
ATOM     41  C   UNL A   1      41.229  26.856  28.350  1.00  0.00     0.074 A 
ATOM     42  C   UNL A   1      41.583  28.912  29.619  1.00  0.00     0.049 A 
ATOM     43  N   UNL A   1      42.214  26.169  28.822  1.00  0.00    -0.248 NA
ATOM     44  C   UNL A   1      40.642  26.282  27.143  1.00  0.00     0.031 C 
ATOM     45  C   UNL A   1      43.040  28.827  29.634  1.00  0.00     0.029 A 
ATOM     46  N   UNL A   1      41.281  29.895  30.569  1.00  0.00    -0.354 N 
ATOM     47  C   UNL A   1      42.557  25.242  27.870  1.00  0.00     0.074 A 
ATOM     48  C   UNL A   1      41.509  25.301  26.875  1.00  0.00     0.031 C 
ATOM     49  C   UNL A   1      43.501  29.486  30.709  1.00  0.00     0.029 A 
ATOM     50  C   UNL A   1      42.350  29.904  31.489  1.00  0.00     0.049 A 
ATOM     51  H   UNL A   1      40.480  30.469  30.589  1.00  0.00     0.167 HD
ATOM     52  C   UNL A   1      43.762  24.614  27.927  1.00  0.00     0.037 A 
ATOM     53  C   UNL A   1      42.155  29.629  32.810  1.00  0.00     0.037 A 
ATOM     54  C   UNL A   1      44.564  25.072  29.051  1.00  0.00     0.049 A 
ATOM     55  C   UNL A   1      42.924  28.427  33.304  1.00  0.00     0.074 A 
ATOM     56  C   UNL A   1      45.545  26.045  29.153  1.00  0.00     0.029 A 
ATOM     57  N   UNL A   1      44.175  24.769  30.350  1.00  0.00    -0.354 N 
ATOM     58  N   UNL A   1      43.444  27.527  32.514  1.00  0.00    -0.248 NA
ATOM     59  C   UNL A   1      43.148  28.122  34.714  1.00  0.00     0.031 C 
ATOM     60  C   UNL A   1      45.708  26.368  30.520  1.00  0.00     0.029 A 
ATOM     61  C   UNL A   1      44.845  25.573  31.252  1.00  0.00     0.049 A 
ATOM     62  H   UNL A   1      43.515  24.080  30.594  1.00  0.00     0.167 HD
ATOM     63  C   UNL A   1      44.028  26.539  33.264  1.00  0.00     0.074 A 
ATOM     64  C   UNL A   1      43.835  26.967  34.636  1.00  0.00     0.031 C 
ATOM     65  C   UNL A   1      44.614  25.451  32.682  1.00  0.00     0.037 A 
BRANCH  52  66
ATOM     66  C   UNL A   1      44.287  23.832  26.756  1.00  0.00     0.057 A 
ATOM     67  C   UNL A   1      43.896  22.503  26.521  1.00  0.00     0.134 A 
ATOM     68  C   UNL A   1      45.234  24.346  25.856  1.00  0.00     0.134 A 
ATOM     69  F   UNL A   1      42.958  21.902  27.263  1.00  0.00    -0.206 F 
ATOM     70  C   UNL A   1      44.476  21.711  25.524  1.00  0.00     0.040 A 
ATOM     71  C   UNL A   1      45.855  23.553  24.882  1.00  0.00     0.040 A 
ATOM     72  F   UNL A   1      45.597  25.638  25.901  1.00  0.00    -0.206 F 
ATOM     73  C   UNL A   1      45.484  22.225  24.721  1.00  0.00     0.006 A 
ENDBRANCH  52  66
BRANCH  53  74
ATOM     74  C   UNL A   1      40.824  30.063  33.304  1.00  0.00     0.057 A 
ATOM     75  C   UNL A   1      40.593  31.440  33.480  1.00  0.00     0.134 A 
ATOM     76  C   UNL A   1      39.701  29.236  33.216  1.00  0.00     0.134 A 
ATOM     77  F   UNL A   1      41.630  32.289  33.569  1.00  0.00    -0.206 F 
ATOM     78  C   UNL A   1      39.307  31.984  33.445  1.00  0.00     0.040 A 
ATOM     79  C   UNL A   1      38.407  29.771  33.191  1.00  0.00     0.040 A 
ATOM     80  F   UNL A   1      39.839  27.915  33.028  1.00  0.00    -0.206 F 
ATOM     81  C   UNL A   1      38.211  31.149  33.263  1.00  0.00     0.006 A 
ENDBRANCH  53  74
BRANCH  65  82
ATOM     82  C   UNL A   1      45.111  24.212  33.386  1.00  0.00     0.057 A 
ATOM     83  C   UNL A   1      46.339  24.121  34.054  1.00  0.00     0.134 A 
ATOM     84  C   UNL A   1      44.259  23.093  33.542  1.00  0.00     0.134 A 
ATOM     85  F   UNL A   1      47.204  25.144  34.073  1.00  0.00    -0.206 F 
ATOM     86  C   UNL A   1      46.710  22.987  34.789  1.00  0.00     0.040 A 
ATOM     87  C   UNL A   1      44.596  21.980  34.315  1.00  0.00     0.040 A 
ATOM     88  F   UNL A   1      43.047  23.042  32.967  1.00  0.00    -0.206 F 
ATOM     89  C   UNL A   1      45.833  21.918  34.935  1.00  0.00     0.006 A 
ENDBRANCH  65  82
ENDBRANCH  39  40
ENDBRANCH  31  34
ENDBRANCH  29  30
ENDBRANCH  28  29
ENDBRANCH   1  28
TORSDOF 14
ENDMDL
