MODEL 1
REMARK VINA RESULT:     -13.1      0.000      0.000
REMARK SMILES O=C(NCCCCNC(=O)c1ccc(-c2c3nc(c(-c4c(F)cccc4F)c4ccc([nH]4)c(-c4c(F)cccc4F)c4nc(c(-c5c(F)cccc5F)c5ccc2[nH]5)C=C4)C=C3)cc1)C1=Cc2cc(S(F)(F)(F)(F)F)cc(Br)c2O[C@@H]1C(F)(F)F
REMARK SMILES IDX 6 1 5 2 4 3 3 4 1 5 2 6 65 8 66 9 81 10 67 11 80 12 68 13
REMARK SMILES IDX 79 14 69 15 77 16 76 17 78 18 82 19 83 20 84 21 85 22 70 23
REMARK SMILES IDX 71 24 72 25 73 26 74 27 75 28 7 29 8 30 9 31 10 33 11 34
REMARK SMILES IDX 12 35 64 36 13 37 63 38 14 39 15 40 16 41 57 42 17 43 62 44
REMARK SMILES IDX 56 45 58 46 18 47 61 48 55 49 54 50 19 52 45 53 28 54 44 55
REMARK SMILES IDX 29 56 32 57 43 58 59 59 30 60 31 61 42 63 60 64 33 65 20 66
REMARK SMILES IDX 21 67 26 68 22 69 23 70 25 71 27 72 24 73 46 74 47 75 52 76
REMARK SMILES IDX 48 77 49 78 51 79 53 80 50 81 34 82 35 83 40 84 36 85 37 86
REMARK SMILES IDX 39 87 41 88 38 89
REMARK H PARENT 3 7 8 32 58 51 32 62
REMARK Flexibility Score: inf
ROOT
ATOM      1  C   UNL A   1      32.947  28.463  25.990  1.00  0.00     0.023 C 
ENDROOT
BRANCH   1   2
ATOM      2  C   UNL A   1      33.626  27.657  24.894  1.00  0.00     0.023 C 
BRANCH   2   3
ATOM      3  C   UNL A   1      33.639  26.187  25.282  1.00  0.00     0.116 C 
BRANCH   3   4
ATOM      4  N   UNL A   1      34.064  25.381  24.130  1.00  0.00    -0.352 N 
ATOM      5  O   UNL A   1      33.643  23.511  22.726  1.00  0.00    -0.270 OA
ATOM      6  C   UNL A   1      33.276  24.208  23.722  1.00  0.00     0.251 C 
ATOM      7  H   UNL A   1      34.877  25.625  23.630  1.00  0.00     0.163 HD
BRANCH   6   8
ATOM      8  C   UNL A   1      32.021  23.831  24.494  1.00  0.00     0.067 C 
ATOM      9  C   UNL A   1      31.926  22.610  25.085  1.00  0.00     0.025 C 
ATOM     10  C   UNL A   1      30.871  24.821  24.604  1.00  0.00     0.314 C 
ATOM     11  C   UNL A   1      33.076  21.621  24.974  1.00  0.00     0.020 A 
ATOM     12  O   UNL A   1      34.686  23.312  25.419  1.00  0.00    -0.474 OA
ATOM     13  C   UNL A   1      32.722  20.348  24.560  1.00  0.00     0.036 A 
ATOM     14  C   UNL A   1      34.347  21.959  25.151  1.00  0.00     0.142 A 
ATOM     15  C   UNL A   1      33.775  19.407  24.636  1.00  0.00     0.109 A 
ATOM     16  C   UNL A   1      35.340  21.012  25.077  1.00  0.00     0.062 A 
ATOM     17  C   UNL A   1      35.055  19.721  24.730  1.00  0.00     0.044 A 
ATOM     18  Br  UNL A   1      37.191  21.520  25.473  1.00  0.00    -0.047 Br
BRANCH  10  19
ATOM     19  C   UNL A   1      30.618  25.139  26.068  1.00  0.00     0.429 C 
ATOM     20  F   UNL A   1      30.352  26.435  26.201  1.00  0.00    -0.167 F 
ATOM     21  F   UNL A   1      29.581  24.428  26.502  1.00  0.00    -0.167 F 
ATOM     22  F   UNL A   1      31.695  24.831  26.783  1.00  0.00    -0.167 F 
ENDBRANCH  10  19
BRANCH  15  23
ATOM     23  S   UNL A   1      33.339  17.650  24.601  1.00  0.00     0.310 S 
ATOM     24  F   UNL A   1      31.839  17.982  24.207  1.00  0.00    -0.094 F 
ATOM     25  F   UNL A   1      32.890  17.745  26.109  1.00  0.00    -0.094 F 
ATOM     26  F   UNL A   1      32.954  16.144  24.552  1.00  0.00    -0.094 F 
ATOM     27  F   UNL A   1      33.662  17.610  23.056  1.00  0.00    -0.094 F 
ATOM     28  F   UNL A   1      33.628  19.204  24.607  1.00  0.00    -0.094 F 
ENDBRANCH  15  23
ENDBRANCH   6   8
ENDBRANCH   3   4
ENDBRANCH   2   3
ENDBRANCH   1   2
BRANCH   1  29
ATOM     29  C   UNL A   1      33.937  28.730  27.111  1.00  0.00     0.116 C 
BRANCH  29  30
ATOM     30  N   UNL A   1      33.628  30.022  27.741  1.00  0.00    -0.352 N 
ATOM     31  C   UNL A   1      34.685  30.774  28.432  1.00  0.00     0.251 C 
ATOM     32  H   UNL A   1      32.713  30.383  27.699  1.00  0.00     0.163 HD
ATOM     33  O   UNL A   1      34.417  31.891  28.976  1.00  0.00    -0.269 OA
BRANCH  31  34
ATOM     34  C   UNL A   1      36.097  30.216  28.495  1.00  0.00     0.039 A 
ATOM     35  C   UNL A   1      37.021  30.383  27.477  1.00  0.00     0.014 A 
ATOM     36  C   UNL A   1      36.436  29.650  29.648  1.00  0.00     0.014 A 
ATOM     37  C   UNL A   1      38.217  29.651  27.665  1.00  0.00     0.010 A 
ATOM     38  C   UNL A   1      37.673  29.073  29.806  1.00  0.00     0.010 A 
ATOM     39  C   UNL A   1      38.615  29.148  28.819  1.00  0.00    -0.014 A 
BRANCH  39  40
ATOM     40  C   UNL A   1      40.044  28.676  29.037  1.00  0.00     0.031 A 
ATOM     41  C   UNL A   1      40.912  29.644  29.546  1.00  0.00     0.074 A 
ATOM     42  C   UNL A   1      40.438  27.404  28.661  1.00  0.00     0.049 A 
ATOM     43  N   UNL A   1      42.217  29.519  29.788  1.00  0.00    -0.248 NA
ATOM     44  C   UNL A   1      40.502  31.007  29.915  1.00  0.00     0.031 C 
ATOM     45  C   UNL A   1      39.567  26.420  28.155  1.00  0.00     0.029 A 
ATOM     46  N   UNL A   1      41.705  26.865  28.702  1.00  0.00    -0.354 N 
ATOM     47  C   UNL A   1      42.704  30.655  30.292  1.00  0.00     0.074 A 
ATOM     48  C   UNL A   1      41.609  31.630  30.375  1.00  0.00     0.031 C 
ATOM     49  C   UNL A   1      40.299  25.308  27.883  1.00  0.00     0.029 A 
ATOM     50  C   UNL A   1      41.640  25.577  28.216  1.00  0.00     0.049 A 
ATOM     51  H   UNL A   1      42.516  27.321  29.023  1.00  0.00     0.167 HD
ATOM     52  C   UNL A   1      44.017  30.915  30.687  1.00  0.00     0.037 A 
ATOM     53  C   UNL A   1      42.681  24.675  28.063  1.00  0.00     0.037 A 
ATOM     54  C   UNL A   1      45.049  29.997  30.574  1.00  0.00     0.049 A 
ATOM     55  C   UNL A   1      44.006  24.955  28.404  1.00  0.00     0.074 A 
ATOM     56  C   UNL A   1      46.378  30.240  30.975  1.00  0.00     0.029 A 
ATOM     57  N   UNL A   1      44.990  28.719  30.066  1.00  0.00    -0.354 N 
ATOM     58  N   UNL A   1      44.484  26.077  28.945  1.00  0.00    -0.248 NA
ATOM     59  C   UNL A   1      45.122  24.019  28.216  1.00  0.00     0.031 C 
ATOM     60  C   UNL A   1      47.110  29.127  30.704  1.00  0.00     0.029 A 
ATOM     61  C   UNL A   1      46.252  28.171  30.128  1.00  0.00     0.049 A 
ATOM     62  H   UNL A   1      44.184  28.273  29.718  1.00  0.00     0.167 HD
ATOM     63  C   UNL A   1      45.799  25.966  29.147  1.00  0.00     0.074 A 
ATOM     64  C   UNL A   1      46.229  24.643  28.674  1.00  0.00     0.031 C 
ATOM     65  C   UNL A   1      46.656  26.912  29.710  1.00  0.00     0.037 A 
BRANCH  52  66
ATOM     66  C   UNL A   1      44.333  32.281  31.275  1.00  0.00     0.057 A 
ATOM     67  C   UNL A   1      44.624  33.383  30.489  1.00  0.00     0.134 A 
ATOM     68  C   UNL A   1      44.168  32.394  32.587  1.00  0.00     0.134 A 
ATOM     69  F   UNL A   1      44.548  33.368  29.161  1.00  0.00    -0.206 F 
ATOM     70  C   UNL A   1      45.009  34.527  31.227  1.00  0.00     0.040 A 
ATOM     71  C   UNL A   1      44.434  33.582  33.226  1.00  0.00     0.040 A 
ATOM     72  F   UNL A   1      43.742  31.349  33.292  1.00  0.00    -0.206 F 
ATOM     73  C   UNL A   1      44.784  34.698  32.516  1.00  0.00     0.006 A 
ENDBRANCH  52  66
BRANCH  53  74
ATOM     74  C   UNL A   1      42.361  23.304  27.491  1.00  0.00     0.057 A 
ATOM     75  C   UNL A   1      42.278  23.140  26.118  1.00  0.00     0.134 A 
ATOM     76  C   UNL A   1      42.009  22.332  28.323  1.00  0.00     0.134 A 
ATOM     77  F   UNL A   1      42.848  23.973  25.251  1.00  0.00    -0.206 F 
ATOM     78  C   UNL A   1      41.532  22.006  25.720  1.00  0.00     0.040 A 
ATOM     79  C   UNL A   1      41.407  21.190  27.851  1.00  0.00     0.040 A 
ATOM     80  F   UNL A   1      42.241  22.463  29.626  1.00  0.00    -0.206 F 
ATOM     81  C   UNL A   1      41.239  20.987  26.509  1.00  0.00     0.006 A 
ENDBRANCH  53  74
BRANCH  65  82
ATOM     82  C   UNL A   1      48.120  26.541  29.876  1.00  0.00     0.057 A 
ATOM     83  C   UNL A   1      49.074  26.898  28.938  1.00  0.00     0.134 A 
ATOM     84  C   UNL A   1      48.458  25.922  31.001  1.00  0.00     0.134 A 
ATOM     85  F   UNL A   1      48.826  27.732  27.932  1.00  0.00    -0.206 F 
ATOM     86  C   UNL A   1      50.338  26.298  29.148  1.00  0.00     0.040 A 
ATOM     87  C   UNL A   1      49.745  25.482  31.198  1.00  0.00     0.040 A 
ATOM     88  F   UNL A   1      47.543  25.726  31.947  1.00  0.00    -0.206 F 
ATOM     89  C   UNL A   1      50.727  25.749  30.285  1.00  0.00     0.006 A 
ENDBRANCH  65  82
ENDBRANCH  39  40
ENDBRANCH  31  34
ENDBRANCH  29  30
ENDBRANCH   1  29
TORSDOF 13
ENDMDL
MODEL 2
REMARK VINA RESULT:     -12.9      3.977      7.551
REMARK SMILES O=C(NCCCCNC(=O)c1ccc(-c2c3nc(c(-c4c(F)cccc4F)c4ccc([nH]4)c(-c4c(F)cccc4F)c4nc(c(-c5c(F)cccc5F)c5ccc2[nH]5)C=C4)C=C3)cc1)C1=Cc2cc(S(F)(F)(F)(F)F)cc(Br)c2O[C@@H]1C(F)(F)F
REMARK SMILES IDX 6 1 5 2 4 3 3 4 1 5 2 6 65 8 66 9 81 10 67 11 80 12 68 13
REMARK SMILES IDX 79 14 69 15 77 16 76 17 78 18 82 19 83 20 84 21 85 22 70 23
REMARK SMILES IDX 71 24 72 25 73 26 74 27 75 28 7 29 8 30 9 31 10 33 11 34
REMARK SMILES IDX 12 35 64 36 13 37 63 38 14 39 15 40 16 41 57 42 17 43 62 44
REMARK SMILES IDX 56 45 58 46 18 47 61 48 55 49 54 50 19 52 45 53 28 54 44 55
REMARK SMILES IDX 29 56 32 57 43 58 59 59 30 60 31 61 42 63 60 64 33 65 20 66
REMARK SMILES IDX 21 67 26 68 22 69 23 70 25 71 27 72 24 73 46 74 47 75 52 76
REMARK SMILES IDX 48 77 49 78 51 79 53 80 50 81 34 82 35 83 40 84 36 85 37 86
REMARK SMILES IDX 39 87 41 88 38 89
REMARK H PARENT 3 7 8 32 58 51 32 62
REMARK Flexibility Score: inf
ROOT
ATOM      1  C   UNL A   1      31.286  31.737  26.874  1.00  0.00     0.023 C 
ENDROOT
BRANCH   1   2
ATOM      2  C   UNL A   1      31.027  31.219  25.469  1.00  0.00     0.023 C 
BRANCH   2   3
ATOM      3  C   UNL A   1      31.957  30.051  25.180  1.00  0.00     0.116 C 
BRANCH   3   4
ATOM      4  N   UNL A   1      31.163  28.836  24.955  1.00  0.00    -0.352 N 
ATOM      5  O   UNL A   1      30.903  26.508  25.350  1.00  0.00    -0.270 OA
ATOM      6  C   UNL A   1      31.589  27.559  25.545  1.00  0.00     0.251 C 
ATOM      7  H   UNL A   1      30.345  28.876  24.408  1.00  0.00     0.163 HD
BRANCH   6   8
ATOM      8  C   UNL A   1      32.853  27.497  26.390  1.00  0.00     0.067 C 
ATOM      9  C   UNL A   1      33.802  26.559  26.126  1.00  0.00     0.025 C 
ATOM     10  C   UNL A   1      33.053  28.484  27.529  1.00  0.00     0.314 C 
ATOM     11  C   UNL A   1      33.600  25.573  24.987  1.00  0.00     0.020 A 
ATOM     12  O   UNL A   1      32.827  27.283  23.530  1.00  0.00    -0.474 OA
ATOM     13  C   UNL A   1      33.793  24.242  25.317  1.00  0.00     0.036 A 
ATOM     14  C   UNL A   1      33.166  25.928  23.784  1.00  0.00     0.142 A 
ATOM     15  C   UNL A   1      33.774  23.367  24.206  1.00  0.00     0.109 A 
ATOM     16  C   UNL A   1      33.041  24.996  22.782  1.00  0.00     0.062 A 
ATOM     17  C   UNL A   1      33.273  23.670  23.022  1.00  0.00     0.044 A 
ATOM     18  Br  UNL A   1      32.524  25.576  20.983  1.00  0.00    -0.047 Br
BRANCH  10  19
ATOM     19  C   UNL A   1      34.313  29.296  27.278  1.00  0.00     0.429 C 
ATOM     20  F   UNL A   1      34.454  29.503  25.972  1.00  0.00    -0.167 F 
ATOM     21  F   UNL A   1      34.217  30.466  27.904  1.00  0.00    -0.167 F 
ATOM     22  F   UNL A   1      35.369  28.633  27.739  1.00  0.00    -0.167 F 
ENDBRANCH  10  19
BRANCH  15  23
ATOM     23  S   UNL A   1      34.485  21.715  24.421  1.00  0.00     0.310 S 
ATOM     24  F   UNL A   1      35.037  22.091  25.860  1.00  0.00    -0.094 F 
ATOM     25  F   UNL A   1      35.850  22.242  23.837  1.00  0.00    -0.094 F 
ATOM     26  F   UNL A   1      35.087  20.297  24.627  1.00  0.00    -0.094 F 
ATOM     27  F   UNL A   1      33.155  21.246  25.133  1.00  0.00    -0.094 F 
ATOM     28  F   UNL A   1      33.898  23.180  24.322  1.00  0.00    -0.094 F 
ENDBRANCH  15  23
ENDBRANCH   6   8
ENDBRANCH   3   4
ENDBRANCH   2   3
ENDBRANCH   1   2
BRANCH   1  29
ATOM     29  C   UNL A   1      32.497  32.655  26.860  1.00  0.00     0.116 C 
BRANCH  29  30
ATOM     30  N   UNL A   1      32.123  33.969  27.401  1.00  0.00    -0.352 N 
ATOM     31  C   UNL A   1      32.959  34.608  28.427  1.00  0.00     0.251 C 
ATOM     32  H   UNL A   1      31.311  34.422  27.075  1.00  0.00     0.163 HD
ATOM     33  O   UNL A   1      32.635  35.744  28.894  1.00  0.00    -0.269 OA
BRANCH  31  34
ATOM     34  C   UNL A   1      34.212  33.908  28.930  1.00  0.00     0.039 A 
ATOM     35  C   UNL A   1      35.482  34.217  28.474  1.00  0.00     0.014 A 
ATOM     36  C   UNL A   1      34.026  33.051  29.927  1.00  0.00     0.014 A 
ATOM     37  C   UNL A   1      36.489  33.343  28.949  1.00  0.00     0.010 A 
ATOM     38  C   UNL A   1      35.080  32.329  30.433  1.00  0.00     0.010 A 
ATOM     39  C   UNL A   1      36.355  32.540  29.989  1.00  0.00    -0.014 A 
BRANCH  39  40
ATOM     40  C   UNL A   1      37.554  31.886  30.656  1.00  0.00     0.031 A 
ATOM     41  C   UNL A   1      38.183  30.897  29.896  1.00  0.00     0.074 A 
ATOM     42  C   UNL A   1      37.908  32.206  31.954  1.00  0.00     0.049 A 
ATOM     43  N   UNL A   1      39.219  30.136  30.250  1.00  0.00    -0.248 NA
ATOM     44  C   UNL A   1      37.786  30.532  28.528  1.00  0.00     0.031 C 
ATOM     45  C   UNL A   1      37.284  33.207  32.724  1.00  0.00     0.029 A 
ATOM     46  N   UNL A   1      38.898  31.637  32.725  1.00  0.00    -0.354 N 
ATOM     47  C   UNL A   1      39.554  29.319  29.249  1.00  0.00     0.074 A 
ATOM     48  C   UNL A   1      38.633  29.558  28.130  1.00  0.00     0.031 C 
ATOM     49  C   UNL A   1      37.880  33.233  33.946  1.00  0.00     0.029 A 
ATOM     50  C   UNL A   1      38.888  32.250  33.959  1.00  0.00     0.049 A 
ATOM     51  H   UNL A   1      39.507  30.917  32.443  1.00  0.00     0.167 HD
ATOM     52  C   UNL A   1      40.591  28.386  29.225  1.00  0.00     0.037 A 
ATOM     53  C   UNL A   1      39.703  31.980  35.047  1.00  0.00     0.037 A 
ATOM     54  C   UNL A   1      41.434  28.146  30.299  1.00  0.00     0.049 A 
ATOM     55  C   UNL A   1      40.703  31.006  35.044  1.00  0.00     0.074 A 
ATOM     56  C   UNL A   1      42.490  27.214  30.290  1.00  0.00     0.029 A 
ATOM     57  N   UNL A   1      41.408  28.741  31.541  1.00  0.00    -0.354 N 
ATOM     58  N   UNL A   1      41.063  30.217  34.030  1.00  0.00    -0.248 NA
ATOM     59  C   UNL A   1      41.550  30.688  36.201  1.00  0.00     0.031 C 
ATOM     60  C   UNL A   1      43.087  27.241  31.511  1.00  0.00     0.029 A 
ATOM     61  C   UNL A   1      42.413  28.189  32.304  1.00  0.00     0.049 A 
ATOM     62  H   UNL A   1      40.780  29.441  31.832  1.00  0.00     0.167 HD
ATOM     63  C   UNL A   1      42.072  29.426  34.399  1.00  0.00     0.074 A 
ATOM     64  C   UNL A   1      42.395  29.712  35.804  1.00  0.00     0.031 C 
ATOM     65  C   UNL A   1      42.740  28.479  33.620  1.00  0.00     0.037 A 
BRANCH  52  66
ATOM     66  C   UNL A   1      40.810  27.588  27.950  1.00  0.00     0.057 A 
ATOM     67  C   UNL A   1      41.706  27.978  26.970  1.00  0.00     0.134 A 
ATOM     68  C   UNL A   1      40.198  26.411  27.895  1.00  0.00     0.134 A 
ATOM     69  F   UNL A   1      42.525  29.017  27.106  1.00  0.00    -0.206 F 
ATOM     70  C   UNL A   1      41.674  27.170  25.809  1.00  0.00     0.040 A 
ATOM     71  C   UNL A   1      40.318  25.611  26.785  1.00  0.00     0.040 A 
ATOM     72  F   UNL A   1      39.460  26.003  28.925  1.00  0.00    -0.206 F 
ATOM     73  C   UNL A   1      41.142  25.962  25.751  1.00  0.00     0.006 A 
ENDBRANCH  52  66
BRANCH  53  74
ATOM     74  C   UNL A   1      39.494  32.790  36.316  1.00  0.00     0.057 A 
ATOM     75  C   UNL A   1      38.491  32.428  37.200  1.00  0.00     0.134 A 
ATOM     76  C   UNL A   1      40.171  33.921  36.469  1.00  0.00     0.134 A 
ATOM     77  F   UNL A   1      37.964  31.206  37.239  1.00  0.00    -0.206 F 
ATOM     78  C   UNL A   1      38.075  33.474  38.057  1.00  0.00     0.040 A 
ATOM     79  C   UNL A   1      39.793  34.840  37.419  1.00  0.00     0.040 A 
ATOM     80  F   UNL A   1      41.225  34.169  35.697  1.00  0.00    -0.206 F 
ATOM     81  C   UNL A   1      38.771  34.573  38.288  1.00  0.00     0.006 A 
ENDBRANCH  53  74
BRANCH  65  82
ATOM     82  C   UNL A   1      43.894  27.719  34.252  1.00  0.00     0.057 A 
ATOM     83  C   UNL A   1      43.715  26.481  34.846  1.00  0.00     0.134 A 
ATOM     84  C   UNL A   1      45.101  28.263  34.143  1.00  0.00     0.134 A 
ATOM     85  F   UNL A   1      42.583  25.789  34.753  1.00  0.00    -0.206 F 
ATOM     86  C   UNL A   1      44.846  26.017  35.558  1.00  0.00     0.040 A 
ATOM     87  C   UNL A   1      46.187  27.683  34.752  1.00  0.00     0.040 A 
ATOM     88  F   UNL A   1      45.260  29.379  33.438  1.00  0.00    -0.206 F 
ATOM     89  C   UNL A   1      46.071  26.488  35.407  1.00  0.00     0.006 A 
ENDBRANCH  65  82
ENDBRANCH  39  40
ENDBRANCH  31  34
ENDBRANCH  29  30
ENDBRANCH   1  29
TORSDOF 13
ENDMDL
MODEL 3
REMARK VINA RESULT:     -12.9      3.148      7.653
REMARK SMILES O=C(NCCCCNC(=O)c1ccc(-c2c3nc(c(-c4c(F)cccc4F)c4ccc([nH]4)c(-c4c(F)cccc4F)c4nc(c(-c5c(F)cccc5F)c5ccc2[nH]5)C=C4)C=C3)cc1)C1=Cc2cc(S(F)(F)(F)(F)F)cc(Br)c2O[C@@H]1C(F)(F)F
REMARK SMILES IDX 6 1 5 2 4 3 3 4 1 5 2 6 65 8 66 9 81 10 67 11 80 12 68 13
REMARK SMILES IDX 79 14 69 15 77 16 76 17 78 18 82 19 83 20 84 21 85 22 70 23
REMARK SMILES IDX 71 24 72 25 73 26 74 27 75 28 7 29 8 30 9 31 10 33 11 34
REMARK SMILES IDX 12 35 64 36 13 37 63 38 14 39 15 40 16 41 57 42 17 43 62 44
REMARK SMILES IDX 56 45 58 46 18 47 61 48 55 49 54 50 19 52 45 53 28 54 44 55
REMARK SMILES IDX 29 56 32 57 43 58 59 59 30 60 31 61 42 63 60 64 33 65 20 66
REMARK SMILES IDX 21 67 26 68 22 69 23 70 25 71 27 72 24 73 46 74 47 75 52 76
REMARK SMILES IDX 48 77 49 78 51 79 53 80 50 81 34 82 35 83 40 84 36 85 37 86
REMARK SMILES IDX 39 87 41 88 38 89
REMARK H PARENT 3 7 8 32 58 51 32 62
REMARK Flexibility Score: inf
ROOT
ATOM      1  C   UNL A   1      38.041  19.850  24.607  1.00  0.00     0.023 C 
ENDROOT
BRANCH   1   2
ATOM      2  C   UNL A   1      36.599  19.573  24.999  1.00  0.00     0.023 C 
BRANCH   2   3
ATOM      3  C   UNL A   1      35.949  20.860  25.481  1.00  0.00     0.116 C 
BRANCH   3   4
ATOM      4  N   UNL A   1      34.813  21.191  24.610  1.00  0.00    -0.352 N 
ATOM      5  O   UNL A   1      33.625  22.863  23.411  1.00  0.00    -0.270 OA
ATOM      6  C   UNL A   1      34.607  22.577  24.164  1.00  0.00     0.251 C 
ATOM      7  H   UNL A   1      34.188  20.484  24.325  1.00  0.00     0.163 HD
BRANCH   6   8
ATOM      8  C   UNL A   1      35.571  23.667  24.604  1.00  0.00     0.067 C 
ATOM      9  C   UNL A   1      35.093  24.830  25.122  1.00  0.00     0.025 C 
ATOM     10  C   UNL A   1      37.071  23.456  24.465  1.00  0.00     0.314 C 
ATOM     11  C   UNL A   1      33.594  25.040  25.261  1.00  0.00     0.020 A 
ATOM     12  O   UNL A   1      33.280  22.847  26.123  1.00  0.00    -0.474 OA
ATOM     13  C   UNL A   1      33.114  26.230  24.741  1.00  0.00     0.036 A 
ATOM     14  C   UNL A   1      32.771  24.118  25.745  1.00  0.00     0.142 A 
ATOM     15  C   UNL A   1      31.754  26.479  25.039  1.00  0.00     0.109 A 
ATOM     16  C   UNL A   1      31.429  24.380  25.883  1.00  0.00     0.062 A 
ATOM     17  C   UNL A   1      30.895  25.560  25.444  1.00  0.00     0.044 A 
ATOM     18  Br  UNL A   1      30.265  23.046  26.722  1.00  0.00    -0.047 Br
BRANCH  10  19
ATOM     19  C   UNL A   1      37.723  23.544  25.834  1.00  0.00     0.429 C 
ATOM     20  F   UNL A   1      36.857  23.153  26.764  1.00  0.00    -0.167 F 
ATOM     21  F   UNL A   1      38.793  22.755  25.866  1.00  0.00    -0.167 F 
ATOM     22  F   UNL A   1      38.092  24.800  26.071  1.00  0.00    -0.167 F 
ENDBRANCH  10  19
BRANCH  15  23
ATOM     23  S   UNL A   1      31.147  28.175  24.854  1.00  0.00     0.310 S 
ATOM     24  F   UNL A   1      32.593  28.698  24.464  1.00  0.00    -0.094 F 
ATOM     25  F   UNL A   1      31.525  28.460  26.357  1.00  0.00    -0.094 F 
ATOM     26  F   UNL A   1      30.637  29.633  24.675  1.00  0.00    -0.094 F 
ATOM     27  F   UNL A   1      30.907  27.911  23.315  1.00  0.00    -0.094 F 
ATOM     28  F   UNL A   1      31.766  26.726  24.991  1.00  0.00    -0.094 F 
ENDBRANCH  15  23
ENDBRANCH   6   8
ENDBRANCH   3   4
ENDBRANCH   2   3
ENDBRANCH   1   2
BRANCH   1  29
ATOM     29  C   UNL A   1      38.914  19.850  25.850  1.00  0.00     0.116 C 
BRANCH  29  30
ATOM     30  N   UNL A   1      39.978  18.846  25.702  1.00  0.00    -0.352 N 
ATOM     31  C   UNL A   1      41.361  19.181  26.069  1.00  0.00     0.251 C 
ATOM     32  H   UNL A   1      39.763  17.949  25.357  1.00  0.00     0.163 HD
ATOM     33  O   UNL A   1      42.280  18.313  25.941  1.00  0.00    -0.269 OA
BRANCH  31  34
ATOM     34  C   UNL A   1      41.692  20.566  26.601  1.00  0.00     0.039 A 
ATOM     35  C   UNL A   1      41.759  20.858  27.953  1.00  0.00     0.014 A 
ATOM     36  C   UNL A   1      42.030  21.464  25.684  1.00  0.00     0.014 A 
ATOM     37  C   UNL A   1      41.922  22.236  28.233  1.00  0.00     0.010 A 
ATOM     38  C   UNL A   1      42.307  22.761  26.044  1.00  0.00     0.010 A 
ATOM     39  C   UNL A   1      42.334  23.135  27.358  1.00  0.00    -0.014 A 
BRANCH  39  40
ATOM     40  C   UNL A   1      42.812  24.512  27.790  1.00  0.00     0.031 A 
ATOM     41  C   UNL A   1      41.795  25.415  28.106  1.00  0.00     0.074 A 
ATOM     42  C   UNL A   1      44.156  24.837  27.769  1.00  0.00     0.049 A 
ATOM     43  N   UNL A   1      41.925  26.693  28.465  1.00  0.00    -0.248 NA
ATOM     44  C   UNL A   1      40.363  25.081  28.096  1.00  0.00     0.031 C 
ATOM     45  C   UNL A   1      45.189  23.930  27.459  1.00  0.00     0.029 A 
ATOM     46  N   UNL A   1      44.735  26.059  28.034  1.00  0.00    -0.354 N 
ATOM     47  C   UNL A   1      40.727  27.228  28.707  1.00  0.00     0.074 A 
ATOM     48  C   UNL A   1      39.705  26.201  28.467  1.00  0.00     0.031 C 
ATOM     49  C   UNL A   1      46.371  24.596  27.524  1.00  0.00     0.029 A 
ATOM     50  C   UNL A   1      46.098  25.932  27.877  1.00  0.00     0.049 A 
ATOM     51  H   UNL A   1      44.257  26.880  28.291  1.00  0.00     0.167 HD
ATOM     52  C   UNL A   1      40.447  28.531  29.121  1.00  0.00     0.037 A 
ATOM     53  C   UNL A   1      47.064  26.914  28.028  1.00  0.00     0.037 A 
ATOM     54  C   UNL A   1      41.417  29.502  29.313  1.00  0.00     0.049 A 
ATOM     55  C   UNL A   1      46.780  28.234  28.385  1.00  0.00     0.074 A 
ATOM     56  C   UNL A   1      41.153  30.819  29.738  1.00  0.00     0.029 A 
ATOM     57  N   UNL A   1      42.777  29.382  29.133  1.00  0.00    -0.354 N 
ATOM     58  N   UNL A   1      45.585  28.758  28.666  1.00  0.00    -0.248 NA
ATOM     59  C   UNL A   1      47.791  29.291  28.515  1.00  0.00     0.031 C 
ATOM     60  C   UNL A   1      42.336  31.486  29.803  1.00  0.00     0.029 A 
ATOM     61  C   UNL A   1      43.358  30.597  29.420  1.00  0.00     0.049 A 
ATOM     62  H   UNL A   1      43.252  28.568  28.848  1.00  0.00     0.167 HD
ATOM     63  C   UNL A   1      45.712  30.047  28.984  1.00  0.00     0.074 A 
ATOM     64  C   UNL A   1      47.133  30.410  28.885  1.00  0.00     0.031 C 
ATOM     65  C   UNL A   1      44.702  30.935  29.357  1.00  0.00     0.037 A 
BRANCH  52  66
ATOM     66  C   UNL A   1      38.996  28.908  29.375  1.00  0.00     0.057 A 
ATOM     67  C   UNL A   1      38.425  28.872  30.636  1.00  0.00     0.134 A 
ATOM     68  C   UNL A   1      38.343  29.417  28.337  1.00  0.00     0.134 A 
ATOM     69  F   UNL A   1      39.119  28.611  31.740  1.00  0.00    -0.206 F 
ATOM     70  C   UNL A   1      37.036  29.138  30.643  1.00  0.00     0.040 A 
ATOM     71  C   UNL A   1      37.023  29.782  28.451  1.00  0.00     0.040 A 
ATOM     72  F   UNL A   1      38.972  29.574  27.175  1.00  0.00    -0.206 F 
ATOM     73  C   UNL A   1      36.378  29.718  29.656  1.00  0.00     0.006 A 
ENDBRANCH  52  66
BRANCH  53  74
ATOM     74  C   UNL A   1      48.516  26.533  27.790  1.00  0.00     0.057 A 
ATOM     75  C   UNL A   1      49.058  26.665  26.522  1.00  0.00     0.134 A 
ATOM     76  C   UNL A   1      49.185  25.929  28.764  1.00  0.00     0.134 A 
ATOM     77  F   UNL A   1      48.546  27.471  25.595  1.00  0.00    -0.206 F 
ATOM     78  C   UNL A   1      50.204  25.866  26.301  1.00  0.00     0.040 A 
ATOM     79  C   UNL A   1      50.369  25.281  28.504  1.00  0.00     0.040 A 
ATOM     80  F   UNL A   1      48.705  25.949  30.005  1.00  0.00    -0.206 F 
ATOM     81  C   UNL A   1      50.933  25.321  27.259  1.00  0.00     0.006 A 
ENDBRANCH  53  74
BRANCH  65  82
ATOM     82  C   UNL A   1      45.097  32.358  29.716  1.00  0.00     0.057 A 
ATOM     83  C   UNL A   1      45.055  33.383  28.786  1.00  0.00     0.134 A 
ATOM     84  C   UNL A   1      45.414  32.591  30.984  1.00  0.00     0.134 A 
ATOM     85  F   UNL A   1      44.505  33.249  27.583  1.00  0.00    -0.206 F 
ATOM     86  C   UNL A   1      45.648  34.588  29.232  1.00  0.00     0.040 A 
ATOM     87  C   UNL A   1      45.858  33.830  31.378  1.00  0.00     0.040 A 
ATOM     88  F   UNL A   1      45.301  31.616  31.881  1.00  0.00    -0.206 F 
ATOM     89  C   UNL A   1      45.898  34.875  30.498  1.00  0.00     0.006 A 
ENDBRANCH  65  82
ENDBRANCH  39  40
ENDBRANCH  31  34
ENDBRANCH  29  30
ENDBRANCH   1  29
TORSDOF 13
ENDMDL
