MODEL 1
REMARK VINA RESULT:     -12.8      0.000      0.000
REMARK SMILES NS(=O)(=O)c1ccc(-c2coc(=O)n2-c2ccc(C(=O)NCCCCNC(=O)c3ccc(-c4c5nc(c(-c6c(F)cccc6F)c6ccc([nH]6)c(-c6c(F)cccc6F)c6nc(c(-c7c(F)cccc7F)c7ccc4[nH]7)C=C6)C=C5)cc3)cc2)cc1
REMARK SMILES IDX 22 1 21 2 19 3 20 4 18 6 15 7 16 8 84 9 17 10 83 11 14 12
REMARK SMILES IDX 9 13 10 14 11 15 12 16 13 17 8 18 5 19 6 20 86 21 7 22 85 23
REMARK SMILES IDX 2 24 3 25 4 26 1 27 23 30 24 31 25 32 26 33 27 34 28 36
REMARK SMILES IDX 29 37 30 38 82 39 31 40 81 41 32 42 33 43 34 44 75 45 35 46
REMARK SMILES IDX 80 47 74 48 76 49 36 50 79 51 73 52 72 53 37 55 63 56 46 57
REMARK SMILES IDX 62 58 47 59 50 60 61 61 77 62 48 63 49 64 60 66 78 67 51 68
REMARK SMILES IDX 38 69 39 70 44 71 40 72 41 73 43 74 45 75 42 76 64 77 65 78
REMARK SMILES IDX 70 79 66 80 67 81 69 82 71 83 68 84 52 85 53 86 58 87 54 88
REMARK SMILES IDX 55 89 57 90 59 91 56 92
REMARK H PARENT 21 5 1 28 1 29 26 35 76 54 50 65
REMARK Flexibility Score: inf
ROOT
ATOM      1  C   UNL A   1      39.201  21.235  25.753  1.00  0.00     0.116 C 
ENDROOT
BRANCH   1   2
ATOM      2  N   UNL A   1      39.293  22.669  25.952  1.00  0.00    -0.352 N 
ATOM      3  C   UNL A   1      38.390  23.699  25.843  1.00  0.00     0.251 C 
ATOM      4  O   UNL A   1      38.805  24.829  26.105  1.00  0.00    -0.269 OA
ATOM      5  H   UNL A   1      40.191  22.968  26.224  1.00  0.00     0.163 HD
BRANCH   3   6
ATOM      6  C   UNL A   1      36.948  23.520  25.493  1.00  0.00     0.039 A 
ATOM      7  C   UNL A   1      34.264  23.381  24.644  1.00  0.00     0.053 A 
ATOM      8  C   UNL A   1      35.291  23.288  23.706  1.00  0.00     0.028 A 
ATOM      9  C   UNL A   1      34.577  23.460  26.001  1.00  0.00     0.028 A 
ATOM     10  C   UNL A   1      36.623  23.394  24.129  1.00  0.00     0.016 A 
ATOM     11  C   UNL A   1      35.907  23.467  26.420  1.00  0.00     0.016 A 
BRANCH   7  12
ATOM     12  N   UNL A   1      32.914  23.378  24.258  1.00  0.00    -0.242 N 
ATOM     13  C   UNL A   1      32.169  22.329  23.800  1.00  0.00     0.095 A 
ATOM     14  C   UNL A   1      31.045  22.861  23.333  1.00  0.00     0.228 A 
ATOM     15  O   UNL A   1      30.969  24.246  23.453  1.00  0.00    -0.415 OA
ATOM     16  C   UNL A   1      32.186  24.549  24.064  1.00  0.00     0.424 A 
ATOM     17  O   UNL A   1      32.527  25.695  24.324  1.00  0.00    -0.223 OA
BRANCH  13  18
ATOM     18  C   UNL A   1      32.487  20.908  23.955  1.00  0.00     0.002 A 
ATOM     19  C   UNL A   1      33.205  18.200  24.167  1.00  0.00     0.082 A 
ATOM     20  C   UNL A   1      32.625  18.668  22.988  1.00  0.00     0.022 A 
ATOM     21  C   UNL A   1      33.414  19.066  25.245  1.00  0.00     0.022 A 
ATOM     22  C   UNL A   1      32.270  20.018  22.888  1.00  0.00     0.012 A 
ATOM     23  C   UNL A   1      33.063  20.416  25.134  1.00  0.00     0.012 A 
BRANCH  19  24
ATOM     24  S   UNL A   1      33.681  16.505  24.342  1.00  0.00     0.238 S 
ATOM     25  O   UNL A   1      34.175  16.039  23.059  1.00  0.00    -0.207 OA
ATOM     26  O   UNL A   1      32.659  15.820  25.082  1.00  0.00    -0.207 OA
BRANCH  24  27
ATOM     27  N   UNL A   1      35.036  16.541  25.338  1.00  0.00    -0.225 NA
ATOM     28  H   UNL A   1      35.238  15.598  25.671  1.00  0.00     0.137 HD
ATOM     29  H   UNL A   1      34.856  17.152  26.135  1.00  0.00     0.137 HD
ENDBRANCH  24  27
ENDBRANCH  19  24
ENDBRANCH  13  18
ENDBRANCH   7  12
ENDBRANCH   3   6
ENDBRANCH   1   2
BRANCH   1  30
ATOM     30  C   UNL A   1      40.145  20.479  26.697  1.00  0.00     0.023 C 
BRANCH  30  31
ATOM     31  C   UNL A   1      41.213  19.623  25.996  1.00  0.00     0.023 C 
BRANCH  31  32
ATOM     32  C   UNL A   1      42.577  19.623  26.675  1.00  0.00     0.116 C 
BRANCH  32  33
ATOM     33  N   UNL A   1      43.692  19.508  25.731  1.00  0.00    -0.352 N 
ATOM     34  C   UNL A   1      44.239  20.502  24.936  1.00  0.00     0.251 C 
ATOM     35  H   UNL A   1      44.101  18.616  25.651  1.00  0.00     0.163 HD
ATOM     36  O   UNL A   1      44.859  20.234  23.915  1.00  0.00    -0.269 OA
BRANCH  34  37
ATOM     37  C   UNL A   1      44.093  21.898  25.374  1.00  0.00     0.039 A 
ATOM     38  C   UNL A   1      43.059  22.728  24.929  1.00  0.00     0.014 A 
ATOM     39  C   UNL A   1      45.023  22.351  26.303  1.00  0.00     0.014 A 
ATOM     40  C   UNL A   1      42.941  24.001  25.485  1.00  0.00     0.010 A 
ATOM     41  C   UNL A   1      44.784  23.505  26.989  1.00  0.00     0.010 A 
ATOM     42  C   UNL A   1      43.808  24.374  26.525  1.00  0.00    -0.014 A 
BRANCH  42  43
ATOM     43  C   UNL A   1      43.651  25.621  27.262  1.00  0.00     0.031 A 
ATOM     44  C   UNL A   1      44.630  26.664  26.861  1.00  0.00     0.074 A 
ATOM     45  C   UNL A   1      42.555  25.869  28.017  1.00  0.00     0.049 A 
ATOM     46  N   UNL A   1      45.618  27.121  27.553  1.00  0.00    -0.248 NA
ATOM     47  C   UNL A   1      44.634  27.116  25.458  1.00  0.00     0.031 C 
ATOM     48  C   UNL A   1      41.374  25.015  28.211  1.00  0.00     0.029 A 
ATOM     49  N   UNL A   1      42.209  26.998  28.698  1.00  0.00    -0.354 N 
ATOM     50  C   UNL A   1      46.204  28.111  26.766  1.00  0.00     0.074 A 
ATOM     51  C   UNL A   1      45.725  27.884  25.431  1.00  0.00     0.031 C 
ATOM     52  C   UNL A   1      40.367  25.735  28.755  1.00  0.00     0.029 A 
ATOM     53  C   UNL A   1      40.876  27.046  29.109  1.00  0.00     0.049 A 
ATOM     54  H   UNL A   1      42.850  27.721  28.887  1.00  0.00     0.167 HD
ATOM     55  C   UNL A   1      46.764  29.208  27.350  1.00  0.00     0.037 A 
ATOM     56  C   UNL A   1      40.242  28.099  29.687  1.00  0.00     0.037 A 
ATOM     57  C   UNL A   1      46.983  28.964  28.759  1.00  0.00     0.049 A 
ATOM     58  C   UNL A   1      41.296  28.999  30.216  1.00  0.00     0.074 A 
ATOM     59  C   UNL A   1      47.712  28.054  29.500  1.00  0.00     0.029 A 
ATOM     60  N   UNL A   1      46.062  29.501  29.624  1.00  0.00    -0.354 N 
ATOM     61  N   UNL A   1      42.086  28.678  31.203  1.00  0.00    -0.248 NA
ATOM     62  C   UNL A   1      41.788  30.040  29.330  1.00  0.00     0.031 C 
ATOM     63  C   UNL A   1      46.892  27.759  30.633  1.00  0.00     0.029 A 
ATOM     64  C   UNL A   1      45.755  28.565  30.573  1.00  0.00     0.049 A 
ATOM     65  H   UNL A   1      45.686  30.408  29.570  1.00  0.00     0.167 HD
ATOM     66  C   UNL A   1      43.336  29.130  30.808  1.00  0.00     0.074 A 
ATOM     67  C   UNL A   1      43.077  30.031  29.685  1.00  0.00     0.031 C 
ATOM     68  C   UNL A   1      44.470  28.495  31.231  1.00  0.00     0.037 A 
BRANCH  55  69
ATOM     69  C   UNL A   1      46.656  30.625  26.805  1.00  0.00     0.057 A 
ATOM     70  C   UNL A   1      47.813  31.431  26.821  1.00  0.00     0.134 A 
ATOM     71  C   UNL A   1      45.456  31.330  26.586  1.00  0.00     0.134 A 
ATOM     72  F   UNL A   1      49.030  30.889  26.987  1.00  0.00    -0.206 F 
ATOM     73  C   UNL A   1      47.762  32.829  26.779  1.00  0.00     0.040 A 
ATOM     74  C   UNL A   1      45.399  32.724  26.497  1.00  0.00     0.040 A 
ATOM     75  F   UNL A   1      44.259  30.740  26.528  1.00  0.00    -0.206 F 
ATOM     76  C   UNL A   1      46.547  33.483  26.638  1.00  0.00     0.006 A 
ENDBRANCH  55  69
BRANCH  56  77
ATOM     77  C   UNL A   1      38.836  28.550  29.546  1.00  0.00     0.057 A 
ATOM     78  C   UNL A   1      37.991  28.673  30.661  1.00  0.00     0.134 A 
ATOM     79  C   UNL A   1      38.383  29.160  28.363  1.00  0.00     0.134 A 
ATOM     80  F   UNL A   1      38.355  28.164  31.847  1.00  0.00    -0.206 F 
ATOM     81  C   UNL A   1      36.781  29.380  30.610  1.00  0.00     0.040 A 
ATOM     82  C   UNL A   1      37.178  29.870  28.299  1.00  0.00     0.040 A 
ATOM     83  F   UNL A   1      39.141  29.165  27.258  1.00  0.00    -0.206 F 
ATOM     84  C   UNL A   1      36.378  29.995  29.429  1.00  0.00     0.006 A 
ENDBRANCH  56  77
BRANCH  68  85
ATOM     85  C   UNL A   1      44.337  27.487  32.341  1.00  0.00     0.057 A 
ATOM     86  C   UNL A   1      44.186  27.807  33.699  1.00  0.00     0.134 A 
ATOM     87  C   UNL A   1      44.212  26.138  31.995  1.00  0.00     0.134 A 
ATOM     88  F   UNL A   1      44.202  29.078  34.120  1.00  0.00    -0.206 F 
ATOM     89  C   UNL A   1      43.957  26.825  34.670  1.00  0.00     0.040 A 
ATOM     90  C   UNL A   1      43.951  25.151  32.947  1.00  0.00     0.040 A 
ATOM     91  F   UNL A   1      44.294  25.762  30.709  1.00  0.00    -0.206 F 
ATOM     92  C   UNL A   1      43.831  25.492  34.292  1.00  0.00     0.006 A 
ENDBRANCH  68  85
ENDBRANCH  42  43
ENDBRANCH  34  37
ENDBRANCH  32  33
ENDBRANCH  31  32
ENDBRANCH  30  31
ENDBRANCH   1  30
TORSDOF 15
ENDMDL
MODEL 2
REMARK VINA RESULT:     -12.5      4.775      9.990
REMARK SMILES NS(=O)(=O)c1ccc(-c2coc(=O)n2-c2ccc(C(=O)NCCCCNC(=O)c3ccc(-c4c5nc(c(-c6c(F)cccc6F)c6ccc([nH]6)c(-c6c(F)cccc6F)c6nc(c(-c7c(F)cccc7F)c7ccc4[nH]7)C=C6)C=C5)cc3)cc2)cc1
REMARK SMILES IDX 22 1 21 2 19 3 20 4 18 6 15 7 16 8 84 9 17 10 83 11 14 12
REMARK SMILES IDX 9 13 10 14 11 15 12 16 13 17 8 18 5 19 6 20 86 21 7 22 85 23
REMARK SMILES IDX 2 24 3 25 4 26 1 27 23 30 24 31 25 32 26 33 27 34 28 36
REMARK SMILES IDX 29 37 30 38 82 39 31 40 81 41 32 42 33 43 34 44 75 45 35 46
REMARK SMILES IDX 80 47 74 48 76 49 36 50 79 51 73 52 72 53 37 55 63 56 46 57
REMARK SMILES IDX 62 58 47 59 50 60 61 61 77 62 48 63 49 64 60 66 78 67 51 68
REMARK SMILES IDX 38 69 39 70 44 71 40 72 41 73 43 74 45 75 42 76 64 77 65 78
REMARK SMILES IDX 70 79 66 80 67 81 69 82 71 83 68 84 52 85 53 86 58 87 54 88
REMARK SMILES IDX 55 89 57 90 59 91 56 92
REMARK H PARENT 21 5 1 28 1 29 26 35 76 54 50 65
REMARK Flexibility Score: inf
ROOT
ATOM      1  C   UNL A   1      33.426  31.899  27.635  1.00  0.00     0.116 C 
ENDROOT
BRANCH   1   2
ATOM      2  N   UNL A   1      34.353  30.960  28.238  1.00  0.00    -0.352 N 
ATOM      3  C   UNL A   1      34.589  29.618  28.060  1.00  0.00     0.251 C 
ATOM      4  O   UNL A   1      35.484  29.118  28.743  1.00  0.00    -0.269 OA
ATOM      5  H   UNL A   1      34.937  31.369  28.917  1.00  0.00     0.163 HD
BRANCH   3   6
ATOM      6  C   UNL A   1      33.878  28.763  27.061  1.00  0.00     0.039 A 
ATOM      7  C   UNL A   1      32.513  26.963  25.376  1.00  0.00     0.053 A 
ATOM      8  C   UNL A   1      31.964  27.305  26.610  1.00  0.00     0.028 A 
ATOM      9  C   UNL A   1      33.692  27.577  24.953  1.00  0.00     0.028 A 
ATOM     10  C   UNL A   1      32.664  28.173  27.460  1.00  0.00     0.016 A 
ATOM     11  C   UNL A   1      34.331  28.513  25.765  1.00  0.00     0.016 A 
BRANCH   7  12
ATOM     12  N   UNL A   1      31.898  26.024  24.533  1.00  0.00    -0.242 N 
ATOM     13  C   UNL A   1      30.748  26.165  23.809  1.00  0.00     0.095 A 
ATOM     14  C   UNL A   1      30.440  24.947  23.380  1.00  0.00     0.228 A 
ATOM     15  O   UNL A   1      31.336  23.954  23.769  1.00  0.00    -0.415 OA
ATOM     16  C   UNL A   1      32.272  24.683  24.503  1.00  0.00     0.424 A 
ATOM     17  O   UNL A   1      33.231  24.160  25.053  1.00  0.00    -0.223 OA
BRANCH  13  18
ATOM     18  C   UNL A   1      30.100  27.428  23.451  1.00  0.00     0.002 A 
ATOM     19  C   UNL A   1      28.881  29.824  22.633  1.00  0.00     0.082 A 
ATOM     20  C   UNL A   1      30.269  29.703  22.577  1.00  0.00     0.022 A 
ATOM     21  C   UNL A   1      28.098  28.767  23.108  1.00  0.00     0.022 A 
ATOM     22  C   UNL A   1      30.871  28.509  22.985  1.00  0.00     0.012 A 
ATOM     23  C   UNL A   1      28.707  27.572  23.509  1.00  0.00     0.012 A 
BRANCH  19  24
ATOM     24  S   UNL A   1      28.070  31.309  22.119  1.00  0.00     0.238 S 
ATOM     25  O   UNL A   1      27.183  31.732  23.187  1.00  0.00    -0.207 OA
ATOM     26  O   UNL A   1      27.634  31.143  20.761  1.00  0.00    -0.207 OA
BRANCH  24  27
ATOM     27  N   UNL A   1      29.285  32.472  22.083  1.00  0.00    -0.225 NA
ATOM     28  H   UNL A   1      29.848  32.347  21.242  1.00  0.00     0.137 HD
ATOM     29  H   UNL A   1      29.877  32.371  22.907  1.00  0.00     0.137 HD
ENDBRANCH  24  27
ENDBRANCH  19  24
ENDBRANCH  13  18
ENDBRANCH   7  12
ENDBRANCH   3   6
ENDBRANCH   1   2
BRANCH   1  30
ATOM     30  C   UNL A   1      33.943  33.340  27.743  1.00  0.00     0.023 C 
BRANCH  30  31
ATOM     31  C   UNL A   1      33.034  34.296  28.533  1.00  0.00     0.023 C 
BRANCH  31  32
ATOM     32  C   UNL A   1      33.761  35.444  29.222  1.00  0.00     0.116 C 
BRANCH  32  33
ATOM     33  N   UNL A   1      33.241  35.735  30.562  1.00  0.00    -0.352 N 
ATOM     34  C   UNL A   1      33.404  34.990  31.717  1.00  0.00     0.251 C 
ATOM     35  H   UNL A   1      32.711  36.561  30.649  1.00  0.00     0.163 HD
ATOM     36  O   UNL A   1      32.618  35.082  32.651  1.00  0.00    -0.269 OA
BRANCH  34  37
ATOM     37  C   UNL A   1      34.578  34.110  31.814  1.00  0.00     0.039 A 
ATOM     38  C   UNL A   1      34.511  32.731  31.591  1.00  0.00     0.014 A 
ATOM     39  C   UNL A   1      35.789  34.730  32.102  1.00  0.00     0.014 A 
ATOM     40  C   UNL A   1      35.697  31.997  31.598  1.00  0.00     0.010 A 
ATOM     41  C   UNL A   1      36.957  34.054  31.904  1.00  0.00     0.010 A 
ATOM     42  C   UNL A   1      36.918  32.676  31.747  1.00  0.00    -0.014 A 
BRANCH  42  43
ATOM     43  C   UNL A   1      38.204  32.006  31.610  1.00  0.00     0.031 A 
ATOM     44  C   UNL A   1      38.865  31.738  32.914  1.00  0.00     0.074 A 
ATOM     45  C   UNL A   1      38.597  31.450  30.440  1.00  0.00     0.049 A 
ATOM     46  N   UNL A   1      39.927  32.300  33.385  1.00  0.00    -0.248 NA
ATOM     47  C   UNL A   1      38.162  30.891  33.893  1.00  0.00     0.031 C 
ATOM     48  C   UNL A   1      37.855  31.383  29.172  1.00  0.00     0.029 A 
ATOM     49  N   UNL A   1      39.715  30.724  30.158  1.00  0.00    -0.354 N 
ATOM     50  C   UNL A   1      40.170  31.678  34.609  1.00  0.00     0.074 A 
ATOM     51  C   UNL A   1      38.942  31.025  34.967  1.00  0.00     0.031 C 
ATOM     52  C   UNL A   1      38.428  30.477  28.348  1.00  0.00     0.029 A 
ATOM     53  C   UNL A   1      39.668  30.027  28.949  1.00  0.00     0.049 A 
ATOM     54  H   UNL A   1      40.494  30.695  30.758  1.00  0.00     0.167 HD
ATOM     55  C   UNL A   1      41.450  31.495  35.041  1.00  0.00     0.037 A 
ATOM     56  C   UNL A   1      40.584  29.135  28.490  1.00  0.00     0.037 A 
ATOM     57  C   UNL A   1      42.354  32.340  34.291  1.00  0.00     0.049 A 
ATOM     58  C   UNL A   1      41.834  29.370  29.253  1.00  0.00     0.074 A 
ATOM     59  C   UNL A   1      42.494  33.699  34.089  1.00  0.00     0.029 A 
ATOM     60  N   UNL A   1      43.060  31.736  33.281  1.00  0.00    -0.354 N 
ATOM     61  N   UNL A   1      42.547  30.456  29.148  1.00  0.00    -0.248 NA
ATOM     62  C   UNL A   1      42.014  28.617  30.483  1.00  0.00     0.031 C 
ATOM     63  C   UNL A   1      42.881  33.832  32.721  1.00  0.00     0.029 A 
ATOM     64  C   UNL A   1      43.044  32.554  32.185  1.00  0.00     0.049 A 
ATOM     65  H   UNL A   1      43.504  30.859  33.336  1.00  0.00     0.167 HD
ATOM     66  C   UNL A   1      42.906  30.765  30.451  1.00  0.00     0.074 A 
ATOM     67  C   UNL A   1      42.619  29.554  31.220  1.00  0.00     0.031 C 
ATOM     68  C   UNL A   1      43.110  32.063  30.827  1.00  0.00     0.037 A 
BRANCH  55  69
ATOM     69  C   UNL A   1      41.949  30.245  35.751  1.00  0.00     0.057 A 
ATOM     70  C   UNL A   1      42.874  30.407  36.805  1.00  0.00     0.134 A 
ATOM     71  C   UNL A   1      41.842  28.927  35.266  1.00  0.00     0.134 A 
ATOM     72  F   UNL A   1      43.055  31.602  37.387  1.00  0.00    -0.206 F 
ATOM     73  C   UNL A   1      43.724  29.379  37.228  1.00  0.00     0.040 A 
ATOM     74  C   UNL A   1      42.656  27.882  35.714  1.00  0.00     0.040 A 
ATOM     75  F   UNL A   1      41.015  28.574  34.278  1.00  0.00    -0.206 F 
ATOM     76  C   UNL A   1      43.633  28.115  36.667  1.00  0.00     0.006 A 
ENDBRANCH  55  69
BRANCH  56  77
ATOM     77  C   UNL A   1      40.386  27.904  27.687  1.00  0.00     0.057 A 
ATOM     78  C   UNL A   1      41.033  27.722  26.454  1.00  0.00     0.134 A 
ATOM     79  C   UNL A   1      39.802  26.755  28.248  1.00  0.00     0.134 A 
ATOM     80  F   UNL A   1      41.660  28.747  25.859  1.00  0.00    -0.206 F 
ATOM     81  C   UNL A   1      41.117  26.469  25.830  1.00  0.00     0.040 A 
ATOM     82  C   UNL A   1      39.879  25.498  27.636  1.00  0.00     0.040 A 
ATOM     83  F   UNL A   1      39.219  26.798  29.454  1.00  0.00    -0.206 F 
ATOM     84  C   UNL A   1      40.551  25.348  26.429  1.00  0.00     0.006 A 
ENDBRANCH  56  77
BRANCH  68  85
ATOM     85  C   UNL A   1      43.210  33.100  29.741  1.00  0.00     0.057 A 
ATOM     86  C   UNL A   1      42.162  33.945  29.341  1.00  0.00     0.134 A 
ATOM     87  C   UNL A   1      44.467  33.347  29.180  1.00  0.00     0.134 A 
ATOM     88  F   UNL A   1      40.944  33.845  29.884  1.00  0.00    -0.206 F 
ATOM     89  C   UNL A   1      42.352  34.963  28.399  1.00  0.00     0.040 A 
ATOM     90  C   UNL A   1      44.678  34.380  28.265  1.00  0.00     0.040 A 
ATOM     91  F   UNL A   1      45.527  32.613  29.552  1.00  0.00    -0.206 F 
ATOM     92  C   UNL A   1      43.617  35.187  27.864  1.00  0.00     0.006 A 
ENDBRANCH  68  85
ENDBRANCH  42  43
ENDBRANCH  34  37
ENDBRANCH  32  33
ENDBRANCH  31  32
ENDBRANCH  30  31
ENDBRANCH   1  30
TORSDOF 15
ENDMDL
MODEL 3
REMARK VINA RESULT:     -12.3      1.917      3.698
REMARK SMILES NS(=O)(=O)c1ccc(-c2coc(=O)n2-c2ccc(C(=O)NCCCCNC(=O)c3ccc(-c4c5nc(c(-c6c(F)cccc6F)c6ccc([nH]6)c(-c6c(F)cccc6F)c6nc(c(-c7c(F)cccc7F)c7ccc4[nH]7)C=C6)C=C5)cc3)cc2)cc1
REMARK SMILES IDX 22 1 21 2 19 3 20 4 18 6 15 7 16 8 84 9 17 10 83 11 14 12
REMARK SMILES IDX 9 13 10 14 11 15 12 16 13 17 8 18 5 19 6 20 86 21 7 22 85 23
REMARK SMILES IDX 2 24 3 25 4 26 1 27 23 30 24 31 25 32 26 33 27 34 28 36
REMARK SMILES IDX 29 37 30 38 82 39 31 40 81 41 32 42 33 43 34 44 75 45 35 46
REMARK SMILES IDX 80 47 74 48 76 49 36 50 79 51 73 52 72 53 37 55 63 56 46 57
REMARK SMILES IDX 62 58 47 59 50 60 61 61 77 62 48 63 49 64 60 66 78 67 51 68
REMARK SMILES IDX 38 69 39 70 44 71 40 72 41 73 43 74 45 75 42 76 64 77 65 78
REMARK SMILES IDX 70 79 66 80 67 81 69 82 71 83 68 84 52 85 53 86 58 87 54 88
REMARK SMILES IDX 55 89 57 90 59 91 56 92
REMARK H PARENT 21 5 1 28 1 29 26 35 76 54 50 65
REMARK Flexibility Score: inf
ROOT
ATOM      1  C   UNL A   1      39.527  21.347  26.133  1.00  0.00     0.116 C 
ENDROOT
BRANCH   1   2
ATOM      2  N   UNL A   1      39.559  22.798  26.092  1.00  0.00    -0.352 N 
ATOM      3  C   UNL A   1      38.604  23.758  25.861  1.00  0.00     0.251 C 
ATOM      4  O   UNL A   1      38.975  24.931  25.914  1.00  0.00    -0.269 OA
ATOM      5  H   UNL A   1      40.453  23.173  26.266  1.00  0.00     0.163 HD
BRANCH   3   6
ATOM      6  C   UNL A   1      37.158  23.466  25.618  1.00  0.00     0.039 A 
ATOM      7  C   UNL A   1      34.448  22.736  25.367  1.00  0.00     0.053 A 
ATOM      8  C   UNL A   1      34.946  23.126  26.609  1.00  0.00     0.028 A 
ATOM      9  C   UNL A   1      35.276  22.790  24.245  1.00  0.00     0.028 A 
ATOM     10  C   UNL A   1      36.303  23.453  26.735  1.00  0.00     0.016 A 
ATOM     11  C   UNL A   1      36.600  23.211  24.366  1.00  0.00     0.016 A 
BRANCH   7  12
ATOM     12  N   UNL A   1      33.121  22.306  25.210  1.00  0.00    -0.242 N 
ATOM     13  C   UNL A   1      31.988  23.067  25.147  1.00  0.00     0.095 A 
ATOM     14  C   UNL A   1      30.975  22.216  25.249  1.00  0.00     0.228 A 
ATOM     15  O   UNL A   1      31.352  20.881  25.375  1.00  0.00    -0.415 OA
ATOM     16  C   UNL A   1      32.744  20.971  25.334  1.00  0.00     0.424 A 
ATOM     17  O   UNL A   1      33.472  19.995  25.443  1.00  0.00    -0.223 OA
BRANCH  13  18
ATOM     18  C   UNL A   1      31.924  24.501  24.856  1.00  0.00     0.002 A 
ATOM     19  C   UNL A   1      31.932  27.262  24.335  1.00  0.00     0.082 A 
ATOM     20  C   UNL A   1      31.973  26.810  25.653  1.00  0.00     0.022 A 
ATOM     21  C   UNL A   1      31.871  26.350  23.277  1.00  0.00     0.022 A 
ATOM     22  C   UNL A   1      31.968  25.435  25.908  1.00  0.00     0.012 A 
ATOM     23  C   UNL A   1      31.874  24.975  23.538  1.00  0.00     0.012 A 
BRANCH  19  24
ATOM     24  S   UNL A   1      31.945  28.990  23.958  1.00  0.00     0.238 S 
ATOM     25  O   UNL A   1      31.435  29.708  25.111  1.00  0.00    -0.207 OA
ATOM     26  O   UNL A   1      31.425  29.170  22.631  1.00  0.00    -0.207 OA
BRANCH  24  27
ATOM     27  N   UNL A   1      33.575  29.401  23.881  1.00  0.00    -0.225 NA
ATOM     28  H   UNL A   1      33.788  30.082  24.610  1.00  0.00     0.137 HD
ATOM     29  H   UNL A   1      33.781  29.804  22.967  1.00  0.00     0.137 HD
ENDBRANCH  24  27
ENDBRANCH  19  24
ENDBRANCH  13  18
ENDBRANCH   7  12
ENDBRANCH   3   6
ENDBRANCH   1   2
BRANCH   1  30
ATOM     30  C   UNL A   1      40.692  20.788  26.960  1.00  0.00     0.023 C 
BRANCH  30  31
ATOM     31  C   UNL A   1      41.538  19.720  26.247  1.00  0.00     0.023 C 
BRANCH  31  32
ATOM     32  C   UNL A   1      42.959  19.573  26.776  1.00  0.00     0.116 C 
BRANCH  32  33
ATOM     33  N   UNL A   1      43.965  19.496  25.712  1.00  0.00    -0.352 N 
ATOM     34  C   UNL A   1      44.377  20.504  24.857  1.00  0.00     0.251 C 
ATOM     35  H   UNL A   1      44.400  18.621  25.591  1.00  0.00     0.163 HD
ATOM     36  O   UNL A   1      44.890  20.253  23.774  1.00  0.00    -0.269 OA
BRANCH  34  37
ATOM     37  C   UNL A   1      44.223  21.897  25.303  1.00  0.00     0.039 A 
ATOM     38  C   UNL A   1      43.194  22.728  24.848  1.00  0.00     0.014 A 
ATOM     39  C   UNL A   1      45.139  22.346  26.248  1.00  0.00     0.014 A 
ATOM     40  C   UNL A   1      43.066  23.998  25.411  1.00  0.00     0.010 A 
ATOM     41  C   UNL A   1      44.888  23.494  26.938  1.00  0.00     0.010 A 
ATOM     42  C   UNL A   1      43.917  24.365  26.466  1.00  0.00    -0.014 A 
BRANCH  42  43
ATOM     43  C   UNL A   1      43.747  25.606  27.209  1.00  0.00     0.031 A 
ATOM     44  C   UNL A   1      44.726  26.657  26.824  1.00  0.00     0.074 A 
ATOM     45  C   UNL A   1      42.643  25.845  27.955  1.00  0.00     0.049 A 
ATOM     46  N   UNL A   1      45.705  27.114  27.529  1.00  0.00    -0.248 NA
ATOM     47  C   UNL A   1      44.741  27.117  25.423  1.00  0.00     0.031 C 
ATOM     48  C   UNL A   1      41.464  24.985  28.132  1.00  0.00     0.029 A 
ATOM     49  N   UNL A   1      42.286  26.968  28.639  1.00  0.00    -0.354 N 
ATOM     50  C   UNL A   1      46.294  28.110  26.753  1.00  0.00     0.074 A 
ATOM     51  C   UNL A   1      45.829  27.890  25.412  1.00  0.00     0.031 C 
ATOM     52  C   UNL A   1      40.449  25.697  28.670  1.00  0.00     0.029 A 
ATOM     53  C   UNL A   1      40.948  27.007  29.037  1.00  0.00     0.049 A 
ATOM     54  H   UNL A   1      42.922  27.692  28.839  1.00  0.00     0.167 HD
ATOM     55  C   UNL A   1      46.844  29.206  27.349  1.00  0.00     0.037 A 
ATOM     56  C   UNL A   1      40.304  28.054  29.616  1.00  0.00     0.037 A 
ATOM     57  C   UNL A   1      47.050  28.954  28.759  1.00  0.00     0.049 A 
ATOM     58  C   UNL A   1      41.349  28.955  30.160  1.00  0.00     0.074 A 
ATOM     59  C   UNL A   1      47.775  28.043  29.502  1.00  0.00     0.029 A 
ATOM     60  N   UNL A   1      46.118  29.482  29.618  1.00  0.00    -0.354 N 
ATOM     61  N   UNL A   1      42.130  28.632  31.153  1.00  0.00    -0.248 NA
ATOM     62  C   UNL A   1      41.845  30.004  29.285  1.00  0.00     0.031 C 
ATOM     63  C   UNL A   1      46.946  27.738  30.624  1.00  0.00     0.029 A 
ATOM     64  C   UNL A   1      45.805  28.539  30.558  1.00  0.00     0.049 A 
ATOM     65  H   UNL A   1      45.738  30.388  29.566  1.00  0.00     0.167 HD
ATOM     66  C   UNL A   1      43.382  29.092  30.773  1.00  0.00     0.074 A 
ATOM     67  C   UNL A   1      43.129  29.999  29.653  1.00  0.00     0.031 C 
ATOM     68  C   UNL A   1      44.515  28.459  31.203  1.00  0.00     0.037 A 
BRANCH  55  69
ATOM     69  C   UNL A   1      46.734  30.626  26.812  1.00  0.00     0.057 A 
ATOM     70  C   UNL A   1      47.897  31.425  26.811  1.00  0.00     0.134 A 
ATOM     71  C   UNL A   1      45.535  31.340  26.617  1.00  0.00     0.134 A 
ATOM     72  F   UNL A   1      49.112  30.875  26.952  1.00  0.00    -0.206 F 
ATOM     73  C   UNL A   1      47.853  32.824  26.774  1.00  0.00     0.040 A 
ATOM     74  C   UNL A   1      45.484  32.735  26.535  1.00  0.00     0.040 A 
ATOM     75  F   UNL A   1      44.333  30.758  26.580  1.00  0.00    -0.206 F 
ATOM     76  C   UNL A   1      46.640  33.486  26.658  1.00  0.00     0.006 A 
ENDBRANCH  55  69
BRANCH  56  77
ATOM     77  C   UNL A   1      38.897  28.500  29.464  1.00  0.00     0.057 A 
ATOM     78  C   UNL A   1      38.038  28.603  30.570  1.00  0.00     0.134 A 
ATOM     79  C   UNL A   1      38.455  29.124  28.284  1.00  0.00     0.134 A 
ATOM     80  F   UNL A   1      38.390  28.079  31.753  1.00  0.00    -0.206 F 
ATOM     81  C   UNL A   1      36.825  29.304  30.514  1.00  0.00     0.040 A 
ATOM     82  C   UNL A   1      37.247  29.828  28.215  1.00  0.00     0.040 A 
ATOM     83  F   UNL A   1      39.226  29.148  27.188  1.00  0.00    -0.206 F 
ATOM     84  C   UNL A   1      36.433  29.933  29.336  1.00  0.00     0.006 A 
ENDBRANCH  56  77
BRANCH  68  85
ATOM     85  C   UNL A   1      44.375  27.444  32.306  1.00  0.00     0.057 A 
ATOM     86  C   UNL A   1      44.238  26.061  32.108  1.00  0.00     0.134 A 
ATOM     87  C   UNL A   1      44.533  27.879  33.626  1.00  0.00     0.134 A 
ATOM     88  F   UNL A   1      44.168  25.538  30.878  1.00  0.00    -0.206 F 
ATOM     89  C   UNL A   1      44.223  25.159  33.179  1.00  0.00     0.040 A 
ATOM     90  C   UNL A   1      44.553  26.988  34.700  1.00  0.00     0.040 A 
ATOM     91  F   UNL A   1      44.720  29.182  33.888  1.00  0.00    -0.206 F 
ATOM     92  C   UNL A   1      44.388  25.623  34.480  1.00  0.00     0.006 A 
ENDBRANCH  68  85
ENDBRANCH  42  43
ENDBRANCH  34  37
ENDBRANCH  32  33
ENDBRANCH  31  32
ENDBRANCH  30  31
ENDBRANCH   1  30
TORSDOF 15
ENDMDL
