MODEL 1
REMARK VINA RESULT:      -8.1      0.000      0.000
REMARK SMILES C[C@@]([NH2+]CCCO)(C(=O)NCCCCNC(=O)c1ccc(-c2c3nc(c(-c4c(F)cccc4F)c4ccc([nH]4)c(-c4c(F)cccc4F)c4nc(c(-c5c(F)cccc5F)c5ccc2[nH]5)C=C4)C=C3)cc1)C(F)(F)F
REMARK SMILES IDX 11 1 10 2 8 3 9 4 2 6 1 7 3 8 4 11 5 12 6 13 7 14 72 16
REMARK SMILES IDX 73 17 74 18 75 19 12 20 13 21 14 22 15 23 16 24 17 26 18 27
REMARK SMILES IDX 19 28 71 29 20 30 70 31 21 32 22 33 23 34 64 35 24 36 69 37
REMARK SMILES IDX 63 38 65 39 25 40 68 41 62 42 61 43 26 45 52 46 35 47 51 48
REMARK SMILES IDX 36 49 39 50 50 51 66 52 37 53 38 54 49 56 67 57 40 58 27 59
REMARK SMILES IDX 28 60 33 61 29 62 30 63 32 64 34 65 31 66 53 67 54 68 59 69
REMARK SMILES IDX 55 70 56 71 58 72 60 73 57 74 41 75 42 76 47 77 43 78 44 79
REMARK SMILES IDX 46 80 48 81 45 82
REMARK H PARENT 10 5 3 9 3 10 7 15 15 25 65 44 39 55
REMARK Flexibility Score: inf
ROOT
ATOM      1  C   UNL A   1      35.116  34.084  33.929  1.00  0.00     0.116 C 
ENDROOT
BRANCH   1   2
ATOM      2  N   UNL A   1      35.482  34.001  35.329  1.00  0.00    -0.350 N 
ATOM      3  C   UNL A   1      36.570  33.448  35.947  1.00  0.00     0.290 C 
ATOM      4  O   UNL A   1      36.542  33.476  37.180  1.00  0.00    -0.267 OA
ATOM      5  H   UNL A   1      34.834  34.414  35.944  1.00  0.00     0.163 HD
BRANCH   3   6
ATOM      6  C   UNL A   1      37.758  32.853  35.160  1.00  0.00     0.268 C 
ATOM      7  C   UNL A   1      38.720  32.118  36.122  1.00  0.00     0.101 C 
BRANCH   6   8
ATOM      8  N   UNL A   1      37.301  31.808  34.168  1.00  0.00    -0.326 N 
ATOM      9  H   UNL A   1      37.306  32.238  33.244  1.00  0.00     0.347 HD
ATOM     10  H   UNL A   1      36.383  31.511  34.502  1.00  0.00     0.347 HD
BRANCH   8  11
ATOM     11  C   UNL A   1      38.088  30.574  34.084  1.00  0.00     0.264 C 
BRANCH  11  12
ATOM     12  C   UNL A   1      38.834  30.280  32.776  1.00  0.00     0.089 C 
BRANCH  12  13
ATOM     13  C   UNL A   1      40.194  29.610  32.926  1.00  0.00     0.162 C 
BRANCH  13  14
ATOM     14  O   UNL A   1      41.156  30.203  32.068  1.00  0.00    -0.396 OA
ATOM     15  H   UNL A   1      41.449  29.552  31.412  1.00  0.00     0.210 HD
ENDBRANCH  13  14
ENDBRANCH  12  13
ENDBRANCH  11  12
ENDBRANCH   8  11
ENDBRANCH   6   8
BRANCH   6  16
ATOM     16  C   UNL A   1      38.575  34.048  34.590  1.00  0.00     0.453 C 
ATOM     17  F   UNL A   1      39.810  33.681  34.177  1.00  0.00    -0.164 F 
ATOM     18  F   UNL A   1      37.934  34.541  33.490  1.00  0.00    -0.164 F 
ATOM     19  F   UNL A   1      38.712  35.084  35.440  1.00  0.00    -0.164 F 
ENDBRANCH   6  16
ENDBRANCH   3   6
ENDBRANCH   1   2
BRANCH   1  20
ATOM     20  C   UNL A   1      34.515  35.451  33.605  1.00  0.00     0.023 C 
BRANCH  20  21
ATOM     21  C   UNL A   1      33.394  35.418  32.562  1.00  0.00     0.023 C 
BRANCH  21  22
ATOM     22  C   UNL A   1      33.751  36.025  31.209  1.00  0.00     0.116 C 
BRANCH  22  23
ATOM     23  N   UNL A   1      32.931  35.513  30.124  1.00  0.00    -0.352 N 
ATOM     24  C   UNL A   1      33.246  34.571  29.172  1.00  0.00     0.251 C 
ATOM     25  H   UNL A   1      32.024  35.892  30.060  1.00  0.00     0.163 HD
ATOM     26  O   UNL A   1      32.481  34.349  28.244  1.00  0.00    -0.269 OA
BRANCH  24  27
ATOM     27  C   UNL A   1      34.536  33.853  29.260  1.00  0.00     0.039 A 
ATOM     28  C   UNL A   1      35.504  34.087  28.282  1.00  0.00     0.014 A 
ATOM     29  C   UNL A   1      34.794  32.972  30.314  1.00  0.00     0.014 A 
ATOM     30  C   UNL A   1      36.760  33.488  28.398  1.00  0.00     0.010 A 
ATOM     31  C   UNL A   1      36.067  32.432  30.465  1.00  0.00     0.010 A 
ATOM     32  C   UNL A   1      37.063  32.686  29.509  1.00  0.00    -0.014 A 
BRANCH  32  33
ATOM     33  C   UNL A   1      38.418  32.109  29.695  1.00  0.00     0.031 A 
ATOM     34  C   UNL A   1      39.515  32.936  30.304  1.00  0.00     0.074 A 
ATOM     35  C   UNL A   1      38.678  30.864  29.251  1.00  0.00     0.049 A 
ATOM     36  N   UNL A   1      40.776  32.636  30.480  1.00  0.00    -0.248 NA
ATOM     37  C   UNL A   1      39.150  34.290  30.752  1.00  0.00     0.031 C 
ATOM     38  C   UNL A   1      37.713  29.978  28.596  1.00  0.00     0.029 A 
ATOM     39  N   UNL A   1      39.838  30.131  29.273  1.00  0.00    -0.354 N 
ATOM     40  C   UNL A   1      41.358  33.764  31.045  1.00  0.00     0.074 A 
ATOM     41  C   UNL A   1      40.324  34.773  31.132  1.00  0.00     0.031 C 
ATOM     42  C   UNL A   1      38.315  28.818  28.294  1.00  0.00     0.029 A 
ATOM     43  C   UNL A   1      39.715  28.888  28.701  1.00  0.00     0.049 A 
ATOM     44  H   UNL A   1      40.679  30.465  29.661  1.00  0.00     0.167 HD
ATOM     45  C   UNL A   1      42.630  33.936  31.474  1.00  0.00     0.037 A 
ATOM     46  C   UNL A   1      40.631  27.918  28.517  1.00  0.00     0.037 A 
ATOM     47  C   UNL A   1      43.650  32.924  31.406  1.00  0.00     0.049 A 
ATOM     48  C   UNL A   1      42.038  28.133  29.000  1.00  0.00     0.074 A 
ATOM     49  C   UNL A   1      44.956  32.983  31.864  1.00  0.00     0.029 A 
ATOM     50  N   UNL A   1      43.481  31.668  30.842  1.00  0.00    -0.354 N 
ATOM     51  N   UNL A   1      42.557  29.182  29.592  1.00  0.00    -0.248 NA
ATOM     52  C   UNL A   1      42.985  27.029  28.796  1.00  0.00     0.031 C 
ATOM     53  C   UNL A   1      45.588  31.777  31.541  1.00  0.00     0.029 A 
ATOM     54  C   UNL A   1      44.663  30.950  30.924  1.00  0.00     0.049 A 
ATOM     55  H   UNL A   1      42.645  31.337  30.443  1.00  0.00     0.167 HD
ATOM     56  C   UNL A   1      43.881  28.854  29.855  1.00  0.00     0.074 A 
ATOM     57  C   UNL A   1      44.081  27.504  29.371  1.00  0.00     0.031 C 
ATOM     58  C   UNL A   1      44.844  29.604  30.443  1.00  0.00     0.037 A 
BRANCH  45  59
ATOM     59  C   UNL A   1      42.984  35.270  32.065  1.00  0.00     0.057 A 
ATOM     60  C   UNL A   1      42.819  35.539  33.431  1.00  0.00     0.134 A 
ATOM     61  C   UNL A   1      43.525  36.286  31.268  1.00  0.00     0.134 A 
ATOM     62  F   UNL A   1      42.294  34.612  34.247  1.00  0.00    -0.206 F 
ATOM     63  C   UNL A   1      43.153  36.779  33.976  1.00  0.00     0.040 A 
ATOM     64  C   UNL A   1      43.888  37.521  31.808  1.00  0.00     0.040 A 
ATOM     65  F   UNL A   1      43.716  36.094  29.954  1.00  0.00    -0.206 F 
ATOM     66  C   UNL A   1      43.695  37.773  33.165  1.00  0.00     0.006 A 
ENDBRANCH  45  59
BRANCH  46  67
ATOM     67  C   UNL A   1      40.241  26.643  27.862  1.00  0.00     0.057 A 
ATOM     68  C   UNL A   1      40.623  26.361  26.546  1.00  0.00     0.134 A 
ATOM     69  C   UNL A   1      39.475  25.683  28.532  1.00  0.00     0.134 A 
ATOM     70  F   UNL A   1      41.343  27.251  25.847  1.00  0.00    -0.206 F 
ATOM     71  C   UNL A   1      40.239  25.180  25.910  1.00  0.00     0.040 A 
ATOM     72  C   UNL A   1      39.104  24.486  27.917  1.00  0.00     0.040 A 
ATOM     73  F   UNL A   1      39.084  25.890  29.798  1.00  0.00    -0.206 F 
ATOM     74  C   UNL A   1      39.481  24.235  26.600  1.00  0.00     0.006 A 
ENDBRANCH  46  67
BRANCH  58  75
ATOM     75  C   UNL A   1      46.191  28.969  30.629  1.00  0.00     0.057 A 
ATOM     76  C   UNL A   1      46.507  28.225  31.772  1.00  0.00     0.134 A 
ATOM     77  C   UNL A   1      47.169  29.071  29.632  1.00  0.00     0.134 A 
ATOM     78  F   UNL A   1      45.618  28.101  32.770  1.00  0.00    -0.206 F 
ATOM     79  C   UNL A   1      47.757  27.623  31.928  1.00  0.00     0.040 A 
ATOM     80  C   UNL A   1      48.413  28.453  29.763  1.00  0.00     0.040 A 
ATOM     81  F   UNL A   1      46.927  29.762  28.507  1.00  0.00    -0.206 F 
ATOM     82  C   UNL A   1      48.711  27.731  30.918  1.00  0.00     0.006 A 
ENDBRANCH  58  75
ENDBRANCH  32  33
ENDBRANCH  24  27
ENDBRANCH  22  23
ENDBRANCH  21  22
ENDBRANCH  20  21
ENDBRANCH   1  20
TORSDOF 17
ENDMDL
MODEL 2
REMARK VINA RESULT:      -8.1      5.395     11.261
REMARK SMILES C[C@@]([NH2+]CCCO)(C(=O)NCCCCNC(=O)c1ccc(-c2c3nc(c(-c4c(F)cccc4F)c4ccc([nH]4)c(-c4c(F)cccc4F)c4nc(c(-c5c(F)cccc5F)c5ccc2[nH]5)C=C4)C=C3)cc1)C(F)(F)F
REMARK SMILES IDX 11 1 10 2 8 3 9 4 2 6 1 7 3 8 4 11 5 12 6 13 7 14 72 16
REMARK SMILES IDX 73 17 74 18 75 19 12 20 13 21 14 22 15 23 16 24 17 26 18 27
REMARK SMILES IDX 19 28 71 29 20 30 70 31 21 32 22 33 23 34 64 35 24 36 69 37
REMARK SMILES IDX 63 38 65 39 25 40 68 41 62 42 61 43 26 45 52 46 35 47 51 48
REMARK SMILES IDX 36 49 39 50 50 51 66 52 37 53 38 54 49 56 67 57 40 58 27 59
REMARK SMILES IDX 28 60 33 61 29 62 30 63 32 64 34 65 31 66 53 67 54 68 59 69
REMARK SMILES IDX 55 70 56 71 58 72 60 73 57 74 41 75 42 76 47 77 43 78 44 79
REMARK SMILES IDX 46 80 48 81 45 82
REMARK H PARENT 10 5 3 9 3 10 7 15 15 25 65 44 39 55
REMARK Flexibility Score: inf
ROOT
ATOM      1  C   UNL A   1      36.108  21.369  25.408  1.00  0.00     0.116 C 
ENDROOT
BRANCH   1   2
ATOM      2  N   UNL A   1      35.696  22.138  24.250  1.00  0.00    -0.350 N 
ATOM      3  C   UNL A   1      34.517  22.763  23.954  1.00  0.00     0.290 C 
ATOM      4  O   UNL A   1      34.461  23.272  22.832  1.00  0.00    -0.267 OA
ATOM      5  H   UNL A   1      36.386  22.224  23.553  1.00  0.00     0.163 HD
BRANCH   3   6
ATOM      6  C   UNL A   1      33.347  22.847  24.959  1.00  0.00     0.268 C 
ATOM      7  C   UNL A   1      32.069  23.349  24.248  1.00  0.00     0.101 C 
BRANCH   6   8
ATOM      8  N   UNL A   1      32.993  21.487  25.516  1.00  0.00    -0.326 N 
ATOM      9  H   UNL A   1      32.482  21.634  26.386  1.00  0.00     0.347 HD
ATOM     10  H   UNL A   1      33.886  21.003  25.616  1.00  0.00     0.347 HD
BRANCH   8  11
ATOM     11  C   UNL A   1      32.180  20.608  24.671  1.00  0.00     0.264 C 
BRANCH  11  12
ATOM     12  C   UNL A   1      32.864  19.403  24.011  1.00  0.00     0.089 C 
BRANCH  12  13
ATOM     13  C   UNL A   1      32.971  18.150  24.870  1.00  0.00     0.162 C 
BRANCH  13  14
ATOM     14  O   UNL A   1      31.785  17.374  24.795  1.00  0.00    -0.396 OA
ATOM     15  H   UNL A   1      31.111  17.862  24.298  1.00  0.00     0.210 HD
ENDBRANCH  13  14
ENDBRANCH  12  13
ENDBRANCH  11  12
ENDBRANCH   8  11
ENDBRANCH   6   8
BRANCH   6  16
ATOM     16  C   UNL A   1      33.709  23.953  25.992  1.00  0.00     0.453 C 
ATOM     17  F   UNL A   1      34.316  23.454  27.094  1.00  0.00    -0.164 F 
ATOM     18  F   UNL A   1      34.598  24.819  25.424  1.00  0.00    -0.164 F 
ATOM     19  F   UNL A   1      32.663  24.699  26.396  1.00  0.00    -0.164 F 
ENDBRANCH   6  16
ENDBRANCH   3   6
ENDBRANCH   1   2
BRANCH   1  20
ATOM     20  C   UNL A   1      36.528  19.957  25.001  1.00  0.00     0.023 C 
BRANCH  20  21
ATOM     21  C   UNL A   1      38.006  19.821  24.621  1.00  0.00     0.023 C 
BRANCH  21  22
ATOM     22  C   UNL A   1      38.992  20.056  25.759  1.00  0.00     0.116 C 
BRANCH  22  23
ATOM     23  N   UNL A   1      40.022  19.034  25.839  1.00  0.00    -0.352 N 
ATOM     24  C   UNL A   1      41.369  19.180  26.075  1.00  0.00     0.251 C 
ATOM     25  H   UNL A   1      39.713  18.108  25.705  1.00  0.00     0.163 HD
ATOM     26  O   UNL A   1      42.122  18.221  25.977  1.00  0.00    -0.269 OA
BRANCH  24  27
ATOM     27  C   UNL A   1      41.906  20.515  26.413  1.00  0.00     0.039 A 
ATOM     28  C   UNL A   1      42.289  21.369  25.376  1.00  0.00     0.014 A 
ATOM     29  C   UNL A   1      42.009  20.929  27.744  1.00  0.00     0.014 A 
ATOM     30  C   UNL A   1      42.713  22.666  25.672  1.00  0.00     0.010 A 
ATOM     31  C   UNL A   1      42.365  22.243  28.032  1.00  0.00     0.010 A 
ATOM     32  C   UNL A   1      42.719  23.125  26.999  1.00  0.00    -0.014 A 
BRANCH  32  33
ATOM     33  C   UNL A   1      43.085  24.525  27.326  1.00  0.00     0.031 A 
ATOM     34  C   UNL A   1      44.522  24.962  27.279  1.00  0.00     0.074 A 
ATOM     35  C   UNL A   1      42.131  25.385  27.733  1.00  0.00     0.049 A 
ATOM     36  N   UNL A   1      45.047  26.116  27.601  1.00  0.00    -0.248 NA
ATOM     37  C   UNL A   1      45.503  23.958  26.836  1.00  0.00     0.031 C 
ATOM     38  C   UNL A   1      40.708  25.070  27.869  1.00  0.00     0.029 A 
ATOM     39  N   UNL A   1      42.218  26.700  28.119  1.00  0.00    -0.354 N 
ATOM     40  C   UNL A   1      46.416  25.975  27.412  1.00  0.00     0.074 A 
ATOM     41  C   UNL A   1      46.646  24.607  27.001  1.00  0.00     0.031 C 
ATOM     42  C   UNL A   1      40.054  26.163  28.291  1.00  0.00     0.029 A 
ATOM     43  C   UNL A   1      41.013  27.246  28.488  1.00  0.00     0.049 A 
ATOM     44  H   UNL A   1      43.063  27.203  28.130  1.00  0.00     0.167 HD
ATOM     45  C   UNL A   1      47.390  26.906  27.545  1.00  0.00     0.037 A 
ATOM     46  C   UNL A   1      40.716  28.478  28.944  1.00  0.00     0.037 A 
ATOM     47  C   UNL A   1      47.155  28.272  27.934  1.00  0.00     0.049 A 
ATOM     48  C   UNL A   1      41.815  29.494  29.086  1.00  0.00     0.074 A 
ATOM     49  C   UNL A   1      48.069  29.305  28.046  1.00  0.00     0.029 A 
ATOM     50  N   UNL A   1      45.917  28.794  28.277  1.00  0.00    -0.354 N 
ATOM     51  N   UNL A   1      43.097  29.364  28.841  1.00  0.00    -0.248 NA
ATOM     52  C   UNL A   1      41.426  30.828  29.562  1.00  0.00     0.031 C 
ATOM     53  C   UNL A   1      47.390  30.443  28.495  1.00  0.00     0.029 A 
ATOM     54  C   UNL A   1      46.046  30.130  28.618  1.00  0.00     0.049 A 
ATOM     55  H   UNL A   1      45.072  28.289  28.278  1.00  0.00     0.167 HD
ATOM     56  C   UNL A   1      43.662  30.605  29.106  1.00  0.00     0.074 A 
ATOM     57  C   UNL A   1      42.581  31.477  29.517  1.00  0.00     0.031 C 
ATOM     58  C   UNL A   1      44.959  30.987  29.018  1.00  0.00     0.037 A 
BRANCH  45  59
ATOM     59  C   UNL A   1      48.799  26.476  27.258  1.00  0.00     0.057 A 
ATOM     60  C   UNL A   1      49.636  25.974  28.264  1.00  0.00     0.134 A 
ATOM     61  C   UNL A   1      49.316  26.535  25.958  1.00  0.00     0.134 A 
ATOM     62  F   UNL A   1      49.205  25.902  29.533  1.00  0.00    -0.206 F 
ATOM     63  C   UNL A   1      50.944  25.571  27.992  1.00  0.00     0.040 A 
ATOM     64  C   UNL A   1      50.614  26.111  25.669  1.00  0.00     0.040 A 
ATOM     65  F   UNL A   1      48.567  27.000  24.946  1.00  0.00    -0.206 F 
ATOM     66  C   UNL A   1      51.435  25.634  26.689  1.00  0.00     0.006 A 
ENDBRANCH  45  59
BRANCH  46  67
ATOM     67  C   UNL A   1      39.313  28.827  29.279  1.00  0.00     0.057 A 
ATOM     68  C   UNL A   1      38.455  29.373  28.317  1.00  0.00     0.134 A 
ATOM     69  C   UNL A   1      38.798  28.631  30.565  1.00  0.00     0.134 A 
ATOM     70  F   UNL A   1      38.897  29.601  27.072  1.00  0.00    -0.206 F 
ATOM     71  C   UNL A   1      37.143  29.732  28.626  1.00  0.00     0.040 A 
ATOM     72  C   UNL A   1      37.480  28.962  30.883  1.00  0.00     0.040 A 
ATOM     73  F   UNL A   1      39.567  28.104  31.530  1.00  0.00    -0.206 F 
ATOM     74  C   UNL A   1      36.650  29.521  29.914  1.00  0.00     0.006 A 
ENDBRANCH  46  67
BRANCH  58  75
ATOM     75  C   UNL A   1      45.276  32.419  29.338  1.00  0.00     0.057 A 
ATOM     76  C   UNL A   1      45.682  32.818  30.617  1.00  0.00     0.134 A 
ATOM     77  C   UNL A   1      45.213  33.401  28.342  1.00  0.00     0.134 A 
ATOM     78  F   UNL A   1      45.749  31.927  31.618  1.00  0.00    -0.206 F 
ATOM     79  C   UNL A   1      45.992  34.150  30.900  1.00  0.00     0.040 A 
ATOM     80  C   UNL A   1      45.546  34.731  28.606  1.00  0.00     0.040 A 
ATOM     81  F   UNL A   1      44.841  33.083  27.092  1.00  0.00    -0.206 F 
ATOM     82  C   UNL A   1      45.931  35.108  29.891  1.00  0.00     0.006 A 
ENDBRANCH  58  75
ENDBRANCH  32  33
ENDBRANCH  24  27
ENDBRANCH  22  23
ENDBRANCH  21  22
ENDBRANCH  20  21
ENDBRANCH   1  20
TORSDOF 17
ENDMDL
MODEL 3
REMARK VINA RESULT:      -8.0      5.550     11.432
REMARK SMILES C[C@@]([NH2+]CCCO)(C(=O)NCCCCNC(=O)c1ccc(-c2c3nc(c(-c4c(F)cccc4F)c4ccc([nH]4)c(-c4c(F)cccc4F)c4nc(c(-c5c(F)cccc5F)c5ccc2[nH]5)C=C4)C=C3)cc1)C(F)(F)F
REMARK SMILES IDX 11 1 10 2 8 3 9 4 2 6 1 7 3 8 4 11 5 12 6 13 7 14 72 16
REMARK SMILES IDX 73 17 74 18 75 19 12 20 13 21 14 22 15 23 16 24 17 26 18 27
REMARK SMILES IDX 19 28 71 29 20 30 70 31 21 32 22 33 23 34 64 35 24 36 69 37
REMARK SMILES IDX 63 38 65 39 25 40 68 41 62 42 61 43 26 45 52 46 35 47 51 48
REMARK SMILES IDX 36 49 39 50 50 51 66 52 37 53 38 54 49 56 67 57 40 58 27 59
REMARK SMILES IDX 28 60 33 61 29 62 30 63 32 64 34 65 31 66 53 67 54 68 59 69
REMARK SMILES IDX 55 70 56 71 58 72 60 73 57 74 41 75 42 76 47 77 43 78 44 79
REMARK SMILES IDX 46 80 48 81 45 82
REMARK H PARENT 10 5 3 9 3 10 7 15 15 25 65 44 39 55
REMARK Flexibility Score: inf
ROOT
ATOM      1  C   UNL A   1      36.333  21.241  25.293  1.00  0.00     0.116 C 
ENDROOT
BRANCH   1   2
ATOM      2  N   UNL A   1      35.384  21.927  24.438  1.00  0.00    -0.350 N 
ATOM      3  C   UNL A   1      34.029  22.078  24.531  1.00  0.00     0.290 C 
ATOM      4  O   UNL A   1      33.500  22.660  23.581  1.00  0.00    -0.267 OA
ATOM      5  H   UNL A   1      35.787  22.359  23.651  1.00  0.00     0.163 HD
BRANCH   3   6
ATOM      6  C   UNL A   1      33.219  21.577  25.747  1.00  0.00     0.268 C 
ATOM      7  C   UNL A   1      31.707  21.587  25.422  1.00  0.00     0.101 C 
BRANCH   6   8
ATOM      8  N   UNL A   1      33.552  20.141  26.084  1.00  0.00    -0.326 N 
ATOM      9  H   UNL A   1      33.233  19.966  27.036  1.00  0.00     0.347 HD
ATOM     10  H   UNL A   1      34.560  20.064  25.944  1.00  0.00     0.347 HD
BRANCH   8  11
ATOM     11  C   UNL A   1      32.973  19.101  25.229  1.00  0.00     0.264 C 
BRANCH  11  12
ATOM     12  C   UNL A   1      33.911  18.332  24.290  1.00  0.00     0.089 C 
BRANCH  12  13
ATOM     13  C   UNL A   1      33.238  17.348  23.341  1.00  0.00     0.162 C 
BRANCH  13  14
ATOM     14  O   UNL A   1      34.049  16.202  23.130  1.00  0.00    -0.396 OA
ATOM     15  H   UNL A   1      33.487  15.449  22.890  1.00  0.00     0.210 HD
ENDBRANCH  13  14
ENDBRANCH  12  13
ENDBRANCH  11  12
ENDBRANCH   8  11
ENDBRANCH   6   8
BRANCH   6  16
ATOM     16  C   UNL A   1      33.406  22.623  26.884  1.00  0.00     0.453 C 
ATOM     17  F   UNL A   1      32.285  22.791  27.622  1.00  0.00    -0.164 F 
ATOM     18  F   UNL A   1      34.368  22.177  27.744  1.00  0.00    -0.164 F 
ATOM     19  F   UNL A   1      33.812  23.835  26.462  1.00  0.00    -0.164 F 
ENDBRANCH   6  16
ENDBRANCH   3   6
ENDBRANCH   1   2
BRANCH   1  20
ATOM     20  C   UNL A   1      37.610  20.902  24.526  1.00  0.00     0.023 C 
BRANCH  20  21
ATOM     21  C   UNL A   1      38.249  19.567  24.921  1.00  0.00     0.023 C 
BRANCH  21  22
ATOM     22  C   UNL A   1      39.180  19.627  26.127  1.00  0.00     0.116 C 
BRANCH  22  23
ATOM     23  N   UNL A   1      40.380  18.822  25.958  1.00  0.00    -0.352 N 
ATOM     24  C   UNL A   1      41.697  19.215  26.000  1.00  0.00     0.251 C 
ATOM     25  H   UNL A   1      40.228  17.864  25.791  1.00  0.00     0.163 HD
ATOM     26  O   UNL A   1      42.587  18.429  25.705  1.00  0.00    -0.269 OA
BRANCH  24  27
ATOM     27  C   UNL A   1      42.028  20.608  26.371  1.00  0.00     0.039 A 
ATOM     28  C   UNL A   1      42.259  20.908  27.716  1.00  0.00     0.014 A 
ATOM     29  C   UNL A   1      42.133  21.603  25.396  1.00  0.00     0.014 A 
ATOM     30  C   UNL A   1      42.660  22.197  28.074  1.00  0.00     0.010 A 
ATOM     31  C   UNL A   1      42.601  22.865  25.747  1.00  0.00     0.010 A 
ATOM     32  C   UNL A   1      42.871  23.174  27.089  1.00  0.00    -0.014 A 
BRANCH  32  33
ATOM     33  C   UNL A   1      43.379  24.524  27.440  1.00  0.00     0.031 A 
ATOM     34  C   UNL A   1      42.424  25.604  27.865  1.00  0.00     0.074 A 
ATOM     35  C   UNL A   1      44.692  24.795  27.310  1.00  0.00     0.049 A 
ATOM     36  N   UNL A   1      42.666  26.861  28.138  1.00  0.00    -0.248 NA
ATOM     37  C   UNL A   1      41.005  25.228  27.969  1.00  0.00     0.031 C 
ATOM     38  C   UNL A   1      45.713  23.848  26.860  1.00  0.00     0.029 A 
ATOM     39  N   UNL A   1      45.392  25.954  27.535  1.00  0.00    -0.354 N 
ATOM     40  C   UNL A   1      41.433  27.427  28.435  1.00  0.00     0.074 A 
ATOM     41  C   UNL A   1      40.439  26.391  28.254  1.00  0.00     0.031 C 
ATOM     42  C   UNL A   1      46.909  24.458  26.857  1.00  0.00     0.029 A 
ATOM     43  C   UNL A   1      46.735  25.846  27.271  1.00  0.00     0.049 A 
ATOM     44  H   UNL A   1      44.971  26.784  27.855  1.00  0.00     0.167 HD
ATOM     45  C   UNL A   1      41.157  28.688  28.844  1.00  0.00     0.037 A 
ATOM     46  C   UNL A   1      47.716  26.766  27.346  1.00  0.00     0.037 A 
ATOM     47  C   UNL A   1      42.150  29.709  29.044  1.00  0.00     0.049 A 
ATOM     48  C   UNL A   1      47.384  28.160  27.800  1.00  0.00     0.074 A 
ATOM     49  C   UNL A   1      41.976  31.002  29.508  1.00  0.00     0.029 A 
ATOM     50  N   UNL A   1      43.505  29.555  28.789  1.00  0.00    -0.354 N 
ATOM     51  N   UNL A   1      46.222  28.663  28.140  1.00  0.00    -0.248 NA
ATOM     52  C   UNL A   1      48.499  29.112  27.888  1.00  0.00     0.031 C 
ATOM     53  C   UNL A   1      43.220  31.642  29.496  1.00  0.00     0.029 A 
ATOM     54  C   UNL A   1      44.176  30.733  29.069  1.00  0.00     0.049 A 
ATOM     55  H   UNL A   1      43.926  28.729  28.459  1.00  0.00     0.167 HD
ATOM     56  C   UNL A   1      46.470  29.980  28.507  1.00  0.00     0.074 A 
ATOM     57  C   UNL A   1      47.895  30.193  28.361  1.00  0.00     0.031 C 
ATOM     58  C   UNL A   1      45.596  30.927  28.926  1.00  0.00     0.037 A 
BRANCH  45  59
ATOM     59  C   UNL A   1      39.719  29.026  29.112  1.00  0.00     0.057 A 
ATOM     60  C   UNL A   1      38.869  29.489  28.098  1.00  0.00     0.134 A 
ATOM     61  C   UNL A   1      39.168  28.858  30.388  1.00  0.00     0.134 A 
ATOM     62  F   UNL A   1      39.338  29.683  26.855  1.00  0.00    -0.206 F 
ATOM     63  C   UNL A   1      37.533  29.799  28.350  1.00  0.00     0.040 A 
ATOM     64  C   UNL A   1      37.825  29.139  30.647  1.00  0.00     0.040 A 
ATOM     65  F   UNL A   1      39.924  28.413  31.404  1.00  0.00    -0.206 F 
ATOM     66  C   UNL A   1      37.005  29.618  29.627  1.00  0.00     0.006 A 
ENDBRANCH  45  59
BRANCH  46  67
ATOM     67  C   UNL A   1      49.112  26.394  27.002  1.00  0.00     0.057 A 
ATOM     68  C   UNL A   1      49.574  26.465  25.682  1.00  0.00     0.134 A 
ATOM     69  C   UNL A   1      50.012  25.952  27.978  1.00  0.00     0.134 A 
ATOM     70  F   UNL A   1      48.752  26.863  24.701  1.00  0.00    -0.206 F 
ATOM     71  C   UNL A   1      50.874  26.091  25.342  1.00  0.00     0.040 A 
ATOM     72  C   UNL A   1      51.323  25.598  27.656  1.00  0.00     0.040 A 
ATOM     73  F   UNL A   1      49.633  25.870  29.261  1.00  0.00    -0.206 F 
ATOM     74  C   UNL A   1      51.755  25.661  26.333  1.00  0.00     0.006 A 
ENDBRANCH  46  67
BRANCH  58  75
ATOM     75  C   UNL A   1      46.161  32.269  29.291  1.00  0.00     0.057 A 
ATOM     76  C   UNL A   1      46.250  33.311  28.360  1.00  0.00     0.134 A 
ATOM     77  C   UNL A   1      46.583  32.532  30.600  1.00  0.00     0.134 A 
ATOM     78  F   UNL A   1      45.876  33.120  27.086  1.00  0.00    -0.206 F 
ATOM     79  C   UNL A   1      46.761  34.562  28.713  1.00  0.00     0.040 A 
ATOM     80  C   UNL A   1      47.071  33.785  30.972  1.00  0.00     0.040 A 
ATOM     81  F   UNL A   1      46.515  31.578  31.542  1.00  0.00    -0.206 F 
ATOM     82  C   UNL A   1      47.166  34.802  30.025  1.00  0.00     0.006 A 
ENDBRANCH  58  75
ENDBRANCH  32  33
ENDBRANCH  24  27
ENDBRANCH  22  23
ENDBRANCH  21  22
ENDBRANCH  20  21
ENDBRANCH   1  20
TORSDOF 17
ENDMDL
