MODEL 1
REMARK VINA RESULT:     -11.8      0.000      0.000
REMARK SMILES O=C(NCCCCNC(=O)[C@@H]1CCC[N@@H+](Cc2ccc(F)cc2Cl)C1)c1ccc(-c2c3nc(c(-c4c(F)cccc4F)c4ccc([nH]4)c(-c4c(F)cccc4F)c4nc(c(-c5c(F)cccc5F)c5ccc2[nH]5)C=C4)C=C3)cc1
REMARK SMILES IDX 5 1 4 2 3 3 1 4 2 5 26 7 27 8 79 9 28 10 78 11 29 12 30 13
REMARK SMILES IDX 31 14 72 15 32 16 77 17 71 18 73 19 33 20 76 21 70 22 69 23
REMARK SMILES IDX 34 25 60 26 43 27 59 28 44 29 47 30 58 31 74 32 45 33 46 34
REMARK SMILES IDX 57 36 75 37 48 38 35 39 36 40 41 41 37 42 38 43 40 44 42 45
REMARK SMILES IDX 39 46 61 47 62 48 67 49 63 50 64 51 66 52 68 53 65 54 49 55
REMARK SMILES IDX 50 56 55 57 51 58 52 59 54 60 56 61 53 62 6 63 7 64 8 65
REMARK SMILES IDX 9 66 10 68 11 69 12 70 25 71 13 72 15 73 14 74 16 76 17 77
REMARK SMILES IDX 18 78 23 79 19 80 22 81 24 82 20 83 21 84
REMARK H PARENT 3 6 73 24 47 35 8 67 15 75
REMARK Flexibility Score: inf
ROOT
ATOM      1  C   UNL A   1      37.678  21.086  25.039  1.00  0.00     0.023 C 
ENDROOT
BRANCH   1   2
ATOM      2  C   UNL A   1      38.963  21.077  25.856  1.00  0.00     0.116 C 
BRANCH   2   3
ATOM      3  N   UNL A   1      39.793  19.890  25.687  1.00  0.00    -0.352 N 
ATOM      4  O   UNL A   1      41.763  18.751  25.739  1.00  0.00    -0.269 OA
ATOM      5  C   UNL A   1      41.138  19.773  25.979  1.00  0.00     0.251 C 
ATOM      6  H   UNL A   1      39.348  19.088  25.328  1.00  0.00     0.163 HD
BRANCH   5   7
ATOM      7  C   UNL A   1      41.818  20.958  26.544  1.00  0.00     0.039 A 
ATOM      8  C   UNL A   1      41.922  21.090  27.928  1.00  0.00     0.014 A 
ATOM      9  C   UNL A   1      42.210  21.995  25.694  1.00  0.00     0.014 A 
ATOM     10  C   UNL A   1      42.226  22.330  28.467  1.00  0.00     0.010 A 
ATOM     11  C   UNL A   1      42.613  23.215  26.244  1.00  0.00     0.010 A 
ATOM     12  C   UNL A   1      42.569  23.410  27.632  1.00  0.00    -0.014 A 
BRANCH  12  13
ATOM     13  C   UNL A   1      42.876  24.719  28.261  1.00  0.00     0.031 A 
ATOM     14  C   UNL A   1      44.291  25.141  28.545  1.00  0.00     0.074 A 
ATOM     15  C   UNL A   1      41.858  25.572  28.485  1.00  0.00     0.049 A 
ATOM     16  N   UNL A   1      44.728  26.279  29.023  1.00  0.00    -0.248 NA
ATOM     17  C   UNL A   1      45.355  24.164  28.266  1.00  0.00     0.031 C 
ATOM     18  C   UNL A   1      40.443  25.269  28.254  1.00  0.00     0.029 A 
ATOM     19  N   UNL A   1      41.855  26.876  28.905  1.00  0.00    -0.354 N 
ATOM     20  C   UNL A   1      46.106  26.147  29.132  1.00  0.00     0.074 A 
ATOM     21  C   UNL A   1      46.437  24.813  28.676  1.00  0.00     0.031 C 
ATOM     22  C   UNL A   1      39.719  26.378  28.458  1.00  0.00     0.029 A 
ATOM     23  C   UNL A   1      40.608  27.449  28.890  1.00  0.00     0.049 A 
ATOM     24  H   UNL A   1      42.667  27.354  29.189  1.00  0.00     0.167 HD
ATOM     25  C   UNL A   1      47.011  27.057  29.568  1.00  0.00     0.037 A 
ATOM     26  C   UNL A   1      40.218  28.700  29.192  1.00  0.00     0.037 A 
ATOM     27  C   UNL A   1      46.682  28.394  29.992  1.00  0.00     0.049 A 
ATOM     28  C   UNL A   1      41.247  29.699  29.626  1.00  0.00     0.074 A 
ATOM     29  C   UNL A   1      47.527  29.385  30.461  1.00  0.00     0.029 A 
ATOM     30  N   UNL A   1      45.404  28.931  29.983  1.00  0.00    -0.354 N 
ATOM     31  N   UNL A   1      42.542  29.546  29.748  1.00  0.00    -0.248 NA
ATOM     32  C   UNL A   1      40.759  31.040  29.976  1.00  0.00     0.031 C 
ATOM     33  C   UNL A   1      46.758  30.517  30.754  1.00  0.00     0.029 A 
ATOM     34  C   UNL A   1      45.438  30.240  30.438  1.00  0.00     0.049 A 
ATOM     35  H   UNL A   1      44.593  28.454  29.696  1.00  0.00     0.167 HD
ATOM     36  C   UNL A   1      43.025  30.762  30.206  1.00  0.00     0.074 A 
ATOM     37  C   UNL A   1      41.887  31.657  30.297  1.00  0.00     0.031 C 
ATOM     38  C   UNL A   1      44.292  31.105  30.539  1.00  0.00     0.037 A 
BRANCH  25  39
ATOM     39  C   UNL A   1      48.449  26.636  29.625  1.00  0.00     0.057 A 
ATOM     40  C   UNL A   1      49.348  26.934  28.594  1.00  0.00     0.134 A 
ATOM     41  C   UNL A   1      48.955  25.977  30.753  1.00  0.00     0.134 A 
ATOM     42  F   UNL A   1      48.924  27.551  27.481  1.00  0.00    -0.206 F 
ATOM     43  C   UNL A   1      50.697  26.585  28.679  1.00  0.00     0.040 A 
ATOM     44  C   UNL A   1      50.305  25.638  30.858  1.00  0.00     0.040 A 
ATOM     45  F   UNL A   1      48.147  25.666  31.779  1.00  0.00    -0.206 F 
ATOM     46  C   UNL A   1      51.181  25.942  29.817  1.00  0.00     0.006 A 
ENDBRANCH  25  39
BRANCH  26  47
ATOM     47  C   UNL A   1      38.786  29.063  29.090  1.00  0.00     0.057 A 
ATOM     48  C   UNL A   1      37.944  29.009  30.205  1.00  0.00     0.134 A 
ATOM     49  C   UNL A   1      38.236  29.512  27.883  1.00  0.00     0.134 A 
ATOM     50  F   UNL A   1      38.412  28.574  31.384  1.00  0.00    -0.206 F 
ATOM     51  C   UNL A   1      36.603  29.384  30.123  1.00  0.00     0.040 A 
ATOM     52  C   UNL A   1      36.905  29.913  27.792  1.00  0.00     0.040 A 
ATOM     53  F   UNL A   1      38.999  29.595  26.783  1.00  0.00    -0.206 F 
ATOM     54  C   UNL A   1      36.083  29.846  28.915  1.00  0.00     0.006 A 
ENDBRANCH  26  47
BRANCH  38  55
ATOM     55  C   UNL A   1      44.497  32.498  31.046  1.00  0.00     0.057 A 
ATOM     56  C   UNL A   1      44.419  32.791  32.413  1.00  0.00     0.134 A 
ATOM     57  C   UNL A   1      44.773  33.550  30.166  1.00  0.00     0.134 A 
ATOM     58  F   UNL A   1      44.142  31.825  33.301  1.00  0.00    -0.206 F 
ATOM     59  C   UNL A   1      44.585  34.093  32.886  1.00  0.00     0.040 A 
ATOM     60  C   UNL A   1      44.959  34.853  30.631  1.00  0.00     0.040 A 
ATOM     61  F   UNL A   1      44.864  33.330  28.847  1.00  0.00    -0.206 F 
ATOM     62  C   UNL A   1      44.858  35.127  31.994  1.00  0.00     0.006 A 
ENDBRANCH  38  55
ENDBRANCH  12  13
ENDBRANCH   5   7
ENDBRANCH   2   3
ENDBRANCH   1   2
BRANCH   1  63
ATOM     63  C   UNL A   1      37.251  22.466  24.553  1.00  0.00     0.023 C 
BRANCH  63  64
ATOM     64  C   UNL A   1      37.063  23.518  25.647  1.00  0.00     0.116 C 
BRANCH  64  65
ATOM     65  N   UNL A   1      36.154  23.090  26.687  1.00  0.00    -0.356 N 
ATOM     66  C   UNL A   1      34.800  23.090  26.755  1.00  0.00     0.228 C 
ATOM     67  H   UNL A   1      36.599  22.736  27.491  1.00  0.00     0.163 HD
ATOM     68  O   UNL A   1      34.312  22.605  27.783  1.00  0.00    -0.275 OA
BRANCH  66  69
ATOM     69  C   UNL A   1      33.866  23.611  25.658  1.00  0.00     0.133 C 
ATOM     70  C   UNL A   1      32.625  24.354  26.165  1.00  0.00     0.025 C 
ATOM     71  C   UNL A   1      33.601  22.664  24.486  1.00  0.00     0.276 C 
ATOM     72  C   UNL A   1      31.326  23.559  26.108  1.00  0.00     0.062 C 
ATOM     73  N   UNL A   1      32.373  21.881  24.620  1.00  0.00    -0.330 N 
ATOM     74  C   UNL A   1      31.190  22.710  24.843  1.00  0.00     0.262 C 
ATOM     75  H   UNL A   1      32.480  21.349  25.484  1.00  0.00     0.348 HD
BRANCH  73  76
ATOM     76  C   UNL A   1      32.212  20.835  23.597  1.00  0.00     0.300 C 
BRANCH  76  77
ATOM     77  C   UNL A   1      32.505  19.408  24.010  1.00  0.00     0.025 A 
ATOM     78  C   UNL A   1      32.700  19.115  25.372  1.00  0.00     0.014 A 
ATOM     79  C   UNL A   1      32.587  18.352  23.080  1.00  0.00     0.052 A 
ATOM     80  C   UNL A   1      33.003  17.819  25.787  1.00  0.00     0.040 A 
ATOM     81  C   UNL A   1      32.884  17.055  23.499  1.00  0.00     0.060 A 
ATOM     82  Cl  UNL A   1      32.324  18.582  21.386  1.00  0.00    -0.084 Cl
ATOM     83  C   UNL A   1      33.098  16.804  24.846  1.00  0.00     0.124 A 
ATOM     84  F   UNL A   1      33.393  15.560  25.245  1.00  0.00    -0.207 F 
ENDBRANCH  76  77
ENDBRANCH  73  76
ENDBRANCH  66  69
ENDBRANCH  64  65
ENDBRANCH  63  64
ENDBRANCH   1  63
TORSDOF 13
ENDMDL
MODEL 2
REMARK VINA RESULT:     -11.7      4.801      9.057
REMARK SMILES O=C(NCCCCNC(=O)[C@@H]1CCC[N@@H+](Cc2ccc(F)cc2Cl)C1)c1ccc(-c2c3nc(c(-c4c(F)cccc4F)c4ccc([nH]4)c(-c4c(F)cccc4F)c4nc(c(-c5c(F)cccc5F)c5ccc2[nH]5)C=C4)C=C3)cc1
REMARK SMILES IDX 5 1 4 2 3 3 1 4 2 5 26 7 27 8 79 9 28 10 78 11 29 12 30 13
REMARK SMILES IDX 31 14 72 15 32 16 77 17 71 18 73 19 33 20 76 21 70 22 69 23
REMARK SMILES IDX 34 25 60 26 43 27 59 28 44 29 47 30 58 31 74 32 45 33 46 34
REMARK SMILES IDX 57 36 75 37 48 38 35 39 36 40 41 41 37 42 38 43 40 44 42 45
REMARK SMILES IDX 39 46 61 47 62 48 67 49 63 50 64 51 66 52 68 53 65 54 49 55
REMARK SMILES IDX 50 56 55 57 51 58 52 59 54 60 56 61 53 62 6 63 7 64 8 65
REMARK SMILES IDX 9 66 10 68 11 69 12 70 25 71 13 72 15 73 14 74 16 76 17 77
REMARK SMILES IDX 18 78 23 79 19 80 22 81 24 82 20 83 21 84
REMARK H PARENT 3 6 73 24 47 35 8 67 15 75
REMARK Flexibility Score: inf
ROOT
ATOM      1  C   UNL A   1      37.231  23.560  24.981  1.00  0.00     0.023 C 
ENDROOT
BRANCH   1   2
ATOM      2  C   UNL A   1      38.088  23.845  26.207  1.00  0.00     0.116 C 
BRANCH   2   3
ATOM      3  N   UNL A   1      39.516  23.609  26.029  1.00  0.00    -0.352 N 
ATOM      4  O   UNL A   1      41.718  24.131  26.274  1.00  0.00    -0.269 OA
ATOM      5  C   UNL A   1      40.549  24.374  26.535  1.00  0.00     0.251 C 
ATOM      6  H   UNL A   1      39.770  22.824  25.492  1.00  0.00     0.163 HD
BRANCH   5   7
ATOM      7  C   UNL A   1      40.190  25.543  27.365  1.00  0.00     0.039 A 
ATOM      8  C   UNL A   1      40.778  26.778  27.097  1.00  0.00     0.014 A 
ATOM      9  C   UNL A   1      39.389  25.362  28.495  1.00  0.00     0.014 A 
ATOM     10  C   UNL A   1      40.730  27.772  28.060  1.00  0.00     0.010 A 
ATOM     11  C   UNL A   1      39.261  26.404  29.418  1.00  0.00     0.010 A 
ATOM     12  C   UNL A   1      39.978  27.596  29.236  1.00  0.00    -0.014 A 
BRANCH  12  13
ATOM     13  C   UNL A   1      39.970  28.689  30.240  1.00  0.00     0.031 A 
ATOM     14  C   UNL A   1      38.935  29.781  30.205  1.00  0.00     0.074 A 
ATOM     15  C   UNL A   1      40.856  28.631  31.252  1.00  0.00     0.049 A 
ATOM     16  N   UNL A   1      38.751  30.764  31.050  1.00  0.00    -0.248 NA
ATOM     17  C   UNL A   1      37.990  29.778  29.077  1.00  0.00     0.031 C 
ATOM     18  C   UNL A   1      41.910  27.622  31.388  1.00  0.00     0.029 A 
ATOM     19  N   UNL A   1      40.984  29.398  32.380  1.00  0.00    -0.354 N 
ATOM     20  C   UNL A   1      37.694  31.512  30.544  1.00  0.00     0.074 A 
ATOM     21  C   UNL A   1      37.281  30.874  29.312  1.00  0.00     0.031 C 
ATOM     22  C   UNL A   1      42.523  27.784  32.568  1.00  0.00     0.029 A 
ATOM     23  C   UNL A   1      41.947  28.940  33.243  1.00  0.00     0.049 A 
ATOM     24  H   UNL A   1      40.438  30.199  32.553  1.00  0.00     0.167 HD
ATOM     25  C   UNL A   1      37.122  32.625  31.063  1.00  0.00     0.037 A 
ATOM     26  C   UNL A   1      42.329  29.398  34.449  1.00  0.00     0.037 A 
ATOM     27  C   UNL A   1      37.517  33.240  32.305  1.00  0.00     0.049 A 
ATOM     28  C   UNL A   1      41.647  30.603  35.020  1.00  0.00     0.074 A 
ATOM     29  C   UNL A   1      37.005  34.376  32.908  1.00  0.00     0.029 A 
ATOM     30  N   UNL A   1      38.512  32.758  33.142  1.00  0.00    -0.354 N 
ATOM     31  N   UNL A   1      40.668  31.312  34.513  1.00  0.00    -0.248 NA
ATOM     32  C   UNL A   1      42.128  31.079  36.323  1.00  0.00     0.031 C 
ATOM     33  C   UNL A   1      37.703  34.592  34.102  1.00  0.00     0.029 A 
ATOM     34  C   UNL A   1      38.628  33.574  34.256  1.00  0.00     0.049 A 
ATOM     35  H   UNL A   1      39.054  31.955  32.970  1.00  0.00     0.167 HD
ATOM     36  C   UNL A   1      40.427  32.329  35.424  1.00  0.00     0.074 A 
ATOM     37  C   UNL A   1      41.333  32.118  36.536  1.00  0.00     0.031 C 
ATOM     38  C   UNL A   1      39.549  33.356  35.341  1.00  0.00     0.037 A 
BRANCH  25  39
ATOM     39  C   UNL A   1      36.014  33.266  30.283  1.00  0.00     0.057 A 
ATOM     40  C   UNL A   1      34.681  33.209  30.710  1.00  0.00     0.134 A 
ATOM     41  C   UNL A   1      36.291  34.001  29.123  1.00  0.00     0.134 A 
ATOM     42  F   UNL A   1      34.348  32.510  31.805  1.00  0.00    -0.206 F 
ATOM     43  C   UNL A   1      33.662  33.853  30.005  1.00  0.00     0.040 A 
ATOM     44  C   UNL A   1      35.283  34.664  28.420  1.00  0.00     0.040 A 
ATOM     45  F   UNL A   1      37.547  34.099  28.663  1.00  0.00    -0.206 F 
ATOM     46  C   UNL A   1      33.964  34.591  28.861  1.00  0.00     0.006 A 
ENDBRANCH  25  39
BRANCH  26  47
ATOM     47  C   UNL A   1      43.413  28.705  35.183  1.00  0.00     0.057 A 
ATOM     48  C   UNL A   1      44.755  29.030  34.968  1.00  0.00     0.134 A 
ATOM     49  C   UNL A   1      43.127  27.730  36.146  1.00  0.00     0.134 A 
ATOM     50  F   UNL A   1      45.090  29.947  34.048  1.00  0.00    -0.206 F 
ATOM     51  C   UNL A   1      45.778  28.407  35.684  1.00  0.00     0.040 A 
ATOM     52  C   UNL A   1      44.136  27.117  36.886  1.00  0.00     0.040 A 
ATOM     53  F   UNL A   1      41.856  27.386  36.403  1.00  0.00    -0.206 F 
ATOM     54  C   UNL A   1      45.468  27.452  36.651  1.00  0.00     0.006 A 
ENDBRANCH  26  47
BRANCH  38  55
ATOM     55  C   UNL A   1      39.548  34.329  36.478  1.00  0.00     0.057 A 
ATOM     56  C   UNL A   1      38.849  34.062  37.661  1.00  0.00     0.134 A 
ATOM     57  C   UNL A   1      40.247  35.538  36.390  1.00  0.00     0.134 A 
ATOM     58  F   UNL A   1      38.148  32.926  37.796  1.00  0.00    -0.206 F 
ATOM     59  C   UNL A   1      38.825  34.979  38.713  1.00  0.00     0.040 A 
ATOM     60  C   UNL A   1      40.245  36.454  37.443  1.00  0.00     0.040 A 
ATOM     61  F   UNL A   1      40.937  35.848  35.283  1.00  0.00    -0.206 F 
ATOM     62  C   UNL A   1      39.528  36.177  38.605  1.00  0.00     0.006 A 
ENDBRANCH  38  55
ENDBRANCH  12  13
ENDBRANCH   5   7
ENDBRANCH   2   3
ENDBRANCH   1   2
BRANCH   1  63
ATOM     63  C   UNL A   1      37.065  22.079  24.659  1.00  0.00     0.023 C 
BRANCH  63  64
ATOM     64  C   UNL A   1      35.913  21.376  25.378  1.00  0.00     0.116 C 
BRANCH  64  65
ATOM     65  N   UNL A   1      34.652  21.511  24.683  1.00  0.00    -0.356 N 
ATOM     66  C   UNL A   1      33.617  22.369  24.856  1.00  0.00     0.228 C 
ATOM     67  H   UNL A   1      34.522  20.863  23.953  1.00  0.00     0.163 HD
ATOM     68  O   UNL A   1      32.682  22.256  24.052  1.00  0.00    -0.275 OA
BRANCH  66  69
ATOM     69  C   UNL A   1      33.547  23.455  25.935  1.00  0.00     0.133 C 
ATOM     70  C   UNL A   1      32.315  23.387  26.843  1.00  0.00     0.025 C 
ATOM     71  C   UNL A   1      33.933  24.870  25.498  1.00  0.00     0.276 C 
ATOM     72  C   UNL A   1      31.228  24.412  26.539  1.00  0.00     0.062 C 
ATOM     73  N   UNL A   1      32.793  25.710  25.128  1.00  0.00    -0.330 N 
ATOM     74  C   UNL A   1      31.781  25.791  26.179  1.00  0.00     0.262 C 
ATOM     75  H   UNL A   1      32.330  25.220  24.362  1.00  0.00     0.348 HD
BRANCH  73  76
ATOM     76  C   UNL A   1      33.168  27.000  24.527  1.00  0.00     0.300 C 
BRANCH  76  77
ATOM     77  C   UNL A   1      33.270  28.195  25.451  1.00  0.00     0.025 A 
ATOM     78  C   UNL A   1      34.342  28.269  26.360  1.00  0.00     0.014 A 
ATOM     79  C   UNL A   1      32.331  29.245  25.437  1.00  0.00     0.052 A 
ATOM     80  C   UNL A   1      34.451  29.338  27.249  1.00  0.00     0.040 A 
ATOM     81  C   UNL A   1      32.447  30.317  26.324  1.00  0.00     0.060 A 
ATOM     82  Cl  UNL A   1      30.996  29.286  24.337  1.00  0.00    -0.084 Cl
ATOM     83  C   UNL A   1      33.500  30.348  27.225  1.00  0.00     0.124 A 
ATOM     84  F   UNL A   1      33.603  31.371  28.082  1.00  0.00    -0.207 F 
ENDBRANCH  76  77
ENDBRANCH  73  76
ENDBRANCH  66  69
ENDBRANCH  64  65
ENDBRANCH  63  64
ENDBRANCH   1  63
TORSDOF 13
ENDMDL
MODEL 3
REMARK VINA RESULT:     -11.7      5.328      9.943
REMARK SMILES O=C(NCCCCNC(=O)[C@@H]1CCC[N@@H+](Cc2ccc(F)cc2Cl)C1)c1ccc(-c2c3nc(c(-c4c(F)cccc4F)c4ccc([nH]4)c(-c4c(F)cccc4F)c4nc(c(-c5c(F)cccc5F)c5ccc2[nH]5)C=C4)C=C3)cc1
REMARK SMILES IDX 5 1 4 2 3 3 1 4 2 5 26 7 27 8 79 9 28 10 78 11 29 12 30 13
REMARK SMILES IDX 31 14 72 15 32 16 77 17 71 18 73 19 33 20 76 21 70 22 69 23
REMARK SMILES IDX 34 25 60 26 43 27 59 28 44 29 47 30 58 31 74 32 45 33 46 34
REMARK SMILES IDX 57 36 75 37 48 38 35 39 36 40 41 41 37 42 38 43 40 44 42 45
REMARK SMILES IDX 39 46 61 47 62 48 67 49 63 50 64 51 66 52 68 53 65 54 49 55
REMARK SMILES IDX 50 56 55 57 51 58 52 59 54 60 56 61 53 62 6 63 7 64 8 65
REMARK SMILES IDX 9 66 10 68 11 69 12 70 25 71 13 72 15 73 14 74 16 76 17 77
REMARK SMILES IDX 18 78 23 79 19 80 22 81 24 82 20 83 21 84
REMARK H PARENT 3 6 73 24 47 35 8 67 15 75
REMARK Flexibility Score: inf
ROOT
ATOM      1  C   UNL A   1      31.220  32.121  26.581  1.00  0.00     0.023 C 
ENDROOT
BRANCH   1   2
ATOM      2  C   UNL A   1      32.415  33.050  26.749  1.00  0.00     0.116 C 
BRANCH   2   3
ATOM      3  N   UNL A   1      32.192  34.190  27.630  1.00  0.00    -0.352 N 
ATOM      4  O   UNL A   1      32.695  35.537  29.394  1.00  0.00    -0.269 OA
ATOM      5  C   UNL A   1      33.004  34.604  28.667  1.00  0.00     0.251 C 
ATOM      6  H   UNL A   1      31.377  34.719  27.469  1.00  0.00     0.163 HD
BRANCH   5   7
ATOM      7  C   UNL A   1      34.245  33.839  28.909  1.00  0.00     0.039 A 
ATOM      8  C   UNL A   1      34.169  32.590  29.523  1.00  0.00     0.014 A 
ATOM      9  C   UNL A   1      35.481  34.441  28.662  1.00  0.00     0.014 A 
ATOM     10  C   UNL A   1      35.315  32.034  30.069  1.00  0.00     0.010 A 
ATOM     11  C   UNL A   1      36.647  33.826  29.128  1.00  0.00     0.010 A 
ATOM     12  C   UNL A   1      36.567  32.649  29.885  1.00  0.00    -0.014 A 
BRANCH  12  13
ATOM     13  C   UNL A   1      37.761  32.017  30.501  1.00  0.00     0.031 A 
ATOM     14  C   UNL A   1      38.154  32.301  31.925  1.00  0.00     0.074 A 
ATOM     15  C   UNL A   1      38.437  31.099  29.783  1.00  0.00     0.049 A 
ATOM     16  N   UNL A   1      39.125  31.775  32.628  1.00  0.00    -0.248 NA
ATOM     17  C   UNL A   1      37.365  33.307  32.654  1.00  0.00     0.031 C 
ATOM     18  C   UNL A   1      38.151  30.745  28.390  1.00  0.00     0.029 A 
ATOM     19  N   UNL A   1      39.463  30.262  30.134  1.00  0.00    -0.354 N 
ATOM     20  C   UNL A   1      39.086  32.404  33.867  1.00  0.00     0.074 A 
ATOM     21  C   UNL A   1      37.998  33.358  33.819  1.00  0.00     0.031 C 
ATOM     22  C   UNL A   1      38.926  29.713  28.032  1.00  0.00     0.029 A 
ATOM     23  C   UNL A   1      39.802  29.373  29.146  1.00  0.00     0.049 A 
ATOM     24  H   UNL A   1      39.913  30.296  31.010  1.00  0.00     0.167 HD
ATOM     25  C   UNL A   1      39.882  32.199  34.944  1.00  0.00     0.037 A 
ATOM     26  C   UNL A   1      40.718  28.388  29.134  1.00  0.00     0.037 A 
ATOM     27  C   UNL A   1      40.945  31.228  34.999  1.00  0.00     0.049 A 
ATOM     28  C   UNL A   1      41.553  28.153  30.355  1.00  0.00     0.074 A 
ATOM     29  C   UNL A   1      41.813  30.954  36.041  1.00  0.00     0.029 A 
ATOM     30  N   UNL A   1      41.271  30.358  33.969  1.00  0.00    -0.354 N 
ATOM     31  N   UNL A   1      41.518  28.777  31.507  1.00  0.00    -0.248 NA
ATOM     32  C   UNL A   1      42.560  27.088  30.272  1.00  0.00     0.031 C 
ATOM     33  C   UNL A   1      42.679  29.932  35.636  1.00  0.00     0.029 A 
ATOM     34  C   UNL A   1      42.328  29.548  34.351  1.00  0.00     0.049 A 
ATOM     35  H   UNL A   1      40.819  30.322  33.096  1.00  0.00     0.167 HD
ATOM     36  C   UNL A   1      42.509  28.194  32.282  1.00  0.00     0.074 A 
ATOM     37  C   UNL A   1      43.098  27.137  31.483  1.00  0.00     0.031 C 
ATOM     38  C   UNL A   1      42.910  28.516  33.535  1.00  0.00     0.037 A 
BRANCH  25  39
ATOM     39  C   UNL A   1      39.649  33.054  36.154  1.00  0.00     0.057 A 
ATOM     40  C   UNL A   1      38.786  32.657  37.183  1.00  0.00     0.134 A 
ATOM     41  C   UNL A   1      40.342  34.260  36.319  1.00  0.00     0.134 A 
ATOM     42  F   UNL A   1      38.083  31.520  37.079  1.00  0.00    -0.206 F 
ATOM     43  C   UNL A   1      38.615  33.434  38.331  1.00  0.00     0.040 A 
ATOM     44  C   UNL A   1      40.193  35.036  37.470  1.00  0.00     0.040 A 
ATOM     45  F   UNL A   1      41.187  34.695  35.373  1.00  0.00    -0.206 F 
ATOM     46  C   UNL A   1      39.326  34.623  38.480  1.00  0.00     0.006 A 
ENDBRANCH  25  39
BRANCH  26  47
ATOM     47  C   UNL A   1      40.883  27.560  27.916  1.00  0.00     0.057 A 
ATOM     48  C   UNL A   1      41.746  27.949  26.888  1.00  0.00     0.134 A 
ATOM     49  C   UNL A   1      40.211  26.340  27.773  1.00  0.00     0.134 A 
ATOM     50  F   UNL A   1      42.407  29.114  26.964  1.00  0.00    -0.206 F 
ATOM     51  C   UNL A   1      41.934  27.156  25.756  1.00  0.00     0.040 A 
ATOM     52  C   UNL A   1      40.406  25.526  26.660  1.00  0.00     0.040 A 
ATOM     53  F   UNL A   1      39.378  25.911  28.733  1.00  0.00    -0.206 F 
ATOM     54  C   UNL A   1      41.268  25.936  25.644  1.00  0.00     0.006 A 
ENDBRANCH  26  47
BRANCH  38  55
ATOM     55  C   UNL A   1      44.047  27.723  34.097  1.00  0.00     0.057 A 
ATOM     56  C   UNL A   1      45.372  28.155  33.960  1.00  0.00     0.134 A 
ATOM     57  C   UNL A   1      43.819  26.521  34.778  1.00  0.00     0.134 A 
ATOM     58  F   UNL A   1      45.652  29.291  33.304  1.00  0.00    -0.206 F 
ATOM     59  C   UNL A   1      46.436  27.405  34.462  1.00  0.00     0.040 A 
ATOM     60  C   UNL A   1      44.874  25.772  35.299  1.00  0.00     0.040 A 
ATOM     61  F   UNL A   1      42.571  26.058  34.943  1.00  0.00    -0.206 F 
ATOM     62  C   UNL A   1      46.187  26.211  35.136  1.00  0.00     0.006 A 
ENDBRANCH  38  55
ENDBRANCH  12  13
ENDBRANCH   5   7
ENDBRANCH   2   3
ENDBRANCH   1   2
BRANCH   1  63
ATOM     63  C   UNL A   1      31.586  30.653  26.387  1.00  0.00     0.023 C 
BRANCH  63  64
ATOM     64  C   UNL A   1      33.035  30.290  26.711  1.00  0.00     0.116 C 
BRANCH  64  65
ATOM     65  N   UNL A   1      33.714  29.651  25.606  1.00  0.00    -0.356 N 
ATOM     66  C   UNL A   1      33.632  28.395  25.104  1.00  0.00     0.228 C 
ATOM     67  H   UNL A   1      34.351  30.234  25.133  1.00  0.00     0.163 HD
ATOM     68  O   UNL A   1      34.322  28.168  24.102  1.00  0.00    -0.275 OA
BRANCH  66  69
ATOM     69  C   UNL A   1      32.744  27.280  25.667  1.00  0.00     0.133 C 
ATOM     70  C   UNL A   1      33.318  25.866  25.534  1.00  0.00     0.025 C 
ATOM     71  C   UNL A   1      31.248  27.387  25.362  1.00  0.00     0.276 C 
ATOM     72  C   UNL A   1      32.706  25.020  24.424  1.00  0.00     0.062 C 
ATOM     73  N   UNL A   1      30.821  26.608  24.200  1.00  0.00    -0.330 N 
ATOM     74  C   UNL A   1      31.193  25.198  24.291  1.00  0.00     0.262 C 
ATOM     75  H   UNL A   1      31.366  26.967  23.416  1.00  0.00     0.348 HD
BRANCH  73  76
ATOM     76  C   UNL A   1      29.430  26.857  23.788  1.00  0.00     0.300 C 
BRANCH  76  77
ATOM     77  C   UNL A   1      29.142  28.151  23.058  1.00  0.00     0.025 A 
ATOM     78  C   UNL A   1      30.191  28.808  22.388  1.00  0.00     0.014 A 
ATOM     79  C   UNL A   1      27.857  28.729  23.019  1.00  0.00     0.052 A 
ATOM     80  C   UNL A   1      29.971  30.019  21.732  1.00  0.00     0.040 A 
ATOM     81  C   UNL A   1      27.639  29.938  22.356  1.00  0.00     0.060 A 
ATOM     82  Cl  UNL A   1      26.483  27.993  23.768  1.00  0.00    -0.084 Cl
ATOM     83  C   UNL A   1      28.699  30.573  21.727  1.00  0.00     0.124 A 
ATOM     84  F   UNL A   1      28.490  31.738  21.101  1.00  0.00    -0.207 F 
ENDBRANCH  76  77
ENDBRANCH  73  76
ENDBRANCH  66  69
ENDBRANCH  64  65
ENDBRANCH  63  64
ENDBRANCH   1  63
TORSDOF 13
ENDMDL
