MODEL 1
REMARK VINA RESULT:     -11.4      0.000      0.000
REMARK SMILES CCC(CC)(NC(=O)c1ccc(NC(C)=O)cc1)C(=O)NCCCCNC(=O)c1ccc(-c2c3nc(c(-c4c(F)cccc4F)c4ccc([nH]4)c(-c4c(F)cccc4F)c4nc(c(-c5c(F)cccc5F)c5ccc2[nH]5)C=C4)C=C3)cc1
REMARK SMILES IDX 23 1 22 2 21 3 19 4 20 5 3 7 2 8 1 9 4 10 5 11 6 12 7 13
REMARK SMILES IDX 8 15 9 16 10 17 18 18 11 19 17 20 12 21 13 22 14 23 15 25
REMARK SMILES IDX 16 26 24 27 25 28 26 29 27 30 28 32 29 33 30 34 82 35 31 36
REMARK SMILES IDX 81 37 32 38 33 39 34 40 75 41 35 42 80 43 74 44 76 45 36 46
REMARK SMILES IDX 79 47 73 48 72 49 37 51 63 52 46 53 62 54 47 55 50 56 61 57
REMARK SMILES IDX 77 58 48 59 49 60 60 62 78 63 51 64 38 65 39 66 44 67 40 68
REMARK SMILES IDX 41 69 43 70 45 71 42 72 64 73 65 74 70 75 66 76 67 77 69 78
REMARK SMILES IDX 71 79 68 80 52 81 53 82 58 83 54 84 55 85 57 86 59 87 56 88
REMARK H PARENT 21 6 6 14 13 24 26 31 76 50 50 61
REMARK Flexibility Score: inf
ROOT
ATOM      1  C   UNL A   1      31.260  30.734  25.677  1.00  0.00     0.023 C 
ENDROOT
BRANCH   1   2
ATOM      2  C   UNL A   1      32.449  29.782  25.807  1.00  0.00     0.116 C 
BRANCH   2   3
ATOM      3  N   UNL A   1      33.361  29.664  24.680  1.00  0.00    -0.354 N 
ATOM      4  C   UNL A   1      33.483  28.757  23.660  1.00  0.00     0.245 C 
ATOM      5  O   UNL A   1      34.153  29.139  22.694  1.00  0.00    -0.272 OA
ATOM      6  H   UNL A   1      34.030  30.387  24.641  1.00  0.00     0.163 HD
BRANCH   4   7
ATOM      7  C   UNL A   1      32.766  27.367  23.657  1.00  0.00     0.118 C 
BRANCH   7   8
ATOM      8  C   UNL A   1      31.340  27.372  24.289  1.00  0.00     0.035 C 
ATOM      9  C   UNL A   1      30.140  27.655  23.397  1.00  0.00     0.007 C 
ENDBRANCH   7   8
BRANCH   7  10
ATOM     10  C   UNL A   1      33.751  26.510  24.525  1.00  0.00     0.035 C 
ATOM     11  C   UNL A   1      33.212  25.850  25.782  1.00  0.00     0.007 C 
ENDBRANCH   7  10
BRANCH   7  12
ATOM     12  N   UNL A   1      32.596  26.788  22.285  1.00  0.00    -0.338 N 
ATOM     13  C   UNL A   1      32.863  25.543  21.721  1.00  0.00     0.252 C 
ATOM     14  H   UNL A   1      32.214  27.428  21.641  1.00  0.00     0.164 HD
ATOM     15  O   UNL A   1      33.126  25.554  20.515  1.00  0.00    -0.269 OA
BRANCH  13  16
ATOM     16  C   UNL A   1      32.752  24.198  22.395  1.00  0.00     0.039 A 
ATOM     17  C   UNL A   1      31.562  23.832  23.053  1.00  0.00     0.016 A 
ATOM     18  C   UNL A   1      33.815  23.328  22.553  1.00  0.00     0.016 A 
ATOM     19  C   UNL A   1      31.490  22.680  23.882  1.00  0.00     0.027 A 
ATOM     20  C   UNL A   1      33.769  22.206  23.374  1.00  0.00     0.027 A 
ATOM     21  C   UNL A   1      32.617  21.882  24.070  1.00  0.00     0.041 A 
BRANCH  21  22
ATOM     22  N   UNL A   1      32.745  20.776  24.923  1.00  0.00    -0.326 N 
ATOM     23  C   UNL A   1      32.593  19.439  24.652  1.00  0.00     0.221 C 
ATOM     24  H   UNL A   1      32.978  20.991  25.856  1.00  0.00     0.169 HD
ATOM     25  C   UNL A   1      32.763  18.593  25.894  1.00  0.00     0.114 C 
ATOM     26  O   UNL A   1      32.361  18.938  23.553  1.00  0.00    -0.275 OA
ENDBRANCH  21  22
ENDBRANCH  13  16
ENDBRANCH   7  12
ENDBRANCH   4   7
ENDBRANCH   2   3
ENDBRANCH   1   2
BRANCH   1  27
ATOM     27  C   UNL A   1      31.206  31.955  26.589  1.00  0.00     0.023 C 
BRANCH  27  28
ATOM     28  C   UNL A   1      32.535  32.589  26.955  1.00  0.00     0.116 C 
BRANCH  28  29
ATOM     29  N   UNL A   1      32.395  33.930  27.490  1.00  0.00    -0.352 N 
ATOM     30  C   UNL A   1      33.107  34.546  28.488  1.00  0.00     0.251 C 
ATOM     31  H   UNL A   1      31.687  34.476  27.078  1.00  0.00     0.163 HD
ATOM     32  O   UNL A   1      32.752  35.652  28.897  1.00  0.00    -0.269 OA
BRANCH  30  33
ATOM     33  C   UNL A   1      34.282  33.883  29.094  1.00  0.00     0.039 A 
ATOM     34  C   UNL A   1      35.561  34.302  28.710  1.00  0.00     0.014 A 
ATOM     35  C   UNL A   1      34.137  32.842  30.014  1.00  0.00     0.014 A 
ATOM     36  C   UNL A   1      36.689  33.709  29.280  1.00  0.00     0.010 A 
ATOM     37  C   UNL A   1      35.261  32.301  30.636  1.00  0.00     0.010 A 
ATOM     38  C   UNL A   1      36.547  32.719  30.266  1.00  0.00    -0.014 A 
BRANCH  38  39
ATOM     39  C   UNL A   1      37.732  32.084  30.894  1.00  0.00     0.031 A 
ATOM     40  C   UNL A   1      38.471  30.991  30.169  1.00  0.00     0.074 A 
ATOM     41  C   UNL A   1      38.110  32.445  32.135  1.00  0.00     0.049 A 
ATOM     42  N   UNL A   1      39.480  30.262  30.576  1.00  0.00    -0.248 NA
ATOM     43  C   UNL A   1      37.992  30.651  28.821  1.00  0.00     0.031 C 
ATOM     44  C   UNL A   1      37.452  33.461  32.959  1.00  0.00     0.029 A 
ATOM     45  N   UNL A   1      39.137  31.991  32.923  1.00  0.00    -0.354 N 
ATOM     46  C   UNL A   1      39.739  29.368  29.546  1.00  0.00     0.074 A 
ATOM     47  C   UNL A   1      38.752  29.611  28.516  1.00  0.00     0.031 C 
ATOM     48  C   UNL A   1      38.106  33.569  34.127  1.00  0.00     0.029 A 
ATOM     49  C   UNL A   1      39.208  32.610  34.147  1.00  0.00     0.049 A 
ATOM     50  H   UNL A   1      39.765  31.288  32.639  1.00  0.00     0.167 HD
ATOM     51  C   UNL A   1      40.723  28.443  29.455  1.00  0.00     0.037 A 
ATOM     52  C   UNL A   1      40.062  32.424  35.171  1.00  0.00     0.037 A 
ATOM     53  C   UNL A   1      41.730  28.232  30.461  1.00  0.00     0.049 A 
ATOM     54  C   UNL A   1      41.155  31.401  35.040  1.00  0.00     0.074 A 
ATOM     55  C   UNL A   1      42.812  27.369  30.432  1.00  0.00     0.029 A 
ATOM     56  N   UNL A   1      41.780  28.895  31.678  1.00  0.00    -0.354 N 
ATOM     57  N   UNL A   1      41.425  30.604  34.035  1.00  0.00    -0.248 NA
ATOM     58  C   UNL A   1      42.066  31.254  36.185  1.00  0.00     0.031 C 
ATOM     59  C   UNL A   1      43.496  27.484  31.647  1.00  0.00     0.029 A 
ATOM     60  C   UNL A   1      42.864  28.447  32.415  1.00  0.00     0.049 A 
ATOM     61  H   UNL A   1      41.141  29.583  31.973  1.00  0.00     0.167 HD
ATOM     62  C   UNL A   1      42.551  29.882  34.414  1.00  0.00     0.074 A 
ATOM     63  C   UNL A   1      42.919  30.344  35.736  1.00  0.00     0.031 C 
ATOM     64  C   UNL A   1      43.219  28.924  33.727  1.00  0.00     0.037 A 
BRANCH  51  65
ATOM     65  C   UNL A   1      40.761  27.591  28.220  1.00  0.00     0.057 A 
ATOM     66  C   UNL A   1      41.479  27.972  27.080  1.00  0.00     0.134 A 
ATOM     67  C   UNL A   1      40.090  26.361  28.179  1.00  0.00     0.134 A 
ATOM     68  F   UNL A   1      42.131  29.145  27.048  1.00  0.00    -0.206 F 
ATOM     69  C   UNL A   1      41.509  27.175  25.934  1.00  0.00     0.040 A 
ATOM     70  C   UNL A   1      40.135  25.544  27.049  1.00  0.00     0.040 A 
ATOM     71  F   UNL A   1      39.388  25.933  29.239  1.00  0.00    -0.206 F 
ATOM     72  C   UNL A   1      40.840  25.953  25.919  1.00  0.00     0.006 A 
ENDBRANCH  51  65
BRANCH  52  73
ATOM     73  C   UNL A   1      39.939  33.248  36.399  1.00  0.00     0.057 A 
ATOM     74  C   UNL A   1      40.685  34.422  36.556  1.00  0.00     0.134 A 
ATOM     75  C   UNL A   1      39.079  32.883  37.443  1.00  0.00     0.134 A 
ATOM     76  F   UNL A   1      41.539  34.809  35.598  1.00  0.00    -0.206 F 
ATOM     77  C   UNL A   1      40.594  35.196  37.713  1.00  0.00     0.040 A 
ATOM     78  C   UNL A   1      38.960  33.662  38.595  1.00  0.00     0.040 A 
ATOM     79  F   UNL A   1      38.333  31.772  37.349  1.00  0.00    -0.206 F 
ATOM     80  C   UNL A   1      39.725  34.819  38.734  1.00  0.00     0.006 A 
ENDBRANCH  52  73
BRANCH  64  81
ATOM     81  C   UNL A   1      44.433  28.334  34.380  1.00  0.00     0.057 A 
ATOM     82  C   UNL A   1      44.362  27.172  35.158  1.00  0.00     0.134 A 
ATOM     83  C   UNL A   1      45.694  28.915  34.194  1.00  0.00     0.134 A 
ATOM     84  F   UNL A   1      43.180  26.577  35.383  1.00  0.00    -0.206 F 
ATOM     85  C   UNL A   1      45.500  26.618  35.745  1.00  0.00     0.040 A 
ATOM     86  C   UNL A   1      46.843  28.357  34.756  1.00  0.00     0.040 A 
ATOM     87  F   UNL A   1      45.831  30.024  33.453  1.00  0.00    -0.206 F 
ATOM     88  C   UNL A   1      46.746  27.207  35.538  1.00  0.00     0.006 A 
ENDBRANCH  64  81
ENDBRANCH  38  39
ENDBRANCH  30  33
ENDBRANCH  28  29
ENDBRANCH  27  28
ENDBRANCH   1  27
TORSDOF 16
ENDMDL
MODEL 2
REMARK VINA RESULT:     -11.4      0.496      6.319
REMARK SMILES CCC(CC)(NC(=O)c1ccc(NC(C)=O)cc1)C(=O)NCCCCNC(=O)c1ccc(-c2c3nc(c(-c4c(F)cccc4F)c4ccc([nH]4)c(-c4c(F)cccc4F)c4nc(c(-c5c(F)cccc5F)c5ccc2[nH]5)C=C4)C=C3)cc1
REMARK SMILES IDX 23 1 22 2 21 3 19 4 20 5 3 7 2 8 1 9 4 10 5 11 6 12 7 13
REMARK SMILES IDX 8 15 9 16 10 17 18 18 11 19 17 20 12 21 13 22 14 23 15 25
REMARK SMILES IDX 16 26 24 27 25 28 26 29 27 30 28 32 29 33 30 34 82 35 31 36
REMARK SMILES IDX 81 37 32 38 33 39 34 40 75 41 35 42 80 43 74 44 76 45 36 46
REMARK SMILES IDX 79 47 73 48 72 49 37 51 63 52 46 53 62 54 47 55 50 56 61 57
REMARK SMILES IDX 77 58 48 59 49 60 60 62 78 63 51 64 38 65 39 66 44 67 40 68
REMARK SMILES IDX 41 69 43 70 45 71 42 72 64 73 65 74 70 75 66 76 67 77 69 78
REMARK SMILES IDX 71 79 68 80 52 81 53 82 58 83 54 84 55 85 57 86 59 87 56 88
REMARK H PARENT 21 6 6 14 13 24 26 31 76 50 50 61
REMARK Flexibility Score: inf
ROOT
ATOM      1  C   UNL A   1      31.275  30.853  25.692  1.00  0.00     0.023 C 
ENDROOT
BRANCH   1   2
ATOM      2  C   UNL A   1      32.471  29.908  25.803  1.00  0.00     0.116 C 
BRANCH   2   3
ATOM      3  N   UNL A   1      33.292  29.699  24.621  1.00  0.00    -0.354 N 
ATOM      4  C   UNL A   1      33.327  28.721  23.661  1.00  0.00     0.245 C 
ATOM      5  O   UNL A   1      33.925  29.025  22.623  1.00  0.00    -0.272 OA
ATOM      6  H   UNL A   1      33.963  30.407  24.481  1.00  0.00     0.163 HD
BRANCH   4   7
ATOM      7  C   UNL A   1      32.599  27.346  23.810  1.00  0.00     0.118 C 
BRANCH   7   8
ATOM      8  C   UNL A   1      31.121  27.445  24.300  1.00  0.00     0.035 C 
ATOM      9  C   UNL A   1      30.028  27.750  23.286  1.00  0.00     0.007 C 
ENDBRANCH   7   8
BRANCH   7  10
ATOM     10  C   UNL A   1      33.490  26.639  24.889  1.00  0.00     0.035 C 
ATOM     11  C   UNL A   1      32.812  26.078  26.126  1.00  0.00     0.007 C 
ENDBRANCH   7  10
BRANCH   7  12
ATOM     12  N   UNL A   1      32.548  26.557  22.536  1.00  0.00    -0.338 N 
ATOM     13  C   UNL A   1      32.995  25.292  22.164  1.00  0.00     0.252 C 
ATOM     14  H   UNL A   1      32.105  27.040  21.802  1.00  0.00     0.164 HD
ATOM     15  O   UNL A   1      33.290  25.165  20.972  1.00  0.00    -0.269 OA
BRANCH  13  16
ATOM     16  C   UNL A   1      33.042  24.056  23.027  1.00  0.00     0.039 A 
ATOM     17  C   UNL A   1      34.266  23.399  23.256  1.00  0.00     0.016 A 
ATOM     18  C   UNL A   1      31.917  23.408  23.503  1.00  0.00     0.016 A 
ATOM     19  C   UNL A   1      34.325  22.120  23.873  1.00  0.00     0.027 A 
ATOM     20  C   UNL A   1      31.953  22.148  24.093  1.00  0.00     0.027 A 
ATOM     21  C   UNL A   1      33.152  21.477  24.261  1.00  0.00     0.041 A 
BRANCH  21  22
ATOM     22  N   UNL A   1      33.024  20.183  24.789  1.00  0.00    -0.326 N 
ATOM     23  C   UNL A   1      32.610  19.026  24.177  1.00  0.00     0.221 C 
ATOM     24  H   UNL A   1      33.268  20.091  25.739  1.00  0.00     0.169 HD
ATOM     25  C   UNL A   1      32.565  17.865  25.146  1.00  0.00     0.114 C 
ATOM     26  O   UNL A   1      32.313  18.892  22.991  1.00  0.00    -0.275 OA
ENDBRANCH  21  22
ENDBRANCH  13  16
ENDBRANCH   7  12
ENDBRANCH   4   7
ENDBRANCH   2   3
ENDBRANCH   1   2
BRANCH   1  27
ATOM     27  C   UNL A   1      31.247  32.094  26.579  1.00  0.00     0.023 C 
BRANCH  27  28
ATOM     28  C   UNL A   1      32.588  32.610  27.068  1.00  0.00     0.116 C 
BRANCH  28  29
ATOM     29  N   UNL A   1      32.521  33.966  27.580  1.00  0.00    -0.352 N 
ATOM     30  C   UNL A   1      33.282  34.567  28.549  1.00  0.00     0.251 C 
ATOM     31  H   UNL A   1      31.829  34.537  27.172  1.00  0.00     0.163 HD
ATOM     32  O   UNL A   1      32.988  35.696  28.944  1.00  0.00    -0.269 OA
BRANCH  30  33
ATOM     33  C   UNL A   1      34.439  33.862  29.144  1.00  0.00     0.039 A 
ATOM     34  C   UNL A   1      34.200  32.851  30.081  1.00  0.00     0.014 A 
ATOM     35  C   UNL A   1      35.751  34.201  28.804  1.00  0.00     0.014 A 
ATOM     36  C   UNL A   1      35.272  32.155  30.643  1.00  0.00     0.010 A 
ATOM     37  C   UNL A   1      36.815  33.458  29.310  1.00  0.00     0.010 A 
ATOM     38  C   UNL A   1      36.588  32.438  30.244  1.00  0.00    -0.014 A 
BRANCH  38  39
ATOM     39  C   UNL A   1      37.741  31.701  30.820  1.00  0.00     0.031 A 
ATOM     40  C   UNL A   1      38.221  32.025  32.209  1.00  0.00     0.074 A 
ATOM     41  C   UNL A   1      38.392  30.786  30.078  1.00  0.00     0.049 A 
ATOM     42  N   UNL A   1      39.251  31.549  32.861  1.00  0.00    -0.248 NA
ATOM     43  C   UNL A   1      37.458  33.040  32.952  1.00  0.00     0.031 C 
ATOM     44  C   UNL A   1      38.053  30.413  28.703  1.00  0.00     0.029 A 
ATOM     45  N   UNL A   1      39.484  30.009  30.374  1.00  0.00    -0.354 N 
ATOM     46  C   UNL A   1      39.272  32.222  34.076  1.00  0.00     0.074 A 
ATOM     47  C   UNL A   1      38.182  33.172  34.053  1.00  0.00     0.031 C 
ATOM     48  C   UNL A   1      38.903  29.461  28.285  1.00  0.00     0.029 A 
ATOM     49  C   UNL A   1      39.866  29.181  29.346  1.00  0.00     0.049 A 
ATOM     50  H   UNL A   1      39.949  30.041  31.241  1.00  0.00     0.167 HD
ATOM     51  C   UNL A   1      40.109  32.048  35.126  1.00  0.00     0.037 A 
ATOM     52  C   UNL A   1      40.880  28.299  29.269  1.00  0.00     0.037 A 
ATOM     53  C   UNL A   1      41.166  31.072  35.165  1.00  0.00     0.049 A 
ATOM     54  C   UNL A   1      41.787  28.114  30.453  1.00  0.00     0.074 A 
ATOM     55  C   UNL A   1      42.023  30.770  36.209  1.00  0.00     0.029 A 
ATOM     56  N   UNL A   1      41.507  30.237  34.112  1.00  0.00    -0.354 N 
ATOM     57  N   UNL A   1      41.757  28.714  31.618  1.00  0.00    -0.248 NA
ATOM     58  C   UNL A   1      42.866  27.125  30.313  1.00  0.00     0.031 C 
ATOM     59  C   UNL A   1      42.907  29.776  35.774  1.00  0.00     0.029 A 
ATOM     60  C   UNL A   1      42.574  29.432  34.474  1.00  0.00     0.049 A 
ATOM     61  H   UNL A   1      41.057  30.219  33.236  1.00  0.00     0.167 HD
ATOM     62  C   UNL A   1      42.794  28.157  32.358  1.00  0.00     0.074 A 
ATOM     63  C   UNL A   1      43.424  27.164  31.514  1.00  0.00     0.031 C 
ATOM     64  C   UNL A   1      43.185  28.444  33.624  1.00  0.00     0.037 A 
BRANCH  51  65
ATOM     65  C   UNL A   1      39.912  32.932  36.323  1.00  0.00     0.057 A 
ATOM     66  C   UNL A   1      38.959  32.642  37.307  1.00  0.00     0.134 A 
ATOM     67  C   UNL A   1      40.701  34.075  36.505  1.00  0.00     0.134 A 
ATOM     68  F   UNL A   1      38.161  31.570  37.185  1.00  0.00    -0.206 F 
ATOM     69  C   UNL A   1      38.780  33.469  38.417  1.00  0.00     0.040 A 
ATOM     70  C   UNL A   1      40.549  34.895  37.624  1.00  0.00     0.040 A 
ATOM     71  F   UNL A   1      41.636  34.408  35.602  1.00  0.00    -0.206 F 
ATOM     72  C   UNL A   1      39.581  34.597  38.581  1.00  0.00     0.006 A 
ENDBRANCH  51  65
BRANCH  52  73
ATOM     73  C   UNL A   1      41.073  27.497  28.035  1.00  0.00     0.057 A 
ATOM     74  C   UNL A   1      40.447  26.255  27.879  1.00  0.00     0.134 A 
ATOM     75  C   UNL A   1      41.884  27.949  26.987  1.00  0.00     0.134 A 
ATOM     76  F   UNL A   1      39.674  25.763  28.858  1.00  0.00    -0.206 F 
ATOM     77  C   UNL A   1      40.633  25.481  26.733  1.00  0.00     0.040 A 
ATOM     78  C   UNL A   1      42.060  27.196  25.824  1.00  0.00     0.040 A 
ATOM     79  F   UNL A   1      42.505  29.134  27.074  1.00  0.00    -0.206 F 
ATOM     80  C   UNL A   1      41.438  25.955  25.699  1.00  0.00     0.006 A 
ENDBRANCH  52  73
BRANCH  64  81
ATOM     81  C   UNL A   1      44.329  27.651  34.182  1.00  0.00     0.057 A 
ATOM     82  C   UNL A   1      45.649  28.115  34.118  1.00  0.00     0.134 A 
ATOM     83  C   UNL A   1      44.101  26.429  34.828  1.00  0.00     0.134 A 
ATOM     84  F   UNL A   1      45.933  29.272  33.501  1.00  0.00    -0.206 F 
ATOM     85  C   UNL A   1      46.705  27.380  34.658  1.00  0.00     0.040 A 
ATOM     86  C   UNL A   1      45.146  25.697  35.393  1.00  0.00     0.040 A 
ATOM     87  F   UNL A   1      42.858  25.934  34.930  1.00  0.00    -0.206 F 
ATOM     88  C   UNL A   1      46.454  26.172  35.305  1.00  0.00     0.006 A 
ENDBRANCH  64  81
ENDBRANCH  38  39
ENDBRANCH  30  33
ENDBRANCH  28  29
ENDBRANCH  27  28
ENDBRANCH   1  27
TORSDOF 16
ENDMDL
MODEL 3
REMARK VINA RESULT:     -11.1      4.251      8.707
REMARK SMILES CCC(CC)(NC(=O)c1ccc(NC(C)=O)cc1)C(=O)NCCCCNC(=O)c1ccc(-c2c3nc(c(-c4c(F)cccc4F)c4ccc([nH]4)c(-c4c(F)cccc4F)c4nc(c(-c5c(F)cccc5F)c5ccc2[nH]5)C=C4)C=C3)cc1
REMARK SMILES IDX 23 1 22 2 21 3 19 4 20 5 3 7 2 8 1 9 4 10 5 11 6 12 7 13
REMARK SMILES IDX 8 15 9 16 10 17 18 18 11 19 17 20 12 21 13 22 14 23 15 25
REMARK SMILES IDX 16 26 24 27 25 28 26 29 27 30 28 32 29 33 30 34 82 35 31 36
REMARK SMILES IDX 81 37 32 38 33 39 34 40 75 41 35 42 80 43 74 44 76 45 36 46
REMARK SMILES IDX 79 47 73 48 72 49 37 51 63 52 46 53 62 54 47 55 50 56 61 57
REMARK SMILES IDX 77 58 48 59 49 60 60 62 78 63 51 64 38 65 39 66 44 67 40 68
REMARK SMILES IDX 41 69 43 70 45 71 42 72 64 73 65 74 70 75 66 76 67 77 69 78
REMARK SMILES IDX 71 79 68 80 52 81 53 82 58 83 54 84 55 85 57 86 59 87 56 88
REMARK H PARENT 21 6 6 14 13 24 26 31 76 50 50 61
REMARK Flexibility Score: inf
ROOT
ATOM      1  C   UNL A   1      38.158  22.728  25.737  1.00  0.00     0.023 C 
ENDROOT
BRANCH   1   2
ATOM      2  C   UNL A   1      36.797  23.424  25.724  1.00  0.00     0.116 C 
BRANCH   2   3
ATOM      3  N   UNL A   1      35.778  22.956  26.649  1.00  0.00    -0.354 N 
ATOM      4  C   UNL A   1      34.415  23.095  26.695  1.00  0.00     0.245 C 
ATOM      5  O   UNL A   1      33.829  22.295  27.434  1.00  0.00    -0.272 OA
ATOM      6  H   UNL A   1      36.141  22.430  27.398  1.00  0.00     0.163 HD
BRANCH   4   7
ATOM      7  C   UNL A   1      33.626  24.125  25.822  1.00  0.00     0.118 C 
BRANCH   7   8
ATOM      8  C   UNL A   1      34.007  25.616  26.078  1.00  0.00     0.035 C 
ATOM      9  C   UNL A   1      32.895  26.647  26.218  1.00  0.00     0.007 C 
ENDBRANCH   7   8
BRANCH   7  10
ATOM     10  C   UNL A   1      32.151  23.849  26.275  1.00  0.00     0.035 C 
ATOM     11  C   UNL A   1      31.100  23.624  25.202  1.00  0.00     0.007 C 
ENDBRANCH   7  10
BRANCH   7  12
ATOM     12  N   UNL A   1      33.798  23.913  24.348  1.00  0.00    -0.338 N 
ATOM     13  C   UNL A   1      34.166  22.821  23.566  1.00  0.00     0.252 C 
ATOM     14  H   UNL A   1      33.612  24.722  23.818  1.00  0.00     0.164 HD
ATOM     15  O   UNL A   1      34.731  23.099  22.503  1.00  0.00    -0.269 OA
BRANCH  13  16
ATOM     16  C   UNL A   1      33.848  21.370  23.824  1.00  0.00     0.039 A 
ATOM     17  C   UNL A   1      32.595  20.844  23.458  1.00  0.00     0.016 A 
ATOM     18  C   UNL A   1      34.662  20.524  24.555  1.00  0.00     0.016 A 
ATOM     19  C   UNL A   1      32.174  19.553  23.878  1.00  0.00     0.027 A 
ATOM     20  C   UNL A   1      34.261  19.265  24.990  1.00  0.00     0.027 A 
ATOM     21  C   UNL A   1      33.004  18.774  24.681  1.00  0.00     0.041 A 
BRANCH  21  22
ATOM     22  N   UNL A   1      32.707  17.531  25.260  1.00  0.00    -0.326 N 
ATOM     23  C   UNL A   1      33.029  16.267  24.831  1.00  0.00     0.221 C 
ATOM     24  H   UNL A   1      32.191  17.571  26.098  1.00  0.00     0.169 HD
ATOM     25  C   UNL A   1      32.447  15.204  25.737  1.00  0.00     0.114 C 
ATOM     26  O   UNL A   1      33.711  15.980  23.849  1.00  0.00    -0.275 OA
ENDBRANCH  21  22
ENDBRANCH  13  16
ENDBRANCH   7  12
ENDBRANCH   4   7
ENDBRANCH   2   3
ENDBRANCH   1   2
BRANCH   1  27
ATOM     27  C   UNL A   1      38.275  21.354  25.085  1.00  0.00     0.023 C 
BRANCH  27  28
ATOM     28  C   UNL A   1      38.391  20.166  26.021  1.00  0.00     0.116 C 
BRANCH  28  29
ATOM     29  N   UNL A   1      39.581  19.370  25.781  1.00  0.00    -0.352 N 
ATOM     30  C   UNL A   1      40.900  19.715  25.930  1.00  0.00     0.251 C 
ATOM     31  H   UNL A   1      39.417  18.451  25.467  1.00  0.00     0.163 HD
ATOM     32  O   UNL A   1      41.779  18.941  25.548  1.00  0.00    -0.269 OA
BRANCH  30  33
ATOM     33  C   UNL A   1      41.277  21.018  26.521  1.00  0.00     0.039 A 
ATOM     34  C   UNL A   1      41.107  21.204  27.897  1.00  0.00     0.014 A 
ATOM     35  C   UNL A   1      41.771  22.060  25.732  1.00  0.00     0.014 A 
ATOM     36  C   UNL A   1      41.473  22.416  28.486  1.00  0.00     0.010 A 
ATOM     37  C   UNL A   1      42.203  23.241  26.331  1.00  0.00     0.010 A 
ATOM     38  C   UNL A   1      42.046  23.436  27.710  1.00  0.00    -0.014 A 
BRANCH  38  39
ATOM     39  C   UNL A   1      42.454  24.728  28.318  1.00  0.00     0.031 A 
ATOM     40  C   UNL A   1      41.434  25.815  28.526  1.00  0.00     0.074 A 
ATOM     41  C   UNL A   1      43.745  24.946  28.630  1.00  0.00     0.049 A 
ATOM     42  N   UNL A   1      41.602  27.034  28.971  1.00  0.00    -0.248 NA
ATOM     43  C   UNL A   1      40.046  25.498  28.156  1.00  0.00     0.031 C 
ATOM     44  C   UNL A   1      44.837  23.989  28.438  1.00  0.00     0.029 A 
ATOM     45  N   UNL A   1      44.360  26.049  29.166  1.00  0.00    -0.354 N 
ATOM     46  C   UNL A   1      40.351  27.633  28.912  1.00  0.00     0.074 A 
ATOM     47  C   UNL A   1      39.442  26.662  28.344  1.00  0.00     0.031 C 
ATOM     48  C   UNL A   1      45.982  24.539  28.873  1.00  0.00     0.029 A 
ATOM     49  C   UNL A   1      45.713  25.895  29.343  1.00  0.00     0.049 A 
ATOM     50  H   UNL A   1      43.877  26.874  29.402  1.00  0.00     0.167 HD
ATOM     51  C   UNL A   1      39.985  28.873  29.316  1.00  0.00     0.037 A 
ATOM     52  C   UNL A   1      46.633  26.750  29.827  1.00  0.00     0.037 A 
ATOM     53  C   UNL A   1      40.881  29.823  29.921  1.00  0.00     0.049 A 
ATOM     54  C   UNL A   1      46.200  28.116  30.282  1.00  0.00     0.074 A 
ATOM     55  C   UNL A   1      40.592  31.078  30.429  1.00  0.00     0.029 A 
ATOM     56  N   UNL A   1      42.240  29.620  30.103  1.00  0.00    -0.354 N 
ATOM     57  N   UNL A   1      45.002  28.648  30.276  1.00  0.00    -0.248 NA
ATOM     58  C   UNL A   1      47.248  29.000  30.815  1.00  0.00     0.031 C 
ATOM     59  C   UNL A   1      41.785  31.649  30.886  1.00  0.00     0.029 A 
ATOM     60  C   UNL A   1      42.808  30.734  30.699  1.00  0.00     0.049 A 
ATOM     61  H   UNL A   1      42.729  28.804  29.847  1.00  0.00     0.167 HD
ATOM     62  C   UNL A   1      45.146  29.915  30.829  1.00  0.00     0.074 A 
ATOM     63  C   UNL A   1      46.545  30.067  31.168  1.00  0.00     0.031 C 
ATOM     64  C   UNL A   1      44.202  30.865  31.036  1.00  0.00     0.037 A 
BRANCH  51  65
ATOM     65  C   UNL A   1      38.551  29.271  29.119  1.00  0.00     0.057 A 
ATOM     66  C   UNL A   1      37.630  29.263  30.174  1.00  0.00     0.134 A 
ATOM     67  C   UNL A   1      38.093  29.692  27.864  1.00  0.00     0.134 A 
ATOM     68  F   UNL A   1      38.002  28.857  31.397  1.00  0.00    -0.206 F 
ATOM     69  C   UNL A   1      36.298  29.633  29.983  1.00  0.00     0.040 A 
ATOM     70  C   UNL A   1      36.770  30.090  27.667  1.00  0.00     0.040 A 
ATOM     71  F   UNL A   1      38.924  29.728  26.811  1.00  0.00    -0.206 F 
ATOM     72  C   UNL A   1      35.865  30.054  28.728  1.00  0.00     0.006 A 
ENDBRANCH  51  65
BRANCH  52  73
ATOM     73  C   UNL A   1      48.052  26.330  29.938  1.00  0.00     0.057 A 
ATOM     74  C   UNL A   1      48.935  26.491  28.863  1.00  0.00     0.134 A 
ATOM     75  C   UNL A   1      48.558  25.759  31.112  1.00  0.00     0.134 A 
ATOM     76  F   UNL A   1      48.501  27.013  27.707  1.00  0.00    -0.206 F 
ATOM     77  C   UNL A   1      50.267  26.083  28.946  1.00  0.00     0.040 A 
ATOM     78  C   UNL A   1      49.894  25.370  31.216  1.00  0.00     0.040 A 
ATOM     79  F   UNL A   1      47.762  25.586  32.177  1.00  0.00    -0.206 F 
ATOM     80  C   UNL A   1      50.751  25.526  30.127  1.00  0.00     0.006 A 
ENDBRANCH  52  73
BRANCH  64  81
ATOM     81  C   UNL A   1      44.647  32.141  31.688  1.00  0.00     0.057 A 
ATOM     82  C   UNL A   1      44.607  32.312  33.076  1.00  0.00     0.134 A 
ATOM     83  C   UNL A   1      45.160  33.192  30.918  1.00  0.00     0.134 A 
ATOM     84  F   UNL A   1      44.113  31.346  33.866  1.00  0.00    -0.206 F 
ATOM     85  C   UNL A   1      45.042  33.495  33.676  1.00  0.00     0.040 A 
ATOM     86  C   UNL A   1      45.621  34.370  31.508  1.00  0.00     0.040 A 
ATOM     87  F   UNL A   1      45.234  33.087  29.582  1.00  0.00    -0.206 F 
ATOM     88  C   UNL A   1      45.558  34.524  32.892  1.00  0.00     0.006 A 
ENDBRANCH  64  81
ENDBRANCH  38  39
ENDBRANCH  30  33
ENDBRANCH  28  29
ENDBRANCH  27  28
ENDBRANCH   1  27
TORSDOF 16
ENDMDL
