MODEL 1
REMARK VINA RESULT:     -12.9      0.000      0.000
REMARK SMILES CCc1cc(C(=O)c2[nH]c3cc(Cl)ccc3c2CC(=O)NCCCCNC(=O)c2ccc(-c3c4nc(c(-c5c(F)cccc5F)c5ccc([nH]5)c(-c5c(F)cccc5F)c5nc(c(-c6c(F)cccc6F)c6ccc3[nH]6)C=C5)C=C4)cc2)ncc1Cl
REMARK SMILES IDX 22 1 21 2 19 3 20 4 18 6 17 7 8 8 9 9 10 10 16 12 11 13
REMARK SMILES IDX 15 14 12 15 14 16 13 17 6 18 7 19 5 20 3 21 4 22 85 23 84 24
REMARK SMILES IDX 86 25 83 26 2 27 1 28 23 29 24 30 25 31 26 32 27 33 28 35
REMARK SMILES IDX 29 36 30 37 82 38 31 39 81 40 32 41 33 42 34 43 75 44 35 45
REMARK SMILES IDX 80 46 74 47 76 48 36 49 79 50 73 51 72 52 37 54 63 55 46 56
REMARK SMILES IDX 62 57 47 58 50 59 61 60 77 61 48 62 49 63 60 65 78 66 51 67
REMARK SMILES IDX 38 68 39 69 44 70 40 71 41 72 43 73 45 74 42 75 64 76 65 77
REMARK SMILES IDX 70 78 66 79 67 80 69 81 71 82 68 83 52 84 53 85 58 86 54 87
REMARK SMILES IDX 55 88 57 89 59 90 56 91
REMARK H PARENT 21 5 9 11 26 34 76 53 50 64
REMARK Flexibility Score: inf
ROOT
ATOM      1  C   UNL A   1      32.229  29.678  27.052  1.00  0.00     0.116 C 
ENDROOT
BRANCH   1   2
ATOM      2  N   UNL A   1      31.535  28.407  27.040  1.00  0.00    -0.356 N 
ATOM      3  C   UNL A   1      31.993  27.173  26.674  1.00  0.00     0.224 C 
ATOM      4  O   UNL A   1      31.255  26.202  26.860  1.00  0.00    -0.275 OA
ATOM      5  H   UNL A   1      30.598  28.437  27.339  1.00  0.00     0.163 HD
BRANCH   3   6
ATOM      6  C   UNL A   1      33.412  26.980  26.163  1.00  0.00     0.138 C 
BRANCH   6   7
ATOM      7  C   UNL A   1      33.575  25.939  25.090  1.00  0.00    -0.002 A 
ATOM      8  C   UNL A   1      33.329  26.076  23.726  1.00  0.00     0.093 A 
ATOM      9  N   UNL A   1      33.710  24.902  23.119  1.00  0.00    -0.351 N 
ATOM     10  C   UNL A   1      34.124  23.982  24.051  1.00  0.00     0.048 A 
ATOM     11  H   UNL A   1      33.691  24.742  22.148  1.00  0.00     0.167 HD
ATOM     12  C   UNL A   1      34.031  24.593  25.300  1.00  0.00     0.004 A 
ATOM     13  C   UNL A   1      34.598  22.676  23.876  1.00  0.00     0.047 A 
ATOM     14  C   UNL A   1      34.421  23.852  26.438  1.00  0.00     0.012 A 
ATOM     15  C   UNL A   1      34.986  21.974  25.019  1.00  0.00     0.043 A 
ATOM     16  C   UNL A   1      34.899  22.546  26.284  1.00  0.00     0.021 A 
ATOM     17  Cl  UNL A   1      35.593  20.371  24.855  1.00  0.00    -0.084 Cl
BRANCH   8  18
ATOM     18  C   UNL A   1      32.908  27.247  22.975  1.00  0.00     0.227 C 
ATOM     19  O   UNL A   1      33.706  27.854  22.269  1.00  0.00    -0.285 OA
BRANCH  18  20
ATOM     20  C   UNL A   1      31.460  27.677  23.037  1.00  0.00     0.113 A 
ATOM     21  C   UNL A   1      29.676  29.314  22.795  1.00  0.00    -0.026 A 
ATOM     22  C   UNL A   1      31.041  28.968  22.705  1.00  0.00     0.037 A 
ATOM     23  C   UNL A   1      28.774  28.312  23.168  1.00  0.00     0.062 A 
ATOM     24  C   UNL A   1      29.277  27.056  23.490  1.00  0.00     0.132 A 
ATOM     25  Cl  UNL A   1      27.069  28.539  23.205  1.00  0.00    -0.082 Cl
ATOM     26  N   UNL A   1      30.588  26.726  23.452  1.00  0.00    -0.251 NA
BRANCH  21  27
ATOM     27  C   UNL A   1      29.265  30.731  22.450  1.00  0.00     0.034 C 
ATOM     28  C   UNL A   1      28.829  31.575  23.643  1.00  0.00     0.009 C 
ENDBRANCH  21  27
ENDBRANCH  18  20
ENDBRANCH   8  18
ENDBRANCH   6   7
ENDBRANCH   3   6
ENDBRANCH   1   2
BRANCH   1  29
ATOM     29  C   UNL A   1      31.677  30.669  26.028  1.00  0.00     0.023 C 
BRANCH  29  30
ATOM     30  C   UNL A   1      31.389  32.075  26.559  1.00  0.00     0.023 C 
BRANCH  30  31
ATOM     31  C   UNL A   1      32.549  32.764  27.270  1.00  0.00     0.116 C 
BRANCH  31  32
ATOM     32  N   UNL A   1      32.265  34.144  27.631  1.00  0.00    -0.352 N 
ATOM     33  C   UNL A   1      32.921  34.961  28.519  1.00  0.00     0.251 C 
ATOM     34  H   UNL A   1      31.494  34.550  27.174  1.00  0.00     0.163 HD
ATOM     35  O   UNL A   1      32.481  36.082  28.759  1.00  0.00    -0.269 OA
BRANCH  33  36
ATOM     36  C   UNL A   1      34.132  34.482  29.221  1.00  0.00     0.039 A 
ATOM     37  C   UNL A   1      33.982  33.903  30.484  1.00  0.00     0.014 A 
ATOM     38  C   UNL A   1      35.403  34.606  28.652  1.00  0.00     0.014 A 
ATOM     39  C   UNL A   1      35.095  33.385  31.149  1.00  0.00     0.010 A 
ATOM     40  C   UNL A   1      36.507  34.049  29.294  1.00  0.00     0.010 A 
ATOM     41  C   UNL A   1      36.360  33.426  30.544  1.00  0.00    -0.014 A 
BRANCH  41  42
ATOM     42  C   UNL A   1      37.540  32.808  31.192  1.00  0.00     0.031 A 
ATOM     43  C   UNL A   1      38.220  31.630  30.560  1.00  0.00     0.074 A 
ATOM     44  C   UNL A   1      37.960  33.272  32.383  1.00  0.00     0.049 A 
ATOM     45  N   UNL A   1      39.194  30.890  31.027  1.00  0.00    -0.248 NA
ATOM     46  C   UNL A   1      37.730  31.217  29.235  1.00  0.00     0.031 C 
ATOM     47  C   UNL A   1      37.368  34.394  33.114  1.00  0.00     0.029 A 
ATOM     48  N   UNL A   1      38.980  32.846  33.196  1.00  0.00    -0.354 N 
ATOM     49  C   UNL A   1      39.418  29.914  30.067  1.00  0.00     0.074 A 
ATOM     50  C   UNL A   1      38.469  30.143  28.998  1.00  0.00     0.031 C 
ATOM     51  C   UNL A   1      38.044  34.576  34.260  1.00  0.00     0.029 A 
ATOM     52  C   UNL A   1      39.094  33.568  34.358  1.00  0.00     0.049 A 
ATOM     53  H   UNL A   1      39.572  32.094  32.968  1.00  0.00     0.167 HD
ATOM     54  C   UNL A   1      40.339  28.920  30.071  1.00  0.00     0.037 A 
ATOM     55  C   UNL A   1      39.947  33.427  35.389  1.00  0.00     0.037 A 
ATOM     56  C   UNL A   1      41.301  28.704  31.118  1.00  0.00     0.049 A 
ATOM     57  C   UNL A   1      40.972  32.331  35.359  1.00  0.00     0.074 A 
ATOM     58  C   UNL A   1      42.284  27.732  31.201  1.00  0.00     0.029 A 
ATOM     59  N   UNL A   1      41.408  29.480  32.261  1.00  0.00    -0.354 N 
ATOM     60  N   UNL A   1      41.177  31.420  34.441  1.00  0.00    -0.248 NA
ATOM     61  C   UNL A   1      41.882  32.244  36.510  1.00  0.00     0.031 C 
ATOM     62  C   UNL A   1      42.981  27.917  32.401  1.00  0.00     0.029 A 
ATOM     63  C   UNL A   1      42.442  29.013  33.054  1.00  0.00     0.049 A 
ATOM     64  H   UNL A   1      40.833  30.249  32.477  1.00  0.00     0.167 HD
ATOM     65  C   UNL A   1      42.248  30.662  34.893  1.00  0.00     0.074 A 
ATOM     66  C   UNL A   1      42.655  31.224  36.165  1.00  0.00     0.031 C 
ATOM     67  C   UNL A   1      42.840  29.594  34.307  1.00  0.00     0.037 A 
BRANCH  54  68
ATOM     68  C   UNL A   1      40.344  27.990  28.899  1.00  0.00     0.057 A 
ATOM     69  C   UNL A   1      41.086  28.273  27.747  1.00  0.00     0.134 A 
ATOM     70  C   UNL A   1      39.621  26.793  28.931  1.00  0.00     0.134 A 
ATOM     71  F   UNL A   1      41.787  29.414  27.653  1.00  0.00    -0.206 F 
ATOM     72  C   UNL A   1      41.099  27.402  26.658  1.00  0.00     0.040 A 
ATOM     73  C   UNL A   1      39.636  25.906  27.854  1.00  0.00     0.040 A 
ATOM     74  F   UNL A   1      38.889  26.467  30.007  1.00  0.00    -0.206 F 
ATOM     75  C   UNL A   1      40.375  26.212  26.712  1.00  0.00     0.006 A 
ENDBRANCH  54  68
BRANCH  55  76
ATOM     76  C   UNL A   1      39.883  34.364  36.533  1.00  0.00     0.057 A 
ATOM     77  C   UNL A   1      39.159  34.038  37.684  1.00  0.00     0.134 A 
ATOM     78  C   UNL A   1      40.534  35.601  36.501  1.00  0.00     0.134 A 
ATOM     79  F   UNL A   1      38.500  32.872  37.759  1.00  0.00    -0.206 F 
ATOM     80  C   UNL A   1      39.075  34.916  38.764  1.00  0.00     0.040 A 
ATOM     81  C   UNL A   1      40.470  36.484  37.580  1.00  0.00     0.040 A 
ATOM     82  F   UNL A   1      41.243  35.966  35.423  1.00  0.00    -0.206 F 
ATOM     83  C   UNL A   1      39.735  36.143  38.715  1.00  0.00     0.006 A 
ENDBRANCH  55  76
BRANCH  67  84
ATOM     84  C   UNL A   1      44.007  28.990  35.022  1.00  0.00     0.057 A 
ATOM     85  C   UNL A   1      43.840  27.962  35.957  1.00  0.00     0.134 A 
ATOM     86  C   UNL A   1      45.310  29.423  34.752  1.00  0.00     0.134 A 
ATOM     87  F   UNL A   1      42.613  27.517  36.266  1.00  0.00    -0.206 F 
ATOM     88  C   UNL A   1      44.933  27.390  36.609  1.00  0.00     0.040 A 
ATOM     89  C   UNL A   1      46.411  28.851  35.389  1.00  0.00     0.040 A 
ATOM     90  F   UNL A   1      45.531  30.405  33.865  1.00  0.00    -0.206 F 
ATOM     91  C   UNL A   1      46.223  27.833  36.322  1.00  0.00     0.006 A 
ENDBRANCH  67  84
ENDBRANCH  41  42
ENDBRANCH  33  36
ENDBRANCH  31  32
ENDBRANCH  30  31
ENDBRANCH  29  30
ENDBRANCH   1  29
TORSDOF 15
ENDMDL
MODEL 2
REMARK VINA RESULT:     -12.8      0.489      5.985
REMARK SMILES CCc1cc(C(=O)c2[nH]c3cc(Cl)ccc3c2CC(=O)NCCCCNC(=O)c2ccc(-c3c4nc(c(-c5c(F)cccc5F)c5ccc([nH]5)c(-c5c(F)cccc5F)c5nc(c(-c6c(F)cccc6F)c6ccc3[nH]6)C=C5)C=C4)cc2)ncc1Cl
REMARK SMILES IDX 22 1 21 2 19 3 20 4 18 6 17 7 8 8 9 9 10 10 16 12 11 13
REMARK SMILES IDX 15 14 12 15 14 16 13 17 6 18 7 19 5 20 3 21 4 22 85 23 84 24
REMARK SMILES IDX 86 25 83 26 2 27 1 28 23 29 24 30 25 31 26 32 27 33 28 35
REMARK SMILES IDX 29 36 30 37 82 38 31 39 81 40 32 41 33 42 34 43 75 44 35 45
REMARK SMILES IDX 80 46 74 47 76 48 36 49 79 50 73 51 72 52 37 54 63 55 46 56
REMARK SMILES IDX 62 57 47 58 50 59 61 60 77 61 48 62 49 63 60 65 78 66 51 67
REMARK SMILES IDX 38 68 39 69 44 70 40 71 41 72 43 73 45 74 42 75 64 76 65 77
REMARK SMILES IDX 70 78 66 79 67 80 69 81 71 82 68 83 52 84 53 85 58 86 54 87
REMARK SMILES IDX 55 88 57 89 59 90 56 91
REMARK H PARENT 21 5 9 11 26 34 76 53 50 64
REMARK Flexibility Score: inf
ROOT
ATOM      1  C   UNL A   1      32.338  29.878  26.467  1.00  0.00     0.116 C 
ENDROOT
BRANCH   1   2
ATOM      2  N   UNL A   1      31.664  28.640  26.796  1.00  0.00    -0.356 N 
ATOM      3  C   UNL A   1      32.111  27.353  26.686  1.00  0.00     0.224 C 
ATOM      4  O   UNL A   1      31.403  26.452  27.143  1.00  0.00    -0.275 OA
ATOM      5  H   UNL A   1      30.751  28.739  27.151  1.00  0.00     0.163 HD
BRANCH   3   6
ATOM      6  C   UNL A   1      33.491  27.046  26.126  1.00  0.00     0.138 C 
BRANCH   6   7
ATOM      7  C   UNL A   1      33.535  25.973  25.073  1.00  0.00    -0.002 A 
ATOM      8  C   UNL A   1      33.210  26.089  23.724  1.00  0.00     0.093 A 
ATOM      9  N   UNL A   1      33.495  24.883  23.127  1.00  0.00    -0.351 N 
ATOM     10  C   UNL A   1      33.921  23.966  24.056  1.00  0.00     0.048 A 
ATOM     11  H   UNL A   1      33.407  24.701  22.164  1.00  0.00     0.167 HD
ATOM     12  C   UNL A   1      33.937  24.610  25.291  1.00  0.00     0.004 A 
ATOM     13  C   UNL A   1      34.319  22.633  23.888  1.00  0.00     0.047 A 
ATOM     14  C   UNL A   1      34.361  23.879  26.423  1.00  0.00     0.012 A 
ATOM     15  C   UNL A   1      34.743  21.941  25.024  1.00  0.00     0.043 A 
ATOM     16  C   UNL A   1      34.764  22.547  26.275  1.00  0.00     0.021 A 
ATOM     17  Cl  UNL A   1      35.260  20.306  24.866  1.00  0.00    -0.084 Cl
BRANCH   8  18
ATOM     18  C   UNL A   1      32.801  27.261  22.969  1.00  0.00     0.227 C 
ATOM     19  O   UNL A   1      33.608  27.866  22.272  1.00  0.00    -0.285 OA
BRANCH  18  20
ATOM     20  C   UNL A   1      31.353  27.696  23.016  1.00  0.00     0.113 A 
ATOM     21  C   UNL A   1      29.571  29.323  22.707  1.00  0.00    -0.026 A 
ATOM     22  C   UNL A   1      30.936  28.972  22.629  1.00  0.00     0.037 A 
ATOM     23  C   UNL A   1      28.669  28.340  23.126  1.00  0.00     0.062 A 
ATOM     24  C   UNL A   1      29.171  27.099  23.502  1.00  0.00     0.132 A 
ATOM     25  Cl  UNL A   1      26.964  28.570  23.158  1.00  0.00    -0.082 Cl
ATOM     26  N   UNL A   1      30.482  26.765  23.474  1.00  0.00    -0.251 NA
BRANCH  21  27
ATOM     27  C   UNL A   1      29.161  30.724  22.301  1.00  0.00     0.034 C 
ATOM     28  C   UNL A   1      28.680  31.604  23.450  1.00  0.00     0.009 C 
ENDBRANCH  21  27
ENDBRANCH  18  20
ENDBRANCH   8  18
ENDBRANCH   6   7
ENDBRANCH   3   6
ENDBRANCH   1   2
BRANCH   1  29
ATOM     29  C   UNL A   1      31.426  30.889  25.773  1.00  0.00     0.023 C 
BRANCH  29  30
ATOM     30  C   UNL A   1      31.188  32.195  26.535  1.00  0.00     0.023 C 
BRANCH  30  31
ATOM     31  C   UNL A   1      32.421  32.820  27.178  1.00  0.00     0.116 C 
BRANCH  31  32
ATOM     32  N   UNL A   1      32.210  34.189  27.620  1.00  0.00    -0.352 N 
ATOM     33  C   UNL A   1      32.909  34.918  28.550  1.00  0.00     0.251 C 
ATOM     34  H   UNL A   1      31.458  34.659  27.194  1.00  0.00     0.163 HD
ATOM     35  O   UNL A   1      32.528  36.044  28.859  1.00  0.00    -0.269 OA
BRANCH  33  36
ATOM     36  C   UNL A   1      34.097  34.339  29.214  1.00  0.00     0.039 A 
ATOM     37  C   UNL A   1      33.913  33.630  30.405  1.00  0.00     0.014 A 
ATOM     38  C   UNL A   1      35.381  34.494  28.682  1.00  0.00     0.014 A 
ATOM     39  C   UNL A   1      35.003  33.017  31.027  1.00  0.00     0.010 A 
ATOM     40  C   UNL A   1      36.462  33.846  29.277  1.00  0.00     0.010 A 
ATOM     41  C   UNL A   1      36.279  33.094  30.449  1.00  0.00    -0.014 A 
BRANCH  41  42
ATOM     42  C   UNL A   1      37.434  32.384  31.045  1.00  0.00     0.031 A 
ATOM     43  C   UNL A   1      38.048  32.877  32.322  1.00  0.00     0.074 A 
ATOM     44  C   UNL A   1      37.969  31.331  30.400  1.00  0.00     0.049 A 
ATOM     45  N   UNL A   1      39.125  32.456  32.936  1.00  0.00    -0.248 NA
ATOM     46  C   UNL A   1      37.374  34.002  32.987  1.00  0.00     0.031 C 
ATOM     47  C   UNL A   1      37.480  30.771  29.139  1.00  0.00     0.029 A 
ATOM     48  N   UNL A   1      39.052  30.550  30.714  1.00  0.00    -0.354 N 
ATOM     49  C   UNL A   1      39.269  33.276  34.046  1.00  0.00     0.074 A 
ATOM     50  C   UNL A   1      38.181  34.231  34.013  1.00  0.00     0.031 C 
ATOM     51  C   UNL A   1      38.253  29.728  28.794  1.00  0.00     0.029 A 
ATOM     52  C   UNL A   1      39.305  29.565  29.792  1.00  0.00     0.049 A 
ATOM     53  H   UNL A   1      39.596  30.683  31.523  1.00  0.00     0.167 HD
ATOM     54  C   UNL A   1      40.219  33.233  35.010  1.00  0.00     0.037 A 
ATOM     55  C   UNL A   1      40.282  28.640  29.753  1.00  0.00     0.037 A 
ATOM     56  C   UNL A   1      41.286  32.271  35.062  1.00  0.00     0.049 A 
ATOM     57  C   UNL A   1      41.309  28.600  30.846  1.00  0.00     0.074 A 
ATOM     58  C   UNL A   1      42.287  32.140  36.011  1.00  0.00     0.029 A 
ATOM     59  N   UNL A   1      41.487  31.267  34.128  1.00  0.00    -0.354 N 
ATOM     60  N   UNL A   1      41.429  29.377  31.893  1.00  0.00    -0.248 NA
ATOM     61  C   UNL A   1      42.337  27.554  30.750  1.00  0.00     0.031 C 
ATOM     62  C   UNL A   1      43.097  31.058  35.646  1.00  0.00     0.029 A 
ATOM     63  C   UNL A   1      42.590  30.509  34.480  1.00  0.00     0.049 A 
ATOM     64  H   UNL A   1      40.927  31.116  33.333  1.00  0.00     0.167 HD
ATOM     65  C   UNL A   1      42.533  28.906  32.590  1.00  0.00     0.074 A 
ATOM     66  C   UNL A   1      43.045  27.771  31.851  1.00  0.00     0.031 C 
ATOM     67  C   UNL A   1      43.074  29.375  33.739  1.00  0.00     0.037 A 
BRANCH  54  68
ATOM     68  C   UNL A   1      40.139  34.264  36.092  1.00  0.00     0.057 A 
ATOM     69  C   UNL A   1      39.419  34.031  37.270  1.00  0.00     0.134 A 
ATOM     70  C   UNL A   1      40.805  35.488  35.967  1.00  0.00     0.134 A 
ATOM     71  F   UNL A   1      38.748  32.881  37.440  1.00  0.00    -0.206 F 
ATOM     72  C   UNL A   1      39.353  34.988  38.283  1.00  0.00     0.040 A 
ATOM     73  C   UNL A   1      40.758  36.447  36.978  1.00  0.00     0.040 A 
ATOM     74  F   UNL A   1      41.510  35.770  34.860  1.00  0.00    -0.206 F 
ATOM     75  C   UNL A   1      40.027  36.199  38.140  1.00  0.00     0.006 A 
ENDBRANCH  54  68
BRANCH  55  76
ATOM     76  C   UNL A   1      40.323  27.658  28.647  1.00  0.00     0.057 A 
ATOM     77  C   UNL A   1      39.618  26.453  28.734  1.00  0.00     0.134 A 
ATOM     78  C   UNL A   1      41.067  27.895  27.486  1.00  0.00     0.134 A 
ATOM     79  F   UNL A   1      38.904  26.168  29.832  1.00  0.00    -0.206 F 
ATOM     80  C   UNL A   1      39.658  25.511  27.707  1.00  0.00     0.040 A 
ATOM     81  C   UNL A   1      41.105  26.967  26.445  1.00  0.00     0.040 A 
ATOM     82  F   UNL A   1      41.762  29.034  27.349  1.00  0.00    -0.206 F 
ATOM     83  C   UNL A   1      40.402  25.768  26.556  1.00  0.00     0.006 A 
ENDBRANCH  55  76
BRANCH  67  84
ATOM     84  C   UNL A   1      44.259  28.639  34.278  1.00  0.00     0.057 A 
ATOM     85  C   UNL A   1      44.113  27.559  35.156  1.00  0.00     0.134 A 
ATOM     86  C   UNL A   1      45.557  28.999  33.895  1.00  0.00     0.134 A 
ATOM     87  F   UNL A   1      42.895  27.178  35.568  1.00  0.00    -0.206 F 
ATOM     88  C   UNL A   1      45.221  26.864  35.642  1.00  0.00     0.040 A 
ATOM     89  C   UNL A   1      46.671  28.305  34.365  1.00  0.00     0.040 A 
ATOM     90  F   UNL A   1      45.758  30.027  33.056  1.00  0.00    -0.206 F 
ATOM     91  C   UNL A   1      46.504  27.236  35.244  1.00  0.00     0.006 A 
ENDBRANCH  67  84
ENDBRANCH  41  42
ENDBRANCH  33  36
ENDBRANCH  31  32
ENDBRANCH  30  31
ENDBRANCH  29  30
ENDBRANCH   1  29
TORSDOF 15
ENDMDL
MODEL 3
REMARK VINA RESULT:     -12.6      4.549      9.631
REMARK SMILES CCc1cc(C(=O)c2[nH]c3cc(Cl)ccc3c2CC(=O)NCCCCNC(=O)c2ccc(-c3c4nc(c(-c5c(F)cccc5F)c5ccc([nH]5)c(-c5c(F)cccc5F)c5nc(c(-c6c(F)cccc6F)c6ccc3[nH]6)C=C5)C=C4)cc2)ncc1Cl
REMARK SMILES IDX 22 1 21 2 19 3 20 4 18 6 17 7 8 8 9 9 10 10 16 12 11 13
REMARK SMILES IDX 15 14 12 15 14 16 13 17 6 18 7 19 5 20 3 21 4 22 85 23 84 24
REMARK SMILES IDX 86 25 83 26 2 27 1 28 23 29 24 30 25 31 26 32 27 33 28 35
REMARK SMILES IDX 29 36 30 37 82 38 31 39 81 40 32 41 33 42 34 43 75 44 35 45
REMARK SMILES IDX 80 46 74 47 76 48 36 49 79 50 73 51 72 52 37 54 63 55 46 56
REMARK SMILES IDX 62 57 47 58 50 59 61 60 77 61 48 62 49 63 60 65 78 66 51 67
REMARK SMILES IDX 38 68 39 69 44 70 40 71 41 72 43 73 45 74 42 75 64 76 65 77
REMARK SMILES IDX 70 78 66 79 67 80 69 81 71 82 68 83 52 84 53 85 58 86 54 87
REMARK SMILES IDX 55 88 57 89 59 90 56 91
REMARK H PARENT 21 5 9 11 26 34 76 53 50 64
REMARK Flexibility Score: inf
ROOT
ATOM      1  C   UNL A   1      35.632  22.073  24.381  1.00  0.00     0.116 C 
ENDROOT
BRANCH   1   2
ATOM      2  N   UNL A   1      35.098  23.145  23.567  1.00  0.00    -0.356 N 
ATOM      3  C   UNL A   1      34.671  24.388  23.942  1.00  0.00     0.224 C 
ATOM      4  O   UNL A   1      34.364  25.188  23.054  1.00  0.00    -0.275 OA
ATOM      5  H   UNL A   1      35.032  22.950  22.605  1.00  0.00     0.163 HD
BRANCH   3   6
ATOM      6  C   UNL A   1      34.687  24.818  25.400  1.00  0.00     0.138 C 
BRANCH   6   7
ATOM      7  C   UNL A   1      33.434  25.493  25.887  1.00  0.00    -0.002 A 
ATOM      8  C   UNL A   1      32.247  24.891  26.298  1.00  0.00     0.093 A 
ATOM      9  N   UNL A   1      31.416  25.889  26.751  1.00  0.00    -0.351 N 
ATOM     10  C   UNL A   1      31.992  27.122  26.578  1.00  0.00     0.048 A 
ATOM     11  H   UNL A   1      30.527  25.739  27.148  1.00  0.00     0.167 HD
ATOM     12  C   UNL A   1      33.250  26.912  26.018  1.00  0.00     0.004 A 
ATOM     13  C   UNL A   1      31.507  28.396  26.902  1.00  0.00     0.047 A 
ATOM     14  C   UNL A   1      34.063  28.037  25.754  1.00  0.00     0.012 A 
ATOM     15  C   UNL A   1      32.338  29.487  26.639  1.00  0.00     0.043 A 
ATOM     16  C   UNL A   1      33.597  29.318  26.072  1.00  0.00     0.021 A 
ATOM     17  Cl  UNL A   1      31.795  31.072  27.036  1.00  0.00    -0.084 Cl
BRANCH   8  18
ATOM     18  C   UNL A   1      31.919  23.481  26.418  1.00  0.00     0.227 C 
ATOM     19  O   UNL A   1      31.578  23.010  27.498  1.00  0.00    -0.285 OA
BRANCH  18  20
ATOM     20  C   UNL A   1      31.953  22.611  25.182  1.00  0.00     0.113 A 
ATOM     21  C   UNL A   1      32.325  20.500  24.029  1.00  0.00    -0.026 A 
ATOM     22  C   UNL A   1      32.298  21.257  25.220  1.00  0.00     0.037 A 
ATOM     23  C   UNL A   1      31.944  21.138  22.844  1.00  0.00     0.062 A 
ATOM     24  C   UNL A   1      31.625  22.491  22.894  1.00  0.00     0.132 A 
ATOM     25  Cl  UNL A   1      31.807  20.326  21.334  1.00  0.00    -0.082 Cl
ATOM     26  N   UNL A   1      31.640  23.238  24.022  1.00  0.00    -0.251 NA
BRANCH  21  27
ATOM     27  C   UNL A   1      32.727  19.042  24.109  1.00  0.00     0.034 C 
ATOM     28  C   UNL A   1      34.123  18.797  24.671  1.00  0.00     0.009 C 
ENDBRANCH  21  27
ENDBRANCH  18  20
ENDBRANCH   8  18
ENDBRANCH   6   7
ENDBRANCH   3   6
ENDBRANCH   1   2
BRANCH   1  29
ATOM     29  C   UNL A   1      37.137  21.883  24.205  1.00  0.00     0.023 C 
BRANCH  29  30
ATOM     30  C   UNL A   1      37.686  20.520  24.633  1.00  0.00     0.023 C 
BRANCH  30  31
ATOM     31  C   UNL A   1      38.626  20.533  25.834  1.00  0.00     0.116 C 
BRANCH  31  32
ATOM     32  N   UNL A   1      39.690  19.545  25.744  1.00  0.00    -0.352 N 
ATOM     33  C   UNL A   1      41.019  19.670  26.064  1.00  0.00     0.251 C 
ATOM     34  H   UNL A   1      39.418  18.663  25.404  1.00  0.00     0.163 HD
ATOM     35  O   UNL A   1      41.793  18.745  25.839  1.00  0.00    -0.269 OA
BRANCH  33  36
ATOM     36  C   UNL A   1      41.533  20.932  26.642  1.00  0.00     0.039 A 
ATOM     37  C   UNL A   1      42.005  21.918  25.770  1.00  0.00     0.014 A 
ATOM     38  C   UNL A   1      41.561  21.145  28.023  1.00  0.00     0.014 A 
ATOM     39  C   UNL A   1      42.440  23.145  26.276  1.00  0.00     0.010 A 
ATOM     40  C   UNL A   1      41.952  22.385  28.525  1.00  0.00     0.010 A 
ATOM     41  C   UNL A   1      42.386  23.397  27.654  1.00  0.00    -0.014 A 
BRANCH  41  42
ATOM     42  C   UNL A   1      42.763  24.719  28.207  1.00  0.00     0.031 A 
ATOM     43  C   UNL A   1      41.718  25.774  28.426  1.00  0.00     0.074 A 
ATOM     44  C   UNL A   1      44.058  24.990  28.452  1.00  0.00     0.049 A 
ATOM     45  N   UNL A   1      41.868  27.020  28.795  1.00  0.00    -0.248 NA
ATOM     46  C   UNL A   1      40.322  25.380  28.179  1.00  0.00     0.031 C 
ATOM     47  C   UNL A   1      45.171  24.060  28.256  1.00  0.00     0.029 A 
ATOM     48  N   UNL A   1      44.658  26.136  28.909  1.00  0.00    -0.354 N 
ATOM     49  C   UNL A   1      40.592  27.565  28.806  1.00  0.00     0.074 A 
ATOM     50  C   UNL A   1      39.681  26.521  28.389  1.00  0.00     0.031 C 
ATOM     51  C   UNL A   1      46.317  24.668  28.605  1.00  0.00     0.029 A 
ATOM     52  C   UNL A   1      46.022  26.036  29.018  1.00  0.00     0.049 A 
ATOM     53  H   UNL A   1      44.157  26.953  29.136  1.00  0.00     0.167 HD
ATOM     54  C   UNL A   1      40.213  28.822  29.140  1.00  0.00     0.037 A 
ATOM     55  C   UNL A   1      46.933  26.949  29.403  1.00  0.00     0.037 A 
ATOM     56  C   UNL A   1      41.111  29.855  29.580  1.00  0.00     0.049 A 
ATOM     57  C   UNL A   1      46.484  28.327  29.789  1.00  0.00     0.074 A 
ATOM     58  C   UNL A   1      40.815  31.155  29.957  1.00  0.00     0.029 A 
ATOM     59  N   UNL A   1      42.482  29.703  29.712  1.00  0.00    -0.354 N 
ATOM     60  N   UNL A   1      45.274  28.827  29.801  1.00  0.00    -0.248 NA
ATOM     61  C   UNL A   1      47.530  29.269  30.215  1.00  0.00     0.031 C 
ATOM     62  C   UNL A   1      42.011  31.791  30.310  1.00  0.00     0.029 A 
ATOM     63  C   UNL A   1      43.046  30.881  30.168  1.00  0.00     0.049 A 
ATOM     64  H   UNL A   1      42.980  28.878  29.511  1.00  0.00     0.167 HD
ATOM     65  C   UNL A   1      45.407  30.133  30.250  1.00  0.00     0.074 A 
ATOM     66  C   UNL A   1      46.817  30.348  30.507  1.00  0.00     0.031 C 
ATOM     67  C   UNL A   1      44.447  31.070  30.431  1.00  0.00     0.037 A 
BRANCH  54  68
ATOM     68  C   UNL A   1      38.755  29.143  29.042  1.00  0.00     0.057 A 
ATOM     69  C   UNL A   1      37.910  29.045  30.154  1.00  0.00     0.134 A 
ATOM     70  C   UNL A   1      38.196  29.574  27.834  1.00  0.00     0.134 A 
ATOM     71  F   UNL A   1      38.387  28.622  31.335  1.00  0.00    -0.206 F 
ATOM     72  C   UNL A   1      36.552  29.354  30.064  1.00  0.00     0.040 A 
ATOM     73  C   UNL A   1      36.843  29.900  27.735  1.00  0.00     0.040 A 
ATOM     74  F   UNL A   1      38.955  29.686  26.734  1.00  0.00    -0.206 F 
ATOM     75  C   UNL A   1      36.016  29.787  28.853  1.00  0.00     0.006 A 
ENDBRANCH  54  68
BRANCH  55  76
ATOM     76  C   UNL A   1      48.366  26.581  29.461  1.00  0.00     0.057 A 
ATOM     77  C   UNL A   1      49.227  26.889  28.403  1.00  0.00     0.134 A 
ATOM     78  C   UNL A   1      48.904  25.913  30.566  1.00  0.00     0.134 A 
ATOM     79  F   UNL A   1      48.758  27.512  27.312  1.00  0.00    -0.206 F 
ATOM     80  C   UNL A   1      50.575  26.536  28.435  1.00  0.00     0.040 A 
ATOM     81  C   UNL A   1      50.255  25.566  30.618  1.00  0.00     0.040 A 
ATOM     82  F   UNL A   1      48.125  25.594  31.610  1.00  0.00    -0.206 F 
ATOM     83  C   UNL A   1      51.094  25.875  29.548  1.00  0.00     0.006 A 
ENDBRANCH  55  76
BRANCH  67  84
ATOM     84  C   UNL A   1      44.889  32.398  30.960  1.00  0.00     0.057 A 
ATOM     85  C   UNL A   1      45.243  33.446  30.102  1.00  0.00     0.134 A 
ATOM     86  C   UNL A   1      44.936  32.637  32.338  1.00  0.00     0.134 A 
ATOM     87  F   UNL A   1      45.230  33.270  28.772  1.00  0.00    -0.206 F 
ATOM     88  C   UNL A   1      45.638  34.688  30.600  1.00  0.00     0.040 A 
ATOM     89  C   UNL A   1      45.318  33.878  32.847  1.00  0.00     0.040 A 
ATOM     90  F   UNL A   1      44.608  31.669  33.208  1.00  0.00    -0.206 F 
ATOM     91  C   UNL A   1      45.673  34.906  31.977  1.00  0.00     0.006 A 
ENDBRANCH  67  84
ENDBRANCH  41  42
ENDBRANCH  33  36
ENDBRANCH  31  32
ENDBRANCH  30  31
ENDBRANCH  29  30
ENDBRANCH   1  29
TORSDOF 15
ENDMDL
