MODEL 1
REMARK VINA RESULT:     -11.8      0.000      0.000
REMARK SMILES CC1=NN(c2ccc(C(=O)NCCCCNC(=O)c3ccc(-c4c5nc(c(-c6c(F)cccc6F)c6ccc([nH]6)c(-c6c(F)cccc6F)c6nc(c(-c7c(F)cccc7F)c7ccc4[nH]7)C=C6)C=C5)cc3)cc2)C(=O)/C1=C\c1ccc(N2CCCC2)cc1
REMARK SMILES IDX 13 1 12 2 11 3 9 4 10 5 8 7 5 8 6 9 74 10 7 11 73 12 4 13
REMARK SMILES IDX 1 14 2 15 3 16 77 17 75 18 78 19 76 20 79 21 80 22 89 23
REMARK SMILES IDX 81 24 88 25 82 26 83 27 84 28 87 29 85 30 86 31 14 32 15 33
REMARK SMILES IDX 16 34 17 35 18 37 19 38 20 39 72 40 21 41 71 42 22 43 23 44
REMARK SMILES IDX 24 45 65 46 25 47 70 48 64 49 66 50 26 51 69 52 63 53 62 54
REMARK SMILES IDX 27 56 53 57 36 58 52 59 37 60 40 61 51 62 67 63 38 64 39 65
REMARK SMILES IDX 50 67 68 68 41 69 28 70 29 71 34 72 30 73 31 74 33 75 35 76
REMARK SMILES IDX 32 77 54 78 55 79 60 80 56 81 57 82 59 83 61 84 58 85 42 86
REMARK SMILES IDX 43 87 48 88 44 89 45 90 47 91 49 92 46 93
REMARK H PARENT 11 6 16 36 66 55 40 66
REMARK Flexibility Score: inf
ROOT
ATOM      1  C   UNL A   1      39.892  25.898  28.822  1.00  0.00     0.023 C 
ENDROOT
BRANCH   1   2
ATOM      2  C   UNL A   1      40.648  27.151  28.370  1.00  0.00     0.116 C 
BRANCH   2   3
ATOM      3  N   UNL A   1      41.142  27.880  29.521  1.00  0.00    -0.352 N 
ATOM      4  C   UNL A   1      40.642  28.948  30.227  1.00  0.00     0.251 C 
ATOM      5  O   UNL A   1      41.317  29.367  31.169  1.00  0.00    -0.269 OA
ATOM      6  H   UNL A   1      42.002  27.546  29.865  1.00  0.00     0.163 HD
BRANCH   4   7
ATOM      7  C   UNL A   1      39.315  29.571  29.949  1.00  0.00     0.039 A 
ATOM      8  C   UNL A   1      36.744  30.476  29.267  1.00  0.00     0.069 A 
ATOM      9  C   UNL A   1      36.884  29.346  30.070  1.00  0.00     0.029 A 
ATOM     10  C   UNL A   1      37.873  31.200  28.890  1.00  0.00     0.029 A 
ATOM     11  C   UNL A   1      38.168  28.875  30.375  1.00  0.00     0.016 A 
ATOM     12  C   UNL A   1      39.140  30.785  29.287  1.00  0.00     0.016 A 
BRANCH   8  13
ATOM     13  N   UNL A   1      35.491  30.888  28.804  1.00  0.00    -0.196 N 
ATOM     14  C   UNL A   1      33.374  33.698  28.106  1.00  0.00     0.069 C 
ATOM     15  C   UNL A   1      34.053  32.381  28.266  1.00  0.00     0.071 C 
ATOM     16  N   UNL A   1      35.090  32.192  29.041  1.00  0.00    -0.169 NA
ATOM     17  C   UNL A   1      33.651  31.153  27.552  1.00  0.00     0.065 C 
ATOM     18  C   UNL A   1      34.731  30.188  27.861  1.00  0.00     0.280 C 
ATOM     19  C   UNL A   1      32.525  30.943  26.859  1.00  0.00     0.024 C 
ATOM     20  O   UNL A   1      34.904  29.087  27.381  1.00  0.00    -0.267 OA
BRANCH  19  21
ATOM     21  C   UNL A   1      32.110  29.613  26.391  1.00  0.00    -0.025 A 
ATOM     22  C   UNL A   1      32.192  29.255  25.047  1.00  0.00     0.010 A 
ATOM     23  C   UNL A   1      31.622  28.677  27.307  1.00  0.00     0.010 A 
ATOM     24  C   UNL A   1      31.818  27.965  24.638  1.00  0.00     0.026 A 
ATOM     25  C   UNL A   1      31.242  27.399  26.887  1.00  0.00     0.026 A 
ATOM     26  C   UNL A   1      31.328  27.014  25.546  1.00  0.00     0.037 A 
BRANCH  26  27
ATOM     27  N   UNL A   1      30.983  25.749  25.124  1.00  0.00    -0.372 N 
ATOM     28  C   UNL A   1      31.366  24.523  25.816  1.00  0.00     0.116 C 
ATOM     29  C   UNL A   1      30.712  25.511  23.707  1.00  0.00     0.116 C 
ATOM     30  C   UNL A   1      31.725  23.569  24.682  1.00  0.00     0.023 C 
ATOM     31  C   UNL A   1      30.779  23.988  23.568  1.00  0.00     0.023 C 
ENDBRANCH  26  27
ENDBRANCH  19  21
ENDBRANCH   8  13
ENDBRANCH   4   7
ENDBRANCH   2   3
ENDBRANCH   1   2
BRANCH   1  32
ATOM     32  C   UNL A   1      39.087  25.234  27.705  1.00  0.00     0.023 C 
BRANCH  32  33
ATOM     33  C   UNL A   1      39.884  24.961  26.435  1.00  0.00     0.116 C 
BRANCH  33  34
ATOM     34  N   UNL A   1      40.622  23.708  26.482  1.00  0.00    -0.352 N 
ATOM     35  C   UNL A   1      41.984  23.524  26.459  1.00  0.00     0.251 C 
ATOM     36  H   UNL A   1      40.079  22.889  26.539  1.00  0.00     0.163 HD
ATOM     37  O   UNL A   1      42.463  22.399  26.376  1.00  0.00    -0.269 OA
BRANCH  35  38
ATOM     38  C   UNL A   1      42.860  24.709  26.496  1.00  0.00     0.039 A 
ATOM     39  C   UNL A   1      43.447  25.077  27.707  1.00  0.00     0.014 A 
ATOM     40  C   UNL A   1      43.147  25.414  25.323  1.00  0.00     0.014 A 
ATOM     41  C   UNL A   1      44.376  26.117  27.730  1.00  0.00     0.010 A 
ATOM     42  C   UNL A   1      44.132  26.393  25.333  1.00  0.00     0.010 A 
ATOM     43  C   UNL A   1      44.755  26.755  26.537  1.00  0.00    -0.014 A 
BRANCH  43  44
ATOM     44  C   UNL A   1      45.804  27.805  26.530  1.00  0.00     0.031 A 
ATOM     45  C   UNL A   1      45.424  29.252  26.663  1.00  0.00     0.074 A 
ATOM     46  C   UNL A   1      47.093  27.456  26.347  1.00  0.00     0.049 A 
ATOM     47  N   UNL A   1      46.188  30.313  26.634  1.00  0.00    -0.248 NA
ATOM     48  C   UNL A   1      43.992  29.549  26.826  1.00  0.00     0.031 C 
ATOM     49  C   UNL A   1      47.582  26.089  26.157  1.00  0.00     0.029 A 
ATOM     50  N   UNL A   1      48.226  28.225  26.284  1.00  0.00    -0.354 N 
ATOM     51  C   UNL A   1      45.331  31.399  26.766  1.00  0.00     0.074 A 
ATOM     52  C   UNL A   1      43.986  30.872  26.809  1.00  0.00     0.031 C 
ATOM     53  C   UNL A   1      48.918  26.114  26.034  1.00  0.00     0.029 A 
ATOM     54  C   UNL A   1      49.376  27.499  26.089  1.00  0.00     0.049 A 
ATOM     55  H   UNL A   1      48.217  29.206  26.371  1.00  0.00     0.167 HD
ATOM     56  C   UNL A   1      45.641  32.713  26.871  1.00  0.00     0.037 A 
ATOM     57  C   UNL A   1      50.653  27.905  25.962  1.00  0.00     0.037 A 
ATOM     58  C   UNL A   1      46.983  33.231  26.837  1.00  0.00     0.049 A 
ATOM     59  C   UNL A   1      50.967  29.373  26.047  1.00  0.00     0.074 A 
ATOM     60  C   UNL A   1      47.406  34.540  26.981  1.00  0.00     0.029 A 
ATOM     61  N   UNL A   1      48.120  32.464  26.633  1.00  0.00    -0.354 N 
ATOM     62  N   UNL A   1      50.154  30.383  26.245  1.00  0.00    -0.248 NA
ATOM     63  C   UNL A   1      52.377  29.757  25.897  1.00  0.00     0.031 C 
ATOM     64  C   UNL A   1      48.793  34.573  26.809  1.00  0.00     0.029 A 
ATOM     65  C   UNL A   1      49.243  33.277  26.620  1.00  0.00     0.049 A 
ATOM     66  H   UNL A   1      48.130  31.487  26.516  1.00  0.00     0.167 HD
ATOM     67  C   UNL A   1      50.957  31.517  26.275  1.00  0.00     0.074 A 
ATOM     68  C   UNL A   1      52.321  31.067  26.090  1.00  0.00     0.031 C 
ATOM     69  C   UNL A   1      50.597  32.813  26.440  1.00  0.00     0.037 A 
BRANCH  56  70
ATOM     70  C   UNL A   1      44.501  33.680  27.030  1.00  0.00     0.057 A 
ATOM     71  C   UNL A   1      43.997  34.029  28.290  1.00  0.00     0.134 A 
ATOM     72  C   UNL A   1      43.917  34.288  25.912  1.00  0.00     0.134 A 
ATOM     73  F   UNL A   1      44.502  33.475  29.402  1.00  0.00    -0.206 F 
ATOM     74  C   UNL A   1      42.931  34.921  28.431  1.00  0.00     0.040 A 
ATOM     75  C   UNL A   1      42.872  35.206  26.042  1.00  0.00     0.040 A 
ATOM     76  F   UNL A   1      44.354  34.006  24.675  1.00  0.00    -0.206 F 
ATOM     77  C   UNL A   1      42.371  35.517  27.304  1.00  0.00     0.006 A 
ENDBRANCH  56  70
BRANCH  57  78
ATOM     78  C   UNL A   1      51.737  26.908  25.761  1.00  0.00     0.057 A 
ATOM     79  C   UNL A   1      52.404  26.338  26.852  1.00  0.00     0.134 A 
ATOM     80  C   UNL A   1      52.138  26.510  24.481  1.00  0.00     0.134 A 
ATOM     81  F   UNL A   1      52.077  26.691  28.103  1.00  0.00    -0.206 F 
ATOM     82  C   UNL A   1      53.448  25.427  26.677  1.00  0.00     0.040 A 
ATOM     83  C   UNL A   1      53.162  25.578  24.291  1.00  0.00     0.040 A 
ATOM     84  F   UNL A   1      51.534  27.010  23.393  1.00  0.00    -0.206 F 
ATOM     85  C   UNL A   1      53.825  25.041  25.392  1.00  0.00     0.006 A 
ENDBRANCH  57  78
BRANCH  69  86
ATOM     86  C   UNL A   1      51.697  33.835  26.468  1.00  0.00     0.057 A 
ATOM     87  C   UNL A   1      52.131  34.493  25.310  1.00  0.00     0.134 A 
ATOM     88  C   UNL A   1      52.304  34.193  27.679  1.00  0.00     0.134 A 
ATOM     89  F   UNL A   1      51.600  34.189  24.115  1.00  0.00    -0.206 F 
ATOM     90  C   UNL A   1      53.148  35.449  25.352  1.00  0.00     0.040 A 
ATOM     91  C   UNL A   1      53.299  35.171  27.738  1.00  0.00     0.040 A 
ATOM     92  F   UNL A   1      51.929  33.611  28.829  1.00  0.00    -0.206 F 
ATOM     93  C   UNL A   1      53.729  35.796  26.570  1.00  0.00     0.006 A 
ENDBRANCH  69  86
ENDBRANCH  43  44
ENDBRANCH  35  38
ENDBRANCH  33  34
ENDBRANCH  32  33
ENDBRANCH   1  32
TORSDOF 14
ENDMDL
MODEL 2
REMARK VINA RESULT:     -11.6      0.893      1.803
REMARK SMILES CC1=NN(c2ccc(C(=O)NCCCCNC(=O)c3ccc(-c4c5nc(c(-c6c(F)cccc6F)c6ccc([nH]6)c(-c6c(F)cccc6F)c6nc(c(-c7c(F)cccc7F)c7ccc4[nH]7)C=C6)C=C5)cc3)cc2)C(=O)/C1=C\c1ccc(N2CCCC2)cc1
REMARK SMILES IDX 13 1 12 2 11 3 9 4 10 5 8 7 5 8 6 9 74 10 7 11 73 12 4 13
REMARK SMILES IDX 1 14 2 15 3 16 77 17 75 18 78 19 76 20 79 21 80 22 89 23
REMARK SMILES IDX 81 24 88 25 82 26 83 27 84 28 87 29 85 30 86 31 14 32 15 33
REMARK SMILES IDX 16 34 17 35 18 37 19 38 20 39 72 40 21 41 71 42 22 43 23 44
REMARK SMILES IDX 24 45 65 46 25 47 70 48 64 49 66 50 26 51 69 52 63 53 62 54
REMARK SMILES IDX 27 56 53 57 36 58 52 59 37 60 40 61 51 62 67 63 38 64 39 65
REMARK SMILES IDX 50 67 68 68 41 69 28 70 29 71 34 72 30 73 31 74 33 75 35 76
REMARK SMILES IDX 32 77 54 78 55 79 60 80 56 81 57 82 59 83 61 84 58 85 42 86
REMARK SMILES IDX 43 87 48 88 44 89 45 90 47 91 49 92 46 93
REMARK H PARENT 11 6 16 36 66 55 40 66
REMARK Flexibility Score: inf
ROOT
ATOM      1  C   UNL A   1      39.937  26.799  28.393  1.00  0.00     0.023 C 
ENDROOT
BRANCH   1   2
ATOM      2  C   UNL A   1      39.503  27.231  29.797  1.00  0.00     0.116 C 
BRANCH   2   3
ATOM      3  N   UNL A   1      39.961  28.578  30.070  1.00  0.00    -0.352 N 
ATOM      4  C   UNL A   1      39.433  29.813  29.784  1.00  0.00     0.251 C 
ATOM      5  O   UNL A   1      40.080  30.800  30.138  1.00  0.00    -0.269 OA
ATOM      6  H   UNL A   1      40.817  28.617  30.556  1.00  0.00     0.163 HD
BRANCH   4   7
ATOM      7  C   UNL A   1      38.104  30.011  29.133  1.00  0.00     0.039 A 
ATOM      8  C   UNL A   1      35.496  30.150  28.099  1.00  0.00     0.069 A 
ATOM      9  C   UNL A   1      35.719  30.444  29.442  1.00  0.00     0.029 A 
ATOM     10  C   UNL A   1      36.577  29.884  27.261  1.00  0.00     0.029 A 
ATOM     11  C   UNL A   1      37.016  30.335  29.963  1.00  0.00     0.016 A 
ATOM     12  C   UNL A   1      37.874  29.882  27.764  1.00  0.00     0.016 A 
BRANCH   8  13
ATOM     13  N   UNL A   1      34.202  30.088  27.573  1.00  0.00    -0.196 N 
ATOM     14  C   UNL A   1      31.366  31.982  26.462  1.00  0.00     0.069 C 
ATOM     15  C   UNL A   1      32.407  30.975  26.814  1.00  0.00     0.071 C 
ATOM     16  N   UNL A   1      33.411  31.223  27.616  1.00  0.00    -0.169 NA
ATOM     17  C   UNL A   1      32.436  29.598  26.282  1.00  0.00     0.065 C 
ATOM     18  C   UNL A   1      33.742  29.066  26.734  1.00  0.00     0.280 C 
ATOM     19  C   UNL A   1      31.465  28.958  25.619  1.00  0.00     0.024 C 
ATOM     20  O   UNL A   1      34.267  28.018  26.419  1.00  0.00    -0.267 OA
BRANCH  19  21
ATOM     21  C   UNL A   1      31.501  27.515  25.344  1.00  0.00    -0.025 A 
ATOM     22  C   UNL A   1      31.963  27.016  24.128  1.00  0.00     0.010 A 
ATOM     23  C   UNL A   1      31.065  26.613  26.319  1.00  0.00     0.010 A 
ATOM     24  C   UNL A   1      32.014  25.630  23.911  1.00  0.00     0.026 A 
ATOM     25  C   UNL A   1      31.109  25.235  26.087  1.00  0.00     0.026 A 
ATOM     26  C   UNL A   1      31.582  24.712  24.880  1.00  0.00     0.037 A 
BRANCH  26  27
ATOM     27  N   UNL A   1      31.657  23.356  24.650  1.00  0.00    -0.372 N 
ATOM     28  C   UNL A   1      31.700  22.348  25.705  1.00  0.00     0.116 C 
ATOM     29  C   UNL A   1      32.256  22.867  23.409  1.00  0.00     0.116 C 
ATOM     30  C   UNL A   1      32.724  21.340  25.197  1.00  0.00     0.023 C 
ATOM     31  C   UNL A   1      32.535  21.389  23.689  1.00  0.00     0.023 C 
ENDBRANCH  26  27
ENDBRANCH  19  21
ENDBRANCH   8  13
ENDBRANCH   4   7
ENDBRANCH   2   3
ENDBRANCH   1   2
BRANCH   1  32
ATOM     32  C   UNL A   1      39.494  25.383  28.026  1.00  0.00     0.023 C 
BRANCH  32  33
ATOM     33  C   UNL A   1      39.775  24.992  26.580  1.00  0.00     0.116 C 
BRANCH  33  34
ATOM     34  N   UNL A   1      40.505  23.739  26.459  1.00  0.00    -0.352 N 
ATOM     35  C   UNL A   1      41.857  23.556  26.304  1.00  0.00     0.251 C 
ATOM     36  H   UNL A   1      39.961  22.919  26.494  1.00  0.00     0.163 HD
ATOM     37  O   UNL A   1      42.319  22.441  26.086  1.00  0.00    -0.269 OA
BRANCH  35  38
ATOM     38  C   UNL A   1      42.744  24.732  26.364  1.00  0.00     0.039 A 
ATOM     39  C   UNL A   1      43.313  25.086  27.588  1.00  0.00     0.014 A 
ATOM     40  C   UNL A   1      43.056  25.443  25.201  1.00  0.00     0.014 A 
ATOM     41  C   UNL A   1      44.251  26.118  27.634  1.00  0.00     0.010 A 
ATOM     42  C   UNL A   1      44.050  26.413  25.235  1.00  0.00     0.010 A 
ATOM     43  C   UNL A   1      44.655  26.761  26.452  1.00  0.00    -0.014 A 
BRANCH  43  44
ATOM     44  C   UNL A   1      45.714  27.801  26.471  1.00  0.00     0.031 A 
ATOM     45  C   UNL A   1      45.346  29.249  26.628  1.00  0.00     0.074 A 
ATOM     46  C   UNL A   1      47.000  27.444  26.288  1.00  0.00     0.049 A 
ATOM     47  N   UNL A   1      46.120  30.304  26.623  1.00  0.00    -0.248 NA
ATOM     48  C   UNL A   1      43.915  29.555  26.788  1.00  0.00     0.031 C 
ATOM     49  C   UNL A   1      47.479  26.077  26.077  1.00  0.00     0.029 A 
ATOM     50  N   UNL A   1      48.141  28.204  26.246  1.00  0.00    -0.354 N 
ATOM     51  C   UNL A   1      45.272  31.394  26.770  1.00  0.00     0.074 A 
ATOM     52  C   UNL A   1      43.921  30.879  26.795  1.00  0.00     0.031 C 
ATOM     53  C   UNL A   1      48.815  26.092  25.961  1.00  0.00     0.029 A 
ATOM     54  C   UNL A   1      49.286  27.471  26.044  1.00  0.00     0.049 A 
ATOM     55  H   UNL A   1      48.141  29.184  26.351  1.00  0.00     0.167 HD
ATOM     56  C   UNL A   1      45.592  32.703  26.901  1.00  0.00     0.037 A 
ATOM     57  C   UNL A   1      50.567  27.868  25.932  1.00  0.00     0.037 A 
ATOM     58  C   UNL A   1      46.939  33.210  26.884  1.00  0.00     0.049 A 
ATOM     59  C   UNL A   1      50.894  29.332  26.046  1.00  0.00     0.074 A 
ATOM     60  C   UNL A   1      47.373  34.513  27.055  1.00  0.00     0.029 A 
ATOM     61  N   UNL A   1      48.071  32.436  26.673  1.00  0.00    -0.354 N 
ATOM     62  N   UNL A   1      50.088  30.345  26.259  1.00  0.00    -0.248 NA
ATOM     63  C   UNL A   1      52.308  29.706  25.911  1.00  0.00     0.031 C 
ATOM     64  C   UNL A   1      48.761  34.536  26.892  1.00  0.00     0.029 A 
ATOM     65  C   UNL A   1      49.201  33.239  26.681  1.00  0.00     0.049 A 
ATOM     66  H   UNL A   1      48.072  31.462  26.538  1.00  0.00     0.167 HD
ATOM     67  C   UNL A   1      50.901  31.471  26.314  1.00  0.00     0.074 A 
ATOM     68  C   UNL A   1      52.262  31.012  26.129  1.00  0.00     0.031 C 
ATOM     69  C   UNL A   1      50.551  32.767  26.501  1.00  0.00     0.037 A 
BRANCH  56  70
ATOM     70  C   UNL A   1      44.461  33.677  27.071  1.00  0.00     0.057 A 
ATOM     71  C   UNL A   1      43.866  34.320  25.976  1.00  0.00     0.134 A 
ATOM     72  C   UNL A   1      43.942  33.959  28.342  1.00  0.00     0.134 A 
ATOM     73  F   UNL A   1      44.321  34.106  24.733  1.00  0.00    -0.206 F 
ATOM     74  C   UNL A   1      42.821  35.231  26.142  1.00  0.00     0.040 A 
ATOM     75  C   UNL A   1      42.876  34.843  28.517  1.00  0.00     0.040 A 
ATOM     76  F   UNL A   1      44.458  33.374  29.433  1.00  0.00    -0.206 F 
ATOM     77  C   UNL A   1      42.319  35.489  27.415  1.00  0.00     0.006 A 
ENDBRANCH  56  70
BRANCH  57  78
ATOM     78  C   UNL A   1      51.643  26.865  25.719  1.00  0.00     0.057 A 
ATOM     79  C   UNL A   1      52.088  26.546  24.431  1.00  0.00     0.134 A 
ATOM     80  C   UNL A   1      52.241  26.193  26.791  1.00  0.00     0.134 A 
ATOM     81  F   UNL A   1      51.542  27.142  23.361  1.00  0.00    -0.206 F 
ATOM     82  C   UNL A   1      53.072  25.580  24.214  1.00  0.00     0.040 A 
ATOM     83  C   UNL A   1      53.246  25.245  26.591  1.00  0.00     0.040 A 
ATOM     84  F   UNL A   1      51.867  26.458  28.052  1.00  0.00    -0.206 F 
ATOM     85  C   UNL A   1      53.658  24.930  25.298  1.00  0.00     0.006 A 
ENDBRANCH  57  78
BRANCH  69  86
ATOM     86  C   UNL A   1      51.661  33.778  26.554  1.00  0.00     0.057 A 
ATOM     87  C   UNL A   1      52.095  34.467  25.414  1.00  0.00     0.134 A 
ATOM     88  C   UNL A   1      52.276  34.095  27.773  1.00  0.00     0.134 A 
ATOM     89  F   UNL A   1      51.556  34.203  24.214  1.00  0.00    -0.206 F 
ATOM     90  C   UNL A   1      53.120  35.412  25.479  1.00  0.00     0.040 A 
ATOM     91  C   UNL A   1      53.279  35.062  27.856  1.00  0.00     0.040 A 
ATOM     92  F   UNL A   1      51.901  33.481  28.906  1.00  0.00    -0.206 F 
ATOM     93  C   UNL A   1      53.709  35.718  26.705  1.00  0.00     0.006 A 
ENDBRANCH  69  86
ENDBRANCH  43  44
ENDBRANCH  35  38
ENDBRANCH  33  34
ENDBRANCH  32  33
ENDBRANCH   1  32
TORSDOF 14
ENDMDL
MODEL 3
REMARK VINA RESULT:     -11.6      0.535      5.981
REMARK SMILES CC1=NN(c2ccc(C(=O)NCCCCNC(=O)c3ccc(-c4c5nc(c(-c6c(F)cccc6F)c6ccc([nH]6)c(-c6c(F)cccc6F)c6nc(c(-c7c(F)cccc7F)c7ccc4[nH]7)C=C6)C=C5)cc3)cc2)C(=O)/C1=C\c1ccc(N2CCCC2)cc1
REMARK SMILES IDX 13 1 12 2 11 3 9 4 10 5 8 7 5 8 6 9 74 10 7 11 73 12 4 13
REMARK SMILES IDX 1 14 2 15 3 16 77 17 75 18 78 19 76 20 79 21 80 22 89 23
REMARK SMILES IDX 81 24 88 25 82 26 83 27 84 28 87 29 85 30 86 31 14 32 15 33
REMARK SMILES IDX 16 34 17 35 18 37 19 38 20 39 72 40 21 41 71 42 22 43 23 44
REMARK SMILES IDX 24 45 65 46 25 47 70 48 64 49 66 50 26 51 69 52 63 53 62 54
REMARK SMILES IDX 27 56 53 57 36 58 52 59 37 60 40 61 51 62 67 63 38 64 39 65
REMARK SMILES IDX 50 67 68 68 41 69 28 70 29 71 34 72 30 73 31 74 33 75 35 76
REMARK SMILES IDX 32 77 54 78 55 79 60 80 56 81 57 82 59 83 61 84 58 85 42 86
REMARK SMILES IDX 43 87 48 88 44 89 45 90 47 91 49 92 46 93
REMARK H PARENT 11 6 16 36 66 55 40 66
REMARK Flexibility Score: inf
ROOT
ATOM      1  C   UNL A   1      40.246  25.926  28.678  1.00  0.00     0.023 C 
ENDROOT
BRANCH   1   2
ATOM      2  C   UNL A   1      40.815  27.106  27.883  1.00  0.00     0.116 C 
BRANCH   2   3
ATOM      3  N   UNL A   1      41.335  28.113  28.786  1.00  0.00    -0.352 N 
ATOM      4  C   UNL A   1      40.846  29.328  29.200  1.00  0.00     0.251 C 
ATOM      5  O   UNL A   1      41.543  29.982  29.978  1.00  0.00    -0.269 OA
ATOM      6  H   UNL A   1      42.207  27.882  29.180  1.00  0.00     0.163 HD
BRANCH   4   7
ATOM      7  C   UNL A   1      39.505  29.854  28.809  1.00  0.00     0.039 A 
ATOM      8  C   UNL A   1      36.881  30.752  28.362  1.00  0.00     0.069 A 
ATOM      9  C   UNL A   1      37.641  31.330  29.376  1.00  0.00     0.029 A 
ATOM     10  C   UNL A   1      37.459  29.804  27.519  1.00  0.00     0.029 A 
ATOM     11  C   UNL A   1      38.936  30.851  29.622  1.00  0.00     0.016 A 
ATOM     12  C   UNL A   1      38.781  29.412  27.703  1.00  0.00     0.016 A 
BRANCH   8  13
ATOM     13  N   UNL A   1      35.534  31.082  28.185  1.00  0.00    -0.196 N 
ATOM     14  C   UNL A   1      33.127  33.740  28.090  1.00  0.00     0.069 C 
ATOM     15  C   UNL A   1      33.916  32.477  28.033  1.00  0.00     0.071 C 
ATOM     16  N   UNL A   1      35.100  32.338  28.573  1.00  0.00    -0.169 NA
ATOM     17  C   UNL A   1      33.463  31.252  27.344  1.00  0.00     0.065 C 
ATOM     18  C   UNL A   1      34.648  30.364  27.373  1.00  0.00     0.280 C 
ATOM     19  C   UNL A   1      32.237  30.982  26.879  1.00  0.00     0.024 C 
ATOM     20  O   UNL A   1      34.796  29.302  26.805  1.00  0.00    -0.267 OA
BRANCH  19  21
ATOM     21  C   UNL A   1      31.829  29.645  26.427  1.00  0.00    -0.025 A 
ATOM     22  C   UNL A   1      31.611  29.367  25.079  1.00  0.00     0.010 A 
ATOM     23  C   UNL A   1      31.655  28.620  27.361  1.00  0.00     0.010 A 
ATOM     24  C   UNL A   1      31.254  28.069  24.678  1.00  0.00     0.026 A 
ATOM     25  C   UNL A   1      31.288  27.335  26.951  1.00  0.00     0.026 A 
ATOM     26  C   UNL A   1      31.077  27.030  25.603  1.00  0.00     0.037 A 
BRANCH  26  27
ATOM     27  N   UNL A   1      30.743  25.762  25.184  1.00  0.00    -0.372 N 
ATOM     28  C   UNL A   1      30.826  24.573  26.026  1.00  0.00     0.116 C 
ATOM     29  C   UNL A   1      30.826  25.427  23.762  1.00  0.00     0.116 C 
ATOM     30  C   UNL A   1      31.380  23.506  25.087  1.00  0.00     0.023 C 
ATOM     31  C   UNL A   1      30.793  23.897  23.740  1.00  0.00     0.023 C 
ENDBRANCH  26  27
ENDBRANCH  19  21
ENDBRANCH   8  13
ENDBRANCH   4   7
ENDBRANCH   2   3
ENDBRANCH   1   2
BRANCH   1  32
ATOM     32  C   UNL A   1      39.419  24.960  27.829  1.00  0.00     0.023 C 
BRANCH  32  33
ATOM     33  C   UNL A   1      40.022  24.649  26.465  1.00  0.00     0.116 C 
BRANCH  33  34
ATOM     34  N   UNL A   1      40.835  23.442  26.462  1.00  0.00    -0.352 N 
ATOM     35  C   UNL A   1      42.203  23.340  26.393  1.00  0.00     0.251 C 
ATOM     36  H   UNL A   1      40.343  22.591  26.518  1.00  0.00     0.163 HD
ATOM     37  O   UNL A   1      42.746  22.248  26.270  1.00  0.00    -0.269 OA
BRANCH  35  38
ATOM     38  C   UNL A   1      43.008  24.575  26.428  1.00  0.00     0.039 A 
ATOM     39  C   UNL A   1      43.613  24.952  27.629  1.00  0.00     0.014 A 
ATOM     40  C   UNL A   1      43.213  25.321  25.264  1.00  0.00     0.014 A 
ATOM     41  C   UNL A   1      44.478  26.046  27.646  1.00  0.00     0.010 A 
ATOM     42  C   UNL A   1      44.138  26.357  25.265  1.00  0.00     0.010 A 
ATOM     43  C   UNL A   1      44.778  26.730  26.456  1.00  0.00    -0.014 A 
BRANCH  43  44
ATOM     44  C   UNL A   1      45.762  27.841  26.440  1.00  0.00     0.031 A 
ATOM     45  C   UNL A   1      47.231  27.547  26.324  1.00  0.00     0.074 A 
ATOM     46  C   UNL A   1      45.334  29.111  26.588  1.00  0.00     0.049 A 
ATOM     47  N   UNL A   1      48.243  28.375  26.337  1.00  0.00    -0.248 NA
ATOM     48  C   UNL A   1      47.615  26.132  26.201  1.00  0.00     0.031 C 
ATOM     49  C   UNL A   1      43.939  29.521  26.757  1.00  0.00     0.029 A 
ATOM     50  N   UNL A   1      46.032  30.290  26.624  1.00  0.00    -0.354 N 
ATOM     51  C   UNL A   1      49.379  27.583  26.233  1.00  0.00     0.074 A 
ATOM     52  C   UNL A   1      48.936  26.207  26.224  1.00  0.00     0.031 C 
ATOM     53  C   UNL A   1      43.881  30.858  26.846  1.00  0.00     0.029 A 
ATOM     54  C   UNL A   1      45.236  31.398  26.785  1.00  0.00     0.049 A 
ATOM     55  H   UNL A   1      47.012  30.339  26.542  1.00  0.00     0.167 HD
ATOM     56  C   UNL A   1      50.673  27.970  26.127  1.00  0.00     0.037 A 
ATOM     57  C   UNL A   1      45.563  32.701  26.880  1.00  0.00     0.037 A 
ATOM     58  C   UNL A   1      51.108  29.341  26.128  1.00  0.00     0.049 A 
ATOM     59  C   UNL A   1      47.009  33.102  26.793  1.00  0.00     0.074 A 
ATOM     60  C   UNL A   1      52.390  29.839  25.978  1.00  0.00     0.029 A 
ATOM     61  N   UNL A   1      50.271  30.435  26.297  1.00  0.00    -0.354 N 
ATOM     62  N   UNL A   1      48.068  32.347  26.621  1.00  0.00    -0.248 NA
ATOM     63  C   UNL A   1      47.306  34.536  26.908  1.00  0.00     0.031 C 
ATOM     64  C   UNL A   1      52.337  31.230  26.113  1.00  0.00     0.029 A 
ATOM     65  C   UNL A   1      51.014  31.605  26.284  1.00  0.00     0.049 A 
ATOM     66  H   UNL A   1      49.295  30.388  26.410  1.00  0.00     0.167 HD
ATOM     67  C   UNL A   1      49.151  33.217  26.576  1.00  0.00     0.074 A 
ATOM     68  C   UNL A   1      48.618  34.555  26.722  1.00  0.00     0.031 C 
ATOM     69  C   UNL A   1      50.468  32.932  26.426  1.00  0.00     0.037 A 
BRANCH  56  70
ATOM     70  C   UNL A   1      51.708  26.888  26.003  1.00  0.00     0.057 A 
ATOM     71  C   UNL A   1      52.065  26.344  24.761  1.00  0.00     0.134 A 
ATOM     72  C   UNL A   1      52.374  26.400  27.134  1.00  0.00     0.134 A 
ATOM     73  F   UNL A   1      51.459  26.756  23.638  1.00  0.00    -0.206 F 
ATOM     74  C   UNL A   1      53.022  25.331  24.653  1.00  0.00     0.040 A 
ATOM     75  C   UNL A   1      53.355  25.411  27.036  1.00  0.00     0.040 A 
ATOM     76  F   UNL A   1      52.088  26.880  28.353  1.00  0.00    -0.206 F 
ATOM     77  C   UNL A   1      53.674  24.868  25.793  1.00  0.00     0.006 A 
ENDBRANCH  56  70
BRANCH  57  78
ATOM     78  C   UNL A   1      44.500  33.726  27.047  1.00  0.00     0.057 A 
ATOM     79  C   UNL A   1      43.921  34.354  25.938  1.00  0.00     0.134 A 
ATOM     80  C   UNL A   1      44.046  34.111  28.314  1.00  0.00     0.134 A 
ATOM     81  F   UNL A   1      44.326  34.041  24.698  1.00  0.00    -0.206 F 
ATOM     82  C   UNL A   1      42.948  35.345  26.081  1.00  0.00     0.040 A 
ATOM     83  C   UNL A   1      43.052  35.080  28.472  1.00  0.00     0.040 A 
ATOM     84  F   UNL A   1      44.551  33.543  29.418  1.00  0.00    -0.206 F 
ATOM     85  C   UNL A   1      42.507  35.706  27.353  1.00  0.00     0.006 A 
ENDBRANCH  57  78
BRANCH  69  86
ATOM     86  C   UNL A   1      51.421  34.092  26.374  1.00  0.00     0.057 A 
ATOM     87  C   UNL A   1      51.833  34.663  25.162  1.00  0.00     0.134 A 
ATOM     88  C   UNL A   1      51.903  34.670  27.556  1.00  0.00     0.134 A 
ATOM     89  F   UNL A   1      51.418  34.149  23.993  1.00  0.00    -0.206 F 
ATOM     90  C   UNL A   1      52.711  35.747  25.128  1.00  0.00     0.040 A 
ATOM     91  C   UNL A   1      52.755  35.775  27.535  1.00  0.00     0.040 A 
ATOM     92  F   UNL A   1      51.540  34.181  28.751  1.00  0.00    -0.206 F 
ATOM     93  C   UNL A   1      53.168  36.311  26.318  1.00  0.00     0.006 A 
ENDBRANCH  69  86
ENDBRANCH  43  44
ENDBRANCH  35  38
ENDBRANCH  33  34
ENDBRANCH  32  33
ENDBRANCH   1  32
TORSDOF 14
ENDMDL
