MODEL 1
REMARK VINA RESULT:     -10.0      0.000      0.000
REMARK SMILES C[N@H+](Cc1cc(Cl)ccc1[N+](=O)[O-])[C@H]1COC[C@@H]1C(=O)NCCCCNC(=O)c1ccc(-c2c3nc(c(-c4c(F)cccc4F)c4ccc([nH]4)c(-c4c(F)cccc4F)c4nc(c(-c5c(F)cccc5F)c5ccc2[nH]5)C=C4)C=C3)cc1
REMARK SMILES IDX 22 1 21 2 19 3 20 4 18 6 14 7 15 8 16 9 17 10 2 11 1 12 3 14
REMARK SMILES IDX 4 15 5 16 10 17 6 18 9 19 7 20 8 21 11 22 12 23 13 24 23 25
REMARK SMILES IDX 24 26 25 27 26 28 27 29 28 31 29 32 30 33 82 34 31 35 81 36
REMARK SMILES IDX 32 37 33 38 34 39 75 40 35 41 80 42 74 43 76 44 36 45 79 46
REMARK SMILES IDX 73 47 72 48 37 50 63 51 46 52 62 53 47 54 50 55 61 56 77 57
REMARK SMILES IDX 48 58 49 59 60 61 78 62 51 63 38 64 39 65 44 66 40 67 41 68
REMARK SMILES IDX 43 69 45 70 42 71 64 72 65 73 70 74 66 75 67 76 69 77 71 78
REMARK SMILES IDX 68 79 52 80 53 81 58 82 54 83 55 84 57 85 59 86 56 87
REMARK H PARENT 21 5 2 13 26 30 76 49 50 60
REMARK Flexibility Score: inf
ROOT
ATOM      1  C   UNL A   1      34.494  35.672  28.925  1.00  0.00     0.116 C 
ENDROOT
BRANCH   1   2
ATOM      2  N   UNL A   1      33.376  35.627  29.851  1.00  0.00    -0.356 N 
ATOM      3  C   UNL A   1      33.380  35.342  31.191  1.00  0.00     0.231 C 
ATOM      4  O   UNL A   1      32.305  35.282  31.783  1.00  0.00    -0.274 OA
ATOM      5  H   UNL A   1      32.494  35.829  29.463  1.00  0.00     0.163 HD
BRANCH   3   6
ATOM      6  C   UNL A   1      34.721  35.097  31.865  1.00  0.00     0.164 C 
ATOM      7  C   UNL A   1      34.963  33.628  32.209  1.00  0.00     0.225 C 
ATOM      8  C   UNL A   1      34.307  33.548  33.598  1.00  0.00     0.226 C 
ATOM      9  O   UNL A   1      34.450  34.834  34.224  1.00  0.00    -0.374 OA
ATOM     10  C   UNL A   1      34.743  35.801  33.212  1.00  0.00     0.180 C 
BRANCH   7  11
ATOM     11  N   UNL A   1      36.386  33.157  32.323  1.00  0.00    -0.328 N 
ATOM     12  C   UNL A   1      37.172  33.265  31.094  1.00  0.00     0.333 C 
ATOM     13  H   UNL A   1      36.853  33.795  32.967  1.00  0.00     0.348 HD
BRANCH  11  14
ATOM     14  C   UNL A   1      36.402  31.779  32.866  1.00  0.00     0.306 C 
BRANCH  14  15
ATOM     15  C   UNL A   1      37.653  31.462  33.667  1.00  0.00     0.085 A 
ATOM     16  C   UNL A   1      38.366  30.299  33.283  1.00  0.00     0.037 A 
ATOM     17  C   UNL A   1      38.211  32.273  34.678  1.00  0.00     0.278 A 
ATOM     18  C   UNL A   1      39.603  29.983  33.842  1.00  0.00     0.042 A 
ATOM     19  C   UNL A   1      39.457  31.930  35.249  1.00  0.00     0.088 A 
ATOM     20  Cl  UNL A   1      40.463  28.603  33.284  1.00  0.00    -0.084 Cl
ATOM     21  C   UNL A   1      40.155  30.797  34.822  1.00  0.00     0.027 A 
BRANCH  17  22
ATOM     22  N   UNL A   1      37.552  33.487  35.200  1.00  0.00     0.063 N 
ATOM     23  O   UNL A   1      36.754  33.340  36.138  1.00  0.00    -0.258 OA
ATOM     24  O   UNL A   1      37.769  34.570  34.647  1.00  0.00    -0.258 OA
ENDBRANCH  17  22
ENDBRANCH  14  15
ENDBRANCH  11  14
ENDBRANCH   7  11
ENDBRANCH   3   6
ENDBRANCH   1   2
BRANCH   1  25
ATOM     25  C   UNL A   1      34.341  34.653  27.798  1.00  0.00     0.023 C 
BRANCH  25  26
ATOM     26  C   UNL A   1      35.146  33.366  27.989  1.00  0.00     0.023 C 
BRANCH  26  27
ATOM     27  C   UNL A   1      34.525  32.345  28.934  1.00  0.00     0.116 C 
BRANCH  27  28
ATOM     28  N   UNL A   1      33.956  31.197  28.245  1.00  0.00    -0.352 N 
ATOM     29  C   UNL A   1      34.583  30.035  27.859  1.00  0.00     0.251 C 
ATOM     30  H   UNL A   1      32.998  31.259  28.028  1.00  0.00     0.163 HD
ATOM     31  O   UNL A   1      33.990  29.203  27.180  1.00  0.00    -0.269 OA
BRANCH  29  32
ATOM     32  C   UNL A   1      35.994  29.818  28.236  1.00  0.00     0.039 A 
ATOM     33  C   UNL A   1      36.287  29.316  29.507  1.00  0.00     0.014 A 
ATOM     34  C   UNL A   1      37.020  30.068  27.321  1.00  0.00     0.014 A 
ATOM     35  C   UNL A   1      37.606  28.994  29.834  1.00  0.00     0.010 A 
ATOM     36  C   UNL A   1      38.321  29.681  27.623  1.00  0.00     0.010 A 
ATOM     37  C   UNL A   1      38.626  29.138  28.881  1.00  0.00    -0.014 A 
BRANCH  37  38
ATOM     38  C   UNL A   1      40.026  28.736  29.172  1.00  0.00     0.031 A 
ATOM     39  C   UNL A   1      40.948  29.696  29.871  1.00  0.00     0.074 A 
ATOM     40  C   UNL A   1      40.490  27.549  28.737  1.00  0.00     0.049 A 
ATOM     41  N   UNL A   1      42.232  29.591  30.104  1.00  0.00    -0.248 NA
ATOM     42  C   UNL A   1      40.351  30.955  30.346  1.00  0.00     0.031 C 
ATOM     43  C   UNL A   1      39.707  26.542  28.018  1.00  0.00     0.029 A 
ATOM     44  N   UNL A   1      41.742  26.994  28.825  1.00  0.00    -0.354 N 
ATOM     45  C   UNL A   1      42.597  30.774  30.732  1.00  0.00     0.074 A 
ATOM     46  C   UNL A   1      41.414  31.603  30.799  1.00  0.00     0.031 C 
ATOM     47  C   UNL A   1      40.492  25.488  27.743  1.00  0.00     0.029 A 
ATOM     48  C   UNL A   1      41.842  25.759  28.230  1.00  0.00     0.049 A 
ATOM     49  H   UNL A   1      42.499  27.439  29.272  1.00  0.00     0.167 HD
ATOM     50  C   UNL A   1      43.806  31.129  31.229  1.00  0.00     0.037 A 
ATOM     51  C   UNL A   1      42.904  24.945  28.081  1.00  0.00     0.037 A 
ATOM     52  C   UNL A   1      44.976  30.293  31.186  1.00  0.00     0.049 A 
ATOM     53  C   UNL A   1      44.239  25.369  28.630  1.00  0.00     0.074 A 
ATOM     54  C   UNL A   1      46.235  30.546  31.703  1.00  0.00     0.029 A 
ATOM     55  N   UNL A   1      45.028  29.039  30.597  1.00  0.00    -0.354 N 
ATOM     56  N   UNL A   1      44.561  26.471  29.263  1.00  0.00    -0.248 NA
ATOM     57  C   UNL A   1      45.359  24.435  28.444  1.00  0.00     0.031 C 
ATOM     58  C   UNL A   1      47.059  29.458  31.395  1.00  0.00     0.029 A 
ATOM     59  C   UNL A   1      46.302  28.511  30.726  1.00  0.00     0.049 A 
ATOM     60  H   UNL A   1      44.273  28.592  30.154  1.00  0.00     0.167 HD
ATOM     61  C   UNL A   1      45.906  26.346  29.583  1.00  0.00     0.074 A 
ATOM     62  C   UNL A   1      46.341  25.060  29.078  1.00  0.00     0.031 C 
ATOM     63  C   UNL A   1      46.710  27.219  30.238  1.00  0.00     0.037 A 
BRANCH  50  64
ATOM     64  C   UNL A   1      43.917  32.482  31.869  1.00  0.00     0.057 A 
ATOM     65  C   UNL A   1      43.649  32.678  33.230  1.00  0.00     0.134 A 
ATOM     66  C   UNL A   1      44.323  33.596  31.122  1.00  0.00     0.134 A 
ATOM     67  F   UNL A   1      43.243  31.655  33.996  1.00  0.00    -0.206 F 
ATOM     68  C   UNL A   1      43.753  33.938  33.820  1.00  0.00     0.040 A 
ATOM     69  C   UNL A   1      44.457  34.857  31.708  1.00  0.00     0.040 A 
ATOM     70  F   UNL A   1      44.600  33.478  29.815  1.00  0.00    -0.206 F 
ATOM     71  C   UNL A   1      44.164  35.031  33.060  1.00  0.00     0.006 A 
ENDBRANCH  50  64
BRANCH  51  72
ATOM     72  C   UNL A   1      42.750  23.633  27.403  1.00  0.00     0.057 A 
ATOM     73  C   UNL A   1      42.413  22.485  28.127  1.00  0.00     0.134 A 
ATOM     74  C   UNL A   1      42.955  23.491  26.025  1.00  0.00     0.134 A 
ATOM     75  F   UNL A   1      42.224  22.555  29.453  1.00  0.00    -0.206 F 
ATOM     76  C   UNL A   1      42.304  21.237  27.512  1.00  0.00     0.040 A 
ATOM     77  C   UNL A   1      42.825  22.254  25.392  1.00  0.00     0.040 A 
ATOM     78  F   UNL A   1      43.274  24.555  25.274  1.00  0.00    -0.206 F 
ATOM     79  C   UNL A   1      42.507  21.120  26.138  1.00  0.00     0.006 A 
ENDBRANCH  51  72
BRANCH  63  80
ATOM     80  C   UNL A   1      48.126  26.793  30.496  1.00  0.00     0.057 A 
ATOM     81  C   UNL A   1      48.474  26.013  31.605  1.00  0.00     0.134 A 
ATOM     82  C   UNL A   1      49.142  27.129  29.592  1.00  0.00     0.134 A 
ATOM     83  F   UNL A   1      47.548  25.671  32.513  1.00  0.00    -0.206 F 
ATOM     84  C   UNL A   1      49.789  25.595  31.815  1.00  0.00     0.040 A 
ATOM     85  C   UNL A   1      50.455  26.696  29.779  1.00  0.00     0.040 A 
ATOM     86  F   UNL A   1      48.872  27.868  28.505  1.00  0.00    -0.206 F 
ATOM     87  C   UNL A   1      50.782  25.930  30.896  1.00  0.00     0.006 A 
ENDBRANCH  63  80
ENDBRANCH  37  38
ENDBRANCH  29  32
ENDBRANCH  27  28
ENDBRANCH  26  27
ENDBRANCH  25  26
ENDBRANCH   1  25
TORSDOF 15
ENDMDL
MODEL 2
REMARK VINA RESULT:      -9.9      5.000     10.335
REMARK SMILES C[N@H+](Cc1cc(Cl)ccc1[N+](=O)[O-])[C@H]1COC[C@@H]1C(=O)NCCCCNC(=O)c1ccc(-c2c3nc(c(-c4c(F)cccc4F)c4ccc([nH]4)c(-c4c(F)cccc4F)c4nc(c(-c5c(F)cccc5F)c5ccc2[nH]5)C=C4)C=C3)cc1
REMARK SMILES IDX 22 1 21 2 19 3 20 4 18 6 14 7 15 8 16 9 17 10 2 11 1 12 3 14
REMARK SMILES IDX 4 15 5 16 10 17 6 18 9 19 7 20 8 21 11 22 12 23 13 24 23 25
REMARK SMILES IDX 24 26 25 27 26 28 27 29 28 31 29 32 30 33 82 34 31 35 81 36
REMARK SMILES IDX 32 37 33 38 34 39 75 40 35 41 80 42 74 43 76 44 36 45 79 46
REMARK SMILES IDX 73 47 72 48 37 50 63 51 46 52 62 53 47 54 50 55 61 56 77 57
REMARK SMILES IDX 48 58 49 59 60 61 78 62 51 63 38 64 39 65 44 66 40 67 41 68
REMARK SMILES IDX 43 69 45 70 42 71 64 72 65 73 70 74 66 75 67 76 69 77 71 78
REMARK SMILES IDX 68 79 52 80 53 81 58 82 54 83 55 84 57 85 59 86 56 87
REMARK H PARENT 21 5 2 13 26 30 76 49 50 60
REMARK Flexibility Score: inf
ROOT
ATOM      1  C   UNL A   1      36.726  22.027  25.556  1.00  0.00     0.116 C 
ENDROOT
BRANCH   1   2
ATOM      2  N   UNL A   1      35.806  21.606  26.599  1.00  0.00    -0.356 N 
ATOM      3  C   UNL A   1      34.437  21.639  26.602  1.00  0.00     0.231 C 
ATOM      4  O   UNL A   1      33.843  21.303  27.624  1.00  0.00    -0.274 OA
ATOM      5  H   UNL A   1      36.224  21.247  27.416  1.00  0.00     0.163 HD
BRANCH   3   6
ATOM      6  C   UNL A   1      33.731  22.110  25.340  1.00  0.00     0.164 C 
ATOM      7  C   UNL A   1      32.490  22.956  25.624  1.00  0.00     0.225 C 
ATOM      8  C   UNL A   1      31.420  21.859  25.754  1.00  0.00     0.226 C 
ATOM      9  O   UNL A   1      31.802  20.771  24.897  1.00  0.00    -0.374 OA
ATOM     10  C   UNL A   1      33.192  20.906  24.586  1.00  0.00     0.180 C 
BRANCH   7  11
ATOM     11  N   UNL A   1      32.049  23.935  24.572  1.00  0.00    -0.328 N 
ATOM     12  C   UNL A   1      31.066  23.416  23.621  1.00  0.00     0.333 C 
ATOM     13  H   UNL A   1      31.549  24.678  25.058  1.00  0.00     0.348 HD
BRANCH  11  14
ATOM     14  C   UNL A   1      33.241  24.483  23.885  1.00  0.00     0.306 C 
BRANCH  14  15
ATOM     15  C   UNL A   1      33.238  25.998  23.791  1.00  0.00     0.085 A 
ATOM     16  C   UNL A   1      33.658  26.701  24.949  1.00  0.00     0.037 A 
ATOM     17  C   UNL A   1      32.957  26.751  22.630  1.00  0.00     0.278 A 
ATOM     18  C   UNL A   1      33.838  28.083  24.939  1.00  0.00     0.042 A 
ATOM     19  C   UNL A   1      33.126  28.154  22.641  1.00  0.00     0.088 A 
ATOM     20  Cl  UNL A   1      34.423  28.875  26.348  1.00  0.00    -0.084 Cl
ATOM     21  C   UNL A   1      33.578  28.813  23.787  1.00  0.00     0.027 A 
BRANCH  17  22
ATOM     22  N   UNL A   1      32.472  26.150  21.371  1.00  0.00     0.063 N 
ATOM     23  O   UNL A   1      33.328  25.722  20.582  1.00  0.00    -0.258 OA
ATOM     24  O   UNL A   1      31.260  26.158  21.132  1.00  0.00    -0.258 OA
ENDBRANCH  17  22
ENDBRANCH  14  15
ENDBRANCH  11  14
ENDBRANCH   7  11
ENDBRANCH   3   6
ENDBRANCH   1   2
BRANCH   1  25
ATOM     25  C   UNL A   1      36.941  20.934  24.512  1.00  0.00     0.023 C 
BRANCH  25  26
ATOM     26  C   UNL A   1      37.860  19.795  24.960  1.00  0.00     0.023 C 
BRANCH  26  27
ATOM     27  C   UNL A   1      39.099  20.227  25.735  1.00  0.00     0.116 C 
BRANCH  27  28
ATOM     28  N   UNL A   1      40.114  19.189  25.819  1.00  0.00    -0.352 N 
ATOM     29  C   UNL A   1      41.451  19.322  26.111  1.00  0.00     0.251 C 
ATOM     30  H   UNL A   1      39.803  18.271  25.646  1.00  0.00     0.163 HD
ATOM     31  O   UNL A   1      42.206  18.358  26.030  1.00  0.00    -0.269 OA
BRANCH  29  32
ATOM     32  C   UNL A   1      41.979  20.651  26.483  1.00  0.00     0.039 A 
ATOM     33  C   UNL A   1      42.377  21.530  25.472  1.00  0.00     0.014 A 
ATOM     34  C   UNL A   1      42.040  21.041  27.823  1.00  0.00     0.014 A 
ATOM     35  C   UNL A   1      42.766  22.830  25.802  1.00  0.00     0.010 A 
ATOM     36  C   UNL A   1      42.359  22.355  28.143  1.00  0.00     0.010 A 
ATOM     37  C   UNL A   1      42.722  23.264  27.136  1.00  0.00    -0.014 A 
BRANCH  37  38
ATOM     38  C   UNL A   1      43.059  24.660  27.512  1.00  0.00     0.031 A 
ATOM     39  C   UNL A   1      44.499  25.086  27.589  1.00  0.00     0.074 A 
ATOM     40  C   UNL A   1      42.081  25.517  27.863  1.00  0.00     0.049 A 
ATOM     41  N   UNL A   1      45.007  26.214  28.017  1.00  0.00    -0.248 NA
ATOM     42  C   UNL A   1      45.501  24.101  27.153  1.00  0.00     0.031 C 
ATOM     43  C   UNL A   1      40.647  25.217  27.863  1.00  0.00     0.029 A 
ATOM     44  N   UNL A   1      42.148  26.816  28.303  1.00  0.00    -0.354 N 
ATOM     45  C   UNL A   1      46.384  26.065  27.920  1.00  0.00     0.074 A 
ATOM     46  C   UNL A   1      46.634  24.723  27.442  1.00  0.00     0.031 C 
ATOM     47  C   UNL A   1      39.971  26.304  28.269  1.00  0.00     0.029 A 
ATOM     48  C   UNL A   1      40.922  27.363  28.596  1.00  0.00     0.049 A 
ATOM     49  H   UNL A   1      42.995  27.308  28.402  1.00  0.00     0.167 HD
ATOM     50  C   UNL A   1      47.354  26.973  28.185  1.00  0.00     0.037 A 
ATOM     51  C   UNL A   1      40.602  28.576  29.085  1.00  0.00     0.037 A 
ATOM     52  C   UNL A   1      47.104  28.316  28.635  1.00  0.00     0.049 A 
ATOM     53  C   UNL A   1      41.699  29.561  29.385  1.00  0.00     0.074 A 
ATOM     54  C   UNL A   1      48.017  29.325  28.887  1.00  0.00     0.029 A 
ATOM     55  N   UNL A   1      45.846  28.839  28.894  1.00  0.00    -0.354 N 
ATOM     56  N   UNL A   1      42.995  29.425  29.244  1.00  0.00    -0.248 NA
ATOM     57  C   UNL A   1      41.287  30.872  29.909  1.00  0.00     0.031 C 
ATOM     58  C   UNL A   1      47.314  30.449  29.334  1.00  0.00     0.029 A 
ATOM     59  C   UNL A   1      45.960  30.153  29.317  1.00  0.00     0.049 A 
ATOM     60  H   UNL A   1      44.999  28.349  28.794  1.00  0.00     0.167 HD
ATOM     61  C   UNL A   1      43.549  30.639  29.626  1.00  0.00     0.074 A 
ATOM     62  C   UNL A   1      42.449  31.503  30.000  1.00  0.00     0.031 C 
ATOM     63  C   UNL A   1      44.853  31.006  29.663  1.00  0.00     0.037 A 
BRANCH  50  64
ATOM     64  C   UNL A   1      48.777  26.539  27.986  1.00  0.00     0.057 A 
ATOM     65  C   UNL A   1      49.518  25.950  29.018  1.00  0.00     0.134 A 
ATOM     66  C   UNL A   1      49.404  26.688  26.742  1.00  0.00     0.134 A 
ATOM     67  F   UNL A   1      48.980  25.792  30.237  1.00  0.00    -0.206 F 
ATOM     68  C   UNL A   1      50.842  25.548  28.829  1.00  0.00     0.040 A 
ATOM     69  C   UNL A   1      50.718  26.265  26.533  1.00  0.00     0.040 A 
ATOM     70  F   UNL A   1      48.749  27.240  25.709  1.00  0.00    -0.206 F 
ATOM     71  C   UNL A   1      51.443  25.700  27.582  1.00  0.00     0.006 A 
ENDBRANCH  50  64
BRANCH  51  72
ATOM     72  C   UNL A   1      39.180  28.942  29.304  1.00  0.00     0.057 A 
ATOM     73  C   UNL A   1      38.573  28.748  30.550  1.00  0.00     0.134 A 
ATOM     74  C   UNL A   1      38.391  29.470  28.276  1.00  0.00     0.134 A 
ATOM     75  F   UNL A   1      39.272  28.226  31.568  1.00  0.00    -0.206 F 
ATOM     76  C   UNL A   1      37.226  29.049  30.763  1.00  0.00     0.040 A 
ATOM     77  C   UNL A   1      37.049  29.799  28.481  1.00  0.00     0.040 A 
ATOM     78  F   UNL A   1      38.916  29.686  27.061  1.00  0.00    -0.206 F 
ATOM     79  C   UNL A   1      36.462  29.579  29.725  1.00  0.00     0.006 A 
ENDBRANCH  51  72
BRANCH  63  80
ATOM     80  C   UNL A   1      45.162  32.417  30.070  1.00  0.00     0.057 A 
ATOM     81  C   UNL A   1      45.190  33.466  29.143  1.00  0.00     0.134 A 
ATOM     82  C   UNL A   1      45.384  32.734  31.416  1.00  0.00     0.134 A 
ATOM     83  F   UNL A   1      44.999  33.224  27.837  1.00  0.00    -0.206 F 
ATOM     84  C   UNL A   1      45.444  34.780  29.539  1.00  0.00     0.040 A 
ATOM     85  C   UNL A   1      45.615  34.046  31.827  1.00  0.00     0.040 A 
ATOM     86  F   UNL A   1      45.362  31.775  32.355  1.00  0.00    -0.206 F 
ATOM     87  C   UNL A   1      45.650  35.073  30.886  1.00  0.00     0.006 A 
ENDBRANCH  63  80
ENDBRANCH  37  38
ENDBRANCH  29  32
ENDBRANCH  27  28
ENDBRANCH  26  27
ENDBRANCH  25  26
ENDBRANCH   1  25
TORSDOF 15
ENDMDL
MODEL 3
REMARK VINA RESULT:      -9.9      3.885      7.137
REMARK SMILES C[N@H+](Cc1cc(Cl)ccc1[N+](=O)[O-])[C@H]1COC[C@@H]1C(=O)NCCCCNC(=O)c1ccc(-c2c3nc(c(-c4c(F)cccc4F)c4ccc([nH]4)c(-c4c(F)cccc4F)c4nc(c(-c5c(F)cccc5F)c5ccc2[nH]5)C=C4)C=C3)cc1
REMARK SMILES IDX 22 1 21 2 19 3 20 4 18 6 14 7 15 8 16 9 17 10 2 11 1 12 3 14
REMARK SMILES IDX 4 15 5 16 10 17 6 18 9 19 7 20 8 21 11 22 12 23 13 24 23 25
REMARK SMILES IDX 24 26 25 27 26 28 27 29 28 31 29 32 30 33 82 34 31 35 81 36
REMARK SMILES IDX 32 37 33 38 34 39 75 40 35 41 80 42 74 43 76 44 36 45 79 46
REMARK SMILES IDX 73 47 72 48 37 50 63 51 46 52 62 53 47 54 50 55 61 56 77 57
REMARK SMILES IDX 48 58 49 59 60 61 78 62 51 63 38 64 39 65 44 66 40 67 41 68
REMARK SMILES IDX 43 69 45 70 42 71 64 72 65 73 70 74 66 75 67 76 69 77 71 78
REMARK SMILES IDX 68 79 52 80 53 81 58 82 54 83 55 84 57 85 59 86 56 87
REMARK H PARENT 21 5 2 13 26 30 76 49 50 60
REMARK Flexibility Score: inf
ROOT
ATOM      1  C   UNL A   1      31.461  29.206  25.248  1.00  0.00     0.116 C 
ENDROOT
BRANCH   1   2
ATOM      2  N   UNL A   1      30.937  28.892  23.930  1.00  0.00    -0.356 N 
ATOM      3  C   UNL A   1      30.810  27.671  23.324  1.00  0.00     0.231 C 
ATOM      4  O   UNL A   1      30.408  27.629  22.163  1.00  0.00    -0.274 OA
ATOM      5  H   UNL A   1      30.631  29.663  23.399  1.00  0.00     0.163 HD
BRANCH   3   6
ATOM      6  C   UNL A   1      31.194  26.434  24.121  1.00  0.00     0.164 C 
ATOM      7  C   UNL A   1      32.341  25.643  23.492  1.00  0.00     0.225 C 
ATOM      8  C   UNL A   1      31.563  24.724  22.535  1.00  0.00     0.226 C 
ATOM      9  O   UNL A   1      30.278  24.464  23.126  1.00  0.00    -0.374 OA
ATOM     10  C   UNL A   1      30.030  25.457  24.126  1.00  0.00     0.180 C 
BRANCH   7  11
ATOM     11  N   UNL A   1      33.187  24.790  24.396  1.00  0.00    -0.328 N 
ATOM     12  C   UNL A   1      33.516  25.397  25.685  1.00  0.00     0.333 C 
ATOM     13  H   UNL A   1      32.619  23.981  24.646  1.00  0.00     0.348 HD
BRANCH  11  14
ATOM     14  C   UNL A   1      34.400  24.359  23.665  1.00  0.00     0.306 C 
BRANCH  14  15
ATOM     15  C   UNL A   1      34.931  23.012  24.121  1.00  0.00     0.085 A 
ATOM     16  C   UNL A   1      36.313  22.953  24.432  1.00  0.00     0.037 A 
ATOM     17  C   UNL A   1      34.154  21.857  24.357  1.00  0.00     0.278 A 
ATOM     18  C   UNL A   1      36.887  21.817  24.999  1.00  0.00     0.042 A 
ATOM     19  C   UNL A   1      34.754  20.705  24.914  1.00  0.00     0.088 A 
ATOM     20  Cl  UNL A   1      38.551  21.827  25.428  1.00  0.00    -0.084 Cl
ATOM     21  C   UNL A   1      36.111  20.692  25.246  1.00  0.00     0.027 A 
BRANCH  17  22
ATOM     22  N   UNL A   1      32.714  21.769  24.039  1.00  0.00     0.063 N 
ATOM     23  O   UNL A   1      31.917  22.106  24.927  1.00  0.00    -0.258 OA
ATOM     24  O   UNL A   1      32.370  21.310  22.945  1.00  0.00    -0.258 OA
ENDBRANCH  17  22
ENDBRANCH  14  15
ENDBRANCH  11  14
ENDBRANCH   7  11
ENDBRANCH   3   6
ENDBRANCH   1   2
BRANCH   1  25
ATOM     25  C   UNL A   1      32.904  29.702  25.184  1.00  0.00     0.023 C 
BRANCH  25  26
ATOM     26  C   UNL A   1      33.927  28.771  25.837  1.00  0.00     0.023 C 
BRANCH  26  27
ATOM     27  C   UNL A   1      33.912  28.756  27.361  1.00  0.00     0.116 C 
BRANCH  27  28
ATOM     28  N   UNL A   1      33.891  30.088  27.948  1.00  0.00    -0.352 N 
ATOM     29  C   UNL A   1      34.906  30.754  28.593  1.00  0.00     0.251 C 
ATOM     30  H   UNL A   1      33.039  30.576  27.872  1.00  0.00     0.163 HD
ATOM     31  O   UNL A   1      34.695  31.833  29.136  1.00  0.00    -0.269 OA
BRANCH  29  32
ATOM     32  C   UNL A   1      36.245  30.136  28.661  1.00  0.00     0.039 A 
ATOM     33  C   UNL A   1      37.073  30.186  27.536  1.00  0.00     0.014 A 
ATOM     34  C   UNL A   1      36.697  29.547  29.845  1.00  0.00     0.014 A 
ATOM     35  C   UNL A   1      38.384  29.712  27.623  1.00  0.00     0.010 A 
ATOM     36  C   UNL A   1      38.022  29.141  29.950  1.00  0.00     0.010 A 
ATOM     37  C   UNL A   1      38.880  29.222  28.841  1.00  0.00    -0.014 A 
BRANCH  37  38
ATOM     38  C   UNL A   1      40.289  28.778  28.986  1.00  0.00     0.031 A 
ATOM     39  C   UNL A   1      41.326  29.741  29.494  1.00  0.00     0.074 A 
ATOM     40  C   UNL A   1      40.651  27.544  28.586  1.00  0.00     0.049 A 
ATOM     41  N   UNL A   1      42.624  29.593  29.575  1.00  0.00    -0.248 NA
ATOM     42  C   UNL A   1      40.840  31.054  29.946  1.00  0.00     0.031 C 
ATOM     43  C   UNL A   1      39.747  26.527  28.044  1.00  0.00     0.029 A 
ATOM     44  N   UNL A   1      41.883  26.940  28.559  1.00  0.00    -0.354 N 
ATOM     45  C   UNL A   1      43.109  30.798  30.065  1.00  0.00     0.074 A 
ATOM     46  C   UNL A   1      41.975  31.683  30.216  1.00  0.00     0.031 C 
ATOM     47  C   UNL A   1      40.453  25.422  27.753  1.00  0.00     0.029 A 
ATOM     48  C   UNL A   1      41.861  25.665  28.048  1.00  0.00     0.049 A 
ATOM     49  H   UNL A   1      42.706  27.379  28.876  1.00  0.00     0.167 HD
ATOM     50  C   UNL A   1      44.383  31.132  30.382  1.00  0.00     0.037 A 
ATOM     51  C   UNL A   1      42.866  24.795  27.830  1.00  0.00     0.037 A 
ATOM     52  C   UNL A   1      45.507  30.242  30.257  1.00  0.00     0.049 A 
ATOM     53  C   UNL A   1      44.275  25.195  28.177  1.00  0.00     0.074 A 
ATOM     54  C   UNL A   1      46.829  30.472  30.595  1.00  0.00     0.029 A 
ATOM     55  N   UNL A   1      45.438  28.950  29.760  1.00  0.00    -0.354 N 
ATOM     56  N   UNL A   1      44.714  26.320  28.684  1.00  0.00    -0.248 NA
ATOM     57  C   UNL A   1      45.327  24.200  27.925  1.00  0.00     0.031 C 
ATOM     58  C   UNL A   1      47.568  29.330  30.268  1.00  0.00     0.029 A 
ATOM     59  C   UNL A   1      46.698  28.374  29.769  1.00  0.00     0.049 A 
ATOM     60  H   UNL A   1      44.617  28.509  29.446  1.00  0.00     0.167 HD
ATOM     61  C   UNL A   1      46.083  26.157  28.845  1.00  0.00     0.074 A 
ATOM     62  C   UNL A   1      46.403  24.822  28.386  1.00  0.00     0.031 C 
ATOM     63  C   UNL A   1      46.994  27.035  29.329  1.00  0.00     0.037 A 
BRANCH  50  64
ATOM     64  C   UNL A   1      44.623  32.519  30.903  1.00  0.00     0.057 A 
ATOM     65  C   UNL A   1      44.573  32.811  32.272  1.00  0.00     0.134 A 
ATOM     66  C   UNL A   1      44.934  33.568  30.028  1.00  0.00     0.134 A 
ATOM     67  F   UNL A   1      44.267  31.853  33.160  1.00  0.00    -0.206 F 
ATOM     68  C   UNL A   1      44.796  34.102  32.752  1.00  0.00     0.040 A 
ATOM     69  C   UNL A   1      45.187  34.858  30.498  1.00  0.00     0.040 A 
ATOM     70  F   UNL A   1      45.004  33.356  28.705  1.00  0.00    -0.206 F 
ATOM     71  C   UNL A   1      45.110  35.129  31.864  1.00  0.00     0.006 A 
ENDBRANCH  50  64
BRANCH  51  72
ATOM     72  C   UNL A   1      42.581  23.448  27.273  1.00  0.00     0.057 A 
ATOM     73  C   UNL A   1      42.243  22.381  28.113  1.00  0.00     0.134 A 
ATOM     74  C   UNL A   1      42.657  23.191  25.900  1.00  0.00     0.134 A 
ATOM     75  F   UNL A   1      42.174  22.562  29.440  1.00  0.00    -0.206 F 
ATOM     76  C   UNL A   1      42.010  21.100  27.610  1.00  0.00     0.040 A 
ATOM     77  C   UNL A   1      42.403  21.920  25.380  1.00  0.00     0.040 A 
ATOM     78  F   UNL A   1      42.969  24.173  25.042  1.00  0.00    -0.206 F 
ATOM     79  C   UNL A   1      42.087  20.868  26.238  1.00  0.00     0.006 A 
ENDBRANCH  51  72
BRANCH  63  80
ATOM     80  C   UNL A   1      48.415  26.564  29.442  1.00  0.00     0.057 A 
ATOM     81  C   UNL A   1      49.354  26.794  28.430  1.00  0.00     0.134 A 
ATOM     82  C   UNL A   1      48.856  25.916  30.603  1.00  0.00     0.134 A 
ATOM     83  F   UNL A   1      48.989  27.398  27.288  1.00  0.00    -0.206 F 
ATOM     84  C   UNL A   1      50.681  26.382  28.562  1.00  0.00     0.040 A 
ATOM     85  C   UNL A   1      50.185  25.520  30.756  1.00  0.00     0.040 A 
ATOM     86  F   UNL A   1      48.006  25.673  31.613  1.00  0.00    -0.206 F 
ATOM     87  C   UNL A   1      51.100  25.750  29.731  1.00  0.00     0.006 A 
ENDBRANCH  63  80
ENDBRANCH  37  38
ENDBRANCH  29  32
ENDBRANCH  27  28
ENDBRANCH  26  27
ENDBRANCH  25  26
ENDBRANCH   1  25
TORSDOF 15
ENDMDL
