MODEL 1
REMARK VINA RESULT:     -12.0      0.000      0.000
REMARK SMILES CC(C)C[C@@H](CNC1=[NH+]S(=O)(=O)c2ccccc21)C(=O)NCCCCNC(=O)c1ccc(-c2c3nc(c(-c4c(F)cccc4F)c4ccc([nH]4)c(-c4c(F)cccc4F)c4nc(c(-c5c(F)cccc5F)c5ccc2[nH]5)C=C4)C=C3)cc1
REMARK SMILES IDX 23 1 22 2 21 3 19 4 20 5 5 7 4 8 2 9 1 10 3 11 6 12 7 13
REMARK SMILES IDX 8 14 9 16 18 17 10 18 13 20 17 21 11 22 12 23 14 24 16 25
REMARK SMILES IDX 15 26 24 27 25 28 26 29 27 30 28 32 29 33 30 34 82 35 31 36
REMARK SMILES IDX 81 37 32 38 33 39 34 40 75 41 35 42 80 43 74 44 76 45 36 46
REMARK SMILES IDX 79 47 73 48 72 49 37 51 63 52 46 53 62 54 47 55 50 56 61 57
REMARK SMILES IDX 77 58 48 59 49 60 60 62 78 63 51 64 38 65 39 66 44 67 40 68
REMARK SMILES IDX 41 69 43 70 45 71 42 72 64 73 65 74 70 75 66 76 67 77 69 78
REMARK SMILES IDX 71 79 68 80 52 81 53 82 58 83 54 84 55 85 57 86 59 87 56 88
REMARK H PARENT 21 6 7 15 9 19 26 31 76 50 50 61
REMARK Flexibility Score: inf
ROOT
ATOM      1  C   UNL A   1      31.715  28.517  26.344  1.00  0.00     0.023 C 
ENDROOT
BRANCH   1   2
ATOM      2  C   UNL A   1      31.625  29.662  25.341  1.00  0.00     0.116 C 
BRANCH   2   3
ATOM      3  N   UNL A   1      31.723  29.246  23.962  1.00  0.00    -0.356 N 
ATOM      4  C   UNL A   1      30.792  28.694  23.136  1.00  0.00     0.227 C 
ATOM      5  O   UNL A   1      31.081  28.630  21.937  1.00  0.00    -0.275 OA
ATOM      6  H   UNL A   1      32.607  29.385  23.552  1.00  0.00     0.163 HD
BRANCH   4   7
ATOM      7  C   UNL A   1      29.457  28.128  23.629  1.00  0.00     0.120 C 
BRANCH   7   8
ATOM      8  C   UNL A   1      28.243  28.839  23.003  1.00  0.00     0.020 C 
BRANCH   8   9
ATOM      9  C   UNL A   1      28.423  30.331  22.659  1.00  0.00    -0.016 C 
ATOM     10  C   UNL A   1      28.072  30.662  21.209  1.00  0.00     0.007 C 
ATOM     11  C   UNL A   1      27.544  31.166  23.599  1.00  0.00     0.007 C 
ENDBRANCH   8   9
ENDBRANCH   7   8
BRANCH   7  12
ATOM     12  C   UNL A   1      29.426  26.593  23.729  1.00  0.00     0.247 C 
BRANCH  12  13
ATOM     13  N   UNL A   1      30.725  25.932  23.687  1.00  0.00    -0.272 N 
ATOM     14  C   UNL A   1      31.054  24.895  24.531  1.00  0.00     0.292 C 
ATOM     15  H   UNL A   1      31.393  26.239  23.033  1.00  0.00     0.305 HD
ATOM     16  N   UNL A   1      30.165  24.186  25.169  1.00  0.00    -0.162 N 
ATOM     17  C   UNL A   1      32.467  24.562  24.848  1.00  0.00     0.087 A 
ATOM     18  S   UNL A   1      30.873  23.089  26.157  1.00  0.00     0.329 S 
ATOM     19  H   UNL A   1      29.193  24.297  25.070  1.00  0.00     0.327 HD
ATOM     20  C   UNL A   1      32.499  23.625  25.863  1.00  0.00     0.124 A 
ATOM     21  C   UNL A   1      33.650  25.102  24.376  1.00  0.00     0.018 A 
ATOM     22  O   UNL A   1      30.770  21.760  25.589  1.00  0.00    -0.179 OA
ATOM     23  O   UNL A   1      30.571  23.375  27.540  1.00  0.00    -0.179 OA
ATOM     24  C   UNL A   1      33.651  23.252  26.531  1.00  0.00     0.025 A 
ATOM     25  C   UNL A   1      34.843  24.717  25.004  1.00  0.00     0.001 A 
ATOM     26  C   UNL A   1      34.842  23.826  26.094  1.00  0.00     0.002 A 
ENDBRANCH  12  13
ENDBRANCH   7  12
ENDBRANCH   4   7
ENDBRANCH   2   3
ENDBRANCH   1   2
BRANCH   1  27
ATOM     27  C   UNL A   1      32.951  28.545  27.247  1.00  0.00     0.023 C 
BRANCH  27  28
ATOM     28  C   UNL A   1      33.975  29.639  26.939  1.00  0.00     0.116 C 
BRANCH  28  29
ATOM     29  N   UNL A   1      34.001  30.721  27.911  1.00  0.00    -0.352 N 
ATOM     30  C   UNL A   1      34.991  31.055  28.807  1.00  0.00     0.251 C 
ATOM     31  H   UNL A   1      33.200  31.294  27.931  1.00  0.00     0.163 HD
ATOM     32  O   UNL A   1      34.813  31.984  29.589  1.00  0.00    -0.269 OA
BRANCH  30  33
ATOM     33  C   UNL A   1      36.252  30.280  28.859  1.00  0.00     0.039 A 
ATOM     34  C   UNL A   1      37.096  30.320  27.745  1.00  0.00     0.014 A 
ATOM     35  C   UNL A   1      36.624  29.552  29.992  1.00  0.00     0.014 A 
ATOM     36  C   UNL A   1      38.362  29.738  27.812  1.00  0.00     0.010 A 
ATOM     37  C   UNL A   1      37.907  29.019  30.082  1.00  0.00     0.010 A 
ATOM     38  C   UNL A   1      38.798  29.144  29.007  1.00  0.00    -0.014 A 
BRANCH  38  39
ATOM     39  C   UNL A   1      40.220  28.780  29.197  1.00  0.00     0.031 A 
ATOM     40  C   UNL A   1      41.205  29.757  29.760  1.00  0.00     0.074 A 
ATOM     41  C   UNL A   1      40.629  27.574  28.755  1.00  0.00     0.049 A 
ATOM     42  N   UNL A   1      42.488  29.602  29.971  1.00  0.00    -0.248 NA
ATOM     43  C   UNL A   1      40.691  31.090  30.109  1.00  0.00     0.031 C 
ATOM     44  C   UNL A   1      39.765  26.573  28.120  1.00  0.00     0.029 A 
ATOM     45  N   UNL A   1      41.869  26.990  28.754  1.00  0.00    -0.354 N 
ATOM     46  C   UNL A   1      42.935  30.813  30.483  1.00  0.00     0.074 A 
ATOM     47  C   UNL A   1      41.797  31.708  30.503  1.00  0.00     0.031 C 
ATOM     48  C   UNL A   1      40.498  25.496  27.805  1.00  0.00     0.029 A 
ATOM     49  C   UNL A   1      41.883  25.736  28.190  1.00  0.00     0.049 A 
ATOM     50  H   UNL A   1      42.671  27.426  29.121  1.00  0.00     0.167 HD
ATOM     51  C   UNL A   1      44.179  31.136  30.910  1.00  0.00     0.037 A 
ATOM     52  C   UNL A   1      42.902  24.878  28.005  1.00  0.00     0.037 A 
ATOM     53  C   UNL A   1      45.303  30.235  30.874  1.00  0.00     0.049 A 
ATOM     54  C   UNL A   1      44.272  25.263  28.484  1.00  0.00     0.074 A 
ATOM     55  C   UNL A   1      46.589  30.439  31.346  1.00  0.00     0.029 A 
ATOM     56  N   UNL A   1      45.280  28.964  30.318  1.00  0.00    -0.354 N 
ATOM     57  N   UNL A   1      44.660  26.370  29.069  1.00  0.00    -0.248 NA
ATOM     58  C   UNL A   1      45.342  24.275  28.292  1.00  0.00     0.031 C 
ATOM     59  C   UNL A   1      47.355  29.311  31.031  1.00  0.00     0.029 A 
ATOM     60  C   UNL A   1      46.534  28.383  30.409  1.00  0.00     0.049 A 
ATOM     61  H   UNL A   1      44.488  28.537  29.918  1.00  0.00     0.167 HD
ATOM     62  C   UNL A   1      46.011  26.204  29.341  1.00  0.00     0.074 A 
ATOM     63  C   UNL A   1      46.370  24.882  28.869  1.00  0.00     0.031 C 
ATOM     64  C   UNL A   1      46.874  27.066  29.932  1.00  0.00     0.037 A 
BRANCH  51  65
ATOM     65  C   UNL A   1      44.387  32.519  31.454  1.00  0.00     0.057 A 
ATOM     66  C   UNL A   1      44.217  32.810  32.815  1.00  0.00     0.134 A 
ATOM     67  C   UNL A   1      44.804  33.564  30.620  1.00  0.00     0.134 A 
ATOM     68  F   UNL A   1      43.811  31.858  33.668  1.00  0.00    -0.206 F 
ATOM     69  C   UNL A   1      44.429  34.094  33.320  1.00  0.00     0.040 A 
ATOM     70  C   UNL A   1      45.043  34.847  31.118  1.00  0.00     0.040 A 
ATOM     71  F   UNL A   1      44.995  33.355  29.308  1.00  0.00    -0.206 F 
ATOM     72  C   UNL A   1      44.850  35.116  32.472  1.00  0.00     0.006 A 
ENDBRANCH  51  65
BRANCH  52  73
ATOM     73  C   UNL A   1      42.653  23.558  27.376  1.00  0.00     0.057 A 
ATOM     74  C   UNL A   1      42.285  22.451  28.150  1.00  0.00     0.134 A 
ATOM     75  C   UNL A   1      42.759  23.371  25.993  1.00  0.00     0.134 A 
ATOM     76  F   UNL A   1      42.178  22.565  29.481  1.00  0.00    -0.206 F 
ATOM     77  C   UNL A   1      42.049  21.202  27.574  1.00  0.00     0.040 A 
ATOM     78  C   UNL A   1      42.503  22.134  25.401  1.00  0.00     0.040 A 
ATOM     79  F   UNL A   1      43.094  24.396  25.194  1.00  0.00    -0.206 F 
ATOM     80  C   UNL A   1      42.153  21.042  26.193  1.00  0.00     0.006 A 
ENDBRANCH  52  73
BRANCH  64  81
ATOM     81  C   UNL A   1      48.283  26.590  30.126  1.00  0.00     0.057 A 
ATOM     82  C   UNL A   1      48.669  25.863  31.259  1.00  0.00     0.134 A 
ATOM     83  C   UNL A   1      49.260  26.839  29.154  1.00  0.00     0.134 A 
ATOM     84  F   UNL A   1      47.784  25.605  32.235  1.00  0.00    -0.206 F 
ATOM     85  C   UNL A   1      49.982  25.421  31.429  1.00  0.00     0.040 A 
ATOM     86  C   UNL A   1      50.568  26.379  29.299  1.00  0.00     0.040 A 
ATOM     87  F   UNL A   1      48.954  27.525  28.041  1.00  0.00    -0.206 F 
ATOM     88  C   UNL A   1      50.934  25.673  30.443  1.00  0.00     0.006 A 
ENDBRANCH  64  81
ENDBRANCH  38  39
ENDBRANCH  30  33
ENDBRANCH  28  29
ENDBRANCH  27  28
ENDBRANCH   1  27
TORSDOF 15
ENDMDL
MODEL 2
REMARK VINA RESULT:     -11.9      2.294      7.714
REMARK SMILES CC(C)C[C@@H](CNC1=[NH+]S(=O)(=O)c2ccccc21)C(=O)NCCCCNC(=O)c1ccc(-c2c3nc(c(-c4c(F)cccc4F)c4ccc([nH]4)c(-c4c(F)cccc4F)c4nc(c(-c5c(F)cccc5F)c5ccc2[nH]5)C=C4)C=C3)cc1
REMARK SMILES IDX 23 1 22 2 21 3 19 4 20 5 5 7 4 8 2 9 1 10 3 11 6 12 7 13
REMARK SMILES IDX 8 14 9 16 18 17 10 18 13 20 17 21 11 22 12 23 14 24 16 25
REMARK SMILES IDX 15 26 24 27 25 28 26 29 27 30 28 32 29 33 30 34 82 35 31 36
REMARK SMILES IDX 81 37 32 38 33 39 34 40 75 41 35 42 80 43 74 44 76 45 36 46
REMARK SMILES IDX 79 47 73 48 72 49 37 51 63 52 46 53 62 54 47 55 50 56 61 57
REMARK SMILES IDX 77 58 48 59 49 60 60 62 78 63 51 64 38 65 39 66 44 67 40 68
REMARK SMILES IDX 41 69 43 70 45 71 42 72 64 73 65 74 70 75 66 76 67 77 69 78
REMARK SMILES IDX 71 79 68 80 52 81 53 82 58 83 54 84 55 85 57 86 59 87 56 88
REMARK H PARENT 21 6 7 15 9 19 26 31 76 50 50 61
REMARK Flexibility Score: inf
ROOT
ATOM      1  C   UNL A   1      36.271  20.540  24.990  1.00  0.00     0.023 C 
ENDROOT
BRANCH   1   2
ATOM      2  C   UNL A   1      35.240  21.198  25.900  1.00  0.00     0.116 C 
BRANCH   2   3
ATOM      3  N   UNL A   1      33.928  20.600  25.833  1.00  0.00    -0.356 N 
ATOM      4  C   UNL A   1      32.716  21.156  25.554  1.00  0.00     0.227 C 
ATOM      5  O   UNL A   1      31.780  20.375  25.355  1.00  0.00    -0.275 OA
ATOM      6  H   UNL A   1      33.905  19.634  26.019  1.00  0.00     0.163 HD
BRANCH   4   7
ATOM      7  C   UNL A   1      32.468  22.666  25.519  1.00  0.00     0.120 C 
BRANCH   7   8
ATOM      8  C   UNL A   1      32.960  23.319  24.215  1.00  0.00     0.020 C 
BRANCH   8   9
ATOM      9  C   UNL A   1      34.118  24.328  24.345  1.00  0.00    -0.016 C 
ATOM     10  C   UNL A   1      33.848  25.652  23.629  1.00  0.00     0.007 C 
ATOM     11  C   UNL A   1      34.377  24.598  25.832  1.00  0.00     0.007 C 
ENDBRANCH   8   9
ENDBRANCH   7   8
BRANCH   7  12
ATOM     12  C   UNL A   1      31.094  23.088  26.068  1.00  0.00     0.247 C 
BRANCH  12  13
ATOM     13  N   UNL A   1      30.987  24.475  26.506  1.00  0.00    -0.272 N 
ATOM     14  C   UNL A   1      30.669  25.499  25.642  1.00  0.00     0.292 C 
ATOM     15  H   UNL A   1      31.149  24.687  27.453  1.00  0.00     0.305 HD
ATOM     16  N   UNL A   1      30.100  25.307  24.487  1.00  0.00    -0.162 N 
ATOM     17  C   UNL A   1      31.038  26.909  25.933  1.00  0.00     0.087 A 
ATOM     18  S   UNL A   1      29.933  26.711  23.661  1.00  0.00     0.329 S 
ATOM     19  H   UNL A   1      29.807  24.429  24.152  1.00  0.00     0.327 HD
ATOM     20  C   UNL A   1      30.783  27.688  24.820  1.00  0.00     0.124 A 
ATOM     21  C   UNL A   1      31.654  27.473  27.036  1.00  0.00     0.018 A 
ATOM     22  O   UNL A   1      28.552  27.150  23.688  1.00  0.00    -0.179 OA
ATOM     23  O   UNL A   1      30.725  26.692  22.453  1.00  0.00    -0.179 OA
ATOM     24  C   UNL A   1      31.198  28.998  24.684  1.00  0.00     0.025 A 
ATOM     25  C   UNL A   1      32.055  28.814  26.949  1.00  0.00     0.001 A 
ATOM     26  C   UNL A   1      31.860  29.561  25.773  1.00  0.00     0.002 A 
ENDBRANCH  12  13
ENDBRANCH   7  12
ENDBRANCH   4   7
ENDBRANCH   2   3
ENDBRANCH   1   2
BRANCH   1  27
ATOM     27  C   UNL A   1      37.555  21.348  24.779  1.00  0.00     0.023 C 
BRANCH  27  28
ATOM     28  C   UNL A   1      38.606  21.227  25.885  1.00  0.00     0.116 C 
BRANCH  28  29
ATOM     29  N   UNL A   1      39.509  20.098  25.727  1.00  0.00    -0.352 N 
ATOM     30  C   UNL A   1      40.850  20.015  26.029  1.00  0.00     0.251 C 
ATOM     31  H   UNL A   1      39.107  19.281  25.353  1.00  0.00     0.163 HD
ATOM     32  O   UNL A   1      41.464  18.982  25.782  1.00  0.00    -0.269 OA
BRANCH  30  33
ATOM     33  C   UNL A   1      41.563  21.173  26.616  1.00  0.00     0.039 A 
ATOM     34  C   UNL A   1      42.191  22.068  25.744  1.00  0.00     0.014 A 
ATOM     35  C   UNL A   1      41.589  21.404  27.993  1.00  0.00     0.014 A 
ATOM     36  C   UNL A   1      42.734  23.254  26.241  1.00  0.00     0.010 A 
ATOM     37  C   UNL A   1      42.079  22.610  28.484  1.00  0.00     0.010 A 
ATOM     38  C   UNL A   1      42.619  23.560  27.606  1.00  0.00    -0.014 A 
BRANCH  38  39
ATOM     39  C   UNL A   1      42.924  24.920  28.106  1.00  0.00     0.031 A 
ATOM     40  C   UNL A   1      44.308  25.301  28.531  1.00  0.00     0.074 A 
ATOM     41  C   UNL A   1      41.898  25.780  28.266  1.00  0.00     0.049 A 
ATOM     42  N   UNL A   1      44.736  26.441  29.009  1.00  0.00    -0.248 NA
ATOM     43  C   UNL A   1      45.342  24.261  28.428  1.00  0.00     0.031 C 
ATOM     44  C   UNL A   1      40.496  25.484  27.956  1.00  0.00     0.029 A 
ATOM     45  N   UNL A   1      41.868  27.064  28.742  1.00  0.00    -0.354 N 
ATOM     46  C   UNL A   1      46.090  26.261  29.259  1.00  0.00     0.074 A 
ATOM     47  C   UNL A   1      46.401  24.886  28.927  1.00  0.00     0.031 C 
ATOM     48  C   UNL A   1      39.747  26.560  28.235  1.00  0.00     0.029 A 
ATOM     49  C   UNL A   1      40.607  27.610  28.767  1.00  0.00     0.049 A 
ATOM     50  H   UNL A   1      42.671  27.549  29.038  1.00  0.00     0.167 HD
ATOM     51  C   UNL A   1      46.989  27.168  29.710  1.00  0.00     0.037 A 
ATOM     52  C   UNL A   1      40.192  28.823  29.175  1.00  0.00     0.037 A 
ATOM     53  C   UNL A   1      46.662  28.531  30.045  1.00  0.00     0.049 A 
ATOM     54  C   UNL A   1      41.209  29.809  29.673  1.00  0.00     0.074 A 
ATOM     55  C   UNL A   1      47.509  29.550  30.444  1.00  0.00     0.029 A 
ATOM     56  N   UNL A   1      45.379  29.059  30.037  1.00  0.00    -0.354 N 
ATOM     57  N   UNL A   1      42.506  29.662  29.801  1.00  0.00    -0.248 NA
ATOM     58  C   UNL A   1      40.710  31.131  30.071  1.00  0.00     0.031 C 
ATOM     59  C   UNL A   1      46.733  30.680  30.724  1.00  0.00     0.029 A 
ATOM     60  C   UNL A   1      45.408  30.381  30.451  1.00  0.00     0.049 A 
ATOM     61  H   UNL A   1      44.567  28.567  29.776  1.00  0.00     0.167 HD
ATOM     62  C   UNL A   1      42.983  30.879  30.266  1.00  0.00     0.074 A 
ATOM     63  C   UNL A   1      41.835  31.757  30.383  1.00  0.00     0.031 C 
ATOM     64  C   UNL A   1      44.255  31.239  30.564  1.00  0.00     0.037 A 
BRANCH  51  65
ATOM     65  C   UNL A   1      48.413  26.716  29.864  1.00  0.00     0.057 A 
ATOM     66  C   UNL A   1      49.359  26.896  28.846  1.00  0.00     0.134 A 
ATOM     67  C   UNL A   1      48.856  26.132  31.058  1.00  0.00     0.134 A 
ATOM     68  F   UNL A   1      49.000  27.441  27.673  1.00  0.00    -0.206 F 
ATOM     69  C   UNL A   1      50.685  26.490  29.000  1.00  0.00     0.040 A 
ATOM     70  C   UNL A   1      50.186  25.744  31.233  1.00  0.00     0.040 A 
ATOM     71  F   UNL A   1      48.005  25.936  32.078  1.00  0.00    -0.206 F 
ATOM     72  C   UNL A   1      51.104  25.918  30.199  1.00  0.00     0.006 A 
ENDBRANCH  51  65
BRANCH  52  73
ATOM     73  C   UNL A   1      38.756  29.183  29.085  1.00  0.00     0.057 A 
ATOM     74  C   UNL A   1      38.186  29.568  27.866  1.00  0.00     0.134 A 
ATOM     75  C   UNL A   1      37.915  29.136  30.203  1.00  0.00     0.134 A 
ATOM     76  F   UNL A   1      38.943  29.642  26.761  1.00  0.00    -0.206 F 
ATOM     77  C   UNL A   1      36.837  29.912  27.765  1.00  0.00     0.040 A 
ATOM     78  C   UNL A   1      36.560  29.455  30.112  1.00  0.00     0.040 A 
ATOM     79  F   UNL A   1      38.397  28.761  31.397  1.00  0.00    -0.206 F 
ATOM     80  C   UNL A   1      36.018  29.851  28.891  1.00  0.00     0.006 A 
ENDBRANCH  52  73
BRANCH  64  81
ATOM     81  C   UNL A   1      44.473  32.653  31.017  1.00  0.00     0.057 A 
ATOM     82  C   UNL A   1      44.705  33.693  30.108  1.00  0.00     0.134 A 
ATOM     83  C   UNL A   1      44.423  32.980  32.377  1.00  0.00     0.134 A 
ATOM     84  F   UNL A   1      44.782  33.442  28.792  1.00  0.00    -0.206 F 
ATOM     85  C   UNL A   1      44.903  35.006  30.539  1.00  0.00     0.040 A 
ATOM     86  C   UNL A   1      44.591  34.292  32.819  1.00  0.00     0.040 A 
ATOM     87  F   UNL A   1      44.197  32.031  33.299  1.00  0.00    -0.206 F 
ATOM     88  C   UNL A   1      44.839  35.309  31.899  1.00  0.00     0.006 A 
ENDBRANCH  64  81
ENDBRANCH  38  39
ENDBRANCH  30  33
ENDBRANCH  28  29
ENDBRANCH  27  28
ENDBRANCH   1  27
TORSDOF 15
ENDMDL
MODEL 3
REMARK VINA RESULT:     -11.9      3.515      7.124
REMARK SMILES CC(C)C[C@@H](CNC1=[NH+]S(=O)(=O)c2ccccc21)C(=O)NCCCCNC(=O)c1ccc(-c2c3nc(c(-c4c(F)cccc4F)c4ccc([nH]4)c(-c4c(F)cccc4F)c4nc(c(-c5c(F)cccc5F)c5ccc2[nH]5)C=C4)C=C3)cc1
REMARK SMILES IDX 23 1 22 2 21 3 19 4 20 5 5 7 4 8 2 9 1 10 3 11 6 12 7 13
REMARK SMILES IDX 8 14 9 16 18 17 10 18 13 20 17 21 11 22 12 23 14 24 16 25
REMARK SMILES IDX 15 26 24 27 25 28 26 29 27 30 28 32 29 33 30 34 82 35 31 36
REMARK SMILES IDX 81 37 32 38 33 39 34 40 75 41 35 42 80 43 74 44 76 45 36 46
REMARK SMILES IDX 79 47 73 48 72 49 37 51 63 52 46 53 62 54 47 55 50 56 61 57
REMARK SMILES IDX 77 58 48 59 49 60 60 62 78 63 51 64 38 65 39 66 44 67 40 68
REMARK SMILES IDX 41 69 43 70 45 71 42 72 64 73 65 74 70 75 66 76 67 77 69 78
REMARK SMILES IDX 71 79 68 80 52 81 53 82 58 83 54 84 55 85 57 86 59 87 56 88
REMARK H PARENT 21 6 7 15 9 19 26 31 76 50 50 61
REMARK Flexibility Score: inf
ROOT
ATOM      1  C   UNL A   1      30.958  31.062  25.644  1.00  0.00     0.023 C 
ENDROOT
BRANCH   1   2
ATOM      2  C   UNL A   1      31.723  29.746  25.569  1.00  0.00     0.116 C 
BRANCH   2   3
ATOM      3  N   UNL A   1      31.977  29.287  24.224  1.00  0.00    -0.356 N 
ATOM      4  C   UNL A   1      31.156  28.672  23.329  1.00  0.00     0.227 C 
ATOM      5  O   UNL A   1      31.570  28.578  22.169  1.00  0.00    -0.275 OA
ATOM      6  H   UNL A   1      32.894  29.446  23.901  1.00  0.00     0.163 HD
BRANCH   4   7
ATOM      7  C   UNL A   1      29.797  28.073  23.703  1.00  0.00     0.120 C 
BRANCH   7   8
ATOM      8  C   UNL A   1      28.617  28.858  23.103  1.00  0.00     0.020 C 
BRANCH   8   9
ATOM      9  C   UNL A   1      28.840  30.365  22.871  1.00  0.00    -0.016 C 
ATOM     10  C   UNL A   1      28.847  30.753  21.393  1.00  0.00     0.007 C 
ATOM     11  C   UNL A   1      27.740  31.148  23.598  1.00  0.00     0.007 C 
ENDBRANCH   8   9
ENDBRANCH   7   8
BRANCH   7  12
ATOM     12  C   UNL A   1      29.752  26.536  23.643  1.00  0.00     0.247 C 
BRANCH  12  13
ATOM     13  N   UNL A   1      31.048  25.866  23.660  1.00  0.00    -0.272 N 
ATOM     14  C   UNL A   1      31.328  24.822  24.513  1.00  0.00     0.292 C 
ATOM     15  H   UNL A   1      31.748  26.171  23.040  1.00  0.00     0.305 HD
ATOM     16  N   UNL A   1      30.405  24.117  25.104  1.00  0.00    -0.162 N 
ATOM     17  C   UNL A   1      32.722  24.477  24.894  1.00  0.00     0.087 A 
ATOM     18  S   UNL A   1      31.058  23.010  26.119  1.00  0.00     0.329 S 
ATOM     19  H   UNL A   1      29.439  24.235  24.959  1.00  0.00     0.327 HD
ATOM     20  C   UNL A   1      32.700  23.535  25.906  1.00  0.00     0.124 A 
ATOM     21  C   UNL A   1      33.930  25.012  24.483  1.00  0.00     0.018 A 
ATOM     22  O   UNL A   1      30.973  21.684  25.539  1.00  0.00    -0.179 OA
ATOM     23  O   UNL A   1      30.692  23.291  27.487  1.00  0.00    -0.179 OA
ATOM     24  C   UNL A   1      33.815  23.150  26.625  1.00  0.00     0.025 A 
ATOM     25  C   UNL A   1      35.089  24.615  25.165  1.00  0.00     0.001 A 
ATOM     26  C   UNL A   1      35.030  23.718  26.248  1.00  0.00     0.002 A 
ENDBRANCH  12  13
ENDBRANCH   7  12
ENDBRANCH   4   7
ENDBRANCH   2   3
ENDBRANCH   1   2
BRANCH   1  27
ATOM     27  C   UNL A   1      31.299  31.939  26.852  1.00  0.00     0.023 C 
BRANCH  27  28
ATOM     28  C   UNL A   1      32.324  33.047  26.601  1.00  0.00     0.116 C 
BRANCH  28  29
ATOM     29  N   UNL A   1      32.245  34.155  27.541  1.00  0.00    -0.352 N 
ATOM     30  C   UNL A   1      33.097  34.476  28.573  1.00  0.00     0.251 C 
ATOM     31  H   UNL A   1      31.476  34.760  27.421  1.00  0.00     0.163 HD
ATOM     32  O   UNL A   1      32.840  35.434  29.296  1.00  0.00    -0.269 OA
BRANCH  30  33
ATOM     33  C   UNL A   1      34.299  33.653  28.840  1.00  0.00     0.039 A 
ATOM     34  C   UNL A   1      35.552  34.267  28.742  1.00  0.00     0.014 A 
ATOM     35  C   UNL A   1      34.206  32.311  29.215  1.00  0.00     0.014 A 
ATOM     36  C   UNL A   1      36.696  33.575  29.140  1.00  0.00     0.010 A 
ATOM     37  C   UNL A   1      35.338  31.637  29.665  1.00  0.00     0.010 A 
ATOM     38  C   UNL A   1      36.584  32.280  29.668  1.00  0.00    -0.014 A 
BRANCH  38  39
ATOM     39  C   UNL A   1      37.728  31.640  30.356  1.00  0.00     0.031 A 
ATOM     40  C   UNL A   1      38.553  30.588  29.682  1.00  0.00     0.074 A 
ATOM     41  C   UNL A   1      37.947  31.958  31.648  1.00  0.00     0.049 A 
ATOM     42  N   UNL A   1      39.573  29.917  30.152  1.00  0.00    -0.248 NA
ATOM     43  C   UNL A   1      38.169  30.223  28.311  1.00  0.00     0.031 C 
ATOM     44  C   UNL A   1      37.154  32.915  32.425  1.00  0.00     0.029 A 
ATOM     45  N   UNL A   1      38.884  31.503  32.539  1.00  0.00    -0.354 N 
ATOM     46  C   UNL A   1      39.959  29.055  29.135  1.00  0.00     0.074 A 
ATOM     47  C   UNL A   1      39.032  29.252  28.040  1.00  0.00     0.031 C 
ATOM     48  C   UNL A   1      37.646  32.986  33.671  1.00  0.00     0.029 A 
ATOM     49  C   UNL A   1      38.769  32.065  33.789  1.00  0.00     0.049 A 
ATOM     50  H   UNL A   1      39.571  30.839  32.307  1.00  0.00     0.167 HD
ATOM     51  C   UNL A   1      41.003  28.192  29.116  1.00  0.00     0.037 A 
ATOM     52  C   UNL A   1      39.492  31.858  34.904  1.00  0.00     0.037 A 
ATOM     53  C   UNL A   1      41.912  28.000  30.218  1.00  0.00     0.049 A 
ATOM     54  C   UNL A   1      40.641  30.893  34.857  1.00  0.00     0.074 A 
ATOM     55  C   UNL A   1      43.041  27.203  30.277  1.00  0.00     0.029 A 
ATOM     56  N   UNL A   1      41.783  28.602  31.462  1.00  0.00    -0.354 N 
ATOM     57  N   UNL A   1      41.065  30.165  33.852  1.00  0.00    -0.248 NA
ATOM     58  C   UNL A   1      41.421  30.732  36.091  1.00  0.00     0.031 C 
ATOM     59  C   UNL A   1      43.567  27.284  31.572  1.00  0.00     0.029 A 
ATOM     60  C   UNL A   1      42.795  28.172  32.304  1.00  0.00     0.049 A 
ATOM     61  H   UNL A   1      41.076  29.241  31.710  1.00  0.00     0.167 HD
ATOM     62  C   UNL A   1      42.177  29.479  34.322  1.00  0.00     0.074 A 
ATOM     63  C   UNL A   1      42.368  29.892  35.698  1.00  0.00     0.031 C 
ATOM     64  C   UNL A   1      42.969  28.593  33.672  1.00  0.00     0.037 A 
BRANCH  51  65
ATOM     65  C   UNL A   1      41.218  27.391  27.864  1.00  0.00     0.057 A 
ATOM     66  C   UNL A   1      40.661  26.114  27.701  1.00  0.00     0.134 A 
ATOM     67  C   UNL A   1      41.952  27.915  26.793  1.00  0.00     0.134 A 
ATOM     68  F   UNL A   1      39.954  25.549  28.690  1.00  0.00    -0.206 F 
ATOM     69  C   UNL A   1      40.849  25.380  26.528  1.00  0.00     0.040 A 
ATOM     70  C   UNL A   1      42.126  27.200  25.606  1.00  0.00     0.040 A 
ATOM     71  F   UNL A   1      42.506  29.134  26.878  1.00  0.00    -0.206 F 
ATOM     72  C   UNL A   1      41.578  25.926  25.474  1.00  0.00     0.006 A 
ENDBRANCH  51  65
BRANCH  52  73
ATOM     73  C   UNL A   1      39.174  32.612  36.142  1.00  0.00     0.057 A 
ATOM     74  C   UNL A   1      38.288  32.092  37.092  1.00  0.00     0.134 A 
ATOM     75  C   UNL A   1      39.755  33.856  36.414  1.00  0.00     0.134 A 
ATOM     76  F   UNL A   1      37.692  30.910  36.882  1.00  0.00    -0.206 F 
ATOM     77  C   UNL A   1      37.977  32.790  38.260  1.00  0.00     0.040 A 
ATOM     78  C   UNL A   1      39.471  34.554  37.588  1.00  0.00     0.040 A 
ATOM     79  F   UNL A   1      40.624  34.402  35.550  1.00  0.00    -0.206 F 
ATOM     80  C   UNL A   1      38.573  34.023  38.513  1.00  0.00     0.006 A 
ENDBRANCH  52  73
BRANCH  64  81
ATOM     81  C   UNL A   1      44.133  28.034  34.436  1.00  0.00     0.057 A 
ATOM     82  C   UNL A   1      45.374  28.681  34.471  1.00  0.00     0.134 A 
ATOM     83  C   UNL A   1      44.001  26.847  35.168  1.00  0.00     0.134 A 
ATOM     84  F   UNL A   1      45.570  29.813  33.777  1.00  0.00    -0.206 F 
ATOM     85  C   UNL A   1      46.451  28.156  35.188  1.00  0.00     0.040 A 
ATOM     86  C   UNL A   1      45.060  26.327  35.911  1.00  0.00     0.040 A 
ATOM     87  F   UNL A   1      42.836  26.181  35.182  1.00  0.00    -0.206 F 
ATOM     88  C   UNL A   1      46.292  26.978  35.917  1.00  0.00     0.006 A 
ENDBRANCH  64  81
ENDBRANCH  38  39
ENDBRANCH  30  33
ENDBRANCH  28  29
ENDBRANCH  27  28
ENDBRANCH   1  27
TORSDOF 15
ENDMDL
