MODEL 1
REMARK VINA RESULT:     -11.5      0.000      0.000
REMARK SMILES CC(C)[C@@H]1CCCN1C(=O)N1CCO[C@H](CC(=O)NCCCCNC(=O)c2ccc(-c3c4nc(c(-c5c(F)cccc5F)c5ccc([nH]5)c(-c5c(F)cccc5F)c5nc(c(-c6c(F)cccc6F)c6ccc3[nH]6)C=C5)C=C4)cc2)C1
REMARK SMILES IDX 20 1 19 2 17 3 18 4 16 6 15 7 11 8 12 9 81 10 13 11 14 12
REMARK SMILES IDX 9 13 10 14 8 15 4 16 5 17 6 18 7 19 2 20 1 21 3 22 21 23
REMARK SMILES IDX 22 24 23 25 24 26 25 27 26 29 27 30 28 31 80 32 29 33 79 34
REMARK SMILES IDX 30 35 31 36 32 37 73 38 33 39 78 40 72 41 74 42 34 43 77 44
REMARK SMILES IDX 71 45 70 46 35 48 61 49 44 50 60 51 45 52 48 53 59 54 75 55
REMARK SMILES IDX 46 56 47 57 58 59 76 60 49 61 36 62 37 63 42 64 38 65 39 66
REMARK SMILES IDX 41 67 43 68 40 69 62 70 63 71 68 72 64 73 65 74 67 75 69 76
REMARK SMILES IDX 66 77 50 78 51 79 56 80 52 81 53 82 55 83 57 84 54 85
REMARK H PARENT 19 5 24 28 74 47 48 58
REMARK Flexibility Score: inf
ROOT
ATOM      1  C   UNL A   1      33.546  29.852  26.585  1.00  0.00     0.116 C 
ENDROOT
BRANCH   1   2
ATOM      2  N   UNL A   1      33.614  29.573  25.165  1.00  0.00    -0.356 N 
ATOM      3  C   UNL A   1      33.547  28.394  24.487  1.00  0.00     0.222 C 
ATOM      4  O   UNL A   1      33.653  28.415  23.259  1.00  0.00    -0.275 OA
ATOM      5  H   UNL A   1      33.729  30.368  24.595  1.00  0.00     0.163 HD
BRANCH   3   6
ATOM      6  C   UNL A   1      33.287  27.107  25.224  1.00  0.00     0.133 C 
BRANCH   6   7
ATOM      7  C   UNL A   1      31.793  26.862  25.450  1.00  0.00     0.147 C 
ATOM      8  N   UNL A   1      31.914  24.403  25.586  1.00  0.00    -0.320 N 
ATOM      9  C   UNL A   1      31.061  24.279  24.413  1.00  0.00     0.150 C 
ATOM     10  C   UNL A   1      31.608  25.618  26.338  1.00  0.00     0.154 C 
ATOM     11  C   UNL A   1      31.220  25.509  23.524  1.00  0.00     0.182 C 
ATOM     12  O   UNL A   1      31.032  26.741  24.230  1.00  0.00    -0.374 OA
BRANCH   8  13
ATOM     13  C   UNL A   1      32.133  23.263  26.322  1.00  0.00     0.320 C 
ATOM     14  O   UNL A   1      31.650  23.130  27.444  1.00  0.00    -0.248 OA
BRANCH  13  15
ATOM     15  N   UNL A   1      32.962  22.326  25.744  1.00  0.00    -0.321 N 
ATOM     16  C   UNL A   1      34.433  22.287  25.645  1.00  0.00     0.089 C 
ATOM     17  C   UNL A   1      34.716  20.934  24.964  1.00  0.00     0.027 C 
ATOM     18  C   UNL A   1      33.544  20.071  25.396  1.00  0.00     0.024 C 
ATOM     19  C   UNL A   1      32.385  21.051  25.347  1.00  0.00     0.122 C 
BRANCH  16  20
ATOM     20  C   UNL A   1      35.123  23.468  24.921  1.00  0.00     0.005 C 
ATOM     21  C   UNL A   1      36.595  23.597  25.339  1.00  0.00     0.009 C 
ATOM     22  C   UNL A   1      35.025  23.425  23.396  1.00  0.00     0.009 C 
ENDBRANCH  16  20
ENDBRANCH  13  15
ENDBRANCH   8  13
ENDBRANCH   6   7
ENDBRANCH   3   6
ENDBRANCH   1   2
BRANCH   1  23
ATOM     23  C   UNL A   1      32.154  30.339  26.994  1.00  0.00     0.023 C 
BRANCH  23  24
ATOM     24  C   UNL A   1      31.953  31.835  26.774  1.00  0.00     0.023 C 
BRANCH  24  25
ATOM     25  C   UNL A   1      32.910  32.727  27.554  1.00  0.00     0.116 C 
BRANCH  25  26
ATOM     26  N   UNL A   1      32.425  34.084  27.764  1.00  0.00    -0.352 N 
ATOM     27  C   UNL A   1      32.961  35.036  28.604  1.00  0.00     0.251 C 
ATOM     28  H   UNL A   1      31.628  34.349  27.249  1.00  0.00     0.163 HD
ATOM     29  O   UNL A   1      32.446  36.142  28.728  1.00  0.00    -0.269 OA
BRANCH  27  30
ATOM     30  C   UNL A   1      34.147  34.663  29.398  1.00  0.00     0.039 A 
ATOM     31  C   UNL A   1      33.966  34.197  30.701  1.00  0.00     0.014 A 
ATOM     32  C   UNL A   1      35.404  34.623  28.788  1.00  0.00     0.014 A 
ATOM     33  C   UNL A   1      35.034  33.591  31.363  1.00  0.00     0.010 A 
ATOM     34  C   UNL A   1      36.447  33.960  29.425  1.00  0.00     0.010 A 
ATOM     35  C   UNL A   1      36.264  33.417  30.708  1.00  0.00    -0.014 A 
BRANCH  35  36
ATOM     36  C   UNL A   1      37.367  32.636  31.324  1.00  0.00     0.031 A 
ATOM     37  C   UNL A   1      37.934  33.058  32.648  1.00  0.00     0.074 A 
ATOM     38  C   UNL A   1      37.923  31.614  30.645  1.00  0.00     0.049 A 
ATOM     39  N   UNL A   1      38.974  32.590  33.289  1.00  0.00    -0.248 NA
ATOM     40  C   UNL A   1      37.263  34.180  33.323  1.00  0.00     0.031 C 
ATOM     41  C   UNL A   1      37.504  31.142  29.323  1.00  0.00     0.029 A 
ATOM     42  N   UNL A   1      38.977  30.797  30.968  1.00  0.00    -0.354 N 
ATOM     43  C   UNL A   1      39.100  33.376  34.425  1.00  0.00     0.074 A 
ATOM     44  C   UNL A   1      38.054  34.376  34.368  1.00  0.00     0.031 C 
ATOM     45  C   UNL A   1      38.281  30.108  28.958  1.00  0.00     0.029 A 
ATOM     46  C   UNL A   1      39.272  29.866  30.001  1.00  0.00     0.049 A 
ATOM     47  H   UNL A   1      39.477  30.871  31.813  1.00  0.00     0.167 HD
ATOM     48  C   UNL A   1      39.994  33.265  35.435  1.00  0.00     0.037 A 
ATOM     49  C   UNL A   1      40.235  28.926  29.959  1.00  0.00     0.037 A 
ATOM     50  C   UNL A   1      41.005  32.245  35.515  1.00  0.00     0.049 A 
ATOM     51  C   UNL A   1      41.188  28.795  31.113  1.00  0.00     0.074 A 
ATOM     52  C   UNL A   1      41.914  32.009  36.531  1.00  0.00     0.029 A 
ATOM     53  N   UNL A   1      41.232  31.285  34.542  1.00  0.00    -0.354 N 
ATOM     54  N   UNL A   1      41.260  29.510  32.209  1.00  0.00    -0.248 NA
ATOM     55  C   UNL A   1      42.192  27.724  31.027  1.00  0.00     0.031 C 
ATOM     56  C   UNL A   1      42.707  30.917  36.163  1.00  0.00     0.029 A 
ATOM     57  C   UNL A   1      42.272  30.457  34.931  1.00  0.00     0.049 A 
ATOM     58  H   UNL A   1      40.730  31.204  33.699  1.00  0.00     0.167 HD
ATOM     59  C   UNL A   1      42.294  28.961  32.953  1.00  0.00     0.074 A 
ATOM     60  C   UNL A   1      42.819  27.848  32.189  1.00  0.00     0.031 C 
ATOM     61  C   UNL A   1      42.768  29.344  34.164  1.00  0.00     0.037 A 
BRANCH  48  62
ATOM     62  C   UNL A   1      39.909  34.275  36.540  1.00  0.00     0.057 A 
ATOM     63  C   UNL A   1      39.170  34.028  37.704  1.00  0.00     0.134 A 
ATOM     64  C   UNL A   1      40.582  35.498  36.443  1.00  0.00     0.134 A 
ATOM     65  F   UNL A   1      38.490  32.881  37.848  1.00  0.00    -0.206 F 
ATOM     66  C   UNL A   1      39.083  34.976  38.725  1.00  0.00     0.040 A 
ATOM     67  C   UNL A   1      40.520  36.444  37.469  1.00  0.00     0.040 A 
ATOM     68  F   UNL A   1      41.308  35.794  35.356  1.00  0.00    -0.206 F 
ATOM     69  C   UNL A   1      39.764  36.186  38.610  1.00  0.00     0.006 A 
ENDBRANCH  48  62
BRANCH  49  70
ATOM     70  C   UNL A   1      40.328  28.008  28.797  1.00  0.00     0.057 A 
ATOM     71  C   UNL A   1      41.083  28.352  27.670  1.00  0.00     0.134 A 
ATOM     72  C   UNL A   1      39.665  26.776  28.780  1.00  0.00     0.134 A 
ATOM     73  F   UNL A   1      41.724  29.529  27.623  1.00  0.00    -0.206 F 
ATOM     74  C   UNL A   1      41.161  27.513  26.558  1.00  0.00     0.040 A 
ATOM     75  C   UNL A   1      39.750  25.918  27.683  1.00  0.00     0.040 A 
ATOM     76  F   UNL A   1      38.931  26.387  29.834  1.00  0.00    -0.206 F 
ATOM     77  C   UNL A   1      40.496  26.289  26.565  1.00  0.00     0.006 A 
ENDBRANCH  49  70
BRANCH  61  78
ATOM     78  C   UNL A   1      43.881  28.533  34.753  1.00  0.00     0.057 A 
ATOM     79  C   UNL A   1      43.632  27.401  35.537  1.00  0.00     0.134 A 
ATOM     80  C   UNL A   1      45.216  28.863  34.489  1.00  0.00     0.134 A 
ATOM     81  F   UNL A   1      42.373  27.044  35.834  1.00  0.00    -0.206 F 
ATOM     82  C   UNL A   1      44.675  26.629  36.050  1.00  0.00     0.040 A 
ATOM     83  C   UNL A   1      46.267  28.089  34.982  1.00  0.00     0.040 A 
ATOM     84  F   UNL A   1      45.519  29.934  33.740  1.00  0.00    -0.206 F 
ATOM     85  C   UNL A   1      45.997  26.970  35.767  1.00  0.00     0.006 A 
ENDBRANCH  61  78
ENDBRANCH  35  36
ENDBRANCH  27  30
ENDBRANCH  25  26
ENDBRANCH  24  25
ENDBRANCH  23  24
ENDBRANCH   1  23
TORSDOF 15
ENDMDL
MODEL 2
REMARK VINA RESULT:     -11.4      0.539      6.178
REMARK SMILES CC(C)[C@@H]1CCCN1C(=O)N1CCO[C@H](CC(=O)NCCCCNC(=O)c2ccc(-c3c4nc(c(-c5c(F)cccc5F)c5ccc([nH]5)c(-c5c(F)cccc5F)c5nc(c(-c6c(F)cccc6F)c6ccc3[nH]6)C=C5)C=C4)cc2)C1
REMARK SMILES IDX 20 1 19 2 17 3 18 4 16 6 15 7 11 8 12 9 81 10 13 11 14 12
REMARK SMILES IDX 9 13 10 14 8 15 4 16 5 17 6 18 7 19 2 20 1 21 3 22 21 23
REMARK SMILES IDX 22 24 23 25 24 26 25 27 26 29 27 30 28 31 80 32 29 33 79 34
REMARK SMILES IDX 30 35 31 36 32 37 73 38 33 39 78 40 72 41 74 42 34 43 77 44
REMARK SMILES IDX 71 45 70 46 35 48 61 49 44 50 60 51 45 52 48 53 59 54 75 55
REMARK SMILES IDX 46 56 47 57 58 59 76 60 49 61 36 62 37 63 42 64 38 65 39 66
REMARK SMILES IDX 41 67 43 68 40 69 62 70 63 71 68 72 64 73 65 74 67 75 69 76
REMARK SMILES IDX 66 77 50 78 51 79 56 80 52 81 53 82 55 83 57 84 54 85
REMARK H PARENT 19 5 24 28 74 47 48 58
REMARK Flexibility Score: inf
ROOT
ATOM      1  C   UNL A   1      33.955  29.027  26.572  1.00  0.00     0.116 C 
ENDROOT
BRANCH   1   2
ATOM      2  N   UNL A   1      33.949  29.299  25.148  1.00  0.00    -0.356 N 
ATOM      3  C   UNL A   1      33.673  28.488  24.089  1.00  0.00     0.222 C 
ATOM      4  O   UNL A   1      33.759  28.955  22.952  1.00  0.00    -0.275 OA
ATOM      5  H   UNL A   1      34.186  30.223  24.905  1.00  0.00     0.163 HD
BRANCH   3   6
ATOM      6  C   UNL A   1      33.213  27.071  24.316  1.00  0.00     0.133 C 
BRANCH   6   7
ATOM      7  C   UNL A   1      31.728  26.996  24.677  1.00  0.00     0.147 C 
ATOM      8  N   UNL A   1      31.681  24.595  25.236  1.00  0.00    -0.320 N 
ATOM      9  C   UNL A   1      30.733  24.345  24.160  1.00  0.00     0.150 C 
ATOM     10  C   UNL A   1      31.522  25.943  25.780  1.00  0.00     0.154 C 
ATOM     11  C   UNL A   1      30.911  25.388  23.060  1.00  0.00     0.182 C 
ATOM     12  O   UNL A   1      30.868  26.734  23.548  1.00  0.00    -0.374 OA
BRANCH   8  13
ATOM     13  C   UNL A   1      31.872  23.583  26.146  1.00  0.00     0.320 C 
ATOM     14  O   UNL A   1      31.335  23.614  27.251  1.00  0.00    -0.248 OA
BRANCH  13  15
ATOM     15  N   UNL A   1      32.738  22.584  25.758  1.00  0.00    -0.321 N 
ATOM     16  C   UNL A   1      34.207  22.499  25.868  1.00  0.00     0.089 C 
ATOM     17  C   UNL A   1      34.530  21.091  25.332  1.00  0.00     0.027 C 
ATOM     18  C   UNL A   1      33.279  20.295  25.656  1.00  0.00     0.024 C 
ATOM     19  C   UNL A   1      32.174  21.298  25.376  1.00  0.00     0.122 C 
BRANCH  16  20
ATOM     20  C   UNL A   1      35.032  23.603  25.166  1.00  0.00     0.005 C 
ATOM     21  C   UNL A   1      36.448  23.702  25.751  1.00  0.00     0.009 C 
ATOM     22  C   UNL A   1      35.115  23.466  23.645  1.00  0.00     0.009 C 
ENDBRANCH  16  20
ENDBRANCH  13  15
ENDBRANCH   8  13
ENDBRANCH   6   7
ENDBRANCH   3   6
ENDBRANCH   1   2
BRANCH   1  23
ATOM     23  C   UNL A   1      32.670  29.521  27.240  1.00  0.00     0.023 C 
BRANCH  23  24
ATOM     24  C   UNL A   1      32.319  30.960  26.877  1.00  0.00     0.023 C 
BRANCH  24  25
ATOM     25  C   UNL A   1      33.269  32.008  27.442  1.00  0.00     0.116 C 
BRANCH  25  26
ATOM     26  N   UNL A   1      32.688  33.339  27.559  1.00  0.00    -0.352 N 
ATOM     27  C   UNL A   1      33.117  34.363  28.376  1.00  0.00     0.251 C 
ATOM     28  H   UNL A   1      31.905  33.527  26.992  1.00  0.00     0.163 HD
ATOM     29  O   UNL A   1      32.528  35.437  28.419  1.00  0.00    -0.269 OA
BRANCH  27  30
ATOM     30  C   UNL A   1      34.281  34.106  29.247  1.00  0.00     0.039 A 
ATOM     31  C   UNL A   1      34.082  33.440  30.457  1.00  0.00     0.014 A 
ATOM     32  C   UNL A   1      35.569  34.380  28.779  1.00  0.00     0.014 A 
ATOM     33  C   UNL A   1      35.187  32.953  31.157  1.00  0.00     0.010 A 
ATOM     34  C   UNL A   1      36.662  33.836  29.444  1.00  0.00     0.010 A 
ATOM     35  C   UNL A   1      36.479  33.098  30.625  1.00  0.00    -0.014 A 
BRANCH  35  36
ATOM     36  C   UNL A   1      37.656  32.453  31.262  1.00  0.00     0.031 A 
ATOM     37  C   UNL A   1      38.338  31.301  30.582  1.00  0.00     0.074 A 
ATOM     38  C   UNL A   1      38.043  32.836  32.494  1.00  0.00     0.049 A 
ATOM     39  N   UNL A   1      39.293  30.526  31.028  1.00  0.00    -0.248 NA
ATOM     40  C   UNL A   1      37.855  30.953  29.237  1.00  0.00     0.031 C 
ATOM     41  C   UNL A   1      37.426  33.902  33.287  1.00  0.00     0.029 A 
ATOM     42  N   UNL A   1      39.041  32.357  33.305  1.00  0.00    -0.354 N 
ATOM     43  C   UNL A   1      39.506  29.583  30.033  1.00  0.00     0.074 A 
ATOM     44  C   UNL A   1      38.554  29.857  28.977  1.00  0.00     0.031 C 
ATOM     45  C   UNL A   1      38.070  34.008  34.461  1.00  0.00     0.029 A 
ATOM     46  C   UNL A   1      39.122  32.998  34.518  1.00  0.00     0.049 A 
ATOM     47  H   UNL A   1      39.642  31.623  33.043  1.00  0.00     0.167 HD
ATOM     48  C   UNL A   1      40.422  28.588  29.994  1.00  0.00     0.037 A 
ATOM     49  C   UNL A   1      39.949  32.791  35.561  1.00  0.00     0.037 A 
ATOM     50  C   UNL A   1      41.397  28.342  31.023  1.00  0.00     0.049 A 
ATOM     51  C   UNL A   1      40.987  31.708  35.474  1.00  0.00     0.074 A 
ATOM     52  C   UNL A   1      42.411  27.401  31.043  1.00  0.00     0.029 A 
ATOM     53  N   UNL A   1      41.483  29.051  32.210  1.00  0.00    -0.354 N 
ATOM     54  N   UNL A   1      41.215  30.859  34.503  1.00  0.00    -0.248 NA
ATOM     55  C   UNL A   1      41.887  31.557  36.628  1.00  0.00     0.031 C 
ATOM     56  C   UNL A   1      43.100  27.527  32.255  1.00  0.00     0.029 A 
ATOM     57  C   UNL A   1      42.530  28.565  32.974  1.00  0.00     0.049 A 
ATOM     58  H   UNL A   1      40.888  29.790  32.473  1.00  0.00     0.167 HD
ATOM     59  C   UNL A   1      42.297  30.093  34.914  1.00  0.00     0.074 A 
ATOM     60  C   UNL A   1      42.686  30.581  36.220  1.00  0.00     0.031 C 
ATOM     61  C   UNL A   1      42.913  29.075  34.265  1.00  0.00     0.037 A 
BRANCH  48  62
ATOM     62  C   UNL A   1      40.414  27.696  28.790  1.00  0.00     0.057 A 
ATOM     63  C   UNL A   1      39.653  26.522  28.750  1.00  0.00     0.134 A 
ATOM     64  C   UNL A   1      41.165  28.022  27.654  1.00  0.00     0.134 A 
ATOM     65  F   UNL A   1      38.925  26.147  29.814  1.00  0.00    -0.206 F 
ATOM     66  C   UNL A   1      39.657  25.688  27.631  1.00  0.00     0.040 A 
ATOM     67  C   UNL A   1      41.159  27.208  26.520  1.00  0.00     0.040 A 
ATOM     68  F   UNL A   1      41.914  29.134  27.627  1.00  0.00    -0.206 F 
ATOM     69  C   UNL A   1      40.408  26.034  26.510  1.00  0.00     0.006 A 
ENDBRANCH  48  62
BRANCH  49  70
ATOM     70  C   UNL A   1      39.854  33.649  36.767  1.00  0.00     0.057 A 
ATOM     71  C   UNL A   1      39.005  33.307  37.825  1.00  0.00     0.134 A 
ATOM     72  C   UNL A   1      40.598  34.828  36.890  1.00  0.00     0.134 A 
ATOM     73  F   UNL A   1      38.253  32.199  37.755  1.00  0.00    -0.206 F 
ATOM     74  C   UNL A   1      38.884  34.116  38.957  1.00  0.00     0.040 A 
ATOM     75  C   UNL A   1      40.503  35.636  38.023  1.00  0.00     0.040 A 
ATOM     76  F   UNL A   1      41.435  35.205  35.911  1.00  0.00    -0.206 F 
ATOM     77  C   UNL A   1      39.638  35.283  39.059  1.00  0.00     0.006 A 
ENDBRANCH  49  70
BRANCH  61  78
ATOM     78  C   UNL A   1      44.095  28.449  34.940  1.00  0.00     0.057 A 
ATOM     79  C   UNL A   1      43.960  27.339  35.781  1.00  0.00     0.134 A 
ATOM     80  C   UNL A   1      45.387  28.934  34.703  1.00  0.00     0.134 A 
ATOM     81  F   UNL A   1      42.745  26.839  36.055  1.00  0.00    -0.206 F 
ATOM     82  C   UNL A   1      45.070  26.738  36.376  1.00  0.00     0.040 A 
ATOM     83  C   UNL A   1      46.507  28.330  35.277  1.00  0.00     0.040 A 
ATOM     84  F   UNL A   1      45.582  29.991  33.901  1.00  0.00    -0.206 F 
ATOM     85  C   UNL A   1      46.349  27.231  36.118  1.00  0.00     0.006 A 
ENDBRANCH  61  78
ENDBRANCH  35  36
ENDBRANCH  27  30
ENDBRANCH  25  26
ENDBRANCH  24  25
ENDBRANCH  23  24
ENDBRANCH   1  23
TORSDOF 15
ENDMDL
MODEL 3
REMARK VINA RESULT:     -11.4      4.120      9.344
REMARK SMILES CC(C)[C@@H]1CCCN1C(=O)N1CCO[C@H](CC(=O)NCCCCNC(=O)c2ccc(-c3c4nc(c(-c5c(F)cccc5F)c5ccc([nH]5)c(-c5c(F)cccc5F)c5nc(c(-c6c(F)cccc6F)c6ccc3[nH]6)C=C5)C=C4)cc2)C1
REMARK SMILES IDX 20 1 19 2 17 3 18 4 16 6 15 7 11 8 12 9 81 10 13 11 14 12
REMARK SMILES IDX 9 13 10 14 8 15 4 16 5 17 6 18 7 19 2 20 1 21 3 22 21 23
REMARK SMILES IDX 22 24 23 25 24 26 25 27 26 29 27 30 28 31 80 32 29 33 79 34
REMARK SMILES IDX 30 35 31 36 32 37 73 38 33 39 78 40 72 41 74 42 34 43 77 44
REMARK SMILES IDX 71 45 70 46 35 48 61 49 44 50 60 51 45 52 48 53 59 54 75 55
REMARK SMILES IDX 46 56 47 57 58 59 76 60 49 61 36 62 37 63 42 64 38 65 39 66
REMARK SMILES IDX 41 67 43 68 40 69 62 70 63 71 68 72 64 73 65 74 67 75 69 76
REMARK SMILES IDX 66 77 50 78 51 79 56 80 52 81 53 82 55 83 57 84 54 85
REMARK H PARENT 19 5 24 28 74 47 48 58
REMARK Flexibility Score: inf
ROOT
ATOM      1  C   UNL A   1      36.304  23.156  24.750  1.00  0.00     0.116 C 
ENDROOT
BRANCH   1   2
ATOM      2  N   UNL A   1      35.590  23.048  23.493  1.00  0.00    -0.356 N 
ATOM      3  C   UNL A   1      34.305  23.363  23.171  1.00  0.00     0.222 C 
ATOM      4  O   UNL A   1      33.920  23.155  22.019  1.00  0.00    -0.275 OA
ATOM      5  H   UNL A   1      36.122  22.684  22.749  1.00  0.00     0.163 HD
BRANCH   3   6
ATOM      6  C   UNL A   1      33.402  24.007  24.190  1.00  0.00     0.133 C 
BRANCH   6   7
ATOM      7  C   UNL A   1      31.941  23.589  24.014  1.00  0.00     0.147 C 
ATOM      8  N   UNL A   1      30.938  25.758  24.621  1.00  0.00    -0.320 N 
ATOM      9  C   UNL A   1      30.264  25.149  25.758  1.00  0.00     0.150 C 
ATOM     10  C   UNL A   1      31.117  24.798  23.534  1.00  0.00     0.154 C 
ATOM     11  C   UNL A   1      31.058  23.938  26.242  1.00  0.00     0.182 C 
ATOM     12  O   UNL A   1      31.356  23.005  25.197  1.00  0.00    -0.374 OA
BRANCH   8  13
ATOM     13  C   UNL A   1      30.537  27.024  24.264  1.00  0.00     0.320 C 
ATOM     14  O   UNL A   1      29.364  27.262  23.985  1.00  0.00    -0.248 OA
BRANCH  13  15
ATOM     15  N   UNL A   1      31.536  27.970  24.189  1.00  0.00    -0.321 N 
ATOM     16  C   UNL A   1      32.435  28.492  25.235  1.00  0.00     0.089 C 
ATOM     17  C   UNL A   1      33.366  29.451  24.469  1.00  0.00     0.027 C 
ATOM     18  C   UNL A   1      33.408  28.859  23.072  1.00  0.00     0.024 C 
ATOM     19  C   UNL A   1      31.974  28.402  22.871  1.00  0.00     0.122 C 
BRANCH  16  20
ATOM     20  C   UNL A   1      31.774  29.164  26.462  1.00  0.00     0.005 C 
ATOM     21  C   UNL A   1      31.645  28.183  27.636  1.00  0.00     0.009 C 
ATOM     22  C   UNL A   1      32.466  30.443  26.937  1.00  0.00     0.009 C 
ENDBRANCH  16  20
ENDBRANCH  13  15
ENDBRANCH   8  13
ENDBRANCH   6   7
ENDBRANCH   3   6
ENDBRANCH   1   2
BRANCH   1  23
ATOM     23  C   UNL A   1      36.533  21.782  25.384  1.00  0.00     0.023 C 
BRANCH  23  24
ATOM     24  C   UNL A   1      37.793  21.089  24.874  1.00  0.00     0.023 C 
BRANCH  24  25
ATOM     25  C   UNL A   1      38.920  20.987  25.893  1.00  0.00     0.116 C 
BRANCH  25  26
ATOM     26  N   UNL A   1      39.774  19.820  25.724  1.00  0.00    -0.352 N 
ATOM     27  C   UNL A   1      41.117  19.724  26.021  1.00  0.00     0.251 C 
ATOM     28  H   UNL A   1      39.346  19.012  25.358  1.00  0.00     0.163 HD
ATOM     29  O   UNL A   1      41.748  18.696  25.804  1.00  0.00    -0.269 OA
BRANCH  27  30
ATOM     30  C   UNL A   1      41.789  20.922  26.558  1.00  0.00     0.039 A 
ATOM     31  C   UNL A   1      42.327  21.850  25.665  1.00  0.00     0.014 A 
ATOM     32  C   UNL A   1      41.733  21.193  27.928  1.00  0.00     0.014 A 
ATOM     33  C   UNL A   1      42.719  23.104  26.137  1.00  0.00     0.010 A 
ATOM     34  C   UNL A   1      42.062  22.464  28.383  1.00  0.00     0.010 A 
ATOM     35  C   UNL A   1      42.535  23.438  27.488  1.00  0.00    -0.014 A 
BRANCH  35  36
ATOM     36  C   UNL A   1      42.792  24.813  27.988  1.00  0.00     0.031 A 
ATOM     37  C   UNL A   1      44.175  25.205  28.421  1.00  0.00     0.074 A 
ATOM     38  C   UNL A   1      41.765  25.669  28.148  1.00  0.00     0.049 A 
ATOM     39  N   UNL A   1      44.578  26.307  29.001  1.00  0.00    -0.248 NA
ATOM     40  C   UNL A   1      45.238  24.212  28.206  1.00  0.00     0.031 C 
ATOM     41  C   UNL A   1      40.365  25.389  27.822  1.00  0.00     0.029 A 
ATOM     42  N   UNL A   1      41.738  26.948  28.645  1.00  0.00    -0.354 N 
ATOM     43  C   UNL A   1      45.932  26.128  29.246  1.00  0.00     0.074 A 
ATOM     44  C   UNL A   1      46.274  24.799  28.788  1.00  0.00     0.031 C 
ATOM     45  C   UNL A   1      39.620  26.470  28.110  1.00  0.00     0.029 A 
ATOM     46  C   UNL A   1      40.482  27.505  28.671  1.00  0.00     0.049 A 
ATOM     47  H   UNL A   1      42.543  27.422  28.955  1.00  0.00     0.167 HD
ATOM     48  C   UNL A   1      46.815  26.999  29.788  1.00  0.00     0.037 A 
ATOM     49  C   UNL A   1      40.072  28.712  29.103  1.00  0.00     0.037 A 
ATOM     50  C   UNL A   1      46.485  28.337  30.202  1.00  0.00     0.049 A 
ATOM     51  C   UNL A   1      41.079  29.678  29.659  1.00  0.00     0.074 A 
ATOM     52  C   UNL A   1      47.325  29.317  30.699  1.00  0.00     0.029 A 
ATOM     53  N   UNL A   1      45.212  28.882  30.157  1.00  0.00    -0.354 N 
ATOM     54  N   UNL A   1      42.368  29.516  29.833  1.00  0.00    -0.248 NA
ATOM     55  C   UNL A   1      40.577  30.995  30.077  1.00  0.00     0.031 C 
ATOM     56  C   UNL A   1      46.554  30.452  30.976  1.00  0.00     0.029 A 
ATOM     57  C   UNL A   1      45.241  30.185  30.624  1.00  0.00     0.049 A 
ATOM     58  H   UNL A   1      44.406  28.413  29.842  1.00  0.00     0.167 HD
ATOM     59  C   UNL A   1      42.834  30.716  30.352  1.00  0.00     0.074 A 
ATOM     60  C   UNL A   1      41.692  31.600  30.460  1.00  0.00     0.031 C 
ATOM     61  C   UNL A   1      44.097  31.055  30.708  1.00  0.00     0.037 A 
BRANCH  48  62
ATOM     62  C   UNL A   1      48.228  26.528  29.953  1.00  0.00     0.057 A 
ATOM     63  C   UNL A   1      48.648  25.858  31.108  1.00  0.00     0.134 A 
ATOM     64  C   UNL A   1      49.173  26.735  28.941  1.00  0.00     0.134 A 
ATOM     65  F   UNL A   1      47.793  25.645  32.120  1.00  0.00    -0.206 F 
ATOM     66  C   UNL A   1      49.968  25.431  31.263  1.00  0.00     0.040 A 
ATOM     67  C   UNL A   1      50.491  26.292  29.076  1.00  0.00     0.040 A 
ATOM     68  F   UNL A   1      48.834  27.368  27.809  1.00  0.00    -0.206 F 
ATOM     69  C   UNL A   1      50.892  25.644  30.242  1.00  0.00     0.006 A 
ENDBRANCH  48  62
BRANCH  49  70
ATOM     70  C   UNL A   1      38.642  29.093  28.996  1.00  0.00     0.057 A 
ATOM     71  C   UNL A   1      38.114  29.569  27.791  1.00  0.00     0.134 A 
ATOM     72  C   UNL A   1      37.774  29.000  30.090  1.00  0.00     0.134 A 
ATOM     73  F   UNL A   1      38.904  29.698  26.714  1.00  0.00    -0.206 F 
ATOM     74  C   UNL A   1      36.778  29.956  27.679  1.00  0.00     0.040 A 
ATOM     75  C   UNL A   1      36.431  29.365  29.988  1.00  0.00     0.040 A 
ATOM     76  F   UNL A   1      38.219  28.544  31.271  1.00  0.00    -0.206 F 
ATOM     77  C   UNL A   1      35.931  29.850  28.780  1.00  0.00     0.006 A 
ENDBRANCH  49  70
BRANCH  61  78
ATOM     78  C   UNL A   1      44.317  32.450  31.209  1.00  0.00     0.057 A 
ATOM     79  C   UNL A   1      44.273  32.757  32.573  1.00  0.00     0.134 A 
ATOM     80  C   UNL A   1      44.625  33.484  30.317  1.00  0.00     0.134 A 
ATOM     81  F   UNL A   1      43.970  31.810  33.473  1.00  0.00    -0.206 F 
ATOM     82  C   UNL A   1      44.516  34.052  33.035  1.00  0.00     0.040 A 
ATOM     83  C   UNL A   1      44.888  34.778  30.767  1.00  0.00     0.040 A 
ATOM     84  F   UNL A   1      44.688  33.251  28.997  1.00  0.00    -0.206 F 
ATOM     85  C   UNL A   1      44.832  35.065  32.130  1.00  0.00     0.006 A 
ENDBRANCH  61  78
ENDBRANCH  35  36
ENDBRANCH  27  30
ENDBRANCH  25  26
ENDBRANCH  24  25
ENDBRANCH  23  24
ENDBRANCH   1  23
TORSDOF 15
ENDMDL
