MODEL 1
REMARK VINA RESULT:     -10.4      0.000      0.000
REMARK SMILES O=C(/C=C\N1[C@@H]2CC[C@H]1C[C@H](O)C2)NCCCCNC(=O)c1ccc(-c2c3nc(c(-c4c(F)cccc4F)c4ccc([nH]4)c(-c4c(F)cccc4F)c4nc(c(-c5c(F)cccc5F)c5ccc2[nH]5)C=C4)C=C3)cc1
REMARK SMILES IDX 16 1 15 2 14 3 1 4 2 5 3 7 4 8 5 9 6 10 9 11 7 12 13 13 8 14
REMARK SMILES IDX 10 15 11 16 12 17 17 19 18 20 19 21 20 22 21 24 22 25 23 26
REMARK SMILES IDX 75 27 24 28 74 29 25 30 26 31 27 32 68 33 28 34 73 35 67 36
REMARK SMILES IDX 69 37 29 38 72 39 66 40 65 41 30 43 56 44 39 45 55 46 40 47
REMARK SMILES IDX 43 48 54 49 70 50 41 51 42 52 53 54 71 55 44 56 31 57 32 58
REMARK SMILES IDX 37 59 33 60 34 61 36 62 38 63 35 64 57 65 58 66 63 67 59 68
REMARK SMILES IDX 60 69 62 70 64 71 61 72 45 73 46 74 51 75 47 76 48 77 50 78
REMARK SMILES IDX 52 79 49 80
REMARK H PARENT 14 6 12 18 19 23 69 42 43 53
REMARK Flexibility Score: inf
ROOT
ATOM      1  C   UNL A   1      34.046  35.573  28.377  1.00  0.00     0.023 C 
ENDROOT
BRANCH   1   2
ATOM      2  C   UNL A   1      33.355  36.696  29.171  1.00  0.00     0.116 C 
BRANCH   2   3
ATOM      3  N   UNL A   1      33.659  36.799  30.587  1.00  0.00    -0.353 N 
ATOM      4  O   UNL A   1      32.528  34.954  31.347  1.00  0.00    -0.270 OA
ATOM      5  C   UNL A   1      33.245  35.923  31.556  1.00  0.00     0.245 C 
ATOM      6  H   UNL A   1      34.210  37.563  30.877  1.00  0.00     0.163 HD
BRANCH   5   7
ATOM      7  C   UNL A   1      33.862  36.111  32.907  1.00  0.00     0.088 C 
ATOM      8  C   UNL A   1      34.950  35.586  33.493  1.00  0.00     0.087 C 
BRANCH   8   9
ATOM      9  N   UNL A   1      35.956  34.741  33.080  1.00  0.00    -0.371 N 
ATOM     10  C   UNL A   1      36.658  33.734  33.894  1.00  0.00     0.084 C 
ATOM     11  C   UNL A   1      36.550  34.632  31.758  1.00  0.00     0.084 C 
ATOM     12  C   UNL A   1      38.099  33.721  33.314  1.00  0.00     0.027 C 
ATOM     13  C   UNL A   1      35.955  32.390  33.611  1.00  0.00     0.056 C 
ATOM     14  C   UNL A   1      38.037  34.641  32.100  1.00  0.00     0.027 C 
ATOM     15  C   UNL A   1      36.155  33.254  31.189  1.00  0.00     0.056 C 
ATOM     16  C   UNL A   1      35.423  32.329  32.170  1.00  0.00     0.118 C 
BRANCH  16  17
ATOM     17  O   UNL A   1      34.027  32.680  32.146  1.00  0.00    -0.393 OA
ATOM     18  H   UNL A   1      33.886  33.481  32.674  1.00  0.00     0.210 HD
ENDBRANCH  16  17
ENDBRANCH   8   9
ENDBRANCH   5   7
ENDBRANCH   2   3
ENDBRANCH   1   2
BRANCH   1  19
ATOM     19  C   UNL A   1      33.348  34.215  28.164  1.00  0.00     0.023 C 
BRANCH  19  20
ATOM     20  C   UNL A   1      34.186  32.927  28.168  1.00  0.00     0.116 C 
BRANCH  20  21
ATOM     21  N   UNL A   1      33.568  31.741  27.626  1.00  0.00    -0.352 N 
ATOM     22  C   UNL A   1      34.023  30.438  27.621  1.00  0.00     0.251 C 
ATOM     23  H   UNL A   1      32.694  31.883  27.197  1.00  0.00     0.163 HD
ATOM     24  O   UNL A   1      33.276  29.559  27.194  1.00  0.00    -0.269 OA
BRANCH  22  25
ATOM     25  C   UNL A   1      35.402  30.047  28.048  1.00  0.00     0.039 A 
ATOM     26  C   UNL A   1      35.568  29.680  29.390  1.00  0.00     0.014 A 
ATOM     27  C   UNL A   1      36.536  30.100  27.229  1.00  0.00     0.014 A 
ATOM     28  C   UNL A   1      36.829  29.328  29.894  1.00  0.00     0.010 A 
ATOM     29  C   UNL A   1      37.797  29.703  27.724  1.00  0.00     0.010 A 
ATOM     30  C   UNL A   1      37.960  29.305  29.065  1.00  0.00    -0.014 A 
BRANCH  30  31
ATOM     31  C   UNL A   1      39.277  28.844  29.612  1.00  0.00     0.031 A 
ATOM     32  C   UNL A   1      39.903  29.484  30.826  1.00  0.00     0.074 A 
ATOM     33  C   UNL A   1      39.922  27.811  29.027  1.00  0.00     0.049 A 
ATOM     34  N   UNL A   1      41.017  29.174  31.446  1.00  0.00    -0.248 NA
ATOM     35  C   UNL A   1      39.190  30.626  31.415  1.00  0.00     0.031 C 
ATOM     36  C   UNL A   1      39.457  27.094  27.839  1.00  0.00     0.029 A 
ATOM     37  N   UNL A   1      41.101  27.179  29.353  1.00  0.00    -0.354 N 
ATOM     38  C   UNL A   1      41.137  30.074  32.500  1.00  0.00     0.074 A 
ATOM     39  C   UNL A   1      40.006  30.975  32.401  1.00  0.00     0.031 C 
ATOM     40  C   UNL A   1      40.324  26.111  27.552  1.00  0.00     0.029 A 
ATOM     41  C   UNL A   1      41.429  26.146  28.507  1.00  0.00     0.049 A 
ATOM     42  H   UNL A   1      41.658  27.444  30.121  1.00  0.00     0.167 HD
ATOM     43  C   UNL A   1      42.085  30.139  33.470  1.00  0.00     0.037 A 
ATOM     44  C   UNL A   1      42.495  25.321  28.486  1.00  0.00     0.037 A 
ATOM     45  C   UNL A   1      43.216  29.249  33.580  1.00  0.00     0.049 A 
ATOM     46  C   UNL A   1      43.559  25.442  29.545  1.00  0.00     0.074 A 
ATOM     47  C   UNL A   1      44.201  29.224  34.555  1.00  0.00     0.029 A 
ATOM     48  N   UNL A   1      43.522  28.235  32.686  1.00  0.00    -0.354 N 
ATOM     49  N   UNL A   1      43.622  26.262  30.564  1.00  0.00    -0.248 NA
ATOM     50  C   UNL A   1      44.698  24.514  29.453  1.00  0.00     0.031 C 
ATOM     51  C   UNL A   1      45.133  28.237  34.218  1.00  0.00     0.029 A 
ATOM     52  C   UNL A   1      44.697  27.602  33.069  1.00  0.00     0.049 A 
ATOM     53  H   UNL A   1      42.985  27.998  31.895  1.00  0.00     0.167 HD
ATOM     54  C   UNL A   1      44.787  25.933  31.248  1.00  0.00     0.074 A 
ATOM     55  C   UNL A   1      45.391  24.827  30.539  1.00  0.00     0.031 C 
ATOM     56  C   UNL A   1      45.303  26.499  32.366  1.00  0.00     0.037 A 
BRANCH  43  57
ATOM     57  C   UNL A   1      41.949  31.224  34.504  1.00  0.00     0.057 A 
ATOM     58  C   UNL A   1      42.533  32.486  34.333  1.00  0.00     0.134 A 
ATOM     59  C   UNL A   1      41.176  31.025  35.656  1.00  0.00     0.134 A 
ATOM     60  F   UNL A   1      43.287  32.745  33.254  1.00  0.00    -0.206 F 
ATOM     61  C   UNL A   1      42.384  33.496  35.286  1.00  0.00     0.040 A 
ATOM     62  C   UNL A   1      40.994  32.038  36.601  1.00  0.00     0.040 A 
ATOM     63  F   UNL A   1      40.571  29.847  35.876  1.00  0.00    -0.206 F 
ATOM     64  C   UNL A   1      41.606  33.276  36.420  1.00  0.00     0.006 A 
ENDBRANCH  43  57
BRANCH  44  65
ATOM     65  C   UNL A   1      42.619  24.295  27.417  1.00  0.00     0.057 A 
ATOM     66  C   UNL A   1      43.209  24.593  26.183  1.00  0.00     0.134 A 
ATOM     67  C   UNL A   1      42.130  22.995  27.599  1.00  0.00     0.134 A 
ATOM     68  F   UNL A   1      43.674  25.828  25.938  1.00  0.00    -0.206 F 
ATOM     69  C   UNL A   1      43.290  23.645  25.162  1.00  0.00     0.040 A 
ATOM     70  C   UNL A   1      42.232  22.027  26.598  1.00  0.00     0.040 A 
ATOM     71  F   UNL A   1      41.556  22.643  28.759  1.00  0.00    -0.206 F 
ATOM     72  C   UNL A   1      42.807  22.354  25.371  1.00  0.00     0.006 A 
ENDBRANCH  44  65
BRANCH  56  73
ATOM     73  C   UNL A   1      46.573  25.912  32.921  1.00  0.00     0.057 A 
ATOM     74  C   UNL A   1      47.837  26.397  32.561  1.00  0.00     0.134 A 
ATOM     75  C   UNL A   1      46.529  24.867  33.853  1.00  0.00     0.134 A 
ATOM     76  F   UNL A   1      47.954  27.388  31.663  1.00  0.00    -0.206 F 
ATOM     77  C   UNL A   1      49.009  25.850  33.088  1.00  0.00     0.040 A 
ATOM     78  C   UNL A   1      47.692  24.331  34.410  1.00  0.00     0.040 A 
ATOM     79  F   UNL A   1      45.353  24.357  34.251  1.00  0.00    -0.206 F 
ATOM     80  C   UNL A   1      48.938  24.817  34.021  1.00  0.00     0.006 A 
ENDBRANCH  56  73
ENDBRANCH  30  31
ENDBRANCH  22  25
ENDBRANCH  20  21
ENDBRANCH  19  20
ENDBRANCH   1  19
TORSDOF 13
ENDMDL
MODEL 2
REMARK VINA RESULT:     -10.3      3.099      6.197
REMARK SMILES O=C(/C=C\N1[C@@H]2CC[C@H]1C[C@H](O)C2)NCCCCNC(=O)c1ccc(-c2c3nc(c(-c4c(F)cccc4F)c4ccc([nH]4)c(-c4c(F)cccc4F)c4nc(c(-c5c(F)cccc5F)c5ccc2[nH]5)C=C4)C=C3)cc1
REMARK SMILES IDX 16 1 15 2 14 3 1 4 2 5 3 7 4 8 5 9 6 10 9 11 7 12 13 13 8 14
REMARK SMILES IDX 10 15 11 16 12 17 17 19 18 20 19 21 20 22 21 24 22 25 23 26
REMARK SMILES IDX 75 27 24 28 74 29 25 30 26 31 27 32 68 33 28 34 73 35 67 36
REMARK SMILES IDX 69 37 29 38 72 39 66 40 65 41 30 43 56 44 39 45 55 46 40 47
REMARK SMILES IDX 43 48 54 49 70 50 41 51 42 52 53 54 71 55 44 56 31 57 32 58
REMARK SMILES IDX 37 59 33 60 34 61 36 62 38 63 35 64 57 65 58 66 63 67 59 68
REMARK SMILES IDX 60 69 62 70 64 71 61 72 45 73 46 74 51 75 47 76 48 77 50 78
REMARK SMILES IDX 52 79 49 80
REMARK H PARENT 14 6 12 18 19 23 69 42 43 53
REMARK Flexibility Score: inf
ROOT
ATOM      1  C   UNL A   1      31.468  30.636  26.127  1.00  0.00     0.023 C 
ENDROOT
BRANCH   1   2
ATOM      2  C   UNL A   1      31.836  29.605  27.209  1.00  0.00     0.116 C 
BRANCH   2   3
ATOM      3  N   UNL A   1      32.657  28.477  26.807  1.00  0.00    -0.353 N 
ATOM      4  O   UNL A   1      31.080  26.814  26.904  1.00  0.00    -0.270 OA
ATOM      5  C   UNL A   1      32.221  27.185  26.668  1.00  0.00     0.245 C 
ATOM      6  H   UNL A   1      33.607  28.654  26.617  1.00  0.00     0.163 HD
BRANCH   5   7
ATOM      7  C   UNL A   1      33.193  26.238  26.033  1.00  0.00     0.088 C 
ATOM      8  C   UNL A   1      33.449  25.917  24.754  1.00  0.00     0.087 C 
BRANCH   8   9
ATOM      9  N   UNL A   1      32.990  26.366  23.535  1.00  0.00    -0.371 N 
ATOM     10  C   UNL A   1      31.627  26.824  23.216  1.00  0.00     0.084 C 
ATOM     11  C   UNL A   1      33.731  26.505  22.293  1.00  0.00     0.084 C 
ATOM     12  C   UNL A   1      31.423  26.390  21.738  1.00  0.00     0.027 C 
ATOM     13  C   UNL A   1      31.657  28.362  23.323  1.00  0.00     0.056 C 
ATOM     14  C   UNL A   1      32.778  25.842  21.304  1.00  0.00     0.027 C 
ATOM     15  C   UNL A   1      33.835  28.013  21.986  1.00  0.00     0.056 C 
ATOM     16  C   UNL A   1      33.030  28.926  22.921  1.00  0.00     0.118 C 
BRANCH  16  17
ATOM     17  O   UNL A   1      33.827  29.164  24.096  1.00  0.00    -0.393 OA
ATOM     18  H   UNL A   1      34.758  29.261  23.841  1.00  0.00     0.210 HD
ENDBRANCH  16  17
ENDBRANCH   8   9
ENDBRANCH   5   7
ENDBRANCH   2   3
ENDBRANCH   1   2
BRANCH   1  19
ATOM     19  C   UNL A   1      31.296  32.126  26.485  1.00  0.00     0.023 C 
BRANCH  19  20
ATOM     20  C   UNL A   1      32.524  32.948  26.906  1.00  0.00     0.116 C 
BRANCH  20  21
ATOM     21  N   UNL A   1      32.284  34.123  27.708  1.00  0.00    -0.352 N 
ATOM     22  C   UNL A   1      33.088  34.715  28.660  1.00  0.00     0.251 C 
ATOM     23  H   UNL A   1      31.419  34.567  27.553  1.00  0.00     0.163 HD
ATOM     24  O   UNL A   1      32.726  35.784  29.150  1.00  0.00    -0.269 OA
BRANCH  22  25
ATOM     25  C   UNL A   1      34.347  34.094  29.177  1.00  0.00     0.039 A 
ATOM     26  C   UNL A   1      34.208  33.127  30.183  1.00  0.00     0.014 A 
ATOM     27  C   UNL A   1      35.639  34.465  28.787  1.00  0.00     0.014 A 
ATOM     28  C   UNL A   1      35.330  32.511  30.755  1.00  0.00     0.010 A 
ATOM     29  C   UNL A   1      36.767  33.812  29.331  1.00  0.00     0.010 A 
ATOM     30  C   UNL A   1      36.628  32.821  30.320  1.00  0.00    -0.014 A 
BRANCH  30  31
ATOM     31  C   UNL A   1      37.801  32.084  30.891  1.00  0.00     0.031 A 
ATOM     32  C   UNL A   1      38.320  32.368  32.278  1.00  0.00     0.074 A 
ATOM     33  C   UNL A   1      38.406  31.120  30.164  1.00  0.00     0.049 A 
ATOM     34  N   UNL A   1      39.301  31.790  32.932  1.00  0.00    -0.248 NA
ATOM     35  C   UNL A   1      37.659  33.446  33.026  1.00  0.00     0.031 C 
ATOM     36  C   UNL A   1      38.034  30.735  28.802  1.00  0.00     0.029 A 
ATOM     37  N   UNL A   1      39.456  30.283  30.468  1.00  0.00    -0.354 N 
ATOM     38  C   UNL A   1      39.372  32.426  34.166  1.00  0.00     0.074 A 
ATOM     39  C   UNL A   1      38.366  33.470  34.149  1.00  0.00     0.031 C 
ATOM     40  C   UNL A   1      38.822  29.727  28.399  1.00  0.00     0.029 A 
ATOM     41  C   UNL A   1      39.784  29.415  29.453  1.00  0.00     0.049 A 
ATOM     42  H   UNL A   1      39.929  30.305  31.331  1.00  0.00     0.167 HD
ATOM     43  C   UNL A   1      40.180  32.160  35.224  1.00  0.00     0.037 A 
ATOM     44  C   UNL A   1      40.750  28.477  29.365  1.00  0.00     0.037 A 
ATOM     45  C   UNL A   1      41.185  31.124  35.256  1.00  0.00     0.049 A 
ATOM     46  C   UNL A   1      41.667  28.232  30.534  1.00  0.00     0.074 A 
ATOM     47  C   UNL A   1      42.020  30.765  36.303  1.00  0.00     0.029 A 
ATOM     48  N   UNL A   1      41.500  30.287  34.197  1.00  0.00    -0.354 N 
ATOM     49  N   UNL A   1      41.678  28.806  31.711  1.00  0.00    -0.248 NA
ATOM     50  C   UNL A   1      42.703  27.201  30.363  1.00  0.00     0.031 C 
ATOM     51  C   UNL A   1      42.880  29.756  35.858  1.00  0.00     0.029 A 
ATOM     52  C   UNL A   1      42.539  29.438  34.554  1.00  0.00     0.049 A 
ATOM     53  H   UNL A   1      41.054  30.294  33.319  1.00  0.00     0.167 HD
ATOM     54  C   UNL A   1      42.697  28.189  32.428  1.00  0.00     0.074 A 
ATOM     55  C   UNL A   1      43.271  27.185  31.559  1.00  0.00     0.031 C 
ATOM     56  C   UNL A   1      43.114  28.435  33.694  1.00  0.00     0.037 A 
BRANCH  43  57
ATOM     57  C   UNL A   1      40.021  33.014  36.453  1.00  0.00     0.057 A 
ATOM     58  C   UNL A   1      40.781  34.174  36.653  1.00  0.00     0.134 A 
ATOM     59  C   UNL A   1      39.056  32.705  37.422  1.00  0.00     0.134 A 
ATOM     60  F   UNL A   1      41.724  34.528  35.766  1.00  0.00    -0.206 F 
ATOM     61  C   UNL A   1      40.612  34.975  37.784  1.00  0.00     0.040 A 
ATOM     62  C   UNL A   1      38.856  33.515  38.542  1.00  0.00     0.040 A 
ATOM     63  F   UNL A   1      38.278  31.619  37.287  1.00  0.00    -0.206 F 
ATOM     64  C   UNL A   1      39.642  34.650  38.729  1.00  0.00     0.006 A 
ENDBRANCH  43  57
BRANCH  44  65
ATOM     65  C   UNL A   1      40.909  27.690  28.114  1.00  0.00     0.057 A 
ATOM     66  C   UNL A   1      41.709  28.146  27.060  1.00  0.00     0.134 A 
ATOM     67  C   UNL A   1      40.244  26.470  27.935  1.00  0.00     0.134 A 
ATOM     68  F   UNL A   1      42.352  29.320  27.159  1.00  0.00    -0.206 F 
ATOM     69  C   UNL A   1      41.828  27.430  25.867  1.00  0.00     0.040 A 
ATOM     70  C   UNL A   1      40.378  25.728  26.761  1.00  0.00     0.040 A 
ATOM     71  F   UNL A   1      39.464  25.975  28.907  1.00  0.00    -0.206 F 
ATOM     72  C   UNL A   1      41.166  26.213  25.718  1.00  0.00     0.006 A 
ENDBRANCH  44  65
BRANCH  56  73
ATOM     73  C   UNL A   1      44.227  27.582  34.239  1.00  0.00     0.057 A 
ATOM     74  C   UNL A   1      45.571  27.968  34.154  1.00  0.00     0.134 A 
ATOM     75  C   UNL A   1      43.947  26.371  34.887  1.00  0.00     0.134 A 
ATOM     76  F   UNL A   1      45.913  29.108  33.535  1.00  0.00    -0.206 F 
ATOM     77  C   UNL A   1      46.596  27.171  34.670  1.00  0.00     0.040 A 
ATOM     78  C   UNL A   1      44.960  25.580  35.433  1.00  0.00     0.040 A 
ATOM     79  F   UNL A   1      42.682  25.942  35.013  1.00  0.00    -0.206 F 
ATOM     80  C   UNL A   1      46.291  25.976  35.318  1.00  0.00     0.006 A 
ENDBRANCH  56  73
ENDBRANCH  30  31
ENDBRANCH  22  25
ENDBRANCH  20  21
ENDBRANCH  19  20
ENDBRANCH   1  19
TORSDOF 13
ENDMDL
MODEL 3
REMARK VINA RESULT:     -10.2      3.819      6.527
REMARK SMILES O=C(/C=C\N1[C@@H]2CC[C@H]1C[C@H](O)C2)NCCCCNC(=O)c1ccc(-c2c3nc(c(-c4c(F)cccc4F)c4ccc([nH]4)c(-c4c(F)cccc4F)c4nc(c(-c5c(F)cccc5F)c5ccc2[nH]5)C=C4)C=C3)cc1
REMARK SMILES IDX 16 1 15 2 14 3 1 4 2 5 3 7 4 8 5 9 6 10 9 11 7 12 13 13 8 14
REMARK SMILES IDX 10 15 11 16 12 17 17 19 18 20 19 21 20 22 21 24 22 25 23 26
REMARK SMILES IDX 75 27 24 28 74 29 25 30 26 31 27 32 68 33 28 34 73 35 67 36
REMARK SMILES IDX 69 37 29 38 72 39 66 40 65 41 30 43 56 44 39 45 55 46 40 47
REMARK SMILES IDX 43 48 54 49 70 50 41 51 42 52 53 54 71 55 44 56 31 57 32 58
REMARK SMILES IDX 37 59 33 60 34 61 36 62 38 63 35 64 57 65 58 66 63 67 59 68
REMARK SMILES IDX 60 69 62 70 64 71 61 72 45 73 46 74 51 75 47 76 48 77 50 78
REMARK SMILES IDX 52 79 49 80
REMARK H PARENT 14 6 12 18 19 23 69 42 43 53
REMARK Flexibility Score: inf
ROOT
ATOM      1  C   UNL A   1      32.910  29.364  24.789  1.00  0.00     0.023 C 
ENDROOT
BRANCH   1   2
ATOM      2  C   UNL A   1      31.414  28.998  24.755  1.00  0.00     0.116 C 
BRANCH   2   3
ATOM      3  N   UNL A   1      31.060  27.675  24.272  1.00  0.00    -0.353 N 
ATOM      4  O   UNL A   1      30.672  26.636  26.279  1.00  0.00    -0.270 OA
ATOM      5  C   UNL A   1      30.702  26.611  25.056  1.00  0.00     0.245 C 
ATOM      6  H   UNL A   1      31.079  27.531  23.297  1.00  0.00     0.163 HD
BRANCH   5   7
ATOM      7  C   UNL A   1      30.170  25.417  24.325  1.00  0.00     0.088 C 
ATOM      8  C   UNL A   1      30.691  24.211  24.048  1.00  0.00     0.087 C 
BRANCH   8   9
ATOM      9  N   UNL A   1      31.865  23.568  24.374  1.00  0.00    -0.371 N 
ATOM     10  C   UNL A   1      33.208  24.166  24.458  1.00  0.00     0.084 C 
ATOM     11  C   UNL A   1      32.057  22.170  24.720  1.00  0.00     0.084 C 
ATOM     12  C   UNL A   1      34.157  23.023  24.003  1.00  0.00     0.027 C 
ATOM     13  C   UNL A   1      33.439  24.493  25.947  1.00  0.00     0.056 C 
ATOM     14  C   UNL A   1      33.249  21.808  23.840  1.00  0.00     0.027 C 
ATOM     15  C   UNL A   1      32.470  22.116  26.205  1.00  0.00     0.056 C 
ATOM     16  C   UNL A   1      32.727  23.480  26.860  1.00  0.00     0.118 C 
BRANCH  16  17
ATOM     17  O   UNL A   1      31.459  24.009  27.286  1.00  0.00    -0.393 OA
ATOM     18  H   UNL A   1      31.564  24.941  27.535  1.00  0.00     0.210 HD
ENDBRANCH  16  17
ENDBRANCH   8   9
ENDBRANCH   5   7
ENDBRANCH   2   3
ENDBRANCH   1   2
BRANCH   1  19
ATOM     19  C   UNL A   1      33.898  28.556  25.655  1.00  0.00     0.023 C 
BRANCH  19  20
ATOM     20  C   UNL A   1      33.766  28.594  27.185  1.00  0.00     0.116 C 
BRANCH  20  21
ATOM     21  N   UNL A   1      33.640  29.891  27.802  1.00  0.00    -0.352 N 
ATOM     22  C   UNL A   1      34.607  30.685  28.384  1.00  0.00     0.251 C 
ATOM     23  H   UNL A   1      32.729  30.266  27.808  1.00  0.00     0.163 HD
ATOM     24  O   UNL A   1      34.292  31.814  28.757  1.00  0.00    -0.269 OA
BRANCH  22  25
ATOM     25  C   UNL A   1      36.004  30.220  28.646  1.00  0.00     0.039 A 
ATOM     26  C   UNL A   1      36.895  30.252  27.565  1.00  0.00     0.014 A 
ATOM     27  C   UNL A   1      36.454  29.686  29.860  1.00  0.00     0.014 A 
ATOM     28  C   UNL A   1      38.217  29.806  27.701  1.00  0.00     0.010 A 
ATOM     29  C   UNL A   1      37.797  29.279  30.010  1.00  0.00     0.010 A 
ATOM     30  C   UNL A   1      38.701  29.339  28.933  1.00  0.00    -0.014 A 
BRANCH  30  31
ATOM     31  C   UNL A   1      40.141  28.949  29.069  1.00  0.00     0.031 A 
ATOM     32  C   UNL A   1      41.164  29.880  29.670  1.00  0.00     0.074 A 
ATOM     33  C   UNL A   1      40.545  27.724  28.668  1.00  0.00     0.049 A 
ATOM     34  N   UNL A   1      42.441  29.676  29.894  1.00  0.00    -0.248 NA
ATOM     35  C   UNL A   1      40.695  31.216  30.064  1.00  0.00     0.031 C 
ATOM     36  C   UNL A   1      39.683  26.714  28.055  1.00  0.00     0.029 A 
ATOM     37  N   UNL A   1      41.780  27.117  28.721  1.00  0.00    -0.354 N 
ATOM     38  C   UNL A   1      42.928  30.851  30.459  1.00  0.00     0.074 A 
ATOM     39  C   UNL A   1      41.816  31.780  30.495  1.00  0.00     0.031 C 
ATOM     40  C   UNL A   1      40.405  25.609  27.811  1.00  0.00     0.029 A 
ATOM     41  C   UNL A   1      41.791  25.839  28.213  1.00  0.00     0.049 A 
ATOM     42  H   UNL A   1      42.580  27.557  29.088  1.00  0.00     0.167 HD
ATOM     43  C   UNL A   1      44.173  31.129  30.922  1.00  0.00     0.037 A 
ATOM     44  C   UNL A   1      42.794  24.949  28.073  1.00  0.00     0.037 A 
ATOM     45  C   UNL A   1      45.289  30.214  30.893  1.00  0.00     0.049 A 
ATOM     46  C   UNL A   1      44.179  25.297  28.550  1.00  0.00     0.074 A 
ATOM     47  C   UNL A   1      46.574  30.405  31.377  1.00  0.00     0.029 A 
ATOM     48  N   UNL A   1      45.261  28.940  30.345  1.00  0.00    -0.354 N 
ATOM     49  N   UNL A   1      44.603  26.391  29.133  1.00  0.00    -0.248 NA
ATOM     50  C   UNL A   1      45.225  24.280  28.356  1.00  0.00     0.031 C 
ATOM     51  C   UNL A   1      47.338  29.275  31.067  1.00  0.00     0.029 A 
ATOM     52  C   UNL A   1      46.514  28.350  30.449  1.00  0.00     0.049 A 
ATOM     53  H   UNL A   1      44.469  28.516  29.941  1.00  0.00     0.167 HD
ATOM     54  C   UNL A   1      45.951  26.184  29.400  1.00  0.00     0.074 A 
ATOM     55  C   UNL A   1      46.272  24.854  28.931  1.00  0.00     0.031 C 
ATOM     56  C   UNL A   1      46.839  27.025  29.984  1.00  0.00     0.037 A 
BRANCH  43  57
ATOM     57  C   UNL A   1      44.410  32.497  31.504  1.00  0.00     0.057 A 
ATOM     58  C   UNL A   1      44.251  32.758  32.871  1.00  0.00     0.134 A 
ATOM     59  C   UNL A   1      44.856  33.552  30.696  1.00  0.00     0.134 A 
ATOM     60  F   UNL A   1      43.825  31.794  33.701  1.00  0.00    -0.206 F 
ATOM     61  C   UNL A   1      44.495  34.023  33.408  1.00  0.00     0.040 A 
ATOM     62  C   UNL A   1      45.133  34.814  31.227  1.00  0.00     0.040 A 
ATOM     63  F   UNL A   1      45.048  33.370  29.380  1.00  0.00    -0.206 F 
ATOM     64  C   UNL A   1      44.944  35.054  32.586  1.00  0.00     0.006 A 
ENDBRANCH  43  57
BRANCH  44  65
ATOM     65  C   UNL A   1      42.532  23.627  27.445  1.00  0.00     0.057 A 
ATOM     66  C   UNL A   1      42.216  22.501  28.216  1.00  0.00     0.134 A 
ATOM     67  C   UNL A   1      42.611  23.453  26.058  1.00  0.00     0.134 A 
ATOM     68  F   UNL A   1      42.150  22.596  29.553  1.00  0.00    -0.206 F 
ATOM     69  C   UNL A   1      42.010  21.249  27.635  1.00  0.00     0.040 A 
ATOM     70  C   UNL A   1      42.376  22.214  25.459  1.00  0.00     0.040 A 
ATOM     71  F   UNL A   1      42.907  24.491  25.261  1.00  0.00    -0.206 F 
ATOM     72  C   UNL A   1      42.082  21.105  26.250  1.00  0.00     0.006 A 
ENDBRANCH  44  65
BRANCH  56  73
ATOM     73  C   UNL A   1      48.243  26.524  30.186  1.00  0.00     0.057 A 
ATOM     74  C   UNL A   1      49.256  26.746  29.243  1.00  0.00     0.134 A 
ATOM     75  C   UNL A   1      48.595  25.837  31.356  1.00  0.00     0.134 A 
ATOM     76  F   UNL A   1      48.987  27.385  28.094  1.00  0.00    -0.206 F 
ATOM     77  C   UNL A   1      50.558  26.283  29.444  1.00  0.00     0.040 A 
ATOM     78  C   UNL A   1      49.900  25.395  31.582  1.00  0.00     0.040 A 
ATOM     79  F   UNL A   1      47.680  25.596  32.306  1.00  0.00    -0.206 F 
ATOM     80  C   UNL A   1      50.885  25.611  30.620  1.00  0.00     0.006 A 
ENDBRANCH  56  73
ENDBRANCH  30  31
ENDBRANCH  22  25
ENDBRANCH  20  21
ENDBRANCH  19  20
ENDBRANCH   1  19
TORSDOF 13
ENDMDL
