MODEL 1
REMARK VINA RESULT:     -10.2      0.000      0.000
REMARK SMILES NC(=O)CC[C@H](NC(=O)CC1CC1)C(=O)NCCCCNC(=O)c1ccc(-c2c3nc(c(-c4c(F)cccc4F)c4ccc([nH]4)c(-c4c(F)cccc4F)c4nc(c(-c5c(F)cccc5F)c5ccc2[nH]5)C=C4)C=C3)cc1
REMARK SMILES IDX 18 1 17 2 16 3 14 4 15 5 6 7 5 8 4 9 2 10 1 11 3 14 7 15
REMARK SMILES IDX 8 16 9 18 10 19 11 20 12 21 13 22 19 23 20 24 21 25 22 26
REMARK SMILES IDX 23 28 24 29 25 30 77 31 26 32 76 33 27 34 28 35 29 36 70 37
REMARK SMILES IDX 30 38 75 39 69 40 71 41 31 42 74 43 68 44 67 45 32 47 58 48
REMARK SMILES IDX 41 49 57 50 42 51 45 52 56 53 72 54 43 55 44 56 55 58 73 59
REMARK SMILES IDX 46 60 33 61 34 62 39 63 35 64 36 65 38 66 40 67 37 68 59 69
REMARK SMILES IDX 60 70 65 71 61 72 62 73 64 74 66 75 63 76 47 77 48 78 53 79
REMARK SMILES IDX 49 80 50 81 52 82 54 83 51 84
REMARK H PARENT 16 6 1 12 1 13 7 17 21 27 71 46 45 57
REMARK Flexibility Score: inf
ROOT
ATOM      1  C   UNL A   1      36.310  21.402  25.583  1.00  0.00     0.023 C 
ENDROOT
BRANCH   1   2
ATOM      2  C   UNL A   1      35.906  22.837  25.912  1.00  0.00     0.116 C 
BRANCH   2   3
ATOM      3  N   UNL A   1      34.921  22.950  26.969  1.00  0.00    -0.354 N 
ATOM      4  C   UNL A   1      33.666  22.400  26.943  1.00  0.00     0.242 C 
ATOM      5  O   UNL A   1      33.306  21.773  27.944  1.00  0.00    -0.273 OA
ATOM      6  H   UNL A   1      35.173  23.462  27.771  1.00  0.00     0.163 HD
BRANCH   4   7
ATOM      7  C   UNL A   1      32.658  22.718  25.794  1.00  0.00     0.171 C 
BRANCH   7   8
ATOM      8  C   UNL A   1      32.095  21.436  25.161  1.00  0.00     0.045 C 
BRANCH   8   9
ATOM      9  C   UNL A   1      33.116  20.310  24.948  1.00  0.00     0.102 C 
BRANCH   9  10
ATOM     10  C   UNL A   1      32.638  18.918  25.291  1.00  0.00     0.217 C 
ATOM     11  N   UNL A   1      32.897  18.501  26.560  1.00  0.00    -0.370 N 
ATOM     12  H   UNL A   1      32.613  17.604  26.851  1.00  0.00     0.159 HD
ATOM     13  H   UNL A   1      33.367  19.096  27.188  1.00  0.00     0.159 HD
ATOM     14  O   UNL A   1      32.047  18.194  24.499  1.00  0.00    -0.275 OA
ENDBRANCH   9  10
ENDBRANCH   8   9
ENDBRANCH   7   8
BRANCH   7  15
ATOM     15  N   UNL A   1      33.038  23.841  24.931  1.00  0.00    -0.344 N 
ATOM     16  C   UNL A   1      32.991  25.194  24.960  1.00  0.00     0.220 C 
ATOM     17  H   UNL A   1      33.443  23.520  24.093  1.00  0.00     0.164 HD
ATOM     18  O   UNL A   1      33.142  25.751  23.866  1.00  0.00    -0.275 OA
BRANCH  16  19
ATOM     19  C   UNL A   1      32.803  26.019  26.213  1.00  0.00     0.103 C 
BRANCH  19  20
ATOM     20  C   UNL A   1      32.636  27.507  26.084  1.00  0.00    -0.002 C 
ATOM     21  C   UNL A   1      32.252  28.395  27.234  1.00  0.00     0.004 C 
ATOM     22  C   UNL A   1      33.633  28.490  26.642  1.00  0.00     0.004 C 
ENDBRANCH  19  20
ENDBRANCH  16  19
ENDBRANCH   7  15
ENDBRANCH   4   7
ENDBRANCH   2   3
ENDBRANCH   1   2
BRANCH   1  23
ATOM     23  C   UNL A   1      37.698  21.268  24.946  1.00  0.00     0.023 C 
BRANCH  23  24
ATOM     24  C   UNL A   1      38.895  21.145  25.886  1.00  0.00     0.116 C 
BRANCH  24  25
ATOM     25  N   UNL A   1      39.769  20.013  25.638  1.00  0.00    -0.352 N 
ATOM     26  C   UNL A   1      41.092  19.862  26.001  1.00  0.00     0.251 C 
ATOM     27  H   UNL A   1      39.368  19.259  25.148  1.00  0.00     0.163 HD
ATOM     28  O   UNL A   1      41.687  18.813  25.769  1.00  0.00    -0.269 OA
BRANCH  26  29
ATOM     29  C   UNL A   1      41.829  21.010  26.580  1.00  0.00     0.039 A 
ATOM     30  C   UNL A   1      42.314  21.984  25.701  1.00  0.00     0.014 A 
ATOM     31  C   UNL A   1      41.947  21.192  27.959  1.00  0.00     0.014 A 
ATOM     32  C   UNL A   1      42.792  23.196  26.205  1.00  0.00     0.010 A 
ATOM     33  C   UNL A   1      42.355  22.430  28.459  1.00  0.00     0.010 A 
ATOM     34  C   UNL A   1      42.746  23.456  27.585  1.00  0.00    -0.014 A 
BRANCH  34  35
ATOM     35  C   UNL A   1      43.019  24.822  28.106  1.00  0.00     0.031 A 
ATOM     36  C   UNL A   1      44.413  25.251  28.459  1.00  0.00     0.074 A 
ATOM     37  C   UNL A   1      41.986  25.660  28.323  1.00  0.00     0.049 A 
ATOM     38  N   UNL A   1      44.825  26.396  28.942  1.00  0.00    -0.248 NA
ATOM     39  C   UNL A   1      45.481  24.257  28.271  1.00  0.00     0.031 C 
ATOM     40  C   UNL A   1      40.574  25.342  28.095  1.00  0.00     0.029 A 
ATOM     41  N   UNL A   1      41.961  26.951  28.788  1.00  0.00    -0.354 N 
ATOM     42  C   UNL A   1      46.195  26.257  29.128  1.00  0.00     0.074 A 
ATOM     43  C   UNL A   1      46.536  24.902  28.750  1.00  0.00     0.031 C 
ATOM     44  C   UNL A   1      39.826  26.419  28.385  1.00  0.00     0.029 A 
ATOM     45  C   UNL A   1      40.698  27.493  28.845  1.00  0.00     0.049 A 
ATOM     46  H   UNL A   1      42.770  27.443  29.056  1.00  0.00     0.167 HD
ATOM     47  C   UNL A   1      47.089  27.181  29.553  1.00  0.00     0.037 A 
ATOM     48  C   UNL A   1      40.289  28.721  29.218  1.00  0.00     0.037 A 
ATOM     49  C   UNL A   1      46.758  28.537  29.902  1.00  0.00     0.049 A 
ATOM     50  C   UNL A   1      41.306  29.739  29.647  1.00  0.00     0.074 A 
ATOM     51  C   UNL A   1      47.608  29.564  30.282  1.00  0.00     0.029 A 
ATOM     52  N   UNL A   1      45.474  29.058  29.911  1.00  0.00    -0.354 N 
ATOM     53  N   UNL A   1      42.607  29.615  29.743  1.00  0.00    -0.248 NA
ATOM     54  C   UNL A   1      40.799  31.070  30.011  1.00  0.00     0.031 C 
ATOM     55  C   UNL A   1      46.833  30.699  30.546  1.00  0.00     0.029 A 
ATOM     56  C   UNL A   1      45.506  30.388  30.301  1.00  0.00     0.049 A 
ATOM     57  H   UNL A   1      44.659  28.558  29.676  1.00  0.00     0.167 HD
ATOM     58  C   UNL A   1      43.076  30.855  30.156  1.00  0.00     0.074 A 
ATOM     59  C   UNL A   1      41.922  31.721  30.279  1.00  0.00     0.031 C 
ATOM     60  C   UNL A   1      44.349  31.239  30.413  1.00  0.00     0.037 A 
BRANCH  47  61
ATOM     61  C   UNL A   1      48.522  26.750  29.651  1.00  0.00     0.057 A 
ATOM     62  C   UNL A   1      49.030  26.149  30.811  1.00  0.00     0.134 A 
ATOM     63  C   UNL A   1      49.397  26.914  28.571  1.00  0.00     0.134 A 
ATOM     64  F   UNL A   1      48.245  25.974  31.884  1.00  0.00    -0.206 F 
ATOM     65  C   UNL A   1      50.364  25.752  30.902  1.00  0.00     0.040 A 
ATOM     66  C   UNL A   1      50.728  26.500  28.642  1.00  0.00     0.040 A 
ATOM     67  F   UNL A   1      48.973  27.478  27.429  1.00  0.00    -0.206 F 
ATOM     68  C   UNL A   1      51.217  25.924  29.813  1.00  0.00     0.006 A 
ENDBRANCH  47  61
BRANCH  48  69
ATOM     69  C   UNL A   1      38.849  29.073  29.159  1.00  0.00     0.057 A 
ATOM     70  C   UNL A   1      38.263  29.503  27.962  1.00  0.00     0.134 A 
ATOM     71  C   UNL A   1      38.029  28.995  30.290  1.00  0.00     0.134 A 
ATOM     72  F   UNL A   1      39.005  29.614  26.851  1.00  0.00    -0.206 F 
ATOM     73  C   UNL A   1      36.916  29.859  27.896  1.00  0.00     0.040 A 
ATOM     74  C   UNL A   1      36.675  29.330  30.233  1.00  0.00     0.040 A 
ATOM     75  F   UNL A   1      38.531  28.584  31.463  1.00  0.00    -0.206 F 
ATOM     76  C   UNL A   1      36.117  29.770  29.033  1.00  0.00     0.006 A 
ENDBRANCH  48  69
BRANCH  60  77
ATOM     77  C   UNL A   1      44.562  32.664  30.826  1.00  0.00     0.057 A 
ATOM     78  C   UNL A   1      44.577  33.044  32.174  1.00  0.00     0.134 A 
ATOM     79  C   UNL A   1      44.781  33.660  29.867  1.00  0.00     0.134 A 
ATOM     80  F   UNL A   1      44.357  32.138  33.138  1.00  0.00    -0.206 F 
ATOM     81  C   UNL A   1      44.783  34.371  32.553  1.00  0.00     0.040 A 
ATOM     82  C   UNL A   1      45.009  34.986  30.235  1.00  0.00     0.040 A 
ATOM     83  F   UNL A   1      44.783  33.358  28.560  1.00  0.00    -0.206 F 
ATOM     84  C   UNL A   1      45.006  35.346  31.581  1.00  0.00     0.006 A 
ENDBRANCH  60  77
ENDBRANCH  34  35
ENDBRANCH  26  29
ENDBRANCH  24  25
ENDBRANCH  23  24
ENDBRANCH   1  23
TORSDOF 17
ENDMDL
MODEL 2
REMARK VINA RESULT:     -10.2      1.186      3.435
REMARK SMILES NC(=O)CC[C@H](NC(=O)CC1CC1)C(=O)NCCCCNC(=O)c1ccc(-c2c3nc(c(-c4c(F)cccc4F)c4ccc([nH]4)c(-c4c(F)cccc4F)c4nc(c(-c5c(F)cccc5F)c5ccc2[nH]5)C=C4)C=C3)cc1
REMARK SMILES IDX 18 1 17 2 16 3 14 4 15 5 6 7 5 8 4 9 2 10 1 11 3 14 7 15
REMARK SMILES IDX 8 16 9 18 10 19 11 20 12 21 13 22 19 23 20 24 21 25 22 26
REMARK SMILES IDX 23 28 24 29 25 30 77 31 26 32 76 33 27 34 28 35 29 36 70 37
REMARK SMILES IDX 30 38 75 39 69 40 71 41 31 42 74 43 68 44 67 45 32 47 58 48
REMARK SMILES IDX 41 49 57 50 42 51 45 52 56 53 72 54 43 55 44 56 55 58 73 59
REMARK SMILES IDX 46 60 33 61 34 62 39 63 35 64 36 65 38 66 40 67 37 68 59 69
REMARK SMILES IDX 60 70 65 71 61 72 62 73 64 74 66 75 63 76 47 77 48 78 53 79
REMARK SMILES IDX 49 80 50 81 52 82 54 83 51 84
REMARK H PARENT 16 6 1 12 1 13 7 17 21 27 71 46 45 57
REMARK Flexibility Score: inf
ROOT
ATOM      1  C   UNL A   1      37.010  22.816  24.724  1.00  0.00     0.023 C 
ENDROOT
BRANCH   1   2
ATOM      2  C   UNL A   1      36.294  23.337  25.967  1.00  0.00     0.116 C 
BRANCH   2   3
ATOM      3  N   UNL A   1      35.022  23.979  25.695  1.00  0.00    -0.354 N 
ATOM      4  C   UNL A   1      33.806  23.349  25.677  1.00  0.00     0.242 C 
ATOM      5  O   UNL A   1      32.887  23.885  26.304  1.00  0.00    -0.273 OA
ATOM      6  H   UNL A   1      35.034  24.945  25.509  1.00  0.00     0.163 HD
BRANCH   4   7
ATOM      7  C   UNL A   1      33.533  22.125  24.747  1.00  0.00     0.171 C 
BRANCH   7   8
ATOM      8  C   UNL A   1      32.839  22.546  23.442  1.00  0.00     0.045 C 
BRANCH   8   9
ATOM      9  C   UNL A   1      33.661  23.472  22.535  1.00  0.00     0.102 C 
BRANCH   9  10
ATOM     10  C   UNL A   1      32.915  24.651  21.953  1.00  0.00     0.217 C 
ATOM     11  N   UNL A   1      31.607  24.757  22.313  1.00  0.00    -0.370 N 
ATOM     12  H   UNL A   1      31.061  25.502  21.970  1.00  0.00     0.159 HD
ATOM     13  H   UNL A   1      31.206  24.091  22.916  1.00  0.00     0.159 HD
ATOM     14  O   UNL A   1      33.432  25.476  21.210  1.00  0.00    -0.275 OA
ENDBRANCH   9  10
ENDBRANCH   8   9
ENDBRANCH   7   8
BRANCH   7  15
ATOM     15  N   UNL A   1      33.091  20.910  25.438  1.00  0.00    -0.344 N 
ATOM     16  C   UNL A   1      33.221  19.568  25.298  1.00  0.00     0.220 C 
ATOM     17  H   UNL A   1      32.546  21.131  26.227  1.00  0.00     0.164 HD
ATOM     18  O   UNL A   1      32.411  18.890  25.943  1.00  0.00    -0.275 OA
BRANCH  16  19
ATOM     19  C   UNL A   1      34.279  18.892  24.456  1.00  0.00     0.103 C 
BRANCH  19  20
ATOM     20  C   UNL A   1      34.305  17.391  24.393  1.00  0.00    -0.002 C 
ATOM     21  C   UNL A   1      33.159  16.569  23.874  1.00  0.00     0.004 C 
ATOM     22  C   UNL A   1      34.447  16.633  23.098  1.00  0.00     0.004 C 
ENDBRANCH  19  20
ENDBRANCH  16  19
ENDBRANCH   7  15
ENDBRANCH   4   7
ENDBRANCH   2   3
ENDBRANCH   1   2
BRANCH   1  23
ATOM     23  C   UNL A   1      37.581  21.401  24.872  1.00  0.00     0.023 C 
BRANCH  23  24
ATOM     24  C   UNL A   1      38.723  21.203  25.867  1.00  0.00     0.116 C 
BRANCH  24  25
ATOM     25  N   UNL A   1      39.589  20.068  25.606  1.00  0.00    -0.352 N 
ATOM     26  C   UNL A   1      40.907  19.899  25.976  1.00  0.00     0.251 C 
ATOM     27  H   UNL A   1      39.185  19.326  25.100  1.00  0.00     0.163 HD
ATOM     28  O   UNL A   1      41.495  18.848  25.731  1.00  0.00    -0.269 OA
BRANCH  26  29
ATOM     29  C   UNL A   1      41.650  21.030  26.581  1.00  0.00     0.039 A 
ATOM     30  C   UNL A   1      42.193  21.989  25.720  1.00  0.00     0.014 A 
ATOM     31  C   UNL A   1      41.718  21.213  27.964  1.00  0.00     0.014 A 
ATOM     32  C   UNL A   1      42.681  23.190  26.241  1.00  0.00     0.010 A 
ATOM     33  C   UNL A   1      42.137  22.442  28.477  1.00  0.00     0.010 A 
ATOM     34  C   UNL A   1      42.587  23.455  27.617  1.00  0.00    -0.014 A 
BRANCH  34  35
ATOM     35  C   UNL A   1      42.875  24.815  28.145  1.00  0.00     0.031 A 
ATOM     36  C   UNL A   1      44.270  25.221  28.521  1.00  0.00     0.074 A 
ATOM     37  C   UNL A   1      41.851  25.670  28.348  1.00  0.00     0.049 A 
ATOM     38  N   UNL A   1      44.693  26.358  29.013  1.00  0.00    -0.248 NA
ATOM     39  C   UNL A   1      45.324  24.211  28.348  1.00  0.00     0.031 C 
ATOM     40  C   UNL A   1      40.438  25.375  28.098  1.00  0.00     0.029 A 
ATOM     41  N   UNL A   1      41.840  26.960  28.816  1.00  0.00    -0.354 N 
ATOM     42  C   UNL A   1      46.056  26.197  29.220  1.00  0.00     0.074 A 
ATOM     43  C   UNL A   1      46.382  24.837  28.844  1.00  0.00     0.031 C 
ATOM     44  C   UNL A   1      39.703  26.463  28.378  1.00  0.00     0.029 A 
ATOM     45  C   UNL A   1      40.586  27.522  28.854  1.00  0.00     0.049 A 
ATOM     46  H   UNL A   1      42.653  27.438  29.097  1.00  0.00     0.167 HD
ATOM     47  C   UNL A   1      46.959  27.105  29.661  1.00  0.00     0.037 A 
ATOM     48  C   UNL A   1      40.190  28.756  29.224  1.00  0.00     0.037 A 
ATOM     49  C   UNL A   1      46.644  28.466  30.008  1.00  0.00     0.049 A 
ATOM     50  C   UNL A   1      41.216  29.756  29.671  1.00  0.00     0.074 A 
ATOM     51  C   UNL A   1      47.504  29.478  30.404  1.00  0.00     0.029 A 
ATOM     52  N   UNL A   1      45.369  29.008  29.999  1.00  0.00    -0.354 N 
ATOM     53  N   UNL A   1      42.514  29.611  29.787  1.00  0.00    -0.248 NA
ATOM     54  C   UNL A   1      40.726  31.094  30.030  1.00  0.00     0.031 C 
ATOM     55  C   UNL A   1      46.744  30.625  30.659  1.00  0.00     0.029 A 
ATOM     56  C   UNL A   1      45.415  30.336  30.393  1.00  0.00     0.049 A 
ATOM     57  H   UNL A   1      44.549  28.522  29.750  1.00  0.00     0.167 HD
ATOM     58  C   UNL A   1      42.996  30.843  30.211  1.00  0.00     0.074 A 
ATOM     59  C   UNL A   1      41.855  31.726  30.318  1.00  0.00     0.031 C 
ATOM     60  C   UNL A   1      44.271  31.205  30.488  1.00  0.00     0.037 A 
BRANCH  47  61
ATOM     61  C   UNL A   1      48.383  26.651  29.781  1.00  0.00     0.057 A 
ATOM     62  C   UNL A   1      49.302  26.836  28.740  1.00  0.00     0.134 A 
ATOM     63  C   UNL A   1      48.847  26.045  30.955  1.00  0.00     0.134 A 
ATOM     64  F   UNL A   1      48.916  27.400  27.586  1.00  0.00    -0.206 F 
ATOM     65  C   UNL A   1      50.626  26.409  28.852  1.00  0.00     0.040 A 
ATOM     66  C   UNL A   1      50.175  25.635  31.086  1.00  0.00     0.040 A 
ATOM     67  F   UNL A   1      48.019  25.844  31.992  1.00  0.00    -0.206 F 
ATOM     68  C   UNL A   1      51.067  25.810  30.031  1.00  0.00     0.006 A 
ENDBRANCH  47  61
BRANCH  48  69
ATOM     69  C   UNL A   1      38.757  29.130  29.143  1.00  0.00     0.057 A 
ATOM     70  C   UNL A   1      37.929  29.050  30.268  1.00  0.00     0.134 A 
ATOM     71  C   UNL A   1      38.181  29.569  27.946  1.00  0.00     0.134 A 
ATOM     72  F   UNL A   1      38.423  28.618  31.438  1.00  0.00    -0.206 F 
ATOM     73  C   UNL A   1      36.574  29.376  30.203  1.00  0.00     0.040 A 
ATOM     74  C   UNL A   1      36.831  29.917  27.871  1.00  0.00     0.040 A 
ATOM     75  F   UNL A   1      38.924  29.673  26.835  1.00  0.00    -0.206 F 
ATOM     76  C   UNL A   1      36.023  29.814  29.001  1.00  0.00     0.006 A 
ENDBRANCH  48  69
BRANCH  60  77
ATOM     77  C   UNL A   1      44.500  32.626  30.908  1.00  0.00     0.057 A 
ATOM     78  C   UNL A   1      44.432  33.015  32.252  1.00  0.00     0.134 A 
ATOM     79  C   UNL A   1      44.819  33.607  29.962  1.00  0.00     0.134 A 
ATOM     80  F   UNL A   1      44.115  32.124  33.203  1.00  0.00    -0.206 F 
ATOM     81  C   UNL A   1      44.654  34.338  32.638  1.00  0.00     0.040 A 
ATOM     82  C   UNL A   1      45.063  34.928  30.338  1.00  0.00     0.040 A 
ATOM     83  F   UNL A   1      44.904  33.296  28.660  1.00  0.00    -0.206 F 
ATOM     84  C   UNL A   1      44.977  35.298  31.679  1.00  0.00     0.006 A 
ENDBRANCH  60  77
ENDBRANCH  34  35
ENDBRANCH  26  29
ENDBRANCH  24  25
ENDBRANCH  23  24
ENDBRANCH   1  23
TORSDOF 17
ENDMDL
MODEL 3
REMARK VINA RESULT:     -10.2      1.624      6.936
REMARK SMILES NC(=O)CC[C@H](NC(=O)CC1CC1)C(=O)NCCCCNC(=O)c1ccc(-c2c3nc(c(-c4c(F)cccc4F)c4ccc([nH]4)c(-c4c(F)cccc4F)c4nc(c(-c5c(F)cccc5F)c5ccc2[nH]5)C=C4)C=C3)cc1
REMARK SMILES IDX 18 1 17 2 16 3 14 4 15 5 6 7 5 8 4 9 2 10 1 11 3 14 7 15
REMARK SMILES IDX 8 16 9 18 10 19 11 20 12 21 13 22 19 23 20 24 21 25 22 26
REMARK SMILES IDX 23 28 24 29 25 30 77 31 26 32 76 33 27 34 28 35 29 36 70 37
REMARK SMILES IDX 30 38 75 39 69 40 71 41 31 42 74 43 68 44 67 45 32 47 58 48
REMARK SMILES IDX 41 49 57 50 42 51 45 52 56 53 72 54 43 55 44 56 55 58 73 59
REMARK SMILES IDX 46 60 33 61 34 62 39 63 35 64 36 65 38 66 40 67 37 68 59 69
REMARK SMILES IDX 60 70 65 71 61 72 62 73 64 74 66 75 63 76 47 77 48 78 53 79
REMARK SMILES IDX 49 80 50 81 52 82 54 83 51 84
REMARK H PARENT 16 6 1 12 1 13 7 17 21 27 71 46 45 57
REMARK Flexibility Score: inf
ROOT
ATOM      1  C   UNL A   1      36.687  22.379  24.045  1.00  0.00     0.023 C 
ENDROOT
BRANCH   1   2
ATOM      2  C   UNL A   1      35.468  23.246  24.340  1.00  0.00     0.116 C 
BRANCH   2   3
ATOM      3  N   UNL A   1      34.324  22.972  23.492  1.00  0.00    -0.354 N 
ATOM      4  C   UNL A   1      33.560  23.920  22.863  1.00  0.00     0.242 C 
ATOM      5  O   UNL A   1      33.317  23.742  21.666  1.00  0.00    -0.273 OA
ATOM      6  H   UNL A   1      34.077  22.029  23.356  1.00  0.00     0.163 HD
BRANCH   4   7
ATOM      7  C   UNL A   1      32.857  25.064  23.661  1.00  0.00     0.171 C 
BRANCH   7   8
ATOM      8  C   UNL A   1      33.675  26.364  23.630  1.00  0.00     0.045 C 
BRANCH   8   9
ATOM      9  C   UNL A   1      33.178  27.424  22.636  1.00  0.00     0.102 C 
BRANCH   9  10
ATOM     10  C   UNL A   1      32.713  28.727  23.245  1.00  0.00     0.217 C 
ATOM     11  N   UNL A   1      33.698  29.567  23.666  1.00  0.00    -0.370 N 
ATOM     12  H   UNL A   1      33.465  30.433  24.072  1.00  0.00     0.159 HD
ATOM     13  H   UNL A   1      34.642  29.309  23.563  1.00  0.00     0.159 HD
ATOM     14  O   UNL A   1      31.533  29.034  23.358  1.00  0.00    -0.275 OA
ENDBRANCH   9  10
ENDBRANCH   8   9
ENDBRANCH   7   8
BRANCH   7  15
ATOM     15  N   UNL A   1      32.219  24.643  24.912  1.00  0.00    -0.344 N 
ATOM     16  C   UNL A   1      31.654  25.223  25.998  1.00  0.00     0.220 C 
ATOM     17  H   UNL A   1      32.194  23.662  24.983  1.00  0.00     0.164 HD
ATOM     18  O   UNL A   1      31.517  24.482  26.980  1.00  0.00    -0.275 OA
BRANCH  16  19
ATOM     19  C   UNL A   1      31.177  26.656  26.055  1.00  0.00     0.103 C 
BRANCH  19  20
ATOM     20  C   UNL A   1      31.750  27.570  27.101  1.00  0.00    -0.002 C 
ATOM     21  C   UNL A   1      33.099  28.221  26.976  1.00  0.00     0.004 C 
ATOM     22  C   UNL A   1      31.852  29.062  26.912  1.00  0.00     0.004 C 
ENDBRANCH  19  20
ENDBRANCH  16  19
ENDBRANCH   7  15
ENDBRANCH   4   7
ENDBRANCH   2   3
ENDBRANCH   1   2
BRANCH   1  23
ATOM     23  C   UNL A   1      37.046  21.393  25.164  1.00  0.00     0.023 C 
BRANCH  23  24
ATOM     24  C   UNL A   1      38.468  21.445  25.718  1.00  0.00     0.116 C 
BRANCH  24  25
ATOM     25  N   UNL A   1      39.263  20.249  25.508  1.00  0.00    -0.352 N 
ATOM     26  C   UNL A   1      40.543  19.987  25.953  1.00  0.00     0.251 C 
ATOM     27  H   UNL A   1      38.835  19.535  24.982  1.00  0.00     0.163 HD
ATOM     28  O   UNL A   1      41.066  18.896  25.743  1.00  0.00    -0.269 OA
BRANCH  26  29
ATOM     29  C   UNL A   1      41.331  21.066  26.596  1.00  0.00     0.039 A 
ATOM     30  C   UNL A   1      41.991  21.976  25.764  1.00  0.00     0.014 A 
ATOM     31  C   UNL A   1      41.332  21.255  27.980  1.00  0.00     0.014 A 
ATOM     32  C   UNL A   1      42.536  23.141  26.308  1.00  0.00     0.010 A 
ATOM     33  C   UNL A   1      41.809  22.453  28.511  1.00  0.00     0.010 A 
ATOM     34  C   UNL A   1      42.382  23.424  27.676  1.00  0.00    -0.014 A 
BRANCH  34  35
ATOM     35  C   UNL A   1      42.738  24.763  28.215  1.00  0.00     0.031 A 
ATOM     36  C   UNL A   1      41.692  25.821  28.412  1.00  0.00     0.074 A 
ATOM     37  C   UNL A   1      44.032  25.047  28.466  1.00  0.00     0.049 A 
ATOM     38  N   UNL A   1      41.831  27.046  28.853  1.00  0.00    -0.248 NA
ATOM     39  C   UNL A   1      40.313  25.468  28.042  1.00  0.00     0.031 C 
ATOM     40  C   UNL A   1      45.158  24.136  28.245  1.00  0.00     0.029 A 
ATOM     41  N   UNL A   1      44.621  26.185  28.959  1.00  0.00    -0.354 N 
ATOM     42  C   UNL A   1      40.564  27.613  28.801  1.00  0.00     0.074 A 
ATOM     43  C   UNL A   1      39.678  26.614  28.242  1.00  0.00     0.031 C 
ATOM     44  C   UNL A   1      46.295  24.735  28.635  1.00  0.00     0.029 A 
ATOM     45  C   UNL A   1      45.984  26.080  29.107  1.00  0.00     0.049 A 
ATOM     46  H   UNL A   1      44.116  26.999  29.186  1.00  0.00     0.167 HD
ATOM     47  C   UNL A   1      40.171  28.845  29.203  1.00  0.00     0.037 A 
ATOM     48  C   UNL A   1      46.884  26.966  29.578  1.00  0.00     0.037 A 
ATOM     49  C   UNL A   1      41.044  29.830  29.786  1.00  0.00     0.049 A 
ATOM     50  C   UNL A   1      46.416  28.310  30.054  1.00  0.00     0.074 A 
ATOM     51  C   UNL A   1      40.723  31.083  30.283  1.00  0.00     0.029 A 
ATOM     52  N   UNL A   1      42.410  29.674  29.953  1.00  0.00    -0.354 N 
ATOM     53  N   UNL A   1      45.201  28.803  30.070  1.00  0.00    -0.248 NA
ATOM     54  C   UNL A   1      47.441  29.219  30.586  1.00  0.00     0.031 C 
ATOM     55  C   UNL A   1      41.901  31.694  30.726  1.00  0.00     0.029 A 
ATOM     56  C   UNL A   1      42.950  30.810  30.534  1.00  0.00     0.049 A 
ATOM     57  H   UNL A   1      42.924  28.873  29.696  1.00  0.00     0.167 HD
ATOM     58  C   UNL A   1      45.312  30.068  30.633  1.00  0.00     0.074 A 
ATOM     59  C   UNL A   1      46.710  30.261  30.957  1.00  0.00     0.031 C 
ATOM     60  C   UNL A   1      44.342  30.985  30.857  1.00  0.00     0.037 A 
BRANCH  47  61
ATOM     61  C   UNL A   1      38.721  29.189  29.034  1.00  0.00     0.057 A 
ATOM     62  C   UNL A   1      38.201  29.586  27.795  1.00  0.00     0.134 A 
ATOM     63  C   UNL A   1      37.832  29.100  30.112  1.00  0.00     0.134 A 
ATOM     64  F   UNL A   1      39.005  29.702  26.727  1.00  0.00    -0.206 F 
ATOM     65  C   UNL A   1      36.853  29.910  27.641  1.00  0.00     0.040 A 
ATOM     66  C   UNL A   1      36.477  29.399  29.963  1.00  0.00     0.040 A 
ATOM     67  F   UNL A   1      38.265  28.721  31.324  1.00  0.00    -0.206 F 
ATOM     68  C   UNL A   1      35.985  29.812  28.727  1.00  0.00     0.006 A 
ENDBRANCH  47  61
BRANCH  48  69
ATOM     69  C   UNL A   1      48.316  26.592  29.665  1.00  0.00     0.057 A 
ATOM     70  C   UNL A   1      49.210  26.930  28.642  1.00  0.00     0.134 A 
ATOM     71  C   UNL A   1      48.825  25.886  30.761  1.00  0.00     0.134 A 
ATOM     72  F   UNL A   1      48.776  27.589  27.558  1.00  0.00    -0.206 F 
ATOM     73  C   UNL A   1      50.556  26.565  28.698  1.00  0.00     0.040 A 
ATOM     74  C   UNL A   1      50.172  25.532  30.840  1.00  0.00     0.040 A 
ATOM     75  F   UNL A   1      48.019  25.540  31.776  1.00  0.00    -0.206 F 
ATOM     76  C   UNL A   1      51.041  25.866  29.802  1.00  0.00     0.006 A 
ENDBRANCH  48  69
BRANCH  60  77
ATOM     77  C   UNL A   1      44.757  32.271  31.507  1.00  0.00     0.057 A 
ATOM     78  C   UNL A   1      45.142  33.386  30.751  1.00  0.00     0.134 A 
ATOM     79  C   UNL A   1      44.745  32.402  32.900  1.00  0.00     0.134 A 
ATOM     80  F   UNL A   1      45.188  33.317  29.413  1.00  0.00    -0.206 F 
ATOM     81  C   UNL A   1      45.519  34.583  31.362  1.00  0.00     0.040 A 
ATOM     82  C   UNL A   1      45.101  33.600  33.521  1.00  0.00     0.040 A 
ATOM     83  F   UNL A   1      44.382  31.372  33.679  1.00  0.00    -0.206 F 
ATOM     84  C   UNL A   1      45.493  34.694  32.752  1.00  0.00     0.006 A 
ENDBRANCH  60  77
ENDBRANCH  34  35
ENDBRANCH  26  29
ENDBRANCH  24  25
ENDBRANCH  23  24
ENDBRANCH   1  23
TORSDOF 17
ENDMDL
