MODEL 1
REMARK VINA RESULT:     -11.9      0.000      0.000
REMARK SMILES CCNC(=O)c1ccc(N[C@@H]2COC[C@@]2(C)C(=O)NCCCCNC(=O)c2ccc(-c3c4nc(c(-c5c(F)cccc5F)c5ccc([nH]5)c(-c5c(F)cccc5F)c5nc(c(-c6c(F)cccc6F)c6ccc3[nH]6)C=C5)C=C4)cc2)nn1
REMARK SMILES IDX 20 1 19 2 17 3 18 4 15 6 11 7 12 8 13 9 14 10 16 11 10 12
REMARK SMILES IDX 9 14 6 15 7 16 82 17 8 18 81 19 4 20 3 21 5 23 2 24 1 25
REMARK SMILES IDX 21 26 22 27 23 28 24 29 25 30 26 32 27 33 28 34 80 35 29 36
REMARK SMILES IDX 79 37 30 38 31 39 32 40 73 41 33 42 78 43 72 44 74 45 34 46
REMARK SMILES IDX 77 47 71 48 70 49 35 51 61 52 44 53 60 54 45 55 48 56 59 57
REMARK SMILES IDX 75 58 46 59 47 60 58 62 76 63 49 64 36 65 37 66 42 67 38 68
REMARK SMILES IDX 39 69 41 70 43 71 40 72 62 73 63 74 68 75 64 76 65 77 67 78
REMARK SMILES IDX 69 79 66 80 50 81 51 82 56 83 52 84 53 85 55 86 57 87 54 88
REMARK H PARENT 19 5 10 13 3 22 24 31 74 50 48 61
REMARK Flexibility Score: inf
ROOT
ATOM      1  C   UNL A   1      35.716  21.446  25.544  1.00  0.00     0.116 C 
ENDROOT
BRANCH   1   2
ATOM      2  N   UNL A   1      34.445  21.075  24.952  1.00  0.00    -0.355 N 
ATOM      3  C   UNL A   1      33.234  21.672  24.832  1.00  0.00     0.230 C 
ATOM      4  O   UNL A   1      32.412  21.015  24.174  1.00  0.00    -0.274 OA
ATOM      5  H   UNL A   1      34.467  20.181  24.540  1.00  0.00     0.163 HD
BRANCH   3   6
ATOM      6  C   UNL A   1      32.833  23.041  25.400  1.00  0.00     0.092 C 
ATOM      7  C   UNL A   1      31.324  23.265  25.173  1.00  0.00     0.124 C 
ATOM      8  C   UNL A   1      30.927  24.195  26.309  1.00  0.00     0.186 C 
ATOM      9  O   UNL A   1      31.784  23.849  27.417  1.00  0.00    -0.378 OA
ATOM     10  C   UNL A   1      32.786  22.925  26.940  1.00  0.00     0.179 C 
ATOM     11  C   UNL A   1      33.736  24.242  25.109  1.00  0.00     0.026 C 
BRANCH   7  12
ATOM     12  N   UNL A   1      30.874  23.605  23.828  1.00  0.00    -0.362 N 
ATOM     13  H   UNL A   1      30.743  22.856  23.201  1.00  0.00     0.162 HD
BRANCH  12  14
ATOM     14  C   UNL A   1      30.615  24.867  23.347  1.00  0.00     0.149 A 
ATOM     15  C   UNL A   1      30.419  27.524  22.788  1.00  0.00     0.150 A 
ATOM     16  C   UNL A   1      31.493  26.830  22.266  1.00  0.00     0.040 A 
ATOM     17  N   UNL A   1      29.443  26.925  23.498  1.00  0.00    -0.143 NA
ATOM     18  C   UNL A   1      31.576  25.469  22.541  1.00  0.00     0.051 A 
ATOM     19  N   UNL A   1      29.552  25.581  23.769  1.00  0.00    -0.132 NA
BRANCH  15  20
ATOM     20  C   UNL A   1      30.369  28.993  22.682  1.00  0.00     0.271 C 
ATOM     21  N   UNL A   1      30.783  29.760  23.743  1.00  0.00    -0.351 N 
ATOM     22  H   UNL A   1      30.642  30.730  23.655  1.00  0.00     0.163 HD
ATOM     23  O   UNL A   1      29.901  29.516  21.675  1.00  0.00    -0.267 OA
BRANCH  21  24
ATOM     24  C   UNL A   1      31.402  29.318  24.978  1.00  0.00     0.113 C 
ATOM     25  C   UNL A   1      32.913  29.325  24.857  1.00  0.00     0.027 C 
ENDBRANCH  21  24
ENDBRANCH  15  20
ENDBRANCH  12  14
ENDBRANCH   7  12
ENDBRANCH   3   6
ENDBRANCH   1   2
BRANCH   1  26
ATOM     26  C   UNL A   1      36.886  21.169  24.601  1.00  0.00     0.023 C 
BRANCH  26  27
ATOM     27  C   UNL A   1      37.754  19.974  25.003  1.00  0.00     0.023 C 
BRANCH  27  28
ATOM     28  C   UNL A   1      39.045  20.315  25.743  1.00  0.00     0.116 C 
BRANCH  28  29
ATOM     29  N   UNL A   1      39.989  19.210  25.828  1.00  0.00    -0.352 N 
ATOM     30  C   UNL A   1      41.332  19.247  26.127  1.00  0.00     0.251 C 
ATOM     31  H   UNL A   1      39.617  18.316  25.646  1.00  0.00     0.163 HD
ATOM     32  O   UNL A   1      42.012  18.236  26.096  1.00  0.00    -0.269 OA
BRANCH  30  33
ATOM     33  C   UNL A   1      41.952  20.549  26.445  1.00  0.00     0.039 A 
ATOM     34  C   UNL A   1      42.354  21.374  25.393  1.00  0.00     0.014 A 
ATOM     35  C   UNL A   1      42.073  20.972  27.771  1.00  0.00     0.014 A 
ATOM     36  C   UNL A   1      42.801  22.668  25.668  1.00  0.00     0.010 A 
ATOM     37  C   UNL A   1      42.453  22.283  28.037  1.00  0.00     0.010 A 
ATOM     38  C   UNL A   1      42.810  23.146  26.989  1.00  0.00    -0.014 A 
BRANCH  38  39
ATOM     39  C   UNL A   1      43.169  24.553  27.295  1.00  0.00     0.031 A 
ATOM     40  C   UNL A   1      44.604  24.993  27.229  1.00  0.00     0.074 A 
ATOM     41  C   UNL A   1      42.214  25.406  27.717  1.00  0.00     0.049 A 
ATOM     42  N   UNL A   1      45.129  26.146  27.555  1.00  0.00    -0.248 NA
ATOM     43  C   UNL A   1      45.584  23.996  26.769  1.00  0.00     0.031 C 
ATOM     44  C   UNL A   1      40.796  25.081  27.884  1.00  0.00     0.029 A 
ATOM     45  N   UNL A   1      42.298  26.721  28.103  1.00  0.00    -0.354 N 
ATOM     46  C   UNL A   1      46.498  26.004  27.366  1.00  0.00     0.074 A 
ATOM     47  C   UNL A   1      46.728  24.643  26.935  1.00  0.00     0.031 C 
ATOM     48  C   UNL A   1      40.143  26.169  28.324  1.00  0.00     0.029 A 
ATOM     49  C   UNL A   1      41.097  27.258  28.501  1.00  0.00     0.049 A 
ATOM     50  H   UNL A   1      43.140  27.232  28.094  1.00  0.00     0.167 HD
ATOM     51  C   UNL A   1      47.471  26.932  27.520  1.00  0.00     0.037 A 
ATOM     52  C   UNL A   1      40.802  28.487  28.965  1.00  0.00     0.037 A 
ATOM     53  C   UNL A   1      47.232  28.301  27.894  1.00  0.00     0.049 A 
ATOM     54  C   UNL A   1      41.901  29.507  29.089  1.00  0.00     0.074 A 
ATOM     55  C   UNL A   1      48.142  29.340  27.981  1.00  0.00     0.029 A 
ATOM     56  N   UNL A   1      45.994  28.819  28.239  1.00  0.00    -0.354 N 
ATOM     57  N   UNL A   1      43.178  29.382  28.821  1.00  0.00    -0.248 NA
ATOM     58  C   UNL A   1      41.516  30.841  29.573  1.00  0.00     0.031 C 
ATOM     59  C   UNL A   1      47.460  30.481  28.413  1.00  0.00     0.029 A 
ATOM     60  C   UNL A   1      46.120  30.161  28.557  1.00  0.00     0.049 A 
ATOM     61  H   UNL A   1      45.151  28.310  28.254  1.00  0.00     0.167 HD
ATOM     62  C   UNL A   1      43.741  30.626  29.074  1.00  0.00     0.074 A 
ATOM     63  C   UNL A   1      42.666  31.495  29.502  1.00  0.00     0.031 C 
ATOM     64  C   UNL A   1      45.034  31.014  28.962  1.00  0.00     0.037 A 
BRANCH  51  65
ATOM     65  C   UNL A   1      48.886  26.508  27.270  1.00  0.00     0.057 A 
ATOM     66  C   UNL A   1      49.711  26.046  28.304  1.00  0.00     0.134 A 
ATOM     67  C   UNL A   1      49.408  26.498  25.971  1.00  0.00     0.134 A 
ATOM     68  F   UNL A   1      49.274  26.042  29.572  1.00  0.00    -0.206 F 
ATOM     69  C   UNL A   1      51.010  25.602  28.055  1.00  0.00     0.040 A 
ATOM     70  C   UNL A   1      50.698  26.035  25.707  1.00  0.00     0.040 A 
ATOM     71  F   UNL A   1      48.668  26.924  24.936  1.00  0.00    -0.206 F 
ATOM     72  C   UNL A   1      51.503  25.586  26.752  1.00  0.00     0.006 A 
ENDBRANCH  51  65
BRANCH  52  73
ATOM     73  C   UNL A   1      39.408  28.837  29.339  1.00  0.00     0.057 A 
ATOM     74  C   UNL A   1      38.930  28.606  30.634  1.00  0.00     0.134 A 
ATOM     75  C   UNL A   1      38.512  29.368  28.405  1.00  0.00     0.134 A 
ATOM     76  F   UNL A   1      39.737  28.079  31.567  1.00  0.00    -0.206 F 
ATOM     77  C   UNL A   1      37.602  28.862  30.980  1.00  0.00     0.040 A 
ATOM     78  C   UNL A   1      37.187  29.652  28.744  1.00  0.00     0.040 A 
ATOM     79  F   UNL A   1      38.910  29.619  27.149  1.00  0.00    -0.206 F 
ATOM     80  C   UNL A   1      36.726  29.388  30.033  1.00  0.00     0.006 A 
ENDBRANCH  52  73
BRANCH  64  81
ATOM     81  C   UNL A   1      45.349  32.448  29.267  1.00  0.00     0.057 A 
ATOM     82  C   UNL A   1      45.259  33.446  28.289  1.00  0.00     0.134 A 
ATOM     83  C   UNL A   1      45.705  32.838  30.563  1.00  0.00     0.134 A 
ATOM     84  F   UNL A   1      44.937  33.133  27.025  1.00  0.00    -0.206 F 
ATOM     85  C   UNL A   1      45.531  34.782  28.588  1.00  0.00     0.040 A 
ATOM     86  C   UNL A   1      45.955  34.173  30.879  1.00  0.00     0.040 A 
ATOM     87  F   UNL A   1      45.799  31.930  31.546  1.00  0.00    -0.206 F 
ATOM     88  C   UNL A   1      45.874  35.149  29.888  1.00  0.00     0.006 A 
ENDBRANCH  64  81
ENDBRANCH  38  39
ENDBRANCH  30  33
ENDBRANCH  28  29
ENDBRANCH  27  28
ENDBRANCH  26  27
ENDBRANCH   1  26
TORSDOF 15
ENDMDL
MODEL 2
REMARK VINA RESULT:     -11.8      0.612      6.200
REMARK SMILES CCNC(=O)c1ccc(N[C@@H]2COC[C@@]2(C)C(=O)NCCCCNC(=O)c2ccc(-c3c4nc(c(-c5c(F)cccc5F)c5ccc([nH]5)c(-c5c(F)cccc5F)c5nc(c(-c6c(F)cccc6F)c6ccc3[nH]6)C=C5)C=C4)cc2)nn1
REMARK SMILES IDX 20 1 19 2 17 3 18 4 15 6 11 7 12 8 13 9 14 10 16 11 10 12
REMARK SMILES IDX 9 14 6 15 7 16 82 17 8 18 81 19 4 20 3 21 5 23 2 24 1 25
REMARK SMILES IDX 21 26 22 27 23 28 24 29 25 30 26 32 27 33 28 34 80 35 29 36
REMARK SMILES IDX 79 37 30 38 31 39 32 40 73 41 33 42 78 43 72 44 74 45 34 46
REMARK SMILES IDX 77 47 71 48 70 49 35 51 61 52 44 53 60 54 45 55 48 56 59 57
REMARK SMILES IDX 75 58 46 59 47 60 58 62 76 63 49 64 36 65 37 66 42 67 38 68
REMARK SMILES IDX 39 69 41 70 43 71 40 72 62 73 63 74 68 75 64 76 65 77 67 78
REMARK SMILES IDX 69 79 66 80 50 81 51 82 56 83 52 84 53 85 55 86 57 87 54 88
REMARK H PARENT 19 5 10 13 3 22 24 31 74 50 48 61
REMARK Flexibility Score: inf
ROOT
ATOM      1  C   UNL A   1      35.696  21.592  25.833  1.00  0.00     0.116 C 
ENDROOT
BRANCH   1   2
ATOM      2  N   UNL A   1      34.533  21.230  25.045  1.00  0.00    -0.355 N 
ATOM      3  C   UNL A   1      33.331  21.803  24.793  1.00  0.00     0.230 C 
ATOM      4  O   UNL A   1      32.632  21.171  23.987  1.00  0.00    -0.274 OA
ATOM      5  H   UNL A   1      34.643  20.367  24.585  1.00  0.00     0.163 HD
BRANCH   3   6
ATOM      6  C   UNL A   1      32.809  23.121  25.384  1.00  0.00     0.092 C 
ATOM      7  C   UNL A   1      31.294  23.235  25.115  1.00  0.00     0.124 C 
ATOM      8  C   UNL A   1      30.793  24.099  26.262  1.00  0.00     0.186 C 
ATOM      9  O   UNL A   1      31.641  23.789  27.386  1.00  0.00    -0.378 OA
ATOM     10  C   UNL A   1      32.725  22.958  26.918  1.00  0.00     0.179 C 
ATOM     11  C   UNL A   1      33.625  24.395  25.153  1.00  0.00     0.026 C 
BRANCH   7  12
ATOM     12  N   UNL A   1      30.860  23.578  23.765  1.00  0.00    -0.362 N 
ATOM     13  H   UNL A   1      30.745  22.831  23.133  1.00  0.00     0.162 HD
BRANCH  12  14
ATOM     14  C   UNL A   1      30.596  24.839  23.287  1.00  0.00     0.149 A 
ATOM     15  C   UNL A   1      30.415  27.494  22.712  1.00  0.00     0.150 A 
ATOM     16  C   UNL A   1      31.444  26.776  22.137  1.00  0.00     0.040 A 
ATOM     17  N   UNL A   1      29.472  26.920  23.485  1.00  0.00    -0.143 NA
ATOM     18  C   UNL A   1      31.519  25.417  22.421  1.00  0.00     0.051 A 
ATOM     19  N   UNL A   1      29.572  25.577  23.763  1.00  0.00    -0.132 NA
BRANCH  15  20
ATOM     20  C   UNL A   1      30.385  28.963  22.595  1.00  0.00     0.271 C 
ATOM     21  N   UNL A   1      30.808  29.733  23.650  1.00  0.00    -0.351 N 
ATOM     22  H   UNL A   1      30.680  30.705  23.554  1.00  0.00     0.163 HD
ATOM     23  O   UNL A   1      29.926  29.484  21.583  1.00  0.00    -0.267 OA
BRANCH  21  24
ATOM     24  C   UNL A   1      31.420  29.293  24.889  1.00  0.00     0.113 C 
ATOM     25  C   UNL A   1      32.932  29.301  24.778  1.00  0.00     0.027 C 
ENDBRANCH  21  24
ENDBRANCH  15  20
ENDBRANCH  12  14
ENDBRANCH   7  12
ENDBRANCH   3   6
ENDBRANCH   1   2
BRANCH   1  26
ATOM     26  C   UNL A   1      36.913  21.876  24.954  1.00  0.00     0.023 C 
BRANCH  26  27
ATOM     27  C   UNL A   1      37.903  20.713  24.847  1.00  0.00     0.023 C 
BRANCH  27  28
ATOM     28  C   UNL A   1      38.938  20.621  25.966  1.00  0.00     0.116 C 
BRANCH  28  29
ATOM     29  N   UNL A   1      39.858  19.502  25.831  1.00  0.00    -0.352 N 
ATOM     30  C   UNL A   1      41.217  19.475  26.048  1.00  0.00     0.251 C 
ATOM     31  H   UNL A   1      39.455  18.650  25.546  1.00  0.00     0.163 HD
ATOM     32  O   UNL A   1      41.870  18.470  25.829  1.00  0.00    -0.269 OA
BRANCH  30  33
ATOM     33  C   UNL A   1      41.886  20.708  26.512  1.00  0.00     0.039 A 
ATOM     34  C   UNL A   1      42.321  21.632  25.561  1.00  0.00     0.014 A 
ATOM     35  C   UNL A   1      42.020  20.971  27.877  1.00  0.00     0.014 A 
ATOM     36  C   UNL A   1      42.815  22.868  25.981  1.00  0.00     0.010 A 
ATOM     37  C   UNL A   1      42.449  22.228  28.291  1.00  0.00     0.010 A 
ATOM     38  C   UNL A   1      42.840  23.191  27.349  1.00  0.00    -0.014 A 
BRANCH  38  39
ATOM     39  C   UNL A   1      43.252  24.539  27.813  1.00  0.00     0.031 A 
ATOM     40  C   UNL A   1      42.210  25.573  28.135  1.00  0.00     0.074 A 
ATOM     41  C   UNL A   1      44.561  24.856  27.859  1.00  0.00     0.049 A 
ATOM     42  N   UNL A   1      42.367  26.830  28.458  1.00  0.00    -0.248 NA
ATOM     43  C   UNL A   1      40.803  25.147  28.049  1.00  0.00     0.031 C 
ATOM     44  C   UNL A   1      45.665  23.960  27.510  1.00  0.00     0.029 A 
ATOM     45  N   UNL A   1      45.185  26.030  28.200  1.00  0.00    -0.354 N 
ATOM     46  C   UNL A   1      41.086  27.350  28.586  1.00  0.00     0.074 A 
ATOM     47  C   UNL A   1      40.161  26.285  28.269  1.00  0.00     0.031 C 
ATOM     48  C   UNL A   1      46.829  24.611  27.668  1.00  0.00     0.029 A 
ATOM     49  C   UNL A   1      46.555  25.978  28.098  1.00  0.00     0.049 A 
ATOM     50  H   UNL A   1      44.697  26.834  28.492  1.00  0.00     0.167 HD
ATOM     51  C   UNL A   1      40.716  28.599  28.954  1.00  0.00     0.037 A 
ATOM     52  C   UNL A   1      47.482  26.929  28.318  1.00  0.00     0.037 A 
ATOM     53  C   UNL A   1      41.638  29.640  29.324  1.00  0.00     0.049 A 
ATOM     54  C   UNL A   1      47.040  28.296  28.763  1.00  0.00     0.074 A 
ATOM     55  C   UNL A   1      41.356  30.907  29.806  1.00  0.00     0.029 A 
ATOM     56  N   UNL A   1      43.017  29.532  29.258  1.00  0.00    -0.354 N 
ATOM     57  N   UNL A   1      45.826  28.746  28.966  1.00  0.00    -0.248 NA
ATOM     58  C   UNL A   1      48.097  29.285  29.017  1.00  0.00     0.031 C 
ATOM     59  C   UNL A   1      42.567  31.579  29.997  1.00  0.00     0.029 A 
ATOM     60  C   UNL A   1      43.602  30.717  29.673  1.00  0.00     0.049 A 
ATOM     61  H   UNL A   1      43.509  28.732  28.962  1.00  0.00     0.167 HD
ATOM     62  C   UNL A   1      45.974  30.057  29.399  1.00  0.00     0.074 A 
ATOM     63  C   UNL A   1      47.396  30.325  29.443  1.00  0.00     0.031 C 
ATOM     64  C   UNL A   1      45.019  30.958  29.729  1.00  0.00     0.037 A 
BRANCH  51  65
ATOM     65  C   UNL A   1      39.251  28.911  28.993  1.00  0.00     0.057 A 
ATOM     66  C   UNL A   1      38.493  28.749  30.160  1.00  0.00     0.134 A 
ATOM     67  C   UNL A   1      38.606  29.445  27.871  1.00  0.00     0.134 A 
ATOM     68  F   UNL A   1      39.050  28.232  31.266  1.00  0.00    -0.206 F 
ATOM     69  C   UNL A   1      37.142  29.094  30.204  1.00  0.00     0.040 A 
ATOM     70  C   UNL A   1      37.261  29.814  27.909  1.00  0.00     0.040 A 
ATOM     71  F   UNL A   1      39.277  29.629  26.723  1.00  0.00    -0.206 F 
ATOM     72  C   UNL A   1      36.525  29.638  29.079  1.00  0.00     0.006 A 
ENDBRANCH  51  65
BRANCH  52  73
ATOM     73  C   UNL A   1      48.925  26.629  28.136  1.00  0.00     0.057 A 
ATOM     74  C   UNL A   1      49.541  26.779  26.888  1.00  0.00     0.134 A 
ATOM     75  C   UNL A   1      49.712  26.150  29.190  1.00  0.00     0.134 A 
ATOM     76  F   UNL A   1      48.833  27.217  25.835  1.00  0.00    -0.206 F 
ATOM     77  C   UNL A   1      50.877  26.433  26.684  1.00  0.00     0.040 A 
ATOM     78  C   UNL A   1      51.056  25.823  29.007  1.00  0.00     0.040 A 
ATOM     79  F   UNL A   1      49.184  25.990  30.412  1.00  0.00    -0.206 F 
ATOM     80  C   UNL A   1      51.640  25.954  27.747  1.00  0.00     0.006 A 
ENDBRANCH  52  73
BRANCH  64  81
ATOM     81  C   UNL A   1      45.479  32.302  30.207  1.00  0.00     0.057 A 
ATOM     82  C   UNL A   1      45.722  32.559  31.563  1.00  0.00     0.134 A 
ATOM     83  C   UNL A   1      45.724  33.336  29.296  1.00  0.00     0.134 A 
ATOM     84  F   UNL A   1      45.493  31.613  32.485  1.00  0.00    -0.206 F 
ATOM     85  C   UNL A   1      46.173  33.806  31.996  1.00  0.00     0.040 A 
ATOM     86  C   UNL A   1      46.199  34.579  29.715  1.00  0.00     0.040 A 
ATOM     87  F   UNL A   1      45.520  33.150  27.983  1.00  0.00    -0.206 F 
ATOM     88  C   UNL A   1      46.420  34.818  31.069  1.00  0.00     0.006 A 
ENDBRANCH  64  81
ENDBRANCH  38  39
ENDBRANCH  30  33
ENDBRANCH  28  29
ENDBRANCH  27  28
ENDBRANCH  26  27
ENDBRANCH   1  26
TORSDOF 15
ENDMDL
MODEL 3
REMARK VINA RESULT:     -11.8      3.943      9.049
REMARK SMILES CCNC(=O)c1ccc(N[C@@H]2COC[C@@]2(C)C(=O)NCCCCNC(=O)c2ccc(-c3c4nc(c(-c5c(F)cccc5F)c5ccc([nH]5)c(-c5c(F)cccc5F)c5nc(c(-c6c(F)cccc6F)c6ccc3[nH]6)C=C5)C=C4)cc2)nn1
REMARK SMILES IDX 20 1 19 2 17 3 18 4 15 6 11 7 12 8 13 9 14 10 16 11 10 12
REMARK SMILES IDX 9 14 6 15 7 16 82 17 8 18 81 19 4 20 3 21 5 23 2 24 1 25
REMARK SMILES IDX 21 26 22 27 23 28 24 29 25 30 26 32 27 33 28 34 80 35 29 36
REMARK SMILES IDX 79 37 30 38 31 39 32 40 73 41 33 42 78 43 72 44 74 45 34 46
REMARK SMILES IDX 77 47 71 48 70 49 35 51 61 52 44 53 60 54 45 55 48 56 59 57
REMARK SMILES IDX 75 58 46 59 47 60 58 62 76 63 49 64 36 65 37 66 42 67 38 68
REMARK SMILES IDX 39 69 41 70 43 71 40 72 62 73 63 74 68 75 64 76 65 77 67 78
REMARK SMILES IDX 69 79 66 80 50 81 51 82 56 83 52 84 53 85 55 86 57 87 54 88
REMARK H PARENT 19 5 10 13 3 22 24 31 74 50 48 61
REMARK Flexibility Score: inf
ROOT
ATOM      1  C   UNL A   1      32.799  27.896  26.508  1.00  0.00     0.116 C 
ENDROOT
BRANCH   1   2
ATOM      2  N   UNL A   1      31.988  26.712  26.720  1.00  0.00    -0.355 N 
ATOM      3  C   UNL A   1      32.000  25.445  26.239  1.00  0.00     0.230 C 
ATOM      4  O   UNL A   1      31.142  24.706  26.746  1.00  0.00    -0.274 OA
ATOM      5  H   UNL A   1      31.260  26.864  27.364  1.00  0.00     0.163 HD
BRANCH   3   6
ATOM      6  C   UNL A   1      32.963  24.880  25.184  1.00  0.00     0.092 C 
ATOM      7  C   UNL A   1      32.516  23.455  24.797  1.00  0.00     0.124 C 
ATOM      8  C   UNL A   1      33.020  23.299  23.371  1.00  0.00     0.186 C 
ATOM      9  O   UNL A   1      32.957  24.616  22.786  1.00  0.00    -0.378 OA
ATOM     10  C   UNL A   1      32.645  25.560  23.833  1.00  0.00     0.179 C 
ATOM     11  C   UNL A   1      34.466  25.073  25.395  1.00  0.00     0.026 C 
BRANCH   7  12
ATOM     12  N   UNL A   1      32.785  22.372  25.736  1.00  0.00    -0.362 N 
ATOM     13  H   UNL A   1      32.838  22.614  26.689  1.00  0.00     0.162 HD
BRANCH  12  14
ATOM     14  C   UNL A   1      32.973  21.046  25.422  1.00  0.00     0.149 A 
ATOM     15  C   UNL A   1      33.369  18.597  24.302  1.00  0.00     0.150 A 
ATOM     16  C   UNL A   1      34.480  19.370  24.576  1.00  0.00     0.040 A 
ATOM     17  N   UNL A   1      32.119  18.980  24.626  1.00  0.00    -0.143 NA
ATOM     18  C   UNL A   1      34.270  20.613  25.165  1.00  0.00     0.051 A 
ATOM     19  N   UNL A   1      31.933  20.218  25.197  1.00  0.00    -0.132 NA
BRANCH  15  20
ATOM     20  C   UNL A   1      33.510  17.355  23.521  1.00  0.00     0.271 C 
ATOM     21  N   UNL A   1      33.617  16.154  24.176  1.00  0.00    -0.351 N 
ATOM     22  H   UNL A   1      33.802  15.369  23.612  1.00  0.00     0.163 HD
ATOM     23  O   UNL A   1      33.594  17.412  22.297  1.00  0.00    -0.267 OA
BRANCH  21  24
ATOM     24  C   UNL A   1      33.491  15.897  25.598  1.00  0.00     0.113 C 
ATOM     25  C   UNL A   1      32.262  15.058  25.888  1.00  0.00     0.027 C 
ENDBRANCH  21  24
ENDBRANCH  15  20
ENDBRANCH  12  14
ENDBRANCH   7  12
ENDBRANCH   3   6
ENDBRANCH   1   2
BRANCH   1  26
ATOM     26  C   UNL A   1      31.981  29.050  25.931  1.00  0.00     0.023 C 
BRANCH  26  27
ATOM     27  C   UNL A   1      31.692  30.180  26.923  1.00  0.00     0.023 C 
BRANCH  27  28
ATOM     28  C   UNL A   1      32.806  31.213  27.089  1.00  0.00     0.116 C 
BRANCH  28  29
ATOM     29  N   UNL A   1      32.328  32.561  27.358  1.00  0.00    -0.352 N 
ATOM     30  C   UNL A   1      32.953  33.573  28.051  1.00  0.00     0.251 C 
ATOM     31  H   UNL A   1      31.437  32.778  26.997  1.00  0.00     0.163 HD
ATOM     32  O   UNL A   1      32.394  34.638  28.250  1.00  0.00    -0.269 OA
BRANCH  30  33
ATOM     33  C   UNL A   1      34.306  33.332  28.591  1.00  0.00     0.039 A 
ATOM     34  C   UNL A   1      34.428  32.741  29.851  1.00  0.00     0.014 A 
ATOM     35  C   UNL A   1      35.438  33.630  27.830  1.00  0.00     0.014 A 
ATOM     36  C   UNL A   1      35.690  32.367  30.313  1.00  0.00     0.010 A 
ATOM     37  C   UNL A   1      36.686  33.194  28.263  1.00  0.00     0.010 A 
ATOM     38  C   UNL A   1      36.823  32.550  29.502  1.00  0.00    -0.014 A 
BRANCH  38  39
ATOM     39  C   UNL A   1      38.158  32.055  29.921  1.00  0.00     0.031 A 
ATOM     40  C   UNL A   1      38.675  30.749  29.390  1.00  0.00     0.074 A 
ATOM     41  C   UNL A   1      38.860  32.739  30.847  1.00  0.00     0.049 A 
ATOM     42  N   UNL A   1      39.766  30.102  29.710  1.00  0.00    -0.248 NA
ATOM     43  C   UNL A   1      37.841  30.061  28.391  1.00  0.00     0.031 C 
ATOM     44  C   UNL A   1      38.435  33.987  31.485  1.00  0.00     0.029 A 
ATOM     45  N   UNL A   1      40.074  32.469  31.427  1.00  0.00    -0.354 N 
ATOM     46  C   UNL A   1      39.735  28.924  28.976  1.00  0.00     0.074 A 
ATOM     47  C   UNL A   1      38.501  28.924  28.223  1.00  0.00     0.031 C 
ATOM     48  C   UNL A   1      39.379  34.380  32.357  1.00  0.00     0.029 A 
ATOM     49  C   UNL A   1      40.459  33.399  32.363  1.00  0.00     0.049 A 
ATOM     50  H   UNL A   1      40.620  31.683  31.193  1.00  0.00     0.167 HD
ATOM     51  C   UNL A   1      40.662  27.939  28.921  1.00  0.00     0.037 A 
ATOM     52  C   UNL A   1      41.554  33.448  33.144  1.00  0.00     0.037 A 
ATOM     53  C   UNL A   1      41.916  27.968  29.628  1.00  0.00     0.049 A 
ATOM     54  C   UNL A   1      42.585  32.358  33.032  1.00  0.00     0.074 A 
ATOM     55  C   UNL A   1      42.962  27.066  29.560  1.00  0.00     0.029 A 
ATOM     56  N   UNL A   1      42.291  28.954  30.527  1.00  0.00    -0.354 N 
ATOM     57  N   UNL A   1      42.582  31.294  32.266  1.00  0.00    -0.248 NA
ATOM     58  C   UNL A   1      43.774  32.480  33.887  1.00  0.00     0.031 C 
ATOM     59  C   UNL A   1      43.958  27.486  30.446  1.00  0.00     0.029 A 
ATOM     60  C   UNL A   1      43.548  28.671  31.035  1.00  0.00     0.049 A 
ATOM     61  H   UNL A   1      41.746  29.738  30.767  1.00  0.00     0.167 HD
ATOM     62  C   UNL A   1      43.778  30.638  32.524  1.00  0.00     0.074 A 
ATOM     63  C   UNL A   1      44.488  31.430  33.506  1.00  0.00     0.031 C 
ATOM     64  C   UNL A   1      44.246  29.482  31.997  1.00  0.00     0.037 A 
BRANCH  51  65
ATOM     65  C   UNL A   1      40.371  26.750  28.057  1.00  0.00     0.057 A 
ATOM     66  C   UNL A   1      40.940  26.606  26.786  1.00  0.00     0.134 A 
ATOM     67  C   UNL A   1      39.566  25.706  28.530  1.00  0.00     0.134 A 
ATOM     68  F   UNL A   1      41.711  27.576  26.272  1.00  0.00    -0.206 F 
ATOM     69  C   UNL A   1      40.708  25.470  26.009  1.00  0.00     0.040 A 
ATOM     70  C   UNL A   1      39.345  24.556  27.771  1.00  0.00     0.040 A 
ATOM     71  F   UNL A   1      38.994  25.782  29.741  1.00  0.00    -0.206 F 
ATOM     72  C   UNL A   1      39.916  24.437  26.506  1.00  0.00     0.006 A 
ENDBRANCH  51  65
BRANCH  52  73
ATOM     73  C   UNL A   1      41.751  34.572  34.096  1.00  0.00     0.057 A 
ATOM     74  C   UNL A   1      41.290  34.487  35.415  1.00  0.00     0.134 A 
ATOM     75  C   UNL A   1      42.363  35.766  33.702  1.00  0.00     0.134 A 
ATOM     76  F   UNL A   1      40.677  33.374  35.845  1.00  0.00    -0.206 F 
ATOM     77  C   UNL A   1      41.402  35.560  36.299  1.00  0.00     0.040 A 
ATOM     78  C   UNL A   1      42.504  36.840  34.583  1.00  0.00     0.040 A 
ATOM     79  F   UNL A   1      42.832  35.908  32.453  1.00  0.00    -0.206 F 
ATOM     80  C   UNL A   1      42.013  36.742  35.884  1.00  0.00     0.006 A 
ENDBRANCH  52  73
BRANCH  64  81
ATOM     81  C   UNL A   1      45.605  29.027  32.437  1.00  0.00     0.057 A 
ATOM     82  C   UNL A   1      46.771  29.449  31.786  1.00  0.00     0.134 A 
ATOM     83  C   UNL A   1      45.749  28.193  33.552  1.00  0.00     0.134 A 
ATOM     84  F   UNL A   1      46.697  30.238  30.704  1.00  0.00    -0.206 F 
ATOM     85  C   UNL A   1      48.033  29.040  32.218  1.00  0.00     0.040 A 
ATOM     86  C   UNL A   1      47.007  27.797  34.008  1.00  0.00     0.040 A 
ATOM     87  F   UNL A   1      44.671  27.762  34.224  1.00  0.00    -0.206 F 
ATOM     88  C   UNL A   1      48.153  28.217  33.336  1.00  0.00     0.006 A 
ENDBRANCH  64  81
ENDBRANCH  38  39
ENDBRANCH  30  33
ENDBRANCH  28  29
ENDBRANCH  27  28
ENDBRANCH  26  27
ENDBRANCH   1  26
TORSDOF 15
ENDMDL
