MODEL 1
REMARK VINA RESULT:     -10.9      0.000      0.000
REMARK SMILES CC(C)(O)CCOc1ccc(C(=O)NCCCCNC(=O)c2ccc(-c3c4nc(c(-c5c(F)cccc5F)c5ccc([nH]5)c(-c5c(F)cccc5F)c5nc(c(-c6c(F)cccc6F)c6ccc3[nH]6)C=C5)C=C4)cc2)cc1
REMARK SMILES IDX 15 1 14 2 12 3 13 4 11 6 8 7 9 8 77 9 10 10 76 11 7 12 6 13
REMARK SMILES IDX 5 14 2 15 1 16 3 17 4 18 16 20 17 21 18 22 19 23 20 24 21 26
REMARK SMILES IDX 22 27 23 28 75 29 24 30 74 31 25 32 26 33 27 34 68 35 28 36
REMARK SMILES IDX 73 37 67 38 69 39 29 40 72 41 66 42 65 43 30 45 56 46 39 47
REMARK SMILES IDX 55 48 40 49 43 50 54 51 70 52 41 53 42 54 53 56 71 57 44 58
REMARK SMILES IDX 31 59 32 60 37 61 33 62 34 63 36 64 38 65 35 66 57 67 58 68
REMARK SMILES IDX 63 69 59 70 60 71 62 72 64 73 61 74 45 75 46 76 51 77 47 78
REMARK SMILES IDX 48 79 50 80 52 81 49 82
REMARK H PARENT 14 5 4 19 19 25 69 44 43 55
REMARK Flexibility Score: inf
ROOT
ATOM      1  C   UNL A   1      32.989  29.951  26.023  1.00  0.00     0.116 C 
ENDROOT
BRANCH   1   2
ATOM      2  N   UNL A   1      33.295  29.678  24.627  1.00  0.00    -0.352 N 
ATOM      3  C   UNL A   1      33.225  28.498  23.917  1.00  0.00     0.251 C 
ATOM      4  O   UNL A   1      33.642  28.456  22.763  1.00  0.00    -0.269 OA
ATOM      5  H   UNL A   1      33.599  30.458  24.107  1.00  0.00     0.163 HD
BRANCH   3   6
ATOM      6  C   UNL A   1      32.705  27.267  24.552  1.00  0.00     0.040 A 
ATOM      7  C   UNL A   1      31.737  25.182  26.136  1.00  0.00     0.119 A 
ATOM      8  C   UNL A   1      33.114  25.373  25.992  1.00  0.00     0.047 A 
ATOM      9  C   UNL A   1      30.866  25.905  25.323  1.00  0.00     0.047 A 
ATOM     10  C   UNL A   1      33.604  26.415  25.200  1.00  0.00     0.017 A 
ATOM     11  C   UNL A   1      31.345  26.958  24.540  1.00  0.00     0.017 A 
BRANCH   7  12
ATOM     12  O   UNL A   1      31.378  24.345  27.154  1.00  0.00    -0.493 OA
BRANCH  12  13
ATOM     13  C   UNL A   1      31.686  22.951  27.054  1.00  0.00     0.232 C 
BRANCH  13  14
ATOM     14  C   UNL A   1      31.330  22.286  25.706  1.00  0.00     0.076 C 
BRANCH  14  15
ATOM     15  C   UNL A   1      32.345  21.300  25.081  1.00  0.00     0.062 C 
ATOM     16  C   UNL A   1      33.792  21.627  25.465  1.00  0.00     0.042 C 
ATOM     17  C   UNL A   1      32.255  21.330  23.546  1.00  0.00     0.042 C 
BRANCH  15  18
ATOM     18  O   UNL A   1      32.014  19.966  25.464  1.00  0.00    -0.390 OA
ATOM     19  H   UNL A   1      32.327  19.348  24.786  1.00  0.00     0.211 HD
ENDBRANCH  15  18
ENDBRANCH  14  15
ENDBRANCH  13  14
ENDBRANCH  12  13
ENDBRANCH   7  12
ENDBRANCH   3   6
ENDBRANCH   1   2
BRANCH   1  20
ATOM     20  C   UNL A   1      31.569  30.476  26.238  1.00  0.00     0.023 C 
BRANCH  20  21
ATOM     21  C   UNL A   1      31.451  31.969  26.551  1.00  0.00     0.023 C 
BRANCH  21  22
ATOM     22  C   UNL A   1      32.667  32.614  27.211  1.00  0.00     0.116 C 
BRANCH  22  23
ATOM     23  N   UNL A   1      32.449  33.994  27.618  1.00  0.00    -0.352 N 
ATOM     24  C   UNL A   1      33.122  34.747  28.552  1.00  0.00     0.251 C 
ATOM     25  H   UNL A   1      31.713  34.457  27.157  1.00  0.00     0.163 HD
ATOM     26  O   UNL A   1      32.727  35.879  28.820  1.00  0.00    -0.269 OA
BRANCH  24  27
ATOM     27  C   UNL A   1      34.294  34.191  29.269  1.00  0.00     0.039 A 
ATOM     28  C   UNL A   1      34.074  33.357  30.370  1.00  0.00     0.014 A 
ATOM     29  C   UNL A   1      35.601  34.485  28.873  1.00  0.00     0.014 A 
ATOM     30  C   UNL A   1      35.158  32.762  31.023  1.00  0.00     0.010 A 
ATOM     31  C   UNL A   1      36.676  33.836  29.479  1.00  0.00     0.010 A 
ATOM     32  C   UNL A   1      36.467  32.966  30.559  1.00  0.00    -0.014 A 
BRANCH  32  33
ATOM     33  C   UNL A   1      37.621  32.266  31.185  1.00  0.00     0.031 A 
ATOM     34  C   UNL A   1      38.335  31.163  30.455  1.00  0.00     0.074 A 
ATOM     35  C   UNL A   1      37.992  32.588  32.441  1.00  0.00     0.049 A 
ATOM     36  N   UNL A   1      39.334  30.417  30.856  1.00  0.00    -0.248 NA
ATOM     37  C   UNL A   1      37.844  30.834  29.107  1.00  0.00     0.031 C 
ATOM     38  C   UNL A   1      37.348  33.599  33.282  1.00  0.00     0.029 A 
ATOM     39  N   UNL A   1      38.997  32.091  33.233  1.00  0.00    -0.354 N 
ATOM     40  C   UNL A   1      39.584  29.527  29.817  1.00  0.00     0.074 A 
ATOM     41  C   UNL A   1      38.596  29.789  28.793  1.00  0.00     0.031 C 
ATOM     42  C   UNL A   1      37.990  33.667  34.458  1.00  0.00     0.029 A 
ATOM     43  C   UNL A   1      39.068  32.683  34.471  1.00  0.00     0.049 A 
ATOM     44  H   UNL A   1      39.610  31.377  32.941  1.00  0.00     0.167 HD
ATOM     45  C   UNL A   1      40.561  28.595  29.715  1.00  0.00     0.037 A 
ATOM     46  C   UNL A   1      39.907  32.459  35.501  1.00  0.00     0.037 A 
ATOM     47  C   UNL A   1      41.558  28.349  30.725  1.00  0.00     0.049 A 
ATOM     48  C   UNL A   1      40.986  31.422  35.360  1.00  0.00     0.074 A 
ATOM     49  C   UNL A   1      42.625  27.468  30.687  1.00  0.00     0.029 A 
ATOM     50  N   UNL A   1      41.608  28.985  31.956  1.00  0.00    -0.354 N 
ATOM     51  N   UNL A   1      41.257  30.642  34.342  1.00  0.00    -0.248 NA
ATOM     52  C   UNL A   1      41.884  31.241  36.511  1.00  0.00     0.031 C 
ATOM     53  C   UNL A   1      43.296  27.540  31.912  1.00  0.00     0.029 A 
ATOM     54  C   UNL A   1      42.677  28.501  32.694  1.00  0.00     0.049 A 
ATOM     55  H   UNL A   1      40.979  29.676  32.261  1.00  0.00     0.167 HD
ATOM     56  C   UNL A   1      42.371  29.901  34.716  1.00  0.00     0.074 A 
ATOM     57  C   UNL A   1      42.735  30.335  36.049  1.00  0.00     0.031 C 
ATOM     58  C   UNL A   1      43.033  28.946  34.017  1.00  0.00     0.037 A 
BRANCH  45  59
ATOM     59  C   UNL A   1      40.602  27.772  28.459  1.00  0.00     0.057 A 
ATOM     60  C   UNL A   1      41.332  28.179  27.334  1.00  0.00     0.134 A 
ATOM     61  C   UNL A   1      39.935  26.543  28.384  1.00  0.00     0.134 A 
ATOM     62  F   UNL A   1      41.986  29.351  27.335  1.00  0.00    -0.206 F 
ATOM     63  C   UNL A   1      41.373  27.408  26.171  1.00  0.00     0.040 A 
ATOM     64  C   UNL A   1      39.991  25.751  27.236  1.00  0.00     0.040 A 
ATOM     65  F   UNL A   1      39.224  26.088  29.427  1.00  0.00    -0.206 F 
ATOM     66  C   UNL A   1      40.706  26.186  26.122  1.00  0.00     0.006 A 
ENDBRANCH  45  59
BRANCH  46  67
ATOM     67  C   UNL A   1      39.782  33.255  36.748  1.00  0.00     0.057 A 
ATOM     68  C   UNL A   1      40.555  34.406  36.951  1.00  0.00     0.134 A 
ATOM     69  C   UNL A   1      38.900  32.884  37.769  1.00  0.00     0.134 A 
ATOM     70  F   UNL A   1      41.432  34.801  36.016  1.00  0.00    -0.206 F 
ATOM     71  C   UNL A   1      40.471  35.145  38.131  1.00  0.00     0.040 A 
ATOM     72  C   UNL A   1      38.787  33.628  38.945  1.00  0.00     0.040 A 
ATOM     73  F   UNL A   1      38.127  31.795  37.634  1.00  0.00    -0.206 F 
ATOM     74  C   UNL A   1      39.581  34.758  39.131  1.00  0.00     0.006 A 
ENDBRANCH  46  67
BRANCH  58  75
ATOM     75  C   UNL A   1      44.238  28.332  34.667  1.00  0.00     0.057 A 
ATOM     76  C   UNL A   1      44.152  27.162  35.434  1.00  0.00     0.134 A 
ATOM     77  C   UNL A   1      45.506  28.904  34.500  1.00  0.00     0.134 A 
ATOM     78  F   UNL A   1      42.966  26.573  35.644  1.00  0.00    -0.206 F 
ATOM     79  C   UNL A   1      45.281  26.598  36.032  1.00  0.00     0.040 A 
ATOM     80  C   UNL A   1      46.644  28.334  35.070  1.00  0.00     0.040 A 
ATOM     81  F   UNL A   1      45.659  30.020  33.771  1.00  0.00    -0.206 F 
ATOM     82  C   UNL A   1      46.533  27.182  35.845  1.00  0.00     0.006 A 
ENDBRANCH  58  75
ENDBRANCH  32  33
ENDBRANCH  24  27
ENDBRANCH  22  23
ENDBRANCH  21  22
ENDBRANCH  20  21
ENDBRANCH   1  20
TORSDOF 16
ENDMDL
MODEL 2
REMARK VINA RESULT:     -10.9      0.336      6.395
REMARK SMILES CC(C)(O)CCOc1ccc(C(=O)NCCCCNC(=O)c2ccc(-c3c4nc(c(-c5c(F)cccc5F)c5ccc([nH]5)c(-c5c(F)cccc5F)c5nc(c(-c6c(F)cccc6F)c6ccc3[nH]6)C=C5)C=C4)cc2)cc1
REMARK SMILES IDX 15 1 14 2 12 3 13 4 11 6 8 7 9 8 77 9 10 10 76 11 7 12 6 13
REMARK SMILES IDX 5 14 2 15 1 16 3 17 4 18 16 20 17 21 18 22 19 23 20 24 21 26
REMARK SMILES IDX 22 27 23 28 75 29 24 30 74 31 25 32 26 33 27 34 68 35 28 36
REMARK SMILES IDX 73 37 67 38 69 39 29 40 72 41 66 42 65 43 30 45 56 46 39 47
REMARK SMILES IDX 55 48 40 49 43 50 54 51 70 52 41 53 42 54 53 56 71 57 44 58
REMARK SMILES IDX 31 59 32 60 37 61 33 62 34 63 36 64 38 65 35 66 57 67 58 68
REMARK SMILES IDX 63 69 59 70 60 71 62 72 64 73 61 74 45 75 46 76 51 77 47 78
REMARK SMILES IDX 48 79 50 80 52 81 49 82
REMARK H PARENT 14 5 4 19 19 25 69 44 43 55
REMARK Flexibility Score: inf
ROOT
ATOM      1  C   UNL A   1      32.744  30.022  25.942  1.00  0.00     0.116 C 
ENDROOT
BRANCH   1   2
ATOM      2  N   UNL A   1      33.277  29.703  24.626  1.00  0.00    -0.352 N 
ATOM      3  C   UNL A   1      33.325  28.500  23.954  1.00  0.00     0.251 C 
ATOM      4  O   UNL A   1      33.928  28.421  22.887  1.00  0.00    -0.269 OA
ATOM      5  H   UNL A   1      33.665  30.466  24.138  1.00  0.00     0.163 HD
BRANCH   3   6
ATOM      6  C   UNL A   1      32.703  27.289  24.534  1.00  0.00     0.040 A 
ATOM      7  C   UNL A   1      31.510  25.243  26.013  1.00  0.00     0.119 A 
ATOM      8  C   UNL A   1      32.900  25.392  26.013  1.00  0.00     0.047 A 
ATOM      9  C   UNL A   1      30.752  25.988  25.112  1.00  0.00     0.047 A 
ATOM     10  C   UNL A   1      33.502  26.413  25.274  1.00  0.00     0.017 A 
ATOM     11  C   UNL A   1      31.342  27.022  24.381  1.00  0.00     0.017 A 
BRANCH   7  12
ATOM     12  O   UNL A   1      31.021  24.423  26.989  1.00  0.00    -0.493 OA
BRANCH  12  13
ATOM     13  C   UNL A   1      31.445  23.057  27.032  1.00  0.00     0.232 C 
BRANCH  13  14
ATOM     14  C   UNL A   1      31.176  22.238  25.751  1.00  0.00     0.076 C 
BRANCH  14  15
ATOM     15  C   UNL A   1      32.294  21.308  25.223  1.00  0.00     0.062 C 
ATOM     16  C   UNL A   1      33.638  21.555  25.918  1.00  0.00     0.042 C 
ATOM     17  C   UNL A   1      32.508  21.518  23.715  1.00  0.00     0.042 C 
BRANCH  15  18
ATOM     18  O   UNL A   1      31.896  19.946  25.375  1.00  0.00    -0.390 OA
ATOM     19  H   UNL A   1      30.954  19.909  25.606  1.00  0.00     0.211 HD
ENDBRANCH  15  18
ENDBRANCH  14  15
ENDBRANCH  13  14
ENDBRANCH  12  13
ENDBRANCH   7  12
ENDBRANCH   3   6
ENDBRANCH   1   2
BRANCH   1  20
ATOM     20  C   UNL A   1      31.443  30.825  25.887  1.00  0.00     0.023 C 
BRANCH  20  21
ATOM     21  C   UNL A   1      31.340  31.993  26.870  1.00  0.00     0.023 C 
BRANCH  21  22
ATOM     22  C   UNL A   1      32.628  32.774  27.120  1.00  0.00     0.116 C 
BRANCH  22  23
ATOM     23  N   UNL A   1      32.407  34.122  27.622  1.00  0.00    -0.352 N 
ATOM     24  C   UNL A   1      33.076  34.809  28.608  1.00  0.00     0.251 C 
ATOM     25  H   UNL A   1      31.670  34.615  27.193  1.00  0.00     0.163 HD
ATOM     26  O   UNL A   1      32.678  35.919  28.954  1.00  0.00    -0.269 OA
BRANCH  24  27
ATOM     27  C   UNL A   1      34.247  34.207  29.287  1.00  0.00     0.039 A 
ATOM     28  C   UNL A   1      34.028  33.345  30.366  1.00  0.00     0.014 A 
ATOM     29  C   UNL A   1      35.554  34.484  28.876  1.00  0.00     0.014 A 
ATOM     30  C   UNL A   1      35.109  32.707  30.982  1.00  0.00     0.010 A 
ATOM     31  C   UNL A   1      36.625  33.793  29.443  1.00  0.00     0.010 A 
ATOM     32  C   UNL A   1      36.415  32.896  30.500  1.00  0.00    -0.014 A 
BRANCH  32  33
ATOM     33  C   UNL A   1      37.563  32.153  31.085  1.00  0.00     0.031 A 
ATOM     34  C   UNL A   1      38.055  32.472  32.469  1.00  0.00     0.074 A 
ATOM     35  C   UNL A   1      38.203  31.226  30.344  1.00  0.00     0.049 A 
ATOM     36  N   UNL A   1      39.063  31.956  33.129  1.00  0.00    -0.248 NA
ATOM     37  C   UNL A   1      37.338  33.528  33.201  1.00  0.00     0.031 C 
ATOM     38  C   UNL A   1      37.865  30.861  28.967  1.00  0.00     0.029 A 
ATOM     39  N   UNL A   1      39.278  30.426  30.643  1.00  0.00    -0.354 N 
ATOM     40  C   UNL A   1      39.106  32.631  34.343  1.00  0.00     0.074 A 
ATOM     41  C   UNL A   1      38.060  33.630  34.307  1.00  0.00     0.031 C 
ATOM     42  C   UNL A   1      38.696  29.892  28.551  1.00  0.00     0.029 A 
ATOM     43  C   UNL A   1      39.647  29.590  29.616  1.00  0.00     0.049 A 
ATOM     44  H   UNL A   1      39.742  30.449  31.512  1.00  0.00     0.167 HD
ATOM     45  C   UNL A   1      39.925  32.421  35.401  1.00  0.00     0.037 A 
ATOM     46  C   UNL A   1      40.639  28.682  29.541  1.00  0.00     0.037 A 
ATOM     47  C   UNL A   1      40.952  31.413  35.447  1.00  0.00     0.049 A 
ATOM     48  C   UNL A   1      41.531  28.465  30.732  1.00  0.00     0.074 A 
ATOM     49  C   UNL A   1      41.792  31.083  36.496  1.00  0.00     0.029 A 
ATOM     50  N   UNL A   1      41.280  30.572  34.394  1.00  0.00    -0.354 N 
ATOM     51  N   UNL A   1      41.510  29.058  31.900  1.00  0.00    -0.248 NA
ATOM     52  C   UNL A   1      42.580  27.444  30.594  1.00  0.00     0.031 C 
ATOM     53  C   UNL A   1      42.657  30.072  36.065  1.00  0.00     0.029 A 
ATOM     54  C   UNL A   1      42.323  29.737  34.763  1.00  0.00     0.049 A 
ATOM     55  H   UNL A   1      40.838  30.568  33.515  1.00  0.00     0.167 HD
ATOM     56  C   UNL A   1      42.520  28.463  32.647  1.00  0.00     0.074 A 
ATOM     57  C   UNL A   1      43.124  27.452  31.803  1.00  0.00     0.031 C 
ATOM     58  C   UNL A   1      42.912  28.731  33.917  1.00  0.00     0.037 A 
BRANCH  45  59
ATOM     59  C   UNL A   1      39.738  33.301  36.605  1.00  0.00     0.057 A 
ATOM     60  C   UNL A   1      38.836  32.973  37.625  1.00  0.00     0.134 A 
ATOM     61  C   UNL A   1      40.493  34.470  36.763  1.00  0.00     0.134 A 
ATOM     62  F   UNL A   1      38.074  31.872  37.532  1.00  0.00    -0.206 F 
ATOM     63  C   UNL A   1      38.670  33.790  38.745  1.00  0.00     0.040 A 
ATOM     64  C   UNL A   1      40.356  35.281  37.891  1.00  0.00     0.040 A 
ATOM     65  F   UNL A   1      41.382  34.840  35.829  1.00  0.00    -0.206 F 
ATOM     66  C   UNL A   1      39.437  34.945  38.883  1.00  0.00     0.006 A 
ENDBRANCH  45  59
BRANCH  46  67
ATOM     67  C   UNL A   1      40.823  27.883  28.303  1.00  0.00     0.057 A 
ATOM     68  C   UNL A   1      41.607  28.361  27.246  1.00  0.00     0.134 A 
ATOM     69  C   UNL A   1      40.216  26.633  28.141  1.00  0.00     0.134 A 
ATOM     70  F   UNL A   1      42.200  29.560  27.334  1.00  0.00    -0.206 F 
ATOM     71  C   UNL A   1      41.763  27.634  26.065  1.00  0.00     0.040 A 
ATOM     72  C   UNL A   1      40.383  25.884  26.975  1.00  0.00     0.040 A 
ATOM     73  F   UNL A   1      39.457  26.117  29.120  1.00  0.00    -0.206 F 
ATOM     74  C   UNL A   1      41.153  26.388  25.929  1.00  0.00     0.006 A 
ENDBRANCH  46  67
BRANCH  58  75
ATOM     75  C   UNL A   1      44.022  27.895  34.483  1.00  0.00     0.057 A 
ATOM     76  C   UNL A   1      45.361  28.302  34.423  1.00  0.00     0.134 A 
ATOM     77  C   UNL A   1      43.743  26.680  35.122  1.00  0.00     0.134 A 
ATOM     78  F   UNL A   1      45.697  29.448  33.813  1.00  0.00    -0.206 F 
ATOM     79  C   UNL A   1      46.386  27.517  34.955  1.00  0.00     0.040 A 
ATOM     80  C   UNL A   1      44.756  25.901  35.681  1.00  0.00     0.040 A 
ATOM     81  F   UNL A   1      42.481  26.236  35.221  1.00  0.00    -0.206 F 
ATOM     82  C   UNL A   1      46.083  26.315  35.592  1.00  0.00     0.006 A 
ENDBRANCH  58  75
ENDBRANCH  32  33
ENDBRANCH  24  27
ENDBRANCH  22  23
ENDBRANCH  21  22
ENDBRANCH  20  21
ENDBRANCH   1  20
TORSDOF 16
ENDMDL
MODEL 3
REMARK VINA RESULT:     -10.7      2.807      7.671
REMARK SMILES CC(C)(O)CCOc1ccc(C(=O)NCCCCNC(=O)c2ccc(-c3c4nc(c(-c5c(F)cccc5F)c5ccc([nH]5)c(-c5c(F)cccc5F)c5nc(c(-c6c(F)cccc6F)c6ccc3[nH]6)C=C5)C=C4)cc2)cc1
REMARK SMILES IDX 15 1 14 2 12 3 13 4 11 6 8 7 9 8 77 9 10 10 76 11 7 12 6 13
REMARK SMILES IDX 5 14 2 15 1 16 3 17 4 18 16 20 17 21 18 22 19 23 20 24 21 26
REMARK SMILES IDX 22 27 23 28 75 29 24 30 74 31 25 32 26 33 27 34 68 35 28 36
REMARK SMILES IDX 73 37 67 38 69 39 29 40 72 41 66 42 65 43 30 45 56 46 39 47
REMARK SMILES IDX 55 48 40 49 43 50 54 51 70 52 41 53 42 54 53 56 71 57 44 58
REMARK SMILES IDX 31 59 32 60 37 61 33 62 34 63 36 64 38 65 35 66 57 67 58 68
REMARK SMILES IDX 63 69 59 70 60 71 62 72 64 73 61 74 45 75 46 76 51 77 47 78
REMARK SMILES IDX 48 79 50 80 52 81 49 82
REMARK H PARENT 14 5 4 19 19 25 69 44 43 55
REMARK Flexibility Score: inf
ROOT
ATOM      1  C   UNL A   1      33.799  25.740  25.761  1.00  0.00     0.116 C 
ENDROOT
BRANCH   1   2
ATOM      2  N   UNL A   1      32.664  25.254  26.532  1.00  0.00    -0.352 N 
ATOM      3  C   UNL A   1      32.104  23.996  26.591  1.00  0.00     0.251 C 
ATOM      4  O   UNL A   1      31.066  23.819  27.223  1.00  0.00    -0.269 OA
ATOM      5  H   UNL A   1      32.227  25.930  27.099  1.00  0.00     0.163 HD
BRANCH   3   6
ATOM      6  C   UNL A   1      32.711  22.867  25.852  1.00  0.00     0.040 A 
ATOM      7  C   UNL A   1      33.606  20.473  24.727  1.00  0.00     0.119 A 
ATOM      8  C   UNL A   1      34.236  20.995  25.860  1.00  0.00     0.047 A 
ATOM      9  C   UNL A   1      32.673  21.258  24.050  1.00  0.00     0.047 A 
ATOM     10  C   UNL A   1      33.793  22.193  26.427  1.00  0.00     0.017 A 
ATOM     11  C   UNL A   1      32.213  22.449  24.618  1.00  0.00     0.017 A 
BRANCH   7  12
ATOM     12  O   UNL A   1      33.916  19.173  24.446  1.00  0.00    -0.493 OA
BRANCH  12  13
ATOM     13  C   UNL A   1      32.983  18.376  23.710  1.00  0.00     0.232 C 
BRANCH  13  14
ATOM     14  C   UNL A   1      33.197  16.849  23.800  1.00  0.00     0.076 C 
BRANCH  14  15
ATOM     15  C   UNL A   1      33.550  16.235  25.176  1.00  0.00     0.062 C 
ATOM     16  C   UNL A   1      35.023  15.824  25.271  1.00  0.00     0.042 C 
ATOM     17  C   UNL A   1      32.701  14.982  25.445  1.00  0.00     0.042 C 
BRANCH  15  18
ATOM     18  O   UNL A   1      33.221  17.160  26.211  1.00  0.00    -0.390 OA
ATOM     19  H   UNL A   1      33.453  16.777  27.072  1.00  0.00     0.211 HD
ENDBRANCH  15  18
ENDBRANCH  14  15
ENDBRANCH  13  14
ENDBRANCH  12  13
ENDBRANCH   7  12
ENDBRANCH   3   6
ENDBRANCH   1   2
BRANCH   1  20
ATOM     20  C   UNL A   1      33.394  26.638  24.591  1.00  0.00     0.023 C 
BRANCH  20  21
ATOM     21  C   UNL A   1      33.275  28.130  24.907  1.00  0.00     0.023 C 
BRANCH  21  22
ATOM     22  C   UNL A   1      34.134  28.641  26.061  1.00  0.00     0.116 C 
BRANCH  22  23
ATOM     23  N   UNL A   1      33.737  29.954  26.549  1.00  0.00    -0.352 N 
ATOM     24  C   UNL A   1      34.351  30.764  27.476  1.00  0.00     0.251 C 
ATOM     25  H   UNL A   1      32.909  30.315  26.159  1.00  0.00     0.163 HD
ATOM     26  O   UNL A   1      33.808  31.810  27.823  1.00  0.00    -0.269 OA
BRANCH  24  27
ATOM     27  C   UNL A   1      35.640  30.369  28.091  1.00  0.00     0.039 A 
ATOM     28  C   UNL A   1      35.620  29.645  29.286  1.00  0.00     0.014 A 
ATOM     29  C   UNL A   1      36.864  30.706  27.505  1.00  0.00     0.014 A 
ATOM     30  C   UNL A   1      36.818  29.197  29.853  1.00  0.00     0.010 A 
ATOM     31  C   UNL A   1      38.052  30.199  28.032  1.00  0.00     0.010 A 
ATOM     32  C   UNL A   1      38.043  29.437  29.209  1.00  0.00    -0.014 A 
BRANCH  32  33
ATOM     33  C   UNL A   1      39.314  28.889  29.750  1.00  0.00     0.031 A 
ATOM     34  C   UNL A   1      39.940  29.482  30.982  1.00  0.00     0.074 A 
ATOM     35  C   UNL A   1      39.939  27.888  29.098  1.00  0.00     0.049 A 
ATOM     36  N   UNL A   1      41.062  29.161  31.577  1.00  0.00    -0.248 NA
ATOM     37  C   UNL A   1      39.227  30.604  31.614  1.00  0.00     0.031 C 
ATOM     38  C   UNL A   1      39.470  27.260  27.861  1.00  0.00     0.029 A 
ATOM     39  N   UNL A   1      41.108  27.227  29.381  1.00  0.00    -0.354 N 
ATOM     40  C   UNL A   1      41.193  30.044  32.642  1.00  0.00     0.074 A 
ATOM     41  C   UNL A   1      40.066  30.949  32.579  1.00  0.00     0.031 C 
ATOM     42  C   UNL A   1      40.326  26.289  27.507  1.00  0.00     0.029 A 
ATOM     43  C   UNL A   1      41.422  26.246  28.470  1.00  0.00     0.049 A 
ATOM     44  H   UNL A   1      41.670  27.436  30.162  1.00  0.00     0.167 HD
ATOM     45  C   UNL A   1      42.150  30.081  33.600  1.00  0.00     0.037 A 
ATOM     46  C   UNL A   1      42.474  25.407  28.416  1.00  0.00     0.037 A 
ATOM     47  C   UNL A   1      43.259  29.167  33.677  1.00  0.00     0.049 A 
ATOM     48  C   UNL A   1      43.520  25.466  29.495  1.00  0.00     0.074 A 
ATOM     49  C   UNL A   1      44.246  29.087  34.644  1.00  0.00     0.029 A 
ATOM     50  N   UNL A   1      43.530  28.174  32.747  1.00  0.00    -0.354 N 
ATOM     51  N   UNL A   1      43.589  26.256  30.538  1.00  0.00    -0.248 NA
ATOM     52  C   UNL A   1      44.630  24.508  29.392  1.00  0.00     0.031 C 
ATOM     53  C   UNL A   1      45.139  28.074  34.277  1.00  0.00     0.029 A 
ATOM     54  C   UNL A   1      44.680  27.489  33.108  1.00  0.00     0.049 A 
ATOM     55  H   UNL A   1      42.987  27.984  31.950  1.00  0.00     0.167 HD
ATOM     56  C   UNL A   1      44.730  25.872  31.231  1.00  0.00     0.074 A 
ATOM     57  C   UNL A   1      45.314  24.769  30.498  1.00  0.00     0.031 C 
ATOM     58  C   UNL A   1      45.248  26.389  32.373  1.00  0.00     0.037 A 
BRANCH  45  59
ATOM     59  C   UNL A   1      42.034  31.148  34.651  1.00  0.00     0.057 A 
ATOM     60  C   UNL A   1      41.260  30.966  35.806  1.00  0.00     0.134 A 
ATOM     61  C   UNL A   1      42.729  32.358  34.526  1.00  0.00     0.134 A 
ATOM     62  F   UNL A   1      40.561  29.835  35.984  1.00  0.00    -0.206 F 
ATOM     63  C   UNL A   1      41.160  31.958  36.783  1.00  0.00     0.040 A 
ATOM     64  C   UNL A   1      42.659  33.346  35.509  1.00  0.00     0.040 A 
ATOM     65  F   UNL A   1      43.494  32.596  33.450  1.00  0.00    -0.206 F 
ATOM     66  C   UNL A   1      41.866  33.150  36.639  1.00  0.00     0.006 A 
ENDBRANCH  45  59
BRANCH  46  67
ATOM     67  C   UNL A   1      42.576  24.412  27.318  1.00  0.00     0.057 A 
ATOM     68  C   UNL A   1      42.086  23.110  27.475  1.00  0.00     0.134 A 
ATOM     69  C   UNL A   1      43.174  24.733  26.094  1.00  0.00     0.134 A 
ATOM     70  F   UNL A   1      41.520  22.738  28.633  1.00  0.00    -0.206 F 
ATOM     71  C   UNL A   1      42.204  22.157  26.463  1.00  0.00     0.040 A 
ATOM     72  C   UNL A   1      43.277  23.796  25.063  1.00  0.00     0.040 A 
ATOM     73  F   UNL A   1      43.657  25.965  25.878  1.00  0.00    -0.206 F 
ATOM     74  C   UNL A   1      42.798  22.502  25.250  1.00  0.00     0.006 A 
ENDBRANCH  46  67
BRANCH  58  75
ATOM     75  C   UNL A   1      46.488  25.742  32.917  1.00  0.00     0.057 A 
ATOM     76  C   UNL A   1      46.431  24.681  33.829  1.00  0.00     0.134 A 
ATOM     77  C   UNL A   1      47.755  26.170  32.501  1.00  0.00     0.134 A 
ATOM     78  F   UNL A   1      45.250  24.233  34.279  1.00  0.00    -0.206 F 
ATOM     79  C   UNL A   1      47.592  24.085  34.328  1.00  0.00     0.040 A 
ATOM     80  C   UNL A   1      48.921  25.564  32.971  1.00  0.00     0.040 A 
ATOM     81  F   UNL A   1      47.880  27.177  31.622  1.00  0.00    -0.206 F 
ATOM     82  C   UNL A   1      48.841  24.523  33.893  1.00  0.00     0.006 A 
ENDBRANCH  58  75
ENDBRANCH  32  33
ENDBRANCH  24  27
ENDBRANCH  22  23
ENDBRANCH  21  22
ENDBRANCH  20  21
ENDBRANCH   1  20
TORSDOF 16
ENDMDL
