MODEL 1
REMARK VINA RESULT:     -11.4      0.000      0.000
REMARK SMILES C=C(C)COc1ccc2nc(C)n(-c3cccc(C(=O)NCCCCNC(=O)c4ccc(-c5c6nc(c(-c7c(F)cccc7F)c7ccc([nH]7)c(-c7c(F)cccc7F)c7nc(c(-c8c(F)cccc8F)c8ccc5[nH]8)C=C7)C=C6)cc4)c3)c(=O)c2c1
REMARK SMILES IDX 22 1 21 2 19 3 20 4 18 6 14 7 15 8 83 9 16 10 17 11 13 12
REMARK SMILES IDX 6 13 7 14 87 15 8 16 86 17 9 18 84 19 10 20 85 21 11 22
REMARK SMILES IDX 12 23 5 24 4 25 2 26 1 27 3 28 23 29 24 30 25 31 26 32 27 33
REMARK SMILES IDX 28 35 29 36 30 37 82 38 31 39 81 40 32 41 33 42 34 43 75 44
REMARK SMILES IDX 35 45 80 46 74 47 76 48 36 49 79 50 73 51 72 52 37 54 63 55
REMARK SMILES IDX 46 56 62 57 47 58 50 59 61 60 77 61 48 62 49 63 60 65 78 66
REMARK SMILES IDX 51 67 38 68 39 69 44 70 40 71 41 72 43 73 45 74 42 75 64 76
REMARK SMILES IDX 65 77 70 78 66 79 67 80 69 81 71 82 68 83 52 84 53 85 58 86
REMARK SMILES IDX 54 87 55 88 57 89 59 90 56 91
REMARK H PARENT 21 5 26 34 76 53 50 64
REMARK Flexibility Score: inf
ROOT
ATOM      1  C   UNL A   1      34.103  29.130  26.990  1.00  0.00     0.116 C 
ENDROOT
BRANCH   1   2
ATOM      2  N   UNL A   1      32.831  28.818  27.628  1.00  0.00    -0.352 N 
ATOM      3  C   UNL A   1      31.863  27.893  27.291  1.00  0.00     0.251 C 
ATOM      4  O   UNL A   1      30.866  27.787  28.000  1.00  0.00    -0.269 OA
ATOM      5  H   UNL A   1      32.629  29.354  28.429  1.00  0.00     0.163 HD
BRANCH   3   6
ATOM      6  C   UNL A   1      31.960  27.092  26.041  1.00  0.00     0.041 A 
ATOM      7  C   UNL A   1      32.773  25.117  24.907  1.00  0.00     0.051 A 
ATOM      8  C   UNL A   1      32.629  25.769  23.677  1.00  0.00     0.027 A 
ATOM      9  C   UNL A   1      32.290  25.740  26.061  1.00  0.00     0.040 A 
ATOM     10  C   UNL A   1      32.120  27.070  23.626  1.00  0.00     0.003 A 
ATOM     11  C   UNL A   1      31.827  27.748  24.812  1.00  0.00     0.014 A 
BRANCH   7  12
ATOM     12  N   UNL A   1      33.595  23.952  25.066  1.00  0.00    -0.264 N 
ATOM     13  C   UNL A   1      37.949  21.826  25.479  1.00  0.00     0.120 A 
ATOM     14  C   UNL A   1      37.327  20.603  25.226  1.00  0.00     0.049 A 
ATOM     15  C   UNL A   1      37.190  22.993  25.544  1.00  0.00     0.062 A 
ATOM     16  C   UNL A   1      35.953  20.551  25.001  1.00  0.00     0.033 A 
ATOM     17  C   UNL A   1      35.809  22.927  25.315  1.00  0.00     0.070 A 
ATOM     18  C   UNL A   1      35.187  21.714  25.046  1.00  0.00     0.078 A 
ATOM     19  C   UNL A   1      34.965  24.137  25.320  1.00  0.00     0.266 A 
ATOM     20  N   UNL A   1      33.825  21.612  24.779  1.00  0.00    -0.234 NA
ATOM     21  O   UNL A   1      35.509  25.223  25.521  1.00  0.00    -0.268 OA
ATOM     22  C   UNL A   1      33.102  22.685  24.771  1.00  0.00     0.113 A 
ATOM     23  C   UNL A   1      31.664  22.480  24.333  1.00  0.00     0.088 C 
BRANCH  13  24
ATOM     24  O   UNL A   1      39.290  21.921  25.753  1.00  0.00    -0.489 OA
BRANCH  24  25
ATOM     25  C   UNL A   1      39.884  20.665  26.122  1.00  0.00     0.260 C 
BRANCH  25  26
ATOM     26  C   UNL A   1      41.398  20.721  26.181  1.00  0.00    -0.043 C 
ATOM     27  C   UNL A   1      42.175  19.627  26.256  1.00  0.00     0.011 C 
ATOM     28  C   UNL A   1      41.990  22.100  26.095  1.00  0.00     0.042 C 
ENDBRANCH  25  26
ENDBRANCH  24  25
ENDBRANCH  13  24
ENDBRANCH   7  12
ENDBRANCH   3   6
ENDBRANCH   1   2
BRANCH   1  29
ATOM     29  C   UNL A   1      34.732  30.459  27.385  1.00  0.00     0.023 C 
BRANCH  29  30
ATOM     30  C   UNL A   1      33.809  31.479  28.036  1.00  0.00     0.023 C 
BRANCH  30  31
ATOM     31  C   UNL A   1      33.523  32.729  27.213  1.00  0.00     0.116 C 
BRANCH  31  32
ATOM     32  N   UNL A   1      32.884  33.798  27.969  1.00  0.00    -0.352 N 
ATOM     33  C   UNL A   1      33.281  34.437  29.126  1.00  0.00     0.251 C 
ATOM     34  H   UNL A   1      32.032  34.118  27.594  1.00  0.00     0.163 HD
ATOM     35  O   UNL A   1      32.546  35.255  29.661  1.00  0.00    -0.269 OA
BRANCH  33  36
ATOM     36  C   UNL A   1      34.574  34.085  29.753  1.00  0.00     0.039 A 
ATOM     37  C   UNL A   1      35.780  34.429  29.143  1.00  0.00     0.014 A 
ATOM     38  C   UNL A   1      34.575  33.344  30.938  1.00  0.00     0.014 A 
ATOM     39  C   UNL A   1      36.958  33.832  29.574  1.00  0.00     0.010 A 
ATOM     40  C   UNL A   1      35.778  32.832  31.433  1.00  0.00     0.010 A 
ATOM     41  C   UNL A   1      36.969  33.007  30.711  1.00  0.00    -0.014 A 
BRANCH  41  42
ATOM     42  C   UNL A   1      38.222  32.302  31.091  1.00  0.00     0.031 A 
ATOM     43  C   UNL A   1      39.027  32.755  32.284  1.00  0.00     0.074 A 
ATOM     44  C   UNL A   1      38.598  31.204  30.410  1.00  0.00     0.049 A 
ATOM     45  N   UNL A   1      40.141  32.262  32.766  1.00  0.00    -0.248 NA
ATOM     46  C   UNL A   1      38.520  33.917  33.031  1.00  0.00     0.031 C 
ATOM     47  C   UNL A   1      37.895  30.647  29.252  1.00  0.00     0.029 A 
ATOM     48  N   UNL A   1      39.646  30.343  30.607  1.00  0.00    -0.354 N 
ATOM     49  C   UNL A   1      40.479  33.064  33.849  1.00  0.00     0.074 A 
ATOM     50  C   UNL A   1      39.467  34.093  33.942  1.00  0.00     0.031 C 
ATOM     51  C   UNL A   1      38.498  29.509  28.878  1.00  0.00     0.029 A 
ATOM     52  C   UNL A   1      39.667  29.292  29.723  1.00  0.00     0.049 A 
ATOM     53  H   UNL A   1      40.320  30.466  31.314  1.00  0.00     0.167 HD
ATOM     54  C   UNL A   1      41.530  32.948  34.697  1.00  0.00     0.037 A 
ATOM     55  C   UNL A   1      40.539  28.277  29.592  1.00  0.00     0.037 A 
ATOM     56  C   UNL A   1      42.519  31.904  34.629  1.00  0.00     0.049 A 
ATOM     57  C   UNL A   1      41.721  28.203  30.511  1.00  0.00     0.074 A 
ATOM     58  C   UNL A   1      43.599  31.680  35.466  1.00  0.00     0.029 A 
ATOM     59  N   UNL A   1      42.546  30.906  33.667  1.00  0.00    -0.354 N 
ATOM     60  N   UNL A   1      42.030  28.974  31.525  1.00  0.00    -0.248 NA
ATOM     61  C   UNL A   1      42.690  27.129  30.252  1.00  0.00     0.031 C 
ATOM     62  C   UNL A   1      44.301  30.568  34.988  1.00  0.00     0.029 A 
ATOM     63  C   UNL A   1      43.639  30.080  33.873  1.00  0.00     0.049 A 
ATOM     64  H   UNL A   1      41.887  30.800  32.944  1.00  0.00     0.167 HD
ATOM     65  C   UNL A   1      43.228  28.482  32.024  1.00  0.00     0.074 A 
ATOM     66  C   UNL A   1      43.574  27.326  31.220  1.00  0.00     0.031 C 
ATOM     67  C   UNL A   1      43.979  28.949  33.050  1.00  0.00     0.037 A 
BRANCH  54  68
ATOM     68  C   UNL A   1      41.674  33.990  35.768  1.00  0.00     0.057 A 
ATOM     69  C   UNL A   1      41.050  33.823  37.011  1.00  0.00     0.134 A 
ATOM     70  C   UNL A   1      42.397  35.171  35.560  1.00  0.00     0.134 A 
ATOM     71  F   UNL A   1      40.338  32.717  37.273  1.00  0.00    -0.206 F 
ATOM     72  C   UNL A   1      41.140  34.795  38.009  1.00  0.00     0.040 A 
ATOM     73  C   UNL A   1      42.511  36.141  36.558  1.00  0.00     0.040 A 
ATOM     74  F   UNL A   1      43.030  35.386  34.397  1.00  0.00    -0.206 F 
ATOM     75  C   UNL A   1      41.876  35.957  37.785  1.00  0.00     0.006 A 
ENDBRANCH  54  68
BRANCH  55  76
ATOM     76  C   UNL A   1      40.341  27.266  28.525  1.00  0.00     0.057 A 
ATOM     77  C   UNL A   1      39.525  26.146  28.728  1.00  0.00     0.134 A 
ATOM     78  C   UNL A   1      40.965  27.397  27.280  1.00  0.00     0.134 A 
ATOM     79  F   UNL A   1      38.903  25.965  29.902  1.00  0.00    -0.206 F 
ATOM     80  C   UNL A   1      39.350  25.182  27.735  1.00  0.00     0.040 A 
ATOM     81  C   UNL A   1      40.778  26.453  26.270  1.00  0.00     0.040 A 
ATOM     82  F   UNL A   1      41.740  28.461  27.022  1.00  0.00    -0.206 F 
ATOM     83  C   UNL A   1      39.974  25.338  26.500  1.00  0.00     0.006 A 
ENDBRANCH  55  76
BRANCH  67  84
ATOM     84  C   UNL A   1      45.249  28.211  33.343  1.00  0.00     0.057 A 
ATOM     85  C   UNL A   1      46.459  28.599  32.755  1.00  0.00     0.134 A 
ATOM     86  C   UNL A   1      45.272  27.114  34.213  1.00  0.00     0.134 A 
ATOM     87  F   UNL A   1      46.503  29.641  31.911  1.00  0.00    -0.206 F 
ATOM     88  C   UNL A   1      47.648  27.921  33.023  1.00  0.00     0.040 A 
ATOM     89  C   UNL A   1      46.458  26.440  34.505  1.00  0.00     0.040 A 
ATOM     90  F   UNL A   1      44.147  26.707  34.821  1.00  0.00    -0.206 F 
ATOM     91  C   UNL A   1      47.651  26.842  33.906  1.00  0.00     0.006 A 
ENDBRANCH  67  84
ENDBRANCH  41  42
ENDBRANCH  33  36
ENDBRANCH  31  32
ENDBRANCH  30  31
ENDBRANCH  29  30
ENDBRANCH   1  29
TORSDOF 15
ENDMDL
MODEL 2
REMARK VINA RESULT:     -11.4      4.242      8.133
REMARK SMILES C=C(C)COc1ccc2nc(C)n(-c3cccc(C(=O)NCCCCNC(=O)c4ccc(-c5c6nc(c(-c7c(F)cccc7F)c7ccc([nH]7)c(-c7c(F)cccc7F)c7nc(c(-c8c(F)cccc8F)c8ccc5[nH]8)C=C7)C=C6)cc4)c3)c(=O)c2c1
REMARK SMILES IDX 22 1 21 2 19 3 20 4 18 6 14 7 15 8 83 9 16 10 17 11 13 12
REMARK SMILES IDX 6 13 7 14 87 15 8 16 86 17 9 18 84 19 10 20 85 21 11 22
REMARK SMILES IDX 12 23 5 24 4 25 2 26 1 27 3 28 23 29 24 30 25 31 26 32 27 33
REMARK SMILES IDX 28 35 29 36 30 37 82 38 31 39 81 40 32 41 33 42 34 43 75 44
REMARK SMILES IDX 35 45 80 46 74 47 76 48 36 49 79 50 73 51 72 52 37 54 63 55
REMARK SMILES IDX 46 56 62 57 47 58 50 59 61 60 77 61 48 62 49 63 60 65 78 66
REMARK SMILES IDX 51 67 38 68 39 69 44 70 40 71 41 72 43 73 45 74 42 75 64 76
REMARK SMILES IDX 65 77 70 78 66 79 67 80 69 81 71 82 68 83 52 84 53 85 58 86
REMARK SMILES IDX 54 87 55 88 57 89 59 90 56 91
REMARK H PARENT 21 5 26 34 76 53 50 64
REMARK Flexibility Score: inf
ROOT
ATOM      1  C   UNL A   1      34.114  28.761  26.853  1.00  0.00     0.116 C 
ENDROOT
BRANCH   1   2
ATOM      2  N   UNL A   1      32.900  28.735  27.657  1.00  0.00    -0.352 N 
ATOM      3  C   UNL A   1      31.695  28.095  27.439  1.00  0.00     0.251 C 
ATOM      4  O   UNL A   1      30.804  28.198  28.279  1.00  0.00    -0.269 OA
ATOM      5  H   UNL A   1      32.944  29.259  28.489  1.00  0.00     0.163 HD
BRANCH   3   6
ATOM      6  C   UNL A   1      31.425  27.365  26.171  1.00  0.00     0.041 A 
ATOM      7  C   UNL A   1      31.799  25.420  24.783  1.00  0.00     0.051 A 
ATOM      8  C   UNL A   1      31.396  26.150  23.659  1.00  0.00     0.027 A 
ATOM      9  C   UNL A   1      31.661  25.999  26.048  1.00  0.00     0.040 A 
ATOM     10  C   UNL A   1      30.976  27.477  23.796  1.00  0.00     0.003 A 
ATOM     11  C   UNL A   1      31.033  28.098  25.045  1.00  0.00     0.014 A 
BRANCH   7  12
ATOM     12  N   UNL A   1      32.557  24.206  24.678  1.00  0.00    -0.264 N 
ATOM     13  C   UNL A   1      32.957  19.378  25.089  1.00  0.00     0.120 A 
ATOM     14  C   UNL A   1      34.341  19.530  25.006  1.00  0.00     0.049 A 
ATOM     15  C   UNL A   1      32.128  20.494  24.996  1.00  0.00     0.062 A 
ATOM     16  C   UNL A   1      34.899  20.799  24.867  1.00  0.00     0.033 A 
ATOM     17  C   UNL A   1      32.700  21.766  24.857  1.00  0.00     0.070 A 
ATOM     18  C   UNL A   1      34.079  21.924  24.791  1.00  0.00     0.078 A 
ATOM     19  C   UNL A   1      31.873  22.985  24.806  1.00  0.00     0.266 A 
ATOM     20  N   UNL A   1      34.687  23.171  24.688  1.00  0.00    -0.234 NA
ATOM     21  O   UNL A   1      30.651  22.862  24.900  1.00  0.00    -0.268 OA
ATOM     22  C   UNL A   1      33.947  24.233  24.662  1.00  0.00     0.113 A 
ATOM     23  C   UNL A   1      34.712  25.543  24.689  1.00  0.00     0.088 C 
BRANCH  13  24
ATOM     24  O   UNL A   1      32.362  18.146  25.179  1.00  0.00    -0.489 OA
BRANCH  24  25
ATOM     25  C   UNL A   1      32.991  17.150  24.354  1.00  0.00     0.260 C 
BRANCH  25  26
ATOM     26  C   UNL A   1      33.568  15.998  25.153  1.00  0.00    -0.043 C 
ATOM     27  C   UNL A   1      34.882  15.854  25.396  1.00  0.00     0.011 C 
ATOM     28  C   UNL A   1      32.556  15.038  25.713  1.00  0.00     0.042 C 
ENDBRANCH  25  26
ENDBRANCH  24  25
ENDBRANCH  13  24
ENDBRANCH   7  12
ENDBRANCH   3   6
ENDBRANCH   1   2
BRANCH   1  29
ATOM     29  C   UNL A   1      35.147  29.807  27.250  1.00  0.00     0.023 C 
BRANCH  29  30
ATOM     30  C   UNL A   1      34.620  31.039  27.973  1.00  0.00     0.023 C 
BRANCH  30  31
ATOM     31  C   UNL A   1      35.669  31.883  28.685  1.00  0.00     0.116 C 
BRANCH  31  32
ATOM     32  N   UNL A   1      35.658  31.736  30.135  1.00  0.00    -0.352 N 
ATOM     33  C   UNL A   1      36.479  31.003  30.967  1.00  0.00     0.251 C 
ATOM     34  H   UNL A   1      34.949  32.241  30.596  1.00  0.00     0.163 HD
ATOM     35  O   UNL A   1      36.241  30.935  32.164  1.00  0.00    -0.269 OA
BRANCH  33  36
ATOM     36  C   UNL A   1      37.616  30.247  30.397  1.00  0.00     0.039 A 
ATOM     37  C   UNL A   1      38.307  29.311  31.164  1.00  0.00     0.014 A 
ATOM     38  C   UNL A   1      38.033  30.530  29.093  1.00  0.00     0.014 A 
ATOM     39  C   UNL A   1      39.542  28.847  30.727  1.00  0.00     0.010 A 
ATOM     40  C   UNL A   1      39.223  29.975  28.612  1.00  0.00     0.010 A 
ATOM     41  C   UNL A   1      40.027  29.191  29.455  1.00  0.00    -0.014 A 
BRANCH  41  42
ATOM     42  C   UNL A   1      41.393  28.763  29.052  1.00  0.00     0.031 A 
ATOM     43  C   UNL A   1      41.648  27.353  28.582  1.00  0.00     0.074 A 
ATOM     44  C   UNL A   1      42.393  29.665  29.036  1.00  0.00     0.049 A 
ATOM     45  N   UNL A   1      42.771  26.802  28.189  1.00  0.00    -0.248 NA
ATOM     46  C   UNL A   1      40.497  26.438  28.552  1.00  0.00     0.031 C 
ATOM     47  C   UNL A   1      42.272  31.066  29.444  1.00  0.00     0.029 A 
ATOM     48  N   UNL A   1      43.698  29.546  28.636  1.00  0.00    -0.354 N 
ATOM     49  C   UNL A   1      42.467  25.479  27.893  1.00  0.00     0.074 A 
ATOM     50  C   UNL A   1      41.059  25.299  28.174  1.00  0.00     0.031 C 
ATOM     51  C   UNL A   1      43.438  31.690  29.219  1.00  0.00     0.029 A 
ATOM     52  C   UNL A   1      44.406  30.721  28.718  1.00  0.00     0.049 A 
ATOM     53  H   UNL A   1      44.092  28.701  28.319  1.00  0.00     0.167 HD
ATOM     54  C   UNL A   1      43.282  24.506  27.420  1.00  0.00     0.037 A 
ATOM     55  C   UNL A   1      45.695  30.985  28.442  1.00  0.00     0.037 A 
ATOM     56  C   UNL A   1      44.674  24.691  27.106  1.00  0.00     0.049 A 
ATOM     57  C   UNL A   1      46.586  29.876  27.969  1.00  0.00     0.074 A 
ATOM     58  C   UNL A   1      45.573  23.775  26.585  1.00  0.00     0.029 A 
ATOM     59  N   UNL A   1      45.370  25.877  27.281  1.00  0.00    -0.354 N 
ATOM     60  N   UNL A   1      46.284  28.629  27.702  1.00  0.00    -0.248 NA
ATOM     61  C   UNL A   1      48.005  30.208  27.780  1.00  0.00     0.031 C 
ATOM     62  C   UNL A   1      46.822  24.398  26.481  1.00  0.00     0.029 A 
ATOM     63  C   UNL A   1      46.693  25.710  26.905  1.00  0.00     0.049 A 
ATOM     64  H   UNL A   1      44.982  26.714  27.623  1.00  0.00     0.167 HD
ATOM     65  C   UNL A   1      47.473  28.026  27.317  1.00  0.00     0.074 A 
ATOM     66  C   UNL A   1      48.496  29.052  27.355  1.00  0.00     0.031 C 
ATOM     67  C   UNL A   1      47.700  26.736  26.972  1.00  0.00     0.037 A 
BRANCH  54  68
ATOM     68  C   UNL A   1      42.689  23.140  27.226  1.00  0.00     0.057 A 
ATOM     69  C   UNL A   1      42.241  22.732  25.964  1.00  0.00     0.134 A 
ATOM     70  C   UNL A   1      42.529  22.243  28.291  1.00  0.00     0.134 A 
ATOM     71  F   UNL A   1      42.360  23.544  24.903  1.00  0.00    -0.206 F 
ATOM     72  C   UNL A   1      41.653  21.481  25.767  1.00  0.00     0.040 A 
ATOM     73  C   UNL A   1      41.961  20.982  28.102  1.00  0.00     0.040 A 
ATOM     74  F   UNL A   1      42.950  22.568  29.523  1.00  0.00    -0.206 F 
ATOM     75  C   UNL A   1      41.516  20.599  26.838  1.00  0.00     0.006 A 
ENDBRANCH  54  68
BRANCH  55  76
ATOM     76  C   UNL A   1      46.225  32.356  28.637  1.00  0.00     0.057 A 
ATOM     77  C   UNL A   1      46.213  33.295  27.598  1.00  0.00     0.134 A 
ATOM     78  C   UNL A   1      46.758  32.757  29.866  1.00  0.00     0.134 A 
ATOM     79  F   UNL A   1      45.717  32.968  26.395  1.00  0.00    -0.206 F 
ATOM     80  C   UNL A   1      46.728  34.580  27.769  1.00  0.00     0.040 A 
ATOM     81  C   UNL A   1      47.254  34.047  30.059  1.00  0.00     0.040 A 
ATOM     82  F   UNL A   1      46.776  31.907  30.903  1.00  0.00    -0.206 F 
ATOM     83  C   UNL A   1      47.245  34.960  29.006  1.00  0.00     0.006 A 
ENDBRANCH  55  76
BRANCH  67  84
ATOM     84  C   UNL A   1      49.111  26.372  26.622  1.00  0.00     0.057 A 
ATOM     85  C   UNL A   1      49.576  26.477  25.306  1.00  0.00     0.134 A 
ATOM     86  C   UNL A   1      50.010  25.918  27.595  1.00  0.00     0.134 A 
ATOM     87  F   UNL A   1      48.763  26.904  24.328  1.00  0.00    -0.206 F 
ATOM     88  C   UNL A   1      50.889  26.144  24.970  1.00  0.00     0.040 A 
ATOM     89  C   UNL A   1      51.331  25.602  27.275  1.00  0.00     0.040 A 
ATOM     90  F   UNL A   1      49.627  25.815  28.878  1.00  0.00    -0.206 F 
ATOM     91  C   UNL A   1      51.772  25.712  25.958  1.00  0.00     0.006 A 
ENDBRANCH  67  84
ENDBRANCH  41  42
ENDBRANCH  33  36
ENDBRANCH  31  32
ENDBRANCH  30  31
ENDBRANCH  29  30
ENDBRANCH   1  29
TORSDOF 15
ENDMDL
MODEL 3
REMARK VINA RESULT:     -11.4      0.637      5.984
REMARK SMILES C=C(C)COc1ccc2nc(C)n(-c3cccc(C(=O)NCCCCNC(=O)c4ccc(-c5c6nc(c(-c7c(F)cccc7F)c7ccc([nH]7)c(-c7c(F)cccc7F)c7nc(c(-c8c(F)cccc8F)c8ccc5[nH]8)C=C7)C=C6)cc4)c3)c(=O)c2c1
REMARK SMILES IDX 22 1 21 2 19 3 20 4 18 6 14 7 15 8 83 9 16 10 17 11 13 12
REMARK SMILES IDX 6 13 7 14 87 15 8 16 86 17 9 18 84 19 10 20 85 21 11 22
REMARK SMILES IDX 12 23 5 24 4 25 2 26 1 27 3 28 23 29 24 30 25 31 26 32 27 33
REMARK SMILES IDX 28 35 29 36 30 37 82 38 31 39 81 40 32 41 33 42 34 43 75 44
REMARK SMILES IDX 35 45 80 46 74 47 76 48 36 49 79 50 73 51 72 52 37 54 63 55
REMARK SMILES IDX 46 56 62 57 47 58 50 59 61 60 77 61 48 62 49 63 60 65 78 66
REMARK SMILES IDX 51 67 38 68 39 69 44 70 40 71 41 72 43 73 45 74 42 75 64 76
REMARK SMILES IDX 65 77 70 78 66 79 67 80 69 81 71 82 68 83 52 84 53 85 58 86
REMARK SMILES IDX 54 87 55 88 57 89 59 90 56 91
REMARK H PARENT 21 5 26 34 76 53 50 64
REMARK Flexibility Score: inf
ROOT
ATOM      1  C   UNL A   1      34.363  29.037  27.259  1.00  0.00     0.116 C 
ENDROOT
BRANCH   1   2
ATOM      2  N   UNL A   1      33.026  28.627  27.665  1.00  0.00    -0.352 N 
ATOM      3  C   UNL A   1      32.151  27.726  27.087  1.00  0.00     0.251 C 
ATOM      4  O   UNL A   1      31.067  27.519  27.626  1.00  0.00    -0.269 OA
ATOM      5  H   UNL A   1      32.690  29.063  28.481  1.00  0.00     0.163 HD
BRANCH   3   6
ATOM      6  C   UNL A   1      32.458  27.077  25.785  1.00  0.00     0.041 A 
ATOM      7  C   UNL A   1      33.279  25.150  24.575  1.00  0.00     0.051 A 
ATOM      8  C   UNL A   1      33.527  25.960  23.462  1.00  0.00     0.027 A 
ATOM      9  C   UNL A   1      32.604  25.697  25.670  1.00  0.00     0.040 A 
ATOM     10  C   UNL A   1      33.210  27.321  23.498  1.00  0.00     0.003 A 
ATOM     11  C   UNL A   1      32.717  27.888  24.675  1.00  0.00     0.014 A 
BRANCH   7  12
ATOM     12  N   UNL A   1      33.886  23.860  24.736  1.00  0.00    -0.264 N 
ATOM     13  C   UNL A   1      37.791  21.029  25.357  1.00  0.00     0.120 A 
ATOM     14  C   UNL A   1      37.000  19.936  25.002  1.00  0.00     0.049 A 
ATOM     15  C   UNL A   1      37.228  22.302  25.424  1.00  0.00     0.062 A 
ATOM     16  C   UNL A   1      35.658  20.120  24.676  1.00  0.00     0.033 A 
ATOM     17  C   UNL A   1      35.877  22.475  25.094  1.00  0.00     0.070 A 
ATOM     18  C   UNL A   1      35.090  21.391  24.722  1.00  0.00     0.078 A 
ATOM     19  C   UNL A   1      35.243  23.806  25.097  1.00  0.00     0.266 A 
ATOM     20  N   UNL A   1      33.755  21.526  24.354  1.00  0.00    -0.234 NA
ATOM     21  O   UNL A   1      35.939  24.779  25.389  1.00  0.00    -0.268 OA
ATOM     22  C   UNL A   1      33.218  22.704  24.345  1.00  0.00     0.113 A 
ATOM     23  C   UNL A   1      31.805  22.756  23.796  1.00  0.00     0.088 C 
BRANCH  13  24
ATOM     24  O   UNL A   1      39.103  20.890  25.731  1.00  0.00    -0.489 OA
BRANCH  24  25
ATOM     25  C   UNL A   1      39.610  22.025  26.453  1.00  0.00     0.260 C 
BRANCH  25  26
ATOM     26  C   UNL A   1      41.004  21.800  27.004  1.00  0.00    -0.043 C 
ATOM     27  C   UNL A   1      41.519  22.509  28.024  1.00  0.00     0.011 C 
ATOM     28  C   UNL A   1      41.773  20.679  26.363  1.00  0.00     0.042 C 
ENDBRANCH  25  26
ENDBRANCH  24  25
ENDBRANCH  13  24
ENDBRANCH   7  12
ENDBRANCH   3   6
ENDBRANCH   1   2
BRANCH   1  29
ATOM     29  C   UNL A   1      34.765  30.454  27.645  1.00  0.00     0.023 C 
BRANCH  29  30
ATOM     30  C   UNL A   1      33.629  31.423  27.940  1.00  0.00     0.023 C 
BRANCH  30  31
ATOM     31  C   UNL A   1      33.621  32.700  27.110  1.00  0.00     0.116 C 
BRANCH  31  32
ATOM     32  N   UNL A   1      32.955  33.821  27.761  1.00  0.00    -0.352 N 
ATOM     33  C   UNL A   1      33.280  34.509  28.912  1.00  0.00     0.251 C 
ATOM     34  H   UNL A   1      32.142  34.140  27.306  1.00  0.00     0.163 HD
ATOM     35  O   UNL A   1      32.528  35.370  29.348  1.00  0.00    -0.269 OA
BRANCH  33  36
ATOM     36  C   UNL A   1      34.512  34.160  29.653  1.00  0.00     0.039 A 
ATOM     37  C   UNL A   1      35.769  34.442  29.121  1.00  0.00     0.014 A 
ATOM     38  C   UNL A   1      34.403  33.485  30.872  1.00  0.00     0.014 A 
ATOM     39  C   UNL A   1      36.894  33.841  29.671  1.00  0.00     0.010 A 
ATOM     40  C   UNL A   1      35.550  32.971  31.484  1.00  0.00     0.010 A 
ATOM     41  C   UNL A   1      36.797  33.079  30.846  1.00  0.00    -0.014 A 
BRANCH  41  42
ATOM     42  C   UNL A   1      37.997  32.365  31.357  1.00  0.00     0.031 A 
ATOM     43  C   UNL A   1      38.559  31.178  30.616  1.00  0.00     0.074 A 
ATOM     44  C   UNL A   1      38.631  32.832  32.450  1.00  0.00     0.049 A 
ATOM     45  N   UNL A   1      39.598  30.435  30.910  1.00  0.00    -0.248 NA
ATOM     46  C   UNL A   1      37.862  30.765  29.387  1.00  0.00     0.031 C 
ATOM     47  C   UNL A   1      38.204  33.986  33.245  1.00  0.00     0.029 A 
ATOM     48  N   UNL A   1      39.782  32.412  33.064  1.00  0.00    -0.354 N 
ATOM     49  C   UNL A   1      39.662  29.459  29.923  1.00  0.00     0.074 A 
ATOM     50  C   UNL A   1      38.544  29.685  29.034  1.00  0.00     0.031 C 
ATOM     51  C   UNL A   1      39.111  34.216  34.205  1.00  0.00     0.029 A 
ATOM     52  C   UNL A   1      40.144  33.189  34.138  1.00  0.00     0.049 A 
ATOM     53  H   UNL A   1      40.301  31.631  32.765  1.00  0.00     0.167 HD
ATOM     54  C   UNL A   1      40.576  28.470  29.765  1.00  0.00     0.037 A 
ATOM     55  C   UNL A   1      41.180  33.076  34.988  1.00  0.00     0.037 A 
ATOM     56  C   UNL A   1      41.709  28.263  30.628  1.00  0.00     0.049 A 
ATOM     57  C   UNL A   1      42.146  31.941  34.819  1.00  0.00     0.074 A 
ATOM     58  C   UNL A   1      42.711  27.313  30.527  1.00  0.00     0.029 A 
ATOM     59  N   UNL A   1      41.993  29.025  31.751  1.00  0.00    -0.354 N 
ATOM     60  N   UNL A   1      42.189  31.022  33.886  1.00  0.00    -0.248 NA
ATOM     61  C   UNL A   1      43.197  31.815  35.839  1.00  0.00     0.031 C 
ATOM     62  C   UNL A   1      43.580  27.476  31.612  1.00  0.00     0.029 A 
ATOM     63  C   UNL A   1      43.138  28.548  32.369  1.00  0.00     0.049 A 
ATOM     64  H   UNL A   1      41.459  29.789  32.065  1.00  0.00     0.167 HD
ATOM     65  C   UNL A   1      43.265  30.208  34.205  1.00  0.00     0.074 A 
ATOM     66  C   UNL A   1      43.869  30.760  35.402  1.00  0.00     0.031 C 
ATOM     67  C   UNL A   1      43.710  29.097  33.570  1.00  0.00     0.037 A 
BRANCH  54  68
ATOM     68  C   UNL A   1      40.378  27.521  28.619  1.00  0.00     0.057 A 
ATOM     69  C   UNL A   1      39.552  26.398  28.760  1.00  0.00     0.134 A 
ATOM     70  C   UNL A   1      41.029  27.695  27.391  1.00  0.00     0.134 A 
ATOM     71  F   UNL A   1      38.903  26.170  29.912  1.00  0.00    -0.206 F 
ATOM     72  C   UNL A   1      39.381  25.482  27.721  1.00  0.00     0.040 A 
ATOM     73  C   UNL A   1      40.850  26.797  26.337  1.00  0.00     0.040 A 
ATOM     74  F   UNL A   1      41.822  28.757  27.187  1.00  0.00    -0.206 F 
ATOM     75  C   UNL A   1      40.028  25.682  26.502  1.00  0.00     0.006 A 
ENDBRANCH  54  68
BRANCH  55  76
ATOM     76  C   UNL A   1      41.337  34.050  36.095  1.00  0.00     0.057 A 
ATOM     77  C   UNL A   1      40.704  33.857  37.328  1.00  0.00     0.134 A 
ATOM     78  C   UNL A   1      42.124  35.196  35.942  1.00  0.00     0.134 A 
ATOM     79  F   UNL A   1      39.934  32.778  37.533  1.00  0.00    -0.206 F 
ATOM     80  C   UNL A   1      40.833  34.779  38.367  1.00  0.00     0.040 A 
ATOM     81  C   UNL A   1      42.282  36.114  36.981  1.00  0.00     0.040 A 
ATOM     82  F   UNL A   1      42.773  35.421  34.790  1.00  0.00    -0.206 F 
ATOM     83  C   UNL A   1      41.629  35.909  38.195  1.00  0.00     0.006 A 
ENDBRANCH  55  76
BRANCH  67  84
ATOM     84  C   UNL A   1      44.898  28.409  34.172  1.00  0.00     0.057 A 
ATOM     85  C   UNL A   1      44.736  27.376  35.102  1.00  0.00     0.134 A 
ATOM     86  C   UNL A   1      46.205  28.772  33.825  1.00  0.00     0.134 A 
ATOM     87  F   UNL A   1      43.509  26.982  35.477  1.00  0.00    -0.206 F 
ATOM     88  C   UNL A   1      45.834  26.726  35.666  1.00  0.00     0.040 A 
ATOM     89  C   UNL A   1      47.311  28.117  34.367  1.00  0.00     0.040 A 
ATOM     90  F   UNL A   1      46.423  29.744  32.925  1.00  0.00    -0.206 F 
ATOM     91  C   UNL A   1      47.127  27.092  35.293  1.00  0.00     0.006 A 
ENDBRANCH  67  84
ENDBRANCH  41  42
ENDBRANCH  33  36
ENDBRANCH  31  32
ENDBRANCH  30  31
ENDBRANCH  29  30
ENDBRANCH   1  29
TORSDOF 15
ENDMDL
