MODEL 1
REMARK VINA RESULT:     -12.2      0.000      0.000
REMARK SMILES O=C(NCCCCNC(=O)[C@H]1CC[C@H](CN2C(=O)c3cccnc3C2=O)O1)c1ccc(-c2c3nc(c(-c4c(F)cccc4F)c4ccc([nH]4)c(-c4c(F)cccc4F)c4nc(c(-c5c(F)cccc5F)c5ccc2[nH]5)C=C4)C=C3)cc1
REMARK SMILES IDX 5 1 4 2 3 3 1 4 2 5 28 7 29 8 81 9 30 10 80 11 31 12 32 13
REMARK SMILES IDX 33 14 74 15 34 16 79 17 73 18 75 19 35 20 78 21 72 22 71 23
REMARK SMILES IDX 36 25 62 26 45 27 61 28 46 29 49 30 60 31 76 32 47 33 48 34
REMARK SMILES IDX 59 36 77 37 50 38 37 39 38 40 43 41 39 42 40 43 42 44 44 45
REMARK SMILES IDX 41 46 63 47 64 48 69 49 65 50 66 51 68 52 70 53 67 54 51 55
REMARK SMILES IDX 52 56 57 57 53 58 54 59 56 60 58 61 55 62 6 63 7 64 8 65
REMARK SMILES IDX 9 66 10 68 11 69 12 70 27 71 13 72 14 73 15 74 16 75 17 76
REMARK SMILES IDX 25 77 18 78 19 79 24 80 26 81 20 82 23 83 21 84 22 85
REMARK H PARENT 3 6 75 24 49 35 8 67
REMARK Flexibility Score: inf
ROOT
ATOM      1  C   UNL A   1      31.405  32.128  26.501  1.00  0.00     0.023 C 
ENDROOT
BRANCH   1   2
ATOM      2  C   UNL A   1      32.659  32.758  27.097  1.00  0.00     0.116 C 
BRANCH   2   3
ATOM      3  N   UNL A   1      32.417  34.095  27.617  1.00  0.00    -0.352 N 
ATOM      4  O   UNL A   1      32.621  35.820  29.056  1.00  0.00    -0.269 OA
ATOM      5  C   UNL A   1      33.059  34.756  28.634  1.00  0.00     0.251 C 
ATOM      6  H   UNL A   1      31.691  34.595  27.179  1.00  0.00     0.163 HD
BRANCH   5   7
ATOM      7  C   UNL A   1      34.272  34.164  29.233  1.00  0.00     0.039 A 
ATOM      8  C   UNL A   1      35.541  34.500  28.754  1.00  0.00     0.014 A 
ATOM      9  C   UNL A   1      34.130  33.263  30.291  1.00  0.00     0.014 A 
ATOM     10  C   UNL A   1      36.662  33.844  29.248  1.00  0.00     0.010 A 
ATOM     11  C   UNL A   1      35.264  32.664  30.840  1.00  0.00     0.010 A 
ATOM     12  C   UNL A   1      36.536  32.932  30.307  1.00  0.00    -0.014 A 
BRANCH  12  13
ATOM     13  C   UNL A   1      37.742  32.308  30.902  1.00  0.00     0.031 A 
ATOM     14  C   UNL A   1      38.455  31.190  30.199  1.00  0.00     0.074 A 
ATOM     15  C   UNL A   1      38.162  32.727  32.109  1.00  0.00     0.049 A 
ATOM     16  N   UNL A   1      39.457  30.459  30.617  1.00  0.00    -0.248 NA
ATOM     17  C   UNL A   1      37.971  30.840  28.856  1.00  0.00     0.031 C 
ATOM     18  C   UNL A   1      37.543  33.802  32.887  1.00  0.00     0.029 A 
ATOM     19  N   UNL A   1      39.191  32.288  32.902  1.00  0.00    -0.354 N 
ATOM     20  C   UNL A   1      39.709  29.545  29.602  1.00  0.00     0.074 A 
ATOM     21  C   UNL A   1      38.735  29.798  28.559  1.00  0.00     0.031 C 
ATOM     22  C   UNL A   1      38.203  33.939  34.046  1.00  0.00     0.029 A 
ATOM     23  C   UNL A   1      39.245  32.920  34.120  1.00  0.00     0.049 A 
ATOM     24  H   UNL A   1      39.827  31.590  32.626  1.00  0.00     0.167 HD
ATOM     25  C   UNL A   1      40.664  28.586  29.548  1.00  0.00     0.037 A 
ATOM     26  C   UNL A   1      40.014  32.680  35.197  1.00  0.00     0.037 A 
ATOM     27  C   UNL A   1      41.622  28.344  30.598  1.00  0.00     0.049 A 
ATOM     28  C   UNL A   1      41.033  31.580  35.139  1.00  0.00     0.074 A 
ATOM     29  C   UNL A   1      42.660  27.430  30.623  1.00  0.00     0.029 A 
ATOM     30  N   UNL A   1      41.645  29.008  31.817  1.00  0.00    -0.354 N 
ATOM     31  N   UNL A   1      41.294  30.753  34.156  1.00  0.00    -0.248 NA
ATOM     32  C   UNL A   1      41.863  31.381  36.333  1.00  0.00     0.031 C 
ATOM     33  C   UNL A   1      43.266  27.490  31.882  1.00  0.00     0.029 A 
ATOM     34  C   UNL A   1      42.656  28.496  32.616  1.00  0.00     0.049 A 
ATOM     35  H   UNL A   1      41.035  29.735  32.077  1.00  0.00     0.167 HD
ATOM     36  C   UNL A   1      42.337  29.952  34.601  1.00  0.00     0.074 A 
ATOM     37  C   UNL A   1      42.660  30.395  35.942  1.00  0.00     0.031 C 
ATOM     38  C   UNL A   1      42.973  28.948  33.948  1.00  0.00     0.037 A 
BRANCH  25  39
ATOM     39  C   UNL A   1      40.688  27.700  28.335  1.00  0.00     0.057 A 
ATOM     40  C   UNL A   1      39.990  26.485  28.279  1.00  0.00     0.134 A 
ATOM     41  C   UNL A   1      41.421  28.071  27.198  1.00  0.00     0.134 A 
ATOM     42  F   UNL A   1      39.274  26.063  29.332  1.00  0.00    -0.206 F 
ATOM     43  C   UNL A   1      40.057  25.654  27.159  1.00  0.00     0.040 A 
ATOM     44  C   UNL A   1      41.468  27.264  26.060  1.00  0.00     0.040 A 
ATOM     45  F   UNL A   1      42.102  29.227  27.173  1.00  0.00    -0.206 F 
ATOM     46  C   UNL A   1      40.795  26.044  26.044  1.00  0.00     0.006 A 
ENDBRANCH  25  39
BRANCH  26  47
ATOM     47  C   UNL A   1      39.816  33.496  36.419  1.00  0.00     0.057 A 
ATOM     48  C   UNL A   1      40.472  34.719  36.590  1.00  0.00     0.134 A 
ATOM     49  C   UNL A   1      38.914  33.100  37.416  1.00  0.00     0.134 A 
ATOM     50  F   UNL A   1      41.355  35.145  35.675  1.00  0.00    -0.206 F 
ATOM     51  C   UNL A   1      40.241  35.519  37.711  1.00  0.00     0.040 A 
ATOM     52  C   UNL A   1      38.653  33.903  38.527  1.00  0.00     0.040 A 
ATOM     53  F   UNL A   1      38.243  31.944  37.302  1.00  0.00    -0.206 F 
ATOM     54  C   UNL A   1      39.321  35.115  38.678  1.00  0.00     0.006 A 
ENDBRANCH  26  47
BRANCH  38  55
ATOM     55  C   UNL A   1      44.120  28.279  34.650  1.00  0.00     0.057 A 
ATOM     56  C   UNL A   1      45.426  28.778  34.586  1.00  0.00     0.134 A 
ATOM     57  C   UNL A   1      43.891  27.166  35.470  1.00  0.00     0.134 A 
ATOM     58  F   UNL A   1      45.715  29.831  33.808  1.00  0.00    -0.206 F 
ATOM     59  C   UNL A   1      46.466  28.190  35.310  1.00  0.00     0.040 A 
ATOM     60  C   UNL A   1      44.916  26.587  36.218  1.00  0.00     0.040 A 
ATOM     61  F   UNL A   1      42.661  26.640  35.579  1.00  0.00    -0.206 F 
ATOM     62  C   UNL A   1      46.209  27.099  36.139  1.00  0.00     0.006 A 
ENDBRANCH  38  55
ENDBRANCH  12  13
ENDBRANCH   5   7
ENDBRANCH   2   3
ENDBRANCH   1   2
BRANCH   1  63
ATOM     63  C   UNL A   1      31.494  30.620  26.261  1.00  0.00     0.023 C 
BRANCH  63  64
ATOM     64  C   UNL A   1      32.913  30.061  26.311  1.00  0.00     0.116 C 
BRANCH  64  65
ATOM     65  N   UNL A   1      33.288  29.461  25.046  1.00  0.00    -0.354 N 
ATOM     66  C   UNL A   1      33.638  28.175  24.755  1.00  0.00     0.249 C 
ATOM     67  H   UNL A   1      33.290  30.076  24.278  1.00  0.00     0.163 HD
ATOM     68  O   UNL A   1      33.992  27.930  23.600  1.00  0.00    -0.272 OA
BRANCH  66  69
ATOM     69  C   UNL A   1      33.542  27.084  25.835  1.00  0.00     0.207 C 
ATOM     70  C   UNL A   1      32.093  26.664  26.018  1.00  0.00     0.045 C 
ATOM     71  O   UNL A   1      34.281  25.916  25.457  1.00  0.00    -0.363 OA
ATOM     72  C   UNL A   1      31.977  25.473  25.100  1.00  0.00     0.037 C 
ATOM     73  C   UNL A   1      33.361  24.844  25.180  1.00  0.00     0.139 C 
BRANCH  73  74
ATOM     74  C   UNL A   1      33.506  23.791  26.294  1.00  0.00     0.161 C 
BRANCH  74  75
ATOM     75  N   UNL A   1      33.516  22.434  25.786  1.00  0.00    -0.270 N 
ATOM     76  C   UNL A   1      34.648  21.736  25.468  1.00  0.00     0.263 C 
ATOM     77  C   UNL A   1      32.385  21.677  25.620  1.00  0.00     0.280 C 
ATOM     78  O   UNL A   1      35.809  22.088  25.514  1.00  0.00    -0.269 OA
ATOM     79  C   UNL A   1      34.217  20.401  25.078  1.00  0.00     0.071 A 
ATOM     80  C   UNL A   1      32.846  20.356  25.177  1.00  0.00     0.141 A 
ATOM     81  O   UNL A   1      31.230  22.008  25.818  1.00  0.00    -0.267 OA
ATOM     82  C   UNL A   1      34.919  19.274  24.710  1.00  0.00     0.018 A 
ATOM     83  N   UNL A   1      32.076  19.277  24.956  1.00  0.00    -0.250 NA
ATOM     84  C   UNL A   1      34.166  18.123  24.464  1.00  0.00     0.021 A 
ATOM     85  C   UNL A   1      32.771  18.170  24.602  1.00  0.00     0.112 A 
ENDBRANCH  74  75
ENDBRANCH  73  74
ENDBRANCH  66  69
ENDBRANCH  64  65
ENDBRANCH  63  64
ENDBRANCH   1  63
TORSDOF 13
ENDMDL
MODEL 2
REMARK VINA RESULT:     -12.1      1.611      2.509
REMARK SMILES O=C(NCCCCNC(=O)[C@H]1CC[C@H](CN2C(=O)c3cccnc3C2=O)O1)c1ccc(-c2c3nc(c(-c4c(F)cccc4F)c4ccc([nH]4)c(-c4c(F)cccc4F)c4nc(c(-c5c(F)cccc5F)c5ccc2[nH]5)C=C4)C=C3)cc1
REMARK SMILES IDX 5 1 4 2 3 3 1 4 2 5 28 7 29 8 81 9 30 10 80 11 31 12 32 13
REMARK SMILES IDX 33 14 74 15 34 16 79 17 73 18 75 19 35 20 78 21 72 22 71 23
REMARK SMILES IDX 36 25 62 26 45 27 61 28 46 29 49 30 60 31 76 32 47 33 48 34
REMARK SMILES IDX 59 36 77 37 50 38 37 39 38 40 43 41 39 42 40 43 42 44 44 45
REMARK SMILES IDX 41 46 63 47 64 48 69 49 65 50 66 51 68 52 70 53 67 54 51 55
REMARK SMILES IDX 52 56 57 57 53 58 54 59 56 60 58 61 55 62 6 63 7 64 8 65
REMARK SMILES IDX 9 66 10 68 11 69 12 70 27 71 13 72 14 73 15 74 16 75 17 76
REMARK SMILES IDX 25 77 18 78 19 79 24 80 26 81 20 82 23 83 21 84 22 85
REMARK H PARENT 3 6 75 24 49 35 8 67
REMARK Flexibility Score: inf
ROOT
ATOM      1  C   UNL A   1      31.453  31.810  26.661  1.00  0.00     0.023 C 
ENDROOT
BRANCH   1   2
ATOM      2  C   UNL A   1      32.735  32.577  26.967  1.00  0.00     0.116 C 
BRANCH   2   3
ATOM      3  N   UNL A   1      32.475  33.903  27.504  1.00  0.00    -0.352 N 
ATOM      4  O   UNL A   1      32.644  35.608  28.972  1.00  0.00    -0.269 OA
ATOM      5  C   UNL A   1      33.097  34.554  28.540  1.00  0.00     0.251 C 
ATOM      6  H   UNL A   1      31.751  34.404  27.063  1.00  0.00     0.163 HD
BRANCH   5   7
ATOM      7  C   UNL A   1      34.306  33.963  29.147  1.00  0.00     0.039 A 
ATOM      8  C   UNL A   1      35.578  34.420  28.792  1.00  0.00     0.014 A 
ATOM      9  C   UNL A   1      34.157  32.939  30.086  1.00  0.00     0.014 A 
ATOM     10  C   UNL A   1      36.706  33.772  29.282  1.00  0.00     0.010 A 
ATOM     11  C   UNL A   1      35.291  32.343  30.636  1.00  0.00     0.010 A 
ATOM     12  C   UNL A   1      36.574  32.738  30.222  1.00  0.00    -0.014 A 
BRANCH  12  13
ATOM     13  C   UNL A   1      37.778  32.115  30.820  1.00  0.00     0.031 A 
ATOM     14  C   UNL A   1      38.517  31.024  30.102  1.00  0.00     0.074 A 
ATOM     15  C   UNL A   1      38.174  32.510  32.043  1.00  0.00     0.049 A 
ATOM     16  N   UNL A   1      39.522  30.296  30.518  1.00  0.00    -0.248 NA
ATOM     17  C   UNL A   1      38.058  30.701  28.744  1.00  0.00     0.031 C 
ATOM     18  C   UNL A   1      37.529  33.557  32.838  1.00  0.00     0.029 A 
ATOM     19  N   UNL A   1      39.196  32.065  32.842  1.00  0.00    -0.354 N 
ATOM     20  C   UNL A   1      39.801  29.411  29.485  1.00  0.00     0.074 A 
ATOM     21  C   UNL A   1      38.841  29.676  28.434  1.00  0.00     0.031 C 
ATOM     22  C   UNL A   1      38.169  33.675  34.009  1.00  0.00     0.029 A 
ATOM     23  C   UNL A   1      39.223  32.668  34.075  1.00  0.00     0.049 A 
ATOM     24  H   UNL A   1      39.845  31.382  32.559  1.00  0.00     0.167 HD
ATOM     25  C   UNL A   1      40.770  28.466  29.423  1.00  0.00     0.037 A 
ATOM     26  C   UNL A   1      39.979  32.412  35.158  1.00  0.00     0.037 A 
ATOM     27  C   UNL A   1      41.714  28.210  30.482  1.00  0.00     0.049 A 
ATOM     28  C   UNL A   1      41.012  31.327  35.090  1.00  0.00     0.074 A 
ATOM     29  C   UNL A   1      42.764  27.309  30.501  1.00  0.00     0.029 A 
ATOM     30  N   UNL A   1      41.710  28.844  31.717  1.00  0.00    -0.354 N 
ATOM     31  N   UNL A   1      41.300  30.527  34.092  1.00  0.00    -0.248 NA
ATOM     32  C   UNL A   1      41.827  31.109  36.292  1.00  0.00     0.031 C 
ATOM     33  C   UNL A   1      43.349  27.346  31.771  1.00  0.00     0.029 A 
ATOM     34  C   UNL A   1      42.715  28.325  32.519  1.00  0.00     0.049 A 
ATOM     35  H   UNL A   1      41.086  29.557  31.984  1.00  0.00     0.167 HD
ATOM     36  C   UNL A   1      42.346  29.729  34.533  1.00  0.00     0.074 A 
ATOM     37  C   UNL A   1      42.643  30.143  35.890  1.00  0.00     0.031 C 
ATOM     38  C   UNL A   1      43.005  28.749  33.867  1.00  0.00     0.037 A 
BRANCH  25  39
ATOM     39  C   UNL A   1      40.825  27.610  28.189  1.00  0.00     0.057 A 
ATOM     40  C   UNL A   1      41.580  27.966  27.063  1.00  0.00     0.134 A 
ATOM     41  C   UNL A   1      40.112  26.404  28.128  1.00  0.00     0.134 A 
ATOM     42  F   UNL A   1      42.282  29.110  27.048  1.00  0.00    -0.206 F 
ATOM     43  C   UNL A   1      41.587  27.180  25.908  1.00  0.00     0.040 A 
ATOM     44  C   UNL A   1      40.139  25.593  26.992  1.00  0.00     0.040 A 
ATOM     45  F   UNL A   1      39.379  25.992  29.173  1.00  0.00    -0.206 F 
ATOM     46  C   UNL A   1      40.867  25.988  25.872  1.00  0.00     0.006 A 
ENDBRANCH  25  39
BRANCH  26  47
ATOM     47  C   UNL A   1      39.750  33.195  36.397  1.00  0.00     0.057 A 
ATOM     48  C   UNL A   1      38.857  32.757  37.379  1.00  0.00     0.134 A 
ATOM     49  C   UNL A   1      40.471  34.369  36.654  1.00  0.00     0.134 A 
ATOM     50  F   UNL A   1      38.132  31.645  37.184  1.00  0.00    -0.206 F 
ATOM     51  C   UNL A   1      38.684  33.459  38.573  1.00  0.00     0.040 A 
ATOM     52  C   UNL A   1      40.329  35.066  37.855  1.00  0.00     0.040 A 
ATOM     53  F   UNL A   1      41.353  34.833  35.757  1.00  0.00    -0.206 F 
ATOM     54  C   UNL A   1      39.430  34.612  38.817  1.00  0.00     0.006 A 
ENDBRANCH  26  47
BRANCH  38  55
ATOM     55  C   UNL A   1      44.150  28.078  34.570  1.00  0.00     0.057 A 
ATOM     56  C   UNL A   1      43.990  26.881  35.279  1.00  0.00     0.134 A 
ATOM     57  C   UNL A   1      45.446  28.599  34.462  1.00  0.00     0.134 A 
ATOM     58  F   UNL A   1      42.774  26.339  35.434  1.00  0.00    -0.206 F 
ATOM     59  C   UNL A   1      45.081  26.229  35.859  1.00  0.00     0.040 A 
ATOM     60  C   UNL A   1      46.546  27.941  35.013  1.00  0.00     0.040 A 
ATOM     61  F   UNL A   1      45.668  29.741  33.792  1.00  0.00    -0.206 F 
ATOM     62  C   UNL A   1      46.365  26.752  35.715  1.00  0.00     0.006 A 
ENDBRANCH  38  55
ENDBRANCH  12  13
ENDBRANCH   5   7
ENDBRANCH   2   3
ENDBRANCH   1   2
BRANCH   1  63
ATOM     63  C   UNL A   1      31.608  30.289  26.616  1.00  0.00     0.023 C 
BRANCH  63  64
ATOM     64  C   UNL A   1      32.573  29.789  25.543  1.00  0.00     0.116 C 
BRANCH  64  65
ATOM     65  N   UNL A   1      31.918  29.680  24.255  1.00  0.00    -0.354 N 
ATOM     66  C   UNL A   1      31.584  28.574  23.532  1.00  0.00     0.249 C 
ATOM     67  H   UNL A   1      31.677  30.539  23.836  1.00  0.00     0.163 HD
ATOM     68  O   UNL A   1      31.095  28.751  22.413  1.00  0.00    -0.272 OA
BRANCH  66  69
ATOM     69  C   UNL A   1      31.779  27.170  24.130  1.00  0.00     0.207 C 
ATOM     70  C   UNL A   1      30.535  26.761  24.903  1.00  0.00     0.045 C 
ATOM     71  O   UNL A   1      31.984  26.193  23.103  1.00  0.00    -0.363 OA
ATOM     72  C   UNL A   1      29.750  25.986  23.876  1.00  0.00     0.037 C 
ATOM     73  C   UNL A   1      30.837  25.324  23.041  1.00  0.00     0.139 C 
BRANCH  73  74
ATOM     74  C   UNL A   1      31.263  23.936  23.555  1.00  0.00     0.161 C 
BRANCH  74  75
ATOM     75  N   UNL A   1      32.684  23.851  23.829  1.00  0.00    -0.270 N 
ATOM     76  C   UNL A   1      33.244  24.010  25.066  1.00  0.00     0.263 C 
ATOM     77  C   UNL A   1      33.623  23.544  22.878  1.00  0.00     0.280 C 
ATOM     78  O   UNL A   1      32.710  24.267  26.126  1.00  0.00    -0.269 OA
ATOM     79  C   UNL A   1      34.671  23.767  24.910  1.00  0.00     0.071 A 
ATOM     80  C   UNL A   1      34.906  23.475  23.588  1.00  0.00     0.141 A 
ATOM     81  O   UNL A   1      33.445  23.342  21.691  1.00  0.00    -0.267 OA
ATOM     82  C   UNL A   1      35.708  23.742  25.817  1.00  0.00     0.018 A 
ATOM     83  N   UNL A   1      36.093  23.137  23.056  1.00  0.00    -0.250 NA
ATOM     84  C   UNL A   1      36.966  23.399  25.316  1.00  0.00     0.021 A 
ATOM     85  C   UNL A   1      37.107  23.105  23.952  1.00  0.00     0.112 A 
ENDBRANCH  74  75
ENDBRANCH  73  74
ENDBRANCH  66  69
ENDBRANCH  64  65
ENDBRANCH  63  64
ENDBRANCH   1  63
TORSDOF 13
ENDMDL
MODEL 3
REMARK VINA RESULT:     -12.1      1.272      1.636
REMARK SMILES O=C(NCCCCNC(=O)[C@H]1CC[C@H](CN2C(=O)c3cccnc3C2=O)O1)c1ccc(-c2c3nc(c(-c4c(F)cccc4F)c4ccc([nH]4)c(-c4c(F)cccc4F)c4nc(c(-c5c(F)cccc5F)c5ccc2[nH]5)C=C4)C=C3)cc1
REMARK SMILES IDX 5 1 4 2 3 3 1 4 2 5 28 7 29 8 81 9 30 10 80 11 31 12 32 13
REMARK SMILES IDX 33 14 74 15 34 16 79 17 73 18 75 19 35 20 78 21 72 22 71 23
REMARK SMILES IDX 36 25 62 26 45 27 61 28 46 29 49 30 60 31 76 32 47 33 48 34
REMARK SMILES IDX 59 36 77 37 50 38 37 39 38 40 43 41 39 42 40 43 42 44 44 45
REMARK SMILES IDX 41 46 63 47 64 48 69 49 65 50 66 51 68 52 70 53 67 54 51 55
REMARK SMILES IDX 52 56 57 57 53 58 54 59 56 60 58 61 55 62 6 63 7 64 8 65
REMARK SMILES IDX 9 66 10 68 11 69 12 70 27 71 13 72 14 73 15 74 16 75 17 76
REMARK SMILES IDX 25 77 18 78 19 79 24 80 26 81 20 82 23 83 21 84 22 85
REMARK H PARENT 3 6 75 24 49 35 8 67
REMARK Flexibility Score: inf
ROOT
ATOM      1  C   UNL A   1      31.413  32.139  26.476  1.00  0.00     0.023 C 
ENDROOT
BRANCH   1   2
ATOM      2  C   UNL A   1      32.644  32.679  27.195  1.00  0.00     0.116 C 
BRANCH   2   3
ATOM      3  N   UNL A   1      32.464  34.044  27.661  1.00  0.00    -0.352 N 
ATOM      4  O   UNL A   1      32.762  35.821  29.018  1.00  0.00    -0.269 OA
ATOM      5  C   UNL A   1      33.151  34.724  28.634  1.00  0.00     0.251 C 
ATOM      6  H   UNL A   1      31.747  34.552  27.216  1.00  0.00     0.163 HD
BRANCH   5   7
ATOM      7  C   UNL A   1      34.354  34.114  29.234  1.00  0.00     0.039 A 
ATOM      8  C   UNL A   1      35.631  34.469  28.790  1.00  0.00     0.014 A 
ATOM      9  C   UNL A   1      34.196  33.174  30.256  1.00  0.00     0.014 A 
ATOM     10  C   UNL A   1      36.745  33.798  29.281  1.00  0.00     0.010 A 
ATOM     11  C   UNL A   1      35.321  32.559  30.803  1.00  0.00     0.010 A 
ATOM     12  C   UNL A   1      36.602  32.848  30.304  1.00  0.00    -0.014 A 
BRANCH  12  13
ATOM     13  C   UNL A   1      37.799  32.205  30.897  1.00  0.00     0.031 A 
ATOM     14  C   UNL A   1      38.521  31.107  30.174  1.00  0.00     0.074 A 
ATOM     15  C   UNL A   1      38.202  32.590  32.122  1.00  0.00     0.049 A 
ATOM     16  N   UNL A   1      39.516  30.363  30.585  1.00  0.00    -0.248 NA
ATOM     17  C   UNL A   1      38.055  30.796  28.815  1.00  0.00     0.031 C 
ATOM     18  C   UNL A   1      37.574  33.643  32.922  1.00  0.00     0.029 A 
ATOM     19  N   UNL A   1      39.219  32.127  32.916  1.00  0.00    -0.354 N 
ATOM     20  C   UNL A   1      39.780  29.478  29.548  1.00  0.00     0.074 A 
ATOM     21  C   UNL A   1      38.822  29.762  28.499  1.00  0.00     0.031 C 
ATOM     22  C   UNL A   1      38.218  33.746  34.092  1.00  0.00     0.029 A 
ATOM     23  C   UNL A   1      39.257  32.724  34.152  1.00  0.00     0.049 A 
ATOM     24  H   UNL A   1      39.858  31.436  32.630  1.00  0.00     0.167 HD
ATOM     25  C   UNL A   1      40.735  28.519  29.480  1.00  0.00     0.037 A 
ATOM     26  C   UNL A   1      40.011  32.452  35.233  1.00  0.00     0.037 A 
ATOM     27  C   UNL A   1      41.678  28.246  30.536  1.00  0.00     0.049 A 
ATOM     28  C   UNL A   1      41.029  31.353  35.158  1.00  0.00     0.074 A 
ATOM     29  C   UNL A   1      42.715  27.329  30.550  1.00  0.00     0.029 A 
ATOM     30  N   UNL A   1      41.685  28.874  31.774  1.00  0.00    -0.354 N 
ATOM     31  N   UNL A   1      41.303  30.554  34.156  1.00  0.00    -0.248 NA
ATOM     32  C   UNL A   1      41.842  31.119  36.358  1.00  0.00     0.031 C 
ATOM     33  C   UNL A   1      43.303  27.353  31.818  1.00  0.00     0.029 A 
ATOM     34  C   UNL A   1      42.683  28.339  32.572  1.00  0.00     0.049 A 
ATOM     35  H   UNL A   1      41.072  29.595  32.045  1.00  0.00     0.167 HD
ATOM     36  C   UNL A   1      42.339  29.739  34.593  1.00  0.00     0.074 A 
ATOM     37  C   UNL A   1      42.643  30.143  35.951  1.00  0.00     0.031 C 
ATOM     38  C   UNL A   1      42.982  28.753  33.921  1.00  0.00     0.037 A 
BRANCH  25  39
ATOM     39  C   UNL A   1      40.776  27.668  28.243  1.00  0.00     0.057 A 
ATOM     40  C   UNL A   1      40.080  26.455  28.144  1.00  0.00     0.134 A 
ATOM     41  C   UNL A   1      41.522  28.071  27.126  1.00  0.00     0.134 A 
ATOM     42  F   UNL A   1      39.350  26.003  29.176  1.00  0.00    -0.206 F 
ATOM     43  C   UNL A   1      40.161  25.655  27.002  1.00  0.00     0.040 A 
ATOM     44  C   UNL A   1      41.584  27.296  25.967  1.00  0.00     0.040 A 
ATOM     45  F   UNL A   1      42.203  29.228  27.143  1.00  0.00    -0.206 F 
ATOM     46  C   UNL A   1      40.913  26.077  25.908  1.00  0.00     0.006 A 
ENDBRANCH  25  39
BRANCH  26  47
ATOM     47  C   UNL A   1      39.796  33.234  36.475  1.00  0.00     0.057 A 
ATOM     48  C   UNL A   1      40.490  34.423  36.714  1.00  0.00     0.134 A 
ATOM     49  C   UNL A   1      38.841  32.840  37.423  1.00  0.00     0.134 A 
ATOM     50  F   UNL A   1      41.423  34.846  35.848  1.00  0.00    -0.206 F 
ATOM     51  C   UNL A   1      40.247  35.193  37.853  1.00  0.00     0.040 A 
ATOM     52  C   UNL A   1      38.568  33.614  38.551  1.00  0.00     0.040 A 
ATOM     53  F   UNL A   1      38.132  31.716  37.243  1.00  0.00    -0.206 F 
ATOM     54  C   UNL A   1      39.275  34.794  38.770  1.00  0.00     0.006 A 
ENDBRANCH  26  47
BRANCH  38  55
ATOM     55  C   UNL A   1      44.118  28.062  34.620  1.00  0.00     0.057 A 
ATOM     56  C   UNL A   1      45.422  28.570  34.602  1.00  0.00     0.134 A 
ATOM     57  C   UNL A   1      43.879  26.916  35.391  1.00  0.00     0.134 A 
ATOM     58  F   UNL A   1      45.721  29.653  33.872  1.00  0.00    -0.206 F 
ATOM     59  C   UNL A   1      46.451  27.958  35.323  1.00  0.00     0.040 A 
ATOM     60  C   UNL A   1      44.892  26.314  36.137  1.00  0.00     0.040 A 
ATOM     61  F   UNL A   1      42.650  26.382  35.454  1.00  0.00    -0.206 F 
ATOM     62  C   UNL A   1      46.183  26.835  36.104  1.00  0.00     0.006 A 
ENDBRANCH  38  55
ENDBRANCH  12  13
ENDBRANCH   5   7
ENDBRANCH   2   3
ENDBRANCH   1   2
BRANCH   1  63
ATOM     63  C   UNL A   1      31.443  30.637  26.186  1.00  0.00     0.023 C 
BRANCH  63  64
ATOM     64  C   UNL A   1      32.844  30.032  26.160  1.00  0.00     0.116 C 
BRANCH  64  65
ATOM     65  N   UNL A   1      33.274  29.756  24.804  1.00  0.00    -0.354 N 
ATOM     66  C   UNL A   1      32.982  28.703  23.989  1.00  0.00     0.249 C 
ATOM     67  H   UNL A   1      33.870  30.434  24.409  1.00  0.00     0.163 HD
ATOM     68  O   UNL A   1      33.542  28.661  22.891  1.00  0.00    -0.272 OA
BRANCH  66  69
ATOM     69  C   UNL A   1      31.955  27.645  24.429  1.00  0.00     0.207 C 
ATOM     70  C   UNL A   1      30.571  28.032  23.934  1.00  0.00     0.045 C 
ATOM     71  O   UNL A   1      32.265  26.361  23.874  1.00  0.00    -0.363 OA
ATOM     72  C   UNL A   1      30.469  27.284  22.628  1.00  0.00     0.037 C 
ATOM     73  C   UNL A   1      31.267  26.016  22.896  1.00  0.00     0.139 C 
BRANCH  73  74
ATOM     74  C   UNL A   1      30.426  24.856  23.462  1.00  0.00     0.161 C 
BRANCH  74  75
ATOM     75  N   UNL A   1      31.154  24.054  24.425  1.00  0.00    -0.270 N 
ATOM     76  C   UNL A   1      32.100  23.123  24.099  1.00  0.00     0.263 C 
ATOM     77  C   UNL A   1      31.009  24.182  25.783  1.00  0.00     0.280 C 
ATOM     78  O   UNL A   1      32.490  22.772  23.003  1.00  0.00    -0.269 OA
ATOM     79  C   UNL A   1      32.633  22.614  25.354  1.00  0.00     0.071 A 
ATOM     80  C   UNL A   1      31.982  23.258  26.379  1.00  0.00     0.141 A 
ATOM     81  O   UNL A   1      30.254  24.921  26.386  1.00  0.00    -0.267 OA
ATOM     82  C   UNL A   1      33.631  21.706  25.634  1.00  0.00     0.018 A 
ATOM     83  N   UNL A   1      32.232  23.104  27.691  1.00  0.00    -0.250 NA
ATOM     84  C   UNL A   1      33.930  21.504  26.984  1.00  0.00     0.021 A 
ATOM     85  C   UNL A   1      33.219  22.217  27.961  1.00  0.00     0.112 A 
ENDBRANCH  74  75
ENDBRANCH  73  74
ENDBRANCH  66  69
ENDBRANCH  64  65
ENDBRANCH  63  64
ENDBRANCH   1  63
TORSDOF 13
ENDMDL
