MODEL 1
REMARK VINA RESULT:     -11.4      0.000      0.000
REMARK SMILES CCOc1c(CNC(=O)[C@H]2CCCC[C@@H]2C(=O)NCCCCNC(=O)c2ccc(-c3c4nc(c(-c5c(F)cccc5F)c5ccc([nH]5)c(-c5c(F)cccc5F)c5nc(c(-c6c(F)cccc6F)c6ccc3[nH]6)C=C5)C=C4)cc2)cccc1OC
REMARK SMILES IDX 19 1 18 2 16 3 17 4 15 6 10 7 11 8 12 9 14 10 13 11 8 12
REMARK SMILES IDX 7 13 9 15 6 16 5 17 4 18 83 19 80 20 82 21 81 22 3 23 2 24
REMARK SMILES IDX 1 25 84 26 85 27 20 28 21 29 22 30 23 31 24 32 25 34 26 35
REMARK SMILES IDX 27 36 79 37 28 38 78 39 29 40 30 41 31 42 72 43 32 44 77 45
REMARK SMILES IDX 71 46 73 47 33 48 76 49 70 50 69 51 34 53 60 54 43 55 59 56
REMARK SMILES IDX 44 57 47 58 58 59 74 60 45 61 46 62 57 64 75 65 48 66 35 67
REMARK SMILES IDX 36 68 41 69 37 70 38 71 40 72 42 73 39 74 61 75 62 76 67 77
REMARK SMILES IDX 63 78 64 79 66 80 68 81 65 82 49 83 50 84 55 85 51 86 52 87
REMARK SMILES IDX 54 88 56 89 53 90
REMARK H PARENT 18 5 7 14 23 33 73 52 47 63
REMARK Flexibility Score: inf
ROOT
ATOM      1  C   UNL A   1      36.148  23.230  24.612  1.00  0.00     0.116 C 
ENDROOT
BRANCH   1   2
ATOM      2  N   UNL A   1      35.280  23.844  23.642  1.00  0.00    -0.356 N 
ATOM      3  C   UNL A   1      33.939  24.032  23.641  1.00  0.00     0.223 C 
ATOM      4  O   UNL A   1      33.509  24.809  22.777  1.00  0.00    -0.275 OA
ATOM      5  H   UNL A   1      35.741  24.189  22.843  1.00  0.00     0.163 HD
BRANCH   3   6
ATOM      6  C   UNL A   1      32.932  23.284  24.539  1.00  0.00     0.091 C 
ATOM      7  C   UNL A   1      33.053  23.409  26.063  1.00  0.00     0.091 C 
ATOM      8  C   UNL A   1      33.601  22.184  26.835  1.00  0.00     0.014 C 
ATOM      9  C   UNL A   1      33.411  20.815  26.201  1.00  0.00     0.001 C 
ATOM     10  C   UNL A   1      32.689  21.872  24.009  1.00  0.00     0.014 C 
ATOM     11  C   UNL A   1      33.496  20.785  24.690  1.00  0.00     0.001 C 
BRANCH   7  12
ATOM     12  C   UNL A   1      31.807  23.876  26.846  1.00  0.00     0.224 C 
ATOM     13  N   UNL A   1      31.063  24.960  26.492  1.00  0.00    -0.352 N 
ATOM     14  H   UNL A   1      30.148  24.771  26.182  1.00  0.00     0.163 HD
ATOM     15  O   UNL A   1      31.295  23.108  27.669  1.00  0.00    -0.275 OA
BRANCH  13  16
ATOM     16  C   UNL A   1      31.451  26.364  26.513  1.00  0.00     0.155 C 
BRANCH  16  17
ATOM     17  C   UNL A   1      31.182  27.127  25.231  1.00  0.00     0.017 A 
ATOM     18  C   UNL A   1      32.131  28.034  24.693  1.00  0.00     0.166 A 
ATOM     19  C   UNL A   1      32.059  28.386  23.330  1.00  0.00     0.161 A 
ATOM     20  C   UNL A   1      30.076  26.771  24.438  1.00  0.00     0.010 A 
ATOM     21  C   UNL A   1      30.987  27.936  22.551  1.00  0.00     0.050 A 
ATOM     22  C   UNL A   1      29.976  27.169  23.110  1.00  0.00     0.004 A 
BRANCH  18  23
ATOM     23  O   UNL A   1      33.193  28.481  25.441  1.00  0.00    -0.490 OA
BRANCH  23  24
ATOM     24  C   UNL A   1      33.076  29.851  25.864  1.00  0.00     0.226 C 
ATOM     25  C   UNL A   1      32.383  29.948  27.210  1.00  0.00     0.049 C 
ENDBRANCH  23  24
ENDBRANCH  18  23
BRANCH  19  26
ATOM     26  O   UNL A   1      32.991  29.059  22.584  1.00  0.00    -0.493 OA
ATOM     27  C   UNL A   1      34.105  28.323  22.113  1.00  0.00     0.278 C 
ENDBRANCH  19  26
ENDBRANCH  16  17
ENDBRANCH  13  16
ENDBRANCH   7  12
ENDBRANCH   3   6
ENDBRANCH   1   2
BRANCH   1  28
ATOM     28  C   UNL A   1      37.046  22.140  24.037  1.00  0.00     0.023 C 
BRANCH  28  29
ATOM     29  C   UNL A   1      37.376  20.989  24.973  1.00  0.00     0.023 C 
BRANCH  29  30
ATOM     30  C   UNL A   1      38.703  21.095  25.702  1.00  0.00     0.116 C 
BRANCH  30  31
ATOM     31  N   UNL A   1      39.549  19.912  25.602  1.00  0.00    -0.352 N 
ATOM     32  C   UNL A   1      40.868  19.795  25.986  1.00  0.00     0.251 C 
ATOM     33  H   UNL A   1      39.134  19.108  25.215  1.00  0.00     0.163 HD
ATOM     34  O   UNL A   1      41.494  18.755  25.817  1.00  0.00    -0.269 OA
BRANCH  32  35
ATOM     35  C   UNL A   1      41.524  20.986  26.556  1.00  0.00     0.039 A 
ATOM     36  C   UNL A   1      42.088  21.923  25.689  1.00  0.00     0.014 A 
ATOM     37  C   UNL A   1      41.418  21.244  27.925  1.00  0.00     0.014 A 
ATOM     38  C   UNL A   1      42.459  23.172  26.187  1.00  0.00     0.010 A 
ATOM     39  C   UNL A   1      41.698  22.519  28.396  1.00  0.00     0.010 A 
ATOM     40  C   UNL A   1      42.215  23.497  27.531  1.00  0.00    -0.014 A 
BRANCH  40  41
ATOM     41  C   UNL A   1      42.498  24.852  28.067  1.00  0.00     0.031 A 
ATOM     42  C   UNL A   1      43.893  25.194  28.509  1.00  0.00     0.074 A 
ATOM     43  C   UNL A   1      41.497  25.739  28.231  1.00  0.00     0.049 A 
ATOM     44  N   UNL A   1      44.331  26.268  29.112  1.00  0.00    -0.248 NA
ATOM     45  C   UNL A   1      44.927  24.171  28.277  1.00  0.00     0.031 C 
ATOM     46  C   UNL A   1      40.089  25.509  27.896  1.00  0.00     0.029 A 
ATOM     47  N   UNL A   1      41.511  27.016  28.736  1.00  0.00    -0.354 N 
ATOM     48  C   UNL A   1      45.679  26.040  29.351  1.00  0.00     0.074 A 
ATOM     49  C   UNL A   1      45.974  24.702  28.887  1.00  0.00     0.031 C 
ATOM     50  C   UNL A   1      39.383  26.617  28.176  1.00  0.00     0.029 A 
ATOM     51  C   UNL A   1      40.278  27.621  28.742  1.00  0.00     0.049 A 
ATOM     52  H   UNL A   1      42.329  27.455  29.063  1.00  0.00     0.167 HD
ATOM     53  C   UNL A   1      46.600  26.880  29.879  1.00  0.00     0.037 A 
ATOM     54  C   UNL A   1      39.914  28.848  29.158  1.00  0.00     0.037 A 
ATOM     55  C   UNL A   1      46.317  28.225  30.299  1.00  0.00     0.049 A 
ATOM     56  C   UNL A   1      40.960  29.773  29.719  1.00  0.00     0.074 A 
ATOM     57  C   UNL A   1      47.188  29.172  30.806  1.00  0.00     0.029 A 
ATOM     58  N   UNL A   1      45.064  28.816  30.244  1.00  0.00    -0.354 N 
ATOM     59  N   UNL A   1      42.242  29.560  29.896  1.00  0.00    -0.248 NA
ATOM     60  C   UNL A   1      40.511  31.109  30.133  1.00  0.00     0.031 C 
ATOM     61  C   UNL A   1      46.457  30.334  31.075  1.00  0.00     0.029 A 
ATOM     62  C   UNL A   1      45.138  30.117  30.707  1.00  0.00     0.049 A 
ATOM     63  H   UNL A   1      44.244  28.376  29.924  1.00  0.00     0.167 HD
ATOM     64  C   UNL A   1      42.756  30.742  30.411  1.00  0.00     0.074 A 
ATOM     65  C   UNL A   1      41.650  31.672  30.510  1.00  0.00     0.031 C 
ATOM     66  C   UNL A   1      44.029  31.032  30.774  1.00  0.00     0.037 A 
BRANCH  53  67
ATOM     67  C   UNL A   1      48.003  26.365  30.003  1.00  0.00     0.057 A 
ATOM     68  C   UNL A   1      48.920  26.479  28.950  1.00  0.00     0.134 A 
ATOM     69  C   UNL A   1      48.444  25.757  31.185  1.00  0.00     0.134 A 
ATOM     70  F   UNL A   1      48.552  27.035  27.785  1.00  0.00    -0.206 F 
ATOM     71  C   UNL A   1      50.219  25.982  29.057  1.00  0.00     0.040 A 
ATOM     72  C   UNL A   1      49.749  25.280  31.312  1.00  0.00     0.040 A 
ATOM     73  F   UNL A   1      47.616  25.618  32.230  1.00  0.00    -0.206 F 
ATOM     74  C   UNL A   1      50.639  25.385  30.244  1.00  0.00     0.006 A 
ENDBRANCH  53  67
BRANCH  54  75
ATOM     75  C   UNL A   1      38.505  29.298  29.033  1.00  0.00     0.057 A 
ATOM     76  C   UNL A   1      37.643  29.273  30.136  1.00  0.00     0.134 A 
ATOM     77  C   UNL A   1      37.978  29.737  27.813  1.00  0.00     0.134 A 
ATOM     78  F   UNL A   1      38.086  28.845  31.327  1.00  0.00    -0.206 F 
ATOM     79  C   UNL A   1      36.301  29.644  30.026  1.00  0.00     0.040 A 
ATOM     80  C   UNL A   1      36.644  30.130  27.693  1.00  0.00     0.040 A 
ATOM     81  F   UNL A   1      38.753  29.790  26.721  1.00  0.00    -0.206 F 
ATOM     82  C   UNL A   1      35.799  30.076  28.802  1.00  0.00     0.006 A 
ENDBRANCH  54  75
BRANCH  66  83
ATOM     83  C   UNL A   1      44.301  32.421  31.264  1.00  0.00     0.057 A 
ATOM     84  C   UNL A   1      44.240  32.748  32.624  1.00  0.00     0.134 A 
ATOM     85  C   UNL A   1      44.672  33.431  30.368  1.00  0.00     0.134 A 
ATOM     86  F   UNL A   1      43.877  31.826  33.528  1.00  0.00    -0.206 F 
ATOM     87  C   UNL A   1      44.522  34.038  33.074  1.00  0.00     0.040 A 
ATOM     88  C   UNL A   1      44.977  34.719  30.808  1.00  0.00     0.040 A 
ATOM     89  F   UNL A   1      44.754  33.178  29.053  1.00  0.00    -0.206 F 
ATOM     90  C   UNL A   1      44.898  35.025  32.165  1.00  0.00     0.006 A 
ENDBRANCH  66  83
ENDBRANCH  40  41
ENDBRANCH  32  35
ENDBRANCH  30  31
ENDBRANCH  29  30
ENDBRANCH  28  29
ENDBRANCH   1  28
TORSDOF 17
ENDMDL
MODEL 2
REMARK VINA RESULT:     -11.4      1.997      2.822
REMARK SMILES CCOc1c(CNC(=O)[C@H]2CCCC[C@@H]2C(=O)NCCCCNC(=O)c2ccc(-c3c4nc(c(-c5c(F)cccc5F)c5ccc([nH]5)c(-c5c(F)cccc5F)c5nc(c(-c6c(F)cccc6F)c6ccc3[nH]6)C=C5)C=C4)cc2)cccc1OC
REMARK SMILES IDX 19 1 18 2 16 3 17 4 15 6 10 7 11 8 12 9 14 10 13 11 8 12
REMARK SMILES IDX 7 13 9 15 6 16 5 17 4 18 83 19 80 20 82 21 81 22 3 23 2 24
REMARK SMILES IDX 1 25 84 26 85 27 20 28 21 29 22 30 23 31 24 32 25 34 26 35
REMARK SMILES IDX 27 36 79 37 28 38 78 39 29 40 30 41 31 42 72 43 32 44 77 45
REMARK SMILES IDX 71 46 73 47 33 48 76 49 70 50 69 51 34 53 60 54 43 55 59 56
REMARK SMILES IDX 44 57 47 58 58 59 74 60 45 61 46 62 57 64 75 65 48 66 35 67
REMARK SMILES IDX 36 68 41 69 37 70 38 71 40 72 42 73 39 74 61 75 62 76 67 77
REMARK SMILES IDX 63 78 64 79 66 80 68 81 65 82 49 83 50 84 55 85 51 86 52 87
REMARK SMILES IDX 54 88 56 89 53 90
REMARK H PARENT 18 5 7 14 23 33 73 52 47 63
REMARK Flexibility Score: inf
ROOT
ATOM      1  C   UNL A   1      36.145  21.533  25.652  1.00  0.00     0.116 C 
ENDROOT
BRANCH   1   2
ATOM      2  N   UNL A   1      35.090  20.634  25.265  1.00  0.00    -0.356 N 
ATOM      3  C   UNL A   1      33.918  20.861  24.626  1.00  0.00     0.223 C 
ATOM      4  O   UNL A   1      33.328  19.851  24.217  1.00  0.00    -0.275 OA
ATOM      5  H   UNL A   1      35.248  19.692  25.505  1.00  0.00     0.163 HD
BRANCH   3   6
ATOM      6  C   UNL A   1      33.235  22.236  24.474  1.00  0.00     0.091 C 
ATOM      7  C   UNL A   1      33.904  23.312  23.611  1.00  0.00     0.091 C 
ATOM      8  C   UNL A   1      34.577  24.497  24.348  1.00  0.00     0.014 C 
ATOM      9  C   UNL A   1      34.047  24.855  25.727  1.00  0.00     0.001 C 
ATOM     10  C   UNL A   1      32.689  22.712  25.819  1.00  0.00     0.014 C 
ATOM     11  C   UNL A   1      33.582  23.683  26.565  1.00  0.00     0.001 C 
BRANCH   7  12
ATOM     12  C   UNL A   1      33.071  23.943  22.476  1.00  0.00     0.224 C 
ATOM     13  N   UNL A   1      32.210  24.981  22.666  1.00  0.00    -0.352 N 
ATOM     14  H   UNL A   1      32.463  25.832  22.241  1.00  0.00     0.163 HD
ATOM     15  O   UNL A   1      33.370  23.690  21.303  1.00  0.00    -0.275 OA
BRANCH  13  16
ATOM     16  C   UNL A   1      30.964  24.991  23.420  1.00  0.00     0.155 C 
BRANCH  16  17
ATOM     17  C   UNL A   1      30.236  26.320  23.448  1.00  0.00     0.017 A 
ATOM     18  C   UNL A   1      30.749  27.462  22.781  1.00  0.00     0.166 A 
ATOM     19  C   UNL A   1      29.881  28.524  22.456  1.00  0.00     0.161 A 
ATOM     20  C   UNL A   1      28.923  26.375  23.950  1.00  0.00     0.010 A 
ATOM     21  C   UNL A   1      28.554  28.498  22.900  1.00  0.00     0.050 A 
ATOM     22  C   UNL A   1      28.086  27.451  23.680  1.00  0.00     0.004 A 
BRANCH  18  23
ATOM     23  O   UNL A   1      32.047  27.502  22.333  1.00  0.00    -0.490 OA
BRANCH  23  24
ATOM     24  C   UNL A   1      32.831  28.562  22.906  1.00  0.00     0.226 C 
ATOM     25  C   UNL A   1      33.417  28.144  24.243  1.00  0.00     0.049 C 
ENDBRANCH  23  24
ENDBRANCH  18  23
BRANCH  19  26
ATOM     26  O   UNL A   1      30.130  29.595  21.637  1.00  0.00    -0.493 OA
ATOM     27  C   UNL A   1      29.168  30.634  21.613  1.00  0.00     0.278 C 
ENDBRANCH  19  26
ENDBRANCH  16  17
ENDBRANCH  13  16
ENDBRANCH   7  12
ENDBRANCH   3   6
ENDBRANCH   1   2
BRANCH   1  28
ATOM     28  C   UNL A   1      37.412  21.399  24.814  1.00  0.00     0.023 C 
BRANCH  28  29
ATOM     29  C   UNL A   1      38.208  20.120  25.014  1.00  0.00     0.023 C 
BRANCH  29  30
ATOM     30  C   UNL A   1      39.503  20.266  25.790  1.00  0.00     0.116 C 
BRANCH  30  31
ATOM     31  N   UNL A   1      40.345  19.076  25.801  1.00  0.00    -0.352 N 
ATOM     32  C   UNL A   1      41.685  19.004  26.117  1.00  0.00     0.251 C 
ATOM     33  H   UNL A   1      39.908  18.229  25.556  1.00  0.00     0.163 HD
ATOM     34  O   UNL A   1      42.301  17.946  26.055  1.00  0.00    -0.269 OA
BRANCH  32  35
ATOM     35  C   UNL A   1      42.372  20.258  26.477  1.00  0.00     0.039 A 
ATOM     36  C   UNL A   1      42.996  20.996  25.470  1.00  0.00     0.014 A 
ATOM     37  C   UNL A   1      42.239  20.772  27.769  1.00  0.00     0.014 A 
ATOM     38  C   UNL A   1      43.403  22.302  25.738  1.00  0.00     0.010 A 
ATOM     39  C   UNL A   1      42.557  22.102  28.003  1.00  0.00     0.010 A 
ATOM     40  C   UNL A   1      43.136  22.883  26.989  1.00  0.00    -0.014 A 
BRANCH  40  41
ATOM     41  C   UNL A   1      43.457  24.303  27.271  1.00  0.00     0.031 A 
ATOM     42  C   UNL A   1      44.879  24.776  27.150  1.00  0.00     0.074 A 
ATOM     43  C   UNL A   1      42.498  25.142  27.711  1.00  0.00     0.049 A 
ATOM     44  N   UNL A   1      45.396  25.935  27.463  1.00  0.00    -0.248 NA
ATOM     45  C   UNL A   1      45.858  23.797  26.647  1.00  0.00     0.031 C 
ATOM     46  C   UNL A   1      41.092  24.792  27.927  1.00  0.00     0.029 A 
ATOM     47  N   UNL A   1      42.567  26.465  28.068  1.00  0.00    -0.354 N 
ATOM     48  C   UNL A   1      46.757  25.816  27.217  1.00  0.00     0.074 A 
ATOM     49  C   UNL A   1      46.997  24.456  26.792  1.00  0.00     0.031 C 
ATOM     50  C   UNL A   1      40.428  25.879  28.349  1.00  0.00     0.029 A 
ATOM     51  C   UNL A   1      41.363  26.993  28.468  1.00  0.00     0.049 A 
ATOM     52  H   UNL A   1      43.401  26.987  28.040  1.00  0.00     0.167 HD
ATOM     53  C   UNL A   1      47.719  26.764  27.305  1.00  0.00     0.037 A 
ATOM     54  C   UNL A   1      41.053  28.235  28.884  1.00  0.00     0.037 A 
ATOM     55  C   UNL A   1      47.475  28.128  27.685  1.00  0.00     0.049 A 
ATOM     56  C   UNL A   1      42.136  29.277  28.950  1.00  0.00     0.074 A 
ATOM     57  C   UNL A   1      48.374  29.177  27.763  1.00  0.00     0.029 A 
ATOM     58  N   UNL A   1      46.233  28.634  28.037  1.00  0.00    -0.354 N 
ATOM     59  N   UNL A   1      43.412  29.163  28.670  1.00  0.00    -0.248 NA
ATOM     60  C   UNL A   1      41.736  30.623  29.386  1.00  0.00     0.031 C 
ATOM     61  C   UNL A   1      47.677  30.316  28.180  1.00  0.00     0.029 A 
ATOM     62  C   UNL A   1      46.340  29.981  28.332  1.00  0.00     0.049 A 
ATOM     63  H   UNL A   1      45.399  28.112  28.072  1.00  0.00     0.167 HD
ATOM     64  C   UNL A   1      43.959  30.424  28.864  1.00  0.00     0.074 A 
ATOM     65  C   UNL A   1      42.875  31.291  29.277  1.00  0.00     0.031 C 
ATOM     66  C   UNL A   1      45.243  30.829  28.718  1.00  0.00     0.037 A 
BRANCH  53  67
ATOM     67  C   UNL A   1      49.119  26.352  26.958  1.00  0.00     0.057 A 
ATOM     68  C   UNL A   1      49.612  26.468  25.652  1.00  0.00     0.134 A 
ATOM     69  C   UNL A   1      49.982  25.841  27.934  1.00  0.00     0.134 A 
ATOM     70  F   UNL A   1      48.828  26.932  24.667  1.00  0.00    -0.206 F 
ATOM     71  C   UNL A   1      50.907  26.065  25.323  1.00  0.00     0.040 A 
ATOM     72  C   UNL A   1      51.287  25.459  27.622  1.00  0.00     0.040 A 
ATOM     73  F   UNL A   1      49.571  25.705  29.204  1.00  0.00    -0.206 F 
ATOM     74  C   UNL A   1      51.751  25.564  26.312  1.00  0.00     0.006 A 
ENDBRANCH  53  67
BRANCH  54  75
ATOM     75  C   UNL A   1      39.654  28.583  29.238  1.00  0.00     0.057 A 
ATOM     76  C   UNL A   1      39.171  28.379  30.537  1.00  0.00     0.134 A 
ATOM     77  C   UNL A   1      38.762  29.099  28.293  1.00  0.00     0.134 A 
ATOM     78  F   UNL A   1      39.975  27.869  31.482  1.00  0.00    -0.206 F 
ATOM     79  C   UNL A   1      37.845  28.652  30.877  1.00  0.00     0.040 A 
ATOM     80  C   UNL A   1      37.438  29.397  28.623  1.00  0.00     0.040 A 
ATOM     81  F   UNL A   1      39.165  29.324  27.034  1.00  0.00    -0.206 F 
ATOM     82  C   UNL A   1      36.975  29.164  29.918  1.00  0.00     0.006 A 
ENDBRANCH  54  75
BRANCH  66  83
ATOM     83  C   UNL A   1      45.536  32.278  28.959  1.00  0.00     0.057 A 
ATOM     84  C   UNL A   1      45.432  33.231  27.939  1.00  0.00     0.134 A 
ATOM     85  C   UNL A   1      45.881  32.730  30.239  1.00  0.00     0.134 A 
ATOM     86  F   UNL A   1      45.118  32.857  26.690  1.00  0.00    -0.206 F 
ATOM     87  C   UNL A   1      45.680  34.583  28.180  1.00  0.00     0.040 A 
ATOM     88  C   UNL A   1      46.109  34.081  30.497  1.00  0.00     0.040 A 
ATOM     89  F   UNL A   1      45.989  31.865  31.260  1.00  0.00    -0.206 F 
ATOM     90  C   UNL A   1      46.013  35.011  29.464  1.00  0.00     0.006 A 
ENDBRANCH  66  83
ENDBRANCH  40  41
ENDBRANCH  32  35
ENDBRANCH  30  31
ENDBRANCH  29  30
ENDBRANCH  28  29
ENDBRANCH   1  28
TORSDOF 17
ENDMDL
MODEL 3
REMARK VINA RESULT:     -11.3      2.635      4.119
REMARK SMILES CCOc1c(CNC(=O)[C@H]2CCCC[C@@H]2C(=O)NCCCCNC(=O)c2ccc(-c3c4nc(c(-c5c(F)cccc5F)c5ccc([nH]5)c(-c5c(F)cccc5F)c5nc(c(-c6c(F)cccc6F)c6ccc3[nH]6)C=C5)C=C4)cc2)cccc1OC
REMARK SMILES IDX 19 1 18 2 16 3 17 4 15 6 10 7 11 8 12 9 14 10 13 11 8 12
REMARK SMILES IDX 7 13 9 15 6 16 5 17 4 18 83 19 80 20 82 21 81 22 3 23 2 24
REMARK SMILES IDX 1 25 84 26 85 27 20 28 21 29 22 30 23 31 24 32 25 34 26 35
REMARK SMILES IDX 27 36 79 37 28 38 78 39 29 40 30 41 31 42 72 43 32 44 77 45
REMARK SMILES IDX 71 46 73 47 33 48 76 49 70 50 69 51 34 53 60 54 43 55 59 56
REMARK SMILES IDX 44 57 47 58 58 59 74 60 45 61 46 62 57 64 75 65 48 66 35 67
REMARK SMILES IDX 36 68 41 69 37 70 38 71 40 72 42 73 39 74 61 75 62 76 67 77
REMARK SMILES IDX 63 78 64 79 66 80 68 81 65 82 49 83 50 84 55 85 51 86 52 87
REMARK SMILES IDX 54 88 56 89 53 90
REMARK H PARENT 18 5 7 14 23 33 73 52 47 63
REMARK Flexibility Score: inf
ROOT
ATOM      1  C   UNL A   1      34.673  20.704  25.436  1.00  0.00     0.116 C 
ENDROOT
BRANCH   1   2
ATOM      2  N   UNL A   1      33.539  20.648  24.551  1.00  0.00    -0.356 N 
ATOM      3  C   UNL A   1      32.861  21.629  23.911  1.00  0.00     0.223 C 
ATOM      4  O   UNL A   1      32.081  21.249  23.026  1.00  0.00    -0.275 OA
ATOM      5  H   UNL A   1      33.200  19.739  24.381  1.00  0.00     0.163 HD
BRANCH   3   6
ATOM      6  C   UNL A   1      32.908  23.128  24.271  1.00  0.00     0.091 C 
ATOM      7  C   UNL A   1      31.662  23.794  24.867  1.00  0.00     0.091 C 
ATOM      8  C   UNL A   1      30.855  24.745  23.948  1.00  0.00     0.014 C 
ATOM      9  C   UNL A   1      31.606  25.424  22.814  1.00  0.00     0.001 C 
ATOM     10  C   UNL A   1      33.619  23.919  23.173  1.00  0.00     0.014 C 
ATOM     11  C   UNL A   1      32.700  24.595  22.175  1.00  0.00     0.001 C 
BRANCH   7  12
ATOM     12  C   UNL A   1      31.818  24.539  26.209  1.00  0.00     0.224 C 
ATOM     13  N   UNL A   1      32.152  25.857  26.300  1.00  0.00    -0.352 N 
ATOM     14  H   UNL A   1      31.454  26.454  26.652  1.00  0.00     0.163 HD
ATOM     15  O   UNL A   1      31.377  24.016  27.239  1.00  0.00    -0.275 OA
BRANCH  13  16
ATOM     16  C   UNL A   1      33.413  26.492  25.939  1.00  0.00     0.155 C 
BRANCH  16  17
ATOM     17  C   UNL A   1      33.452  27.997  26.119  1.00  0.00     0.017 A 
ATOM     18  C   UNL A   1      32.355  28.817  25.750  1.00  0.00     0.166 A 
ATOM     19  C   UNL A   1      32.234  30.106  26.308  1.00  0.00     0.161 A 
ATOM     20  C   UNL A   1      34.494  28.573  26.867  1.00  0.00     0.010 A 
ATOM     21  C   UNL A   1      33.255  30.610  27.122  1.00  0.00     0.050 A 
ATOM     22  C   UNL A   1      34.401  29.867  27.366  1.00  0.00     0.004 A 
BRANCH  18  23
ATOM     23  O   UNL A   1      31.341  28.338  24.958  1.00  0.00    -0.490 OA
BRANCH  23  24
ATOM     24  C   UNL A   1      31.262  28.964  23.666  1.00  0.00     0.226 C 
ATOM     25  C   UNL A   1      29.877  28.802  23.066  1.00  0.00     0.049 C 
ENDBRANCH  23  24
ENDBRANCH  18  23
BRANCH  19  26
ATOM     26  O   UNL A   1      31.156  30.951  26.251  1.00  0.00    -0.493 OA
ATOM     27  C   UNL A   1      31.392  32.325  26.498  1.00  0.00     0.278 C 
ENDBRANCH  19  26
ENDBRANCH  16  17
ENDBRANCH  13  16
ENDBRANCH   7  12
ENDBRANCH   3   6
ENDBRANCH   1   2
BRANCH   1  28
ATOM     28  C   UNL A   1      35.823  21.559  24.915  1.00  0.00     0.023 C 
BRANCH  28  29
ATOM     29  C   UNL A   1      36.230  22.731  25.792  1.00  0.00     0.023 C 
BRANCH  29  30
ATOM     30  C   UNL A   1      37.484  23.469  25.363  1.00  0.00     0.116 C 
BRANCH  30  31
ATOM     31  N   UNL A   1      38.728  22.748  25.603  1.00  0.00    -0.352 N 
ATOM     32  C   UNL A   1      39.807  23.171  26.349  1.00  0.00     0.251 C 
ATOM     33  H   UNL A   1      38.807  21.860  25.185  1.00  0.00     0.163 HD
ATOM     34  O   UNL A   1      40.822  22.490  26.450  1.00  0.00    -0.269 OA
BRANCH  32  35
ATOM     35  C   UNL A   1      39.727  24.503  26.977  1.00  0.00     0.039 A 
ATOM     36  C   UNL A   1      39.119  24.621  28.228  1.00  0.00     0.014 A 
ATOM     37  C   UNL A   1      40.407  25.579  26.402  1.00  0.00     0.014 A 
ATOM     38  C   UNL A   1      39.280  25.802  28.952  1.00  0.00     0.010 A 
ATOM     39  C   UNL A   1      40.644  26.713  27.165  1.00  0.00     0.010 A 
ATOM     40  C   UNL A   1      40.089  26.834  28.449  1.00  0.00    -0.014 A 
BRANCH  40  41
ATOM     41  C   UNL A   1      40.368  28.057  29.241  1.00  0.00     0.031 A 
ATOM     42  C   UNL A   1      41.660  28.164  30.003  1.00  0.00     0.074 A 
ATOM     43  C   UNL A   1      39.438  29.028  29.341  1.00  0.00     0.049 A 
ATOM     44  N   UNL A   1      42.049  29.085  30.846  1.00  0.00    -0.248 NA
ATOM     45  C   UNL A   1      42.624  27.066  29.823  1.00  0.00     0.031 C 
ATOM     46  C   UNL A   1      38.122  29.018  28.697  1.00  0.00     0.029 A 
ATOM     47  N   UNL A   1      39.456  30.211  30.035  1.00  0.00    -0.354 N 
ATOM     48  C   UNL A   1      43.288  28.665  31.311  1.00  0.00     0.074 A 
ATOM     49  C   UNL A   1      43.557  27.378  30.709  1.00  0.00     0.031 C 
ATOM     50  C   UNL A   1      37.474  30.153  29.002  1.00  0.00     0.029 A 
ATOM     51  C   UNL A   1      38.310  30.955  29.890  1.00  0.00     0.049 A 
ATOM     52  H   UNL A   1      40.219  30.500  30.586  1.00  0.00     0.167 HD
ATOM     53  C   UNL A   1      44.143  29.307  32.141  1.00  0.00     0.037 A 
ATOM     54  C   UNL A   1      37.975  32.148  30.415  1.00  0.00     0.037 A 
ATOM     55  C   UNL A   1      43.896  30.605  32.705  1.00  0.00     0.049 A 
ATOM     56  C   UNL A   1      38.952  32.853  31.316  1.00  0.00     0.074 A 
ATOM     57  C   UNL A   1      44.717  31.362  33.523  1.00  0.00     0.029 A 
ATOM     58  N   UNL A   1      42.743  31.346  32.495  1.00  0.00    -0.354 N 
ATOM     59  N   UNL A   1      40.141  32.465  31.710  1.00  0.00    -0.248 NA
ATOM     60  C   UNL A   1      38.544  34.164  31.840  1.00  0.00     0.031 C 
ATOM     61  C   UNL A   1      44.051  32.555  33.822  1.00  0.00     0.029 A 
ATOM     62  C   UNL A   1      42.830  32.552  33.166  1.00  0.00     0.049 A 
ATOM     63  H   UNL A   1      41.977  31.055  31.950  1.00  0.00     0.167 HD
ATOM     64  C   UNL A   1      40.634  33.494  32.501  1.00  0.00     0.074 A 
ATOM     65  C   UNL A   1      39.620  34.528  32.523  1.00  0.00     0.031 C 
ATOM     66  C   UNL A   1      41.818  33.576  33.154  1.00  0.00     0.037 A 
BRANCH  53  67
ATOM     67  C   UNL A   1      45.434  28.615  32.461  1.00  0.00     0.057 A 
ATOM     68  C   UNL A   1      46.574  28.789  31.666  1.00  0.00     0.134 A 
ATOM     69  C   UNL A   1      45.542  27.773  33.574  1.00  0.00     0.134 A 
ATOM     70  F   UNL A   1      46.529  29.569  30.574  1.00  0.00    -0.206 F 
ATOM     71  C   UNL A   1      47.770  28.130  31.950  1.00  0.00     0.040 A 
ATOM     72  C   UNL A   1      46.741  27.128  33.884  1.00  0.00     0.040 A 
ATOM     73  F   UNL A   1      44.488  27.564  34.377  1.00  0.00    -0.206 F 
ATOM     74  C   UNL A   1      47.857  27.300  33.067  1.00  0.00     0.006 A 
ENDBRANCH  53  67
BRANCH  54  75
ATOM     75  C   UNL A   1      36.672  32.777  30.083  1.00  0.00     0.057 A 
ATOM     76  C   UNL A   1      36.528  33.566  28.935  1.00  0.00     0.134 A 
ATOM     77  C   UNL A   1      35.552  32.631  30.909  1.00  0.00     0.134 A 
ATOM     78  F   UNL A   1      37.571  33.757  28.114  1.00  0.00    -0.206 F 
ATOM     79  C   UNL A   1      35.326  34.207  28.633  1.00  0.00     0.040 A 
ATOM     80  C   UNL A   1      34.337  33.250  30.609  1.00  0.00     0.040 A 
ATOM     81  F   UNL A   1      35.623  31.883  32.020  1.00  0.00    -0.206 F 
ATOM     82  C   UNL A   1      34.225  34.048  29.471  1.00  0.00     0.006 A 
ENDBRANCH  54  75
BRANCH  66  83
ATOM     83  C   UNL A   1      42.100  34.841  33.905  1.00  0.00     0.057 A 
ATOM     84  C   UNL A   1      41.782  34.979  35.261  1.00  0.00     0.134 A 
ATOM     85  C   UNL A   1      42.737  35.915  33.273  1.00  0.00     0.134 A 
ATOM     86  F   UNL A   1      41.158  33.989  35.917  1.00  0.00    -0.206 F 
ATOM     87  C   UNL A   1      42.073  36.151  35.959  1.00  0.00     0.040 A 
ATOM     88  C   UNL A   1      43.053  37.084  33.966  1.00  0.00     0.040 A 
ATOM     89  F   UNL A   1      43.073  35.840  31.976  1.00  0.00    -0.206 F 
ATOM     90  C   UNL A   1      42.717  37.205  35.312  1.00  0.00     0.006 A 
ENDBRANCH  66  83
ENDBRANCH  40  41
ENDBRANCH  32  35
ENDBRANCH  30  31
ENDBRANCH  29  30
ENDBRANCH  28  29
ENDBRANCH   1  28
TORSDOF 17
ENDMDL
