MODEL 1
REMARK VINA RESULT:     -12.3      0.000      0.000
REMARK SMILES C[C@](Nc1ccc(C(N)=O)nn1)(C(=O)NCCCCNC(=O)c1ccc(-c2c3nc(c(-c4c(F)cccc4F)c4ccc([nH]4)c(-c4c(F)cccc4F)c4nc(c(-c5c(F)cccc5F)c5ccc2[nH]5)C=C4)C=C3)cc1)c1ccccc1
REMARK SMILES IDX 17 1 16 2 15 3 13 4 14 5 2 7 1 8 77 9 78 10 82 11 79 12
REMARK SMILES IDX 81 13 80 14 3 15 4 17 5 18 12 19 6 20 11 21 7 22 8 23 9 24
REMARK SMILES IDX 10 25 18 28 19 29 20 30 21 31 22 33 23 34 24 35 76 36 25 37
REMARK SMILES IDX 75 38 26 39 27 40 28 41 69 42 29 43 74 44 68 45 70 46 30 47
REMARK SMILES IDX 73 48 67 49 66 50 31 52 57 53 40 54 56 55 41 56 44 57 55 58
REMARK SMILES IDX 71 59 42 60 43 61 54 63 72 64 45 65 32 66 33 67 38 68 34 69
REMARK SMILES IDX 35 70 37 71 39 72 36 73 58 74 59 75 64 76 60 77 61 78 63 79
REMARK SMILES IDX 65 80 62 81 46 82 47 83 52 84 48 85 49 86 51 87 53 88 50 89
REMARK H PARENT 15 6 3 16 9 26 9 27 20 32 70 51 44 62
REMARK Flexibility Score: inf
ROOT
ATOM      1  C   UNL A   1      37.511  21.710  24.490  1.00  0.00     0.023 C 
ENDROOT
BRANCH   1   2
ATOM      2  C   UNL A   1      35.991  21.829  24.453  1.00  0.00     0.116 C 
BRANCH   2   3
ATOM      3  N   UNL A   1      35.401  21.691  25.773  1.00  0.00    -0.354 N 
ATOM      4  C   UNL A   1      34.093  21.681  26.183  1.00  0.00     0.250 C 
ATOM      5  O   UNL A   1      33.916  21.495  27.392  1.00  0.00    -0.272 OA
ATOM      6  H   UNL A   1      36.056  21.587  26.500  1.00  0.00     0.163 HD
BRANCH   4   7
ATOM      7  C   UNL A   1      32.906  21.884  25.148  1.00  0.00     0.140 C 
ATOM      8  C   UNL A   1      31.608  21.992  25.990  1.00  0.00     0.051 C 
BRANCH   7   9
ATOM      9  C   UNL A   1      33.163  23.167  24.327  1.00  0.00    -0.013 A 
ATOM     10  C   UNL A   1      33.443  24.391  24.967  1.00  0.00     0.007 A 
ATOM     11  C   UNL A   1      33.051  23.184  22.923  1.00  0.00     0.007 A 
ATOM     12  C   UNL A   1      33.628  25.567  24.235  1.00  0.00     0.000 A 
ATOM     13  C   UNL A   1      33.244  24.358  22.190  1.00  0.00     0.000 A 
ATOM     14  C   UNL A   1      33.534  25.549  22.846  1.00  0.00     0.000 A 
ENDBRANCH   7   9
BRANCH   7  15
ATOM     15  N   UNL A   1      32.909  20.711  24.237  1.00  0.00    -0.351 N 
ATOM     16  H   UNL A   1      32.758  20.895  23.282  1.00  0.00     0.163 HD
BRANCH  15  17
ATOM     17  C   UNL A   1      33.099  19.402  24.588  1.00  0.00     0.149 A 
ATOM     18  C   UNL A   1      34.227  18.670  24.258  1.00  0.00     0.051 A 
ATOM     19  N   UNL A   1      32.076  18.806  25.245  1.00  0.00    -0.132 NA
ATOM     20  C   UNL A   1      34.265  17.304  24.532  1.00  0.00     0.040 A 
ATOM     21  N   UNL A   1      32.091  17.458  25.510  1.00  0.00    -0.143 NA
ATOM     22  C   UNL A   1      33.166  16.729  25.140  1.00  0.00     0.150 A 
BRANCH  22  23
ATOM     23  C   UNL A   1      33.102  15.261  25.382  1.00  0.00     0.269 C 
ATOM     24  N   UNL A   1      31.853  14.724  25.547  1.00  0.00    -0.364 N 
ATOM     25  O   UNL A   1      34.110  14.563  25.415  1.00  0.00    -0.268 OA
ATOM     26  H   UNL A   1      31.060  15.304  25.516  1.00  0.00     0.160 HD
ATOM     27  H   UNL A   1      31.750  13.756  25.695  1.00  0.00     0.160 HD
ENDBRANCH  22  23
ENDBRANCH  15  17
ENDBRANCH   7  15
ENDBRANCH   4   7
ENDBRANCH   2   3
ENDBRANCH   1   2
BRANCH   1  28
ATOM     28  C   UNL A   1      38.024  20.329  24.890  1.00  0.00     0.023 C 
BRANCH  28  29
ATOM     29  C   UNL A   1      38.993  20.318  26.067  1.00  0.00     0.116 C 
BRANCH  29  30
ATOM     30  N   UNL A   1      40.080  19.365  25.900  1.00  0.00    -0.352 N 
ATOM     31  C   UNL A   1      41.432  19.561  26.050  1.00  0.00     0.251 C 
ATOM     32  H   UNL A   1      39.809  18.453  25.644  1.00  0.00     0.163 HD
ATOM     33  O   UNL A   1      42.226  18.682  25.732  1.00  0.00    -0.269 OA
BRANCH  31  34
ATOM     34  C   UNL A   1      41.924  20.855  26.565  1.00  0.00     0.039 A 
ATOM     35  C   UNL A   1      42.338  21.829  25.654  1.00  0.00     0.014 A 
ATOM     36  C   UNL A   1      41.941  21.117  27.938  1.00  0.00     0.014 A 
ATOM     37  C   UNL A   1      42.702  23.094  26.119  1.00  0.00     0.010 A 
ATOM     38  C   UNL A   1      42.223  22.400  28.390  1.00  0.00     0.010 A 
ATOM     39  C   UNL A   1      42.605  23.403  27.486  1.00  0.00    -0.014 A 
BRANCH  39  40
ATOM     40  C   UNL A   1      42.889  24.772  27.986  1.00  0.00     0.031 A 
ATOM     41  C   UNL A   1      44.292  25.172  28.347  1.00  0.00     0.074 A 
ATOM     42  C   UNL A   1      41.871  25.634  28.179  1.00  0.00     0.049 A 
ATOM     43  N   UNL A   1      44.726  26.299  28.850  1.00  0.00    -0.248 NA
ATOM     44  C   UNL A   1      45.344  24.165  28.136  1.00  0.00     0.031 C 
ATOM     45  C   UNL A   1      40.460  25.352  27.912  1.00  0.00     0.029 A 
ATOM     46  N   UNL A   1      41.867  26.924  28.649  1.00  0.00    -0.354 N 
ATOM     47  C   UNL A   1      46.092  26.129  29.035  1.00  0.00     0.074 A 
ATOM     48  C   UNL A   1      46.409  24.776  28.636  1.00  0.00     0.031 C 
ATOM     49  C   UNL A   1      39.733  26.445  28.188  1.00  0.00     0.029 A 
ATOM     50  C   UNL A   1      40.617  27.491  28.695  1.00  0.00     0.049 A 
ATOM     51  H   UNL A   1      42.684  27.398  28.928  1.00  0.00     0.167 HD
ATOM     52  C   UNL A   1      47.003  27.028  29.477  1.00  0.00     0.037 A 
ATOM     53  C   UNL A   1      40.225  28.712  29.102  1.00  0.00     0.037 A 
ATOM     54  C   UNL A   1      46.690  28.383  29.848  1.00  0.00     0.049 A 
ATOM     55  C   UNL A   1      41.256  29.688  29.598  1.00  0.00     0.074 A 
ATOM     56  C   UNL A   1      47.554  29.390  30.240  1.00  0.00     0.029 A 
ATOM     57  N   UNL A   1      45.411  28.920  29.881  1.00  0.00    -0.354 N 
ATOM     58  N   UNL A   1      42.554  29.537  29.701  1.00  0.00    -0.248 NA
ATOM     59  C   UNL A   1      40.767  31.004  30.031  1.00  0.00     0.031 C 
ATOM     60  C   UNL A   1      46.794  30.516  30.566  1.00  0.00     0.029 A 
ATOM     61  C   UNL A   1      45.462  30.234  30.316  1.00  0.00     0.049 A 
ATOM     62  H   UNL A   1      44.589  28.438  29.631  1.00  0.00     0.167 HD
ATOM     63  C   UNL A   1      43.040  30.747  30.181  1.00  0.00     0.074 A 
ATOM     64  C   UNL A   1      41.898  31.624  30.336  1.00  0.00     0.031 C 
ATOM     65  C   UNL A   1      44.319  31.099  30.464  1.00  0.00     0.037 A 
BRANCH  52  66
ATOM     66  C   UNL A   1      48.431  26.575  29.591  1.00  0.00     0.057 A 
ATOM     67  C   UNL A   1      49.360  26.782  28.562  1.00  0.00     0.134 A 
ATOM     68  C   UNL A   1      48.894  25.968  30.766  1.00  0.00     0.134 A 
ATOM     69  F   UNL A   1      48.980  27.347  27.406  1.00  0.00    -0.206 F 
ATOM     70  C   UNL A   1      50.691  26.381  28.689  1.00  0.00     0.040 A 
ATOM     71  C   UNL A   1      50.229  25.590  30.915  1.00  0.00     0.040 A 
ATOM     72  F   UNL A   1      48.059  25.745  31.792  1.00  0.00    -0.206 F 
ATOM     73  C   UNL A   1      51.130  25.791  29.873  1.00  0.00     0.006 A 
ENDBRANCH  52  66
BRANCH  53  74
ATOM     74  C   UNL A   1      38.792  29.094  29.027  1.00  0.00     0.057 A 
ATOM     75  C   UNL A   1      37.958  28.985  30.145  1.00  0.00     0.134 A 
ATOM     76  C   UNL A   1      38.223  29.580  27.843  1.00  0.00     0.134 A 
ATOM     77  F   UNL A   1      38.441  28.508  31.302  1.00  0.00    -0.206 F 
ATOM     78  C   UNL A   1      36.607  29.330  30.088  1.00  0.00     0.040 A 
ATOM     79  C   UNL A   1      36.879  29.954  27.778  1.00  0.00     0.040 A 
ATOM     80  F   UNL A   1      38.969  29.716  26.738  1.00  0.00    -0.206 F 
ATOM     81  C   UNL A   1      36.066  29.823  28.903  1.00  0.00     0.006 A 
ENDBRANCH  53  74
BRANCH  65  82
ATOM     82  C   UNL A   1      44.561  32.504  30.934  1.00  0.00     0.057 A 
ATOM     83  C   UNL A   1      44.574  32.841  32.294  1.00  0.00     0.134 A 
ATOM     84  C   UNL A   1      44.827  33.526  30.013  1.00  0.00     0.134 A 
ATOM     85  F   UNL A   1      44.315  31.913  33.227  1.00  0.00    -0.206 F 
ATOM     86  C   UNL A   1      44.823  34.148  32.718  1.00  0.00     0.040 A 
ATOM     87  C   UNL A   1      45.107  34.829  30.427  1.00  0.00     0.040 A 
ATOM     88  F   UNL A   1      44.840  33.271  28.696  1.00  0.00    -0.206 F 
ATOM     89  C   UNL A   1      45.098  35.144  31.783  1.00  0.00     0.006 A 
ENDBRANCH  65  82
ENDBRANCH  39  40
ENDBRANCH  31  34
ENDBRANCH  29  30
ENDBRANCH  28  29
ENDBRANCH   1  28
TORSDOF 15
ENDMDL
MODEL 2
REMARK VINA RESULT:     -12.2      1.353      6.274
REMARK SMILES C[C@](Nc1ccc(C(N)=O)nn1)(C(=O)NCCCCNC(=O)c1ccc(-c2c3nc(c(-c4c(F)cccc4F)c4ccc([nH]4)c(-c4c(F)cccc4F)c4nc(c(-c5c(F)cccc5F)c5ccc2[nH]5)C=C4)C=C3)cc1)c1ccccc1
REMARK SMILES IDX 17 1 16 2 15 3 13 4 14 5 2 7 1 8 77 9 78 10 82 11 79 12
REMARK SMILES IDX 81 13 80 14 3 15 4 17 5 18 12 19 6 20 11 21 7 22 8 23 9 24
REMARK SMILES IDX 10 25 18 28 19 29 20 30 21 31 22 33 23 34 24 35 76 36 25 37
REMARK SMILES IDX 75 38 26 39 27 40 28 41 69 42 29 43 74 44 68 45 70 46 30 47
REMARK SMILES IDX 73 48 67 49 66 50 31 52 57 53 40 54 56 55 41 56 44 57 55 58
REMARK SMILES IDX 71 59 42 60 43 61 54 63 72 64 45 65 32 66 33 67 38 68 34 69
REMARK SMILES IDX 35 70 37 71 39 72 36 73 58 74 59 75 64 76 60 77 61 78 63 79
REMARK SMILES IDX 65 80 62 81 46 82 47 83 52 84 48 85 49 86 51 87 53 88 50 89
REMARK H PARENT 15 6 3 16 9 26 9 27 20 32 70 51 44 62
REMARK Flexibility Score: inf
ROOT
ATOM      1  C   UNL A   1      37.585  21.570  24.419  1.00  0.00     0.023 C 
ENDROOT
BRANCH   1   2
ATOM      2  C   UNL A   1      36.089  21.861  24.470  1.00  0.00     0.116 C 
BRANCH   2   3
ATOM      3  N   UNL A   1      35.548  21.701  25.808  1.00  0.00    -0.354 N 
ATOM      4  C   UNL A   1      34.256  21.704  26.269  1.00  0.00     0.250 C 
ATOM      5  O   UNL A   1      34.122  21.490  27.478  1.00  0.00    -0.272 OA
ATOM      6  H   UNL A   1      36.228  21.565  26.507  1.00  0.00     0.163 HD
BRANCH   4   7
ATOM      7  C   UNL A   1      33.035  21.955  25.286  1.00  0.00     0.140 C 
ATOM      8  C   UNL A   1      31.773  22.070  26.181  1.00  0.00     0.051 C 
BRANCH   7   9
ATOM      9  C   UNL A   1      33.287  23.253  24.485  1.00  0.00    -0.013 A 
ATOM     10  C   UNL A   1      33.605  24.458  25.143  1.00  0.00     0.007 A 
ATOM     11  C   UNL A   1      33.132  23.303  23.086  1.00  0.00     0.007 A 
ATOM     12  C   UNL A   1      33.787  25.646  24.432  1.00  0.00     0.000 A 
ATOM     13  C   UNL A   1      33.321  24.489  22.374  1.00  0.00     0.000 A 
ATOM     14  C   UNL A   1      33.650  25.661  23.046  1.00  0.00     0.000 A 
ENDBRANCH   7   9
BRANCH   7  15
ATOM     15  N   UNL A   1      32.977  20.805  24.349  1.00  0.00    -0.351 N 
ATOM     16  H   UNL A   1      32.796  21.015  23.404  1.00  0.00     0.163 HD
BRANCH  15  17
ATOM     17  C   UNL A   1      33.149  19.484  24.662  1.00  0.00     0.149 A 
ATOM     18  C   UNL A   1      34.231  18.727  24.247  1.00  0.00     0.051 A 
ATOM     19  N   UNL A   1      32.152  18.904  25.371  1.00  0.00    -0.132 NA
ATOM     20  C   UNL A   1      34.246  17.355  24.493  1.00  0.00     0.040 A 
ATOM     21  N   UNL A   1      32.142  17.552  25.609  1.00  0.00    -0.143 NA
ATOM     22  C   UNL A   1      33.171  16.799  25.158  1.00  0.00     0.150 A 
BRANCH  22  23
ATOM     23  C   UNL A   1      33.077  15.330  25.376  1.00  0.00     0.269 C 
ATOM     24  N   UNL A   1      31.820  14.818  25.557  1.00  0.00    -0.364 N 
ATOM     25  O   UNL A   1      34.069  14.609  25.376  1.00  0.00    -0.268 OA
ATOM     26  H   UNL A   1      31.039  15.417  25.552  1.00  0.00     0.160 HD
ATOM     27  H   UNL A   1      31.698  13.850  25.690  1.00  0.00     0.160 HD
ENDBRANCH  22  23
ENDBRANCH  15  17
ENDBRANCH   7  15
ENDBRANCH   4   7
ENDBRANCH   2   3
ENDBRANCH   1   2
BRANCH   1  28
ATOM     28  C   UNL A   1      37.984  20.218  25.004  1.00  0.00     0.023 C 
BRANCH  28  29
ATOM     29  C   UNL A   1      39.049  20.275  26.092  1.00  0.00     0.116 C 
BRANCH  29  30
ATOM     30  N   UNL A   1      40.024  19.199  25.991  1.00  0.00    -0.352 N 
ATOM     31  C   UNL A   1      41.394  19.265  26.063  1.00  0.00     0.251 C 
ATOM     32  H   UNL A   1      39.649  18.299  25.851  1.00  0.00     0.163 HD
ATOM     33  O   UNL A   1      42.078  18.277  25.816  1.00  0.00    -0.269 OA
BRANCH  31  34
ATOM     34  C   UNL A   1      42.042  20.546  26.407  1.00  0.00     0.039 A 
ATOM     35  C   UNL A   1      42.440  21.399  25.376  1.00  0.00     0.014 A 
ATOM     36  C   UNL A   1      42.219  20.920  27.743  1.00  0.00     0.014 A 
ATOM     37  C   UNL A   1      42.952  22.660  25.685  1.00  0.00     0.010 A 
ATOM     38  C   UNL A   1      42.651  22.206  28.046  1.00  0.00     0.010 A 
ATOM     39  C   UNL A   1      43.021  23.090  27.021  1.00  0.00    -0.014 A 
BRANCH  39  40
ATOM     40  C   UNL A   1      43.466  24.465  27.364  1.00  0.00     0.031 A 
ATOM     41  C   UNL A   1      42.468  25.498  27.805  1.00  0.00     0.074 A 
ATOM     42  C   UNL A   1      44.763  24.800  27.214  1.00  0.00     0.049 A 
ATOM     43  N   UNL A   1      42.658  26.761  28.092  1.00  0.00    -0.248 NA
ATOM     44  C   UNL A   1      41.066  25.062  27.915  1.00  0.00     0.031 C 
ATOM     45  C   UNL A   1      45.822  23.903  26.751  1.00  0.00     0.029 A 
ATOM     46  N   UNL A   1      45.411  25.990  27.434  1.00  0.00    -0.354 N 
ATOM     47  C   UNL A   1      41.403  27.272  28.395  1.00  0.00     0.074 A 
ATOM     48  C   UNL A   1      40.452  26.198  28.211  1.00  0.00     0.031 C 
ATOM     49  C   UNL A   1      46.991  24.563  26.754  1.00  0.00     0.029 A 
ATOM     50  C   UNL A   1      46.759  25.941  27.175  1.00  0.00     0.049 A 
ATOM     51  H   UNL A   1      44.952  26.803  27.747  1.00  0.00     0.167 HD
ATOM     52  C   UNL A   1      41.076  28.518  28.810  1.00  0.00     0.037 A 
ATOM     53  C   UNL A   1      47.702  26.897  27.263  1.00  0.00     0.037 A 
ATOM     54  C   UNL A   1      42.028  29.578  29.020  1.00  0.00     0.049 A 
ATOM     55  C   UNL A   1      47.310  28.276  27.718  1.00  0.00     0.074 A 
ATOM     56  C   UNL A   1      41.803  30.853  29.508  1.00  0.00     0.029 A 
ATOM     57  N   UNL A   1      43.386  29.488  28.747  1.00  0.00    -0.354 N 
ATOM     58  N   UNL A   1      46.131  28.727  28.069  1.00  0.00    -0.248 NA
ATOM     59  C   UNL A   1      48.383  29.278  27.791  1.00  0.00     0.031 C 
ATOM     60  C   UNL A   1      43.012  31.553  29.474  1.00  0.00     0.029 A 
ATOM     61  C   UNL A   1      44.003  30.696  29.027  1.00  0.00     0.049 A 
ATOM     62  H   UNL A   1      43.842  28.685  28.404  1.00  0.00     0.167 HD
ATOM     63  C   UNL A   1      46.323  30.053  28.433  1.00  0.00     0.074 A 
ATOM     64  C   UNL A   1      47.736  30.330  28.273  1.00  0.00     0.031 C 
ATOM     65  C   UNL A   1      45.411  30.959  28.865  1.00  0.00     0.037 A 
BRANCH  52  66
ATOM     66  C   UNL A   1      39.625  28.811  29.064  1.00  0.00     0.057 A 
ATOM     67  C   UNL A   1      39.045  28.654  30.330  1.00  0.00     0.134 A 
ATOM     68  C   UNL A   1      38.809  29.305  28.037  1.00  0.00     0.134 A 
ATOM     69  F   UNL A   1      39.767  28.174  31.354  1.00  0.00    -0.206 F 
ATOM     70  C   UNL A   1      37.702  28.954  30.560  1.00  0.00     0.040 A 
ATOM     71  C   UNL A   1      37.471  29.636  28.263  1.00  0.00     0.040 A 
ATOM     72  F   UNL A   1      39.301  29.484  26.802  1.00  0.00    -0.206 F 
ATOM     73  C   UNL A   1      36.914  29.456  29.526  1.00  0.00     0.006 A 
ENDBRANCH  52  66
BRANCH  53  74
ATOM     74  C   UNL A   1      49.116  26.575  26.945  1.00  0.00     0.057 A 
ATOM     75  C   UNL A   1      49.620  26.745  25.650  1.00  0.00     0.134 A 
ATOM     76  C   UNL A   1      49.998  26.097  27.922  1.00  0.00     0.134 A 
ATOM     77  F   UNL A   1      48.818  27.182  24.667  1.00  0.00    -0.206 F 
ATOM     78  C   UNL A   1      50.943  26.437  25.332  1.00  0.00     0.040 A 
ATOM     79  C   UNL A   1      51.332  25.810  27.624  1.00  0.00     0.040 A 
ATOM     80  F   UNL A   1      49.581  25.919  29.183  1.00  0.00    -0.206 F 
ATOM     81  C   UNL A   1      51.805  25.975  26.324  1.00  0.00     0.006 A 
ENDBRANCH  53  74
BRANCH  65  82
ATOM     82  C   UNL A   1      45.915  32.325  29.234  1.00  0.00     0.057 A 
ATOM     83  C   UNL A   1      46.482  32.595  30.486  1.00  0.00     0.134 A 
ATOM     84  C   UNL A   1      45.870  33.374  28.305  1.00  0.00     0.134 A 
ATOM     85  F   UNL A   1      46.544  31.640  31.425  1.00  0.00    -0.206 F 
ATOM     86  C   UNL A   1      46.966  33.865  30.807  1.00  0.00     0.040 A 
ATOM     87  C   UNL A   1      46.379  34.637  28.605  1.00  0.00     0.040 A 
ATOM     88  F   UNL A   1      45.349  33.181  27.084  1.00  0.00    -0.206 F 
ATOM     89  C   UNL A   1      46.923  34.887  29.862  1.00  0.00     0.006 A 
ENDBRANCH  65  82
ENDBRANCH  39  40
ENDBRANCH  31  34
ENDBRANCH  29  30
ENDBRANCH  28  29
ENDBRANCH   1  28
TORSDOF 15
ENDMDL
MODEL 3
REMARK VINA RESULT:     -12.2      0.411      6.270
REMARK SMILES C[C@](Nc1ccc(C(N)=O)nn1)(C(=O)NCCCCNC(=O)c1ccc(-c2c3nc(c(-c4c(F)cccc4F)c4ccc([nH]4)c(-c4c(F)cccc4F)c4nc(c(-c5c(F)cccc5F)c5ccc2[nH]5)C=C4)C=C3)cc1)c1ccccc1
REMARK SMILES IDX 17 1 16 2 15 3 13 4 14 5 2 7 1 8 77 9 78 10 82 11 79 12
REMARK SMILES IDX 81 13 80 14 3 15 4 17 5 18 12 19 6 20 11 21 7 22 8 23 9 24
REMARK SMILES IDX 10 25 18 28 19 29 20 30 21 31 22 33 23 34 24 35 76 36 25 37
REMARK SMILES IDX 75 38 26 39 27 40 28 41 69 42 29 43 74 44 68 45 70 46 30 47
REMARK SMILES IDX 73 48 67 49 66 50 31 52 57 53 40 54 56 55 41 56 44 57 55 58
REMARK SMILES IDX 71 59 42 60 43 61 54 63 72 64 45 65 32 66 33 67 38 68 34 69
REMARK SMILES IDX 35 70 37 71 39 72 36 73 58 74 59 75 64 76 60 77 61 78 63 79
REMARK SMILES IDX 65 80 62 81 46 82 47 83 52 84 48 85 49 86 51 87 53 88 50 89
REMARK H PARENT 15 6 3 16 9 26 9 27 20 32 70 51 44 62
REMARK Flexibility Score: inf
ROOT
ATOM      1  C   UNL A   1      36.957  21.300  24.239  1.00  0.00     0.023 C 
ENDROOT
BRANCH   1   2
ATOM      2  C   UNL A   1      36.301  22.455  24.988  1.00  0.00     0.116 C 
BRANCH   2   3
ATOM      3  N   UNL A   1      35.700  22.022  26.237  1.00  0.00    -0.354 N 
ATOM      4  C   UNL A   1      34.390  21.809  26.585  1.00  0.00     0.250 C 
ATOM      5  O   UNL A   1      34.207  21.389  27.732  1.00  0.00    -0.272 OA
ATOM      6  H   UNL A   1      36.345  21.850  26.960  1.00  0.00     0.163 HD
BRANCH   4   7
ATOM      7  C   UNL A   1      33.213  22.080  25.555  1.00  0.00     0.140 C 
ATOM      8  C   UNL A   1      31.906  22.118  26.389  1.00  0.00     0.051 C 
BRANCH   7   9
ATOM      9  C   UNL A   1      33.469  23.423  24.834  1.00  0.00    -0.013 A 
ATOM     10  C   UNL A   1      33.614  24.619  25.565  1.00  0.00     0.007 A 
ATOM     11  C   UNL A   1      33.487  23.519  23.429  1.00  0.00     0.007 A 
ATOM     12  C   UNL A   1      33.797  25.845  24.920  1.00  0.00     0.000 A 
ATOM     13  C   UNL A   1      33.678  24.743  22.784  1.00  0.00     0.000 A 
ATOM     14  C   UNL A   1      33.834  25.906  23.530  1.00  0.00     0.000 A 
ENDBRANCH   7   9
BRANCH   7  15
ATOM     15  N   UNL A   1      33.233  20.979  24.559  1.00  0.00    -0.351 N 
ATOM     16  H   UNL A   1      33.156  21.239  23.613  1.00  0.00     0.163 HD
BRANCH  15  17
ATOM     17  C   UNL A   1      33.347  19.640  24.821  1.00  0.00     0.149 A 
ATOM     18  C   UNL A   1      34.421  18.864  24.420  1.00  0.00     0.051 A 
ATOM     19  N   UNL A   1      32.301  19.066  25.461  1.00  0.00    -0.132 NA
ATOM     20  C   UNL A   1      34.379  17.483  24.605  1.00  0.00     0.040 A 
ATOM     21  N   UNL A   1      32.236  17.706  25.639  1.00  0.00    -0.143 NA
ATOM     22  C   UNL A   1      33.257  16.938  25.200  1.00  0.00     0.150 A 
BRANCH  22  23
ATOM     23  C   UNL A   1      33.105  15.465  25.348  1.00  0.00     0.269 C 
ATOM     24  N   UNL A   1      31.830  14.997  25.522  1.00  0.00    -0.364 N 
ATOM     25  O   UNL A   1      34.066  14.704  25.300  1.00  0.00    -0.268 OA
ATOM     26  H   UNL A   1      31.075  15.626  25.557  1.00  0.00     0.160 HD
ATOM     27  H   UNL A   1      31.669  14.029  25.611  1.00  0.00     0.160 HD
ENDBRANCH  22  23
ENDBRANCH  15  17
ENDBRANCH   7  15
ENDBRANCH   4   7
ENDBRANCH   2   3
ENDBRANCH   1   2
BRANCH   1  28
ATOM     28  C   UNL A   1      37.624  20.262  25.139  1.00  0.00     0.023 C 
BRANCH  28  29
ATOM     29  C   UNL A   1      38.958  20.691  25.737  1.00  0.00     0.116 C 
BRANCH  29  30
ATOM     30  N   UNL A   1      39.950  19.625  25.737  1.00  0.00    -0.352 N 
ATOM     31  C   UNL A   1      41.284  19.687  26.058  1.00  0.00     0.251 C 
ATOM     32  H   UNL A   1      39.619  18.737  25.469  1.00  0.00     0.163 HD
ATOM     33  O   UNL A   1      42.015  18.720  25.868  1.00  0.00    -0.269 OA
BRANCH  31  34
ATOM     34  C   UNL A   1      41.842  20.941  26.602  1.00  0.00     0.039 A 
ATOM     35  C   UNL A   1      42.314  21.910  25.715  1.00  0.00     0.014 A 
ATOM     36  C   UNL A   1      41.864  21.173  27.981  1.00  0.00     0.014 A 
ATOM     37  C   UNL A   1      42.742  23.144  26.208  1.00  0.00     0.010 A 
ATOM     38  C   UNL A   1      42.212  22.430  28.461  1.00  0.00     0.010 A 
ATOM     39  C   UNL A   1      42.653  23.430  27.580  1.00  0.00    -0.014 A 
BRANCH  39  40
ATOM     40  C   UNL A   1      43.007  24.771  28.111  1.00  0.00     0.031 A 
ATOM     41  C   UNL A   1      41.937  25.799  28.351  1.00  0.00     0.074 A 
ATOM     42  C   UNL A   1      44.302  25.085  28.316  1.00  0.00     0.049 A 
ATOM     43  N   UNL A   1      42.057  27.037  28.756  1.00  0.00    -0.248 NA
ATOM     44  C   UNL A   1      40.550  25.389  28.075  1.00  0.00     0.031 C 
ATOM     45  C   UNL A   1      45.438  24.192  28.079  1.00  0.00     0.029 A 
ATOM     46  N   UNL A   1      44.881  26.244  28.767  1.00  0.00    -0.354 N 
ATOM     47  C   UNL A   1      40.770  27.558  28.764  1.00  0.00     0.074 A 
ATOM     48  C   UNL A   1      39.888  26.519  28.278  1.00  0.00     0.031 C 
ATOM     49  C   UNL A   1      46.572  24.824  28.419  1.00  0.00     0.029 A 
ATOM     50  C   UNL A   1      46.251  26.179  28.855  1.00  0.00     0.049 A 
ATOM     51  H   UNL A   1      44.364  27.047  29.005  1.00  0.00     0.167 HD
ATOM     52  C   UNL A   1      40.357  28.785  29.162  1.00  0.00     0.037 A 
ATOM     53  C   UNL A   1      47.147  27.107  29.238  1.00  0.00     0.037 A 
ATOM     54  C   UNL A   1      41.233  29.808  29.671  1.00  0.00     0.049 A 
ATOM     55  C   UNL A   1      46.663  28.464  29.666  1.00  0.00     0.074 A 
ATOM     56  C   UNL A   1      40.901  31.056  30.167  1.00  0.00     0.029 A 
ATOM     57  N   UNL A   1      42.614  29.703  29.745  1.00  0.00    -0.354 N 
ATOM     58  N   UNL A   1      45.436  28.921  29.735  1.00  0.00    -0.248 NA
ATOM     59  C   UNL A   1      47.689  29.435  30.071  1.00  0.00     0.031 C 
ATOM     60  C   UNL A   1      42.084  31.729  30.484  1.00  0.00     0.029 A 
ATOM     61  C   UNL A   1      43.150  30.877  30.248  1.00  0.00     0.049 A 
ATOM     62  H   UNL A   1      43.136  28.912  29.479  1.00  0.00     0.167 HD
ATOM     63  C   UNL A   1      45.540  30.218  30.220  1.00  0.00     0.074 A 
ATOM     64  C   UNL A   1      46.949  30.471  30.440  1.00  0.00     0.031 C 
ATOM     65  C   UNL A   1      44.554  31.117  30.464  1.00  0.00     0.037 A 
BRANCH  52  66
ATOM     66  C   UNL A   1      38.891  29.095  29.059  1.00  0.00     0.057 A 
ATOM     67  C   UNL A   1      38.034  29.013  30.164  1.00  0.00     0.134 A 
ATOM     68  C   UNL A   1      38.340  29.530  27.846  1.00  0.00     0.134 A 
ATOM     69  F   UNL A   1      38.495  28.592  31.352  1.00  0.00    -0.206 F 
ATOM     70  C   UNL A   1      36.679  29.330  30.063  1.00  0.00     0.040 A 
ATOM     71  C   UNL A   1      36.992  29.878  27.740  1.00  0.00     0.040 A 
ATOM     72  F   UNL A   1      39.104  29.637  26.749  1.00  0.00    -0.206 F 
ATOM     73  C   UNL A   1      36.157  29.772  28.849  1.00  0.00     0.006 A 
ENDBRANCH  52  66
BRANCH  53  74
ATOM     74  C   UNL A   1      48.594  26.772  29.268  1.00  0.00     0.057 A 
ATOM     75  C   UNL A   1      49.413  27.022  28.161  1.00  0.00     0.134 A 
ATOM     76  C   UNL A   1      49.192  26.201  30.397  1.00  0.00     0.134 A 
ATOM     77  F   UNL A   1      48.893  27.551  27.043  1.00  0.00    -0.206 F 
ATOM     78  C   UNL A   1      50.772  26.704  28.169  1.00  0.00     0.040 A 
ATOM     79  C   UNL A   1      50.555  25.901  30.429  1.00  0.00     0.040 A 
ATOM     80  F   UNL A   1      48.464  25.943  31.493  1.00  0.00    -0.206 F 
ATOM     81  C   UNL A   1      51.348  26.148  29.309  1.00  0.00     0.006 A 
ENDBRANCH  53  74
BRANCH  65  82
ATOM     82  C   UNL A   1      44.958  32.447  31.034  1.00  0.00     0.057 A 
ATOM     83  C   UNL A   1      45.235  33.551  30.218  1.00  0.00     0.134 A 
ATOM     84  C   UNL A   1      45.027  32.635  32.421  1.00  0.00     0.134 A 
ATOM     85  F   UNL A   1      45.198  33.436  28.882  1.00  0.00    -0.206 F 
ATOM     86  C   UNL A   1      45.587  34.789  30.761  1.00  0.00     0.040 A 
ATOM     87  C   UNL A   1      45.348  33.875  32.975  1.00  0.00     0.040 A 
ATOM     88  F   UNL A   1      44.764  31.622  33.260  1.00  0.00    -0.206 F 
ATOM     89  C   UNL A   1      45.636  34.954  32.144  1.00  0.00     0.006 A 
ENDBRANCH  65  82
ENDBRANCH  39  40
ENDBRANCH  31  34
ENDBRANCH  29  30
ENDBRANCH  28  29
ENDBRANCH   1  28
TORSDOF 15
ENDMDL
