MODEL 1
REMARK VINA RESULT:     -11.7      0.000      0.000
REMARK SMILES CC[C@](C)(NC(=O)N1Cc2ccccc2C1)C(=O)NCCCCNC(=O)c1ccc(-c2c3nc(c(-c4c(F)cccc4F)c4ccc([nH]4)c(-c4c(F)cccc4F)c4nc(c(-c5c(F)cccc5F)c5ccc2[nH]5)C=C4)C=C3)cc1
REMARK SMILES IDX 22 1 21 2 20 3 19 4 17 5 18 6 3 8 4 9 2 10 1 11 5 12 6 13
REMARK SMILES IDX 7 15 8 16 9 17 16 18 10 19 15 20 11 21 14 22 12 23 13 24
REMARK SMILES IDX 23 25 24 26 25 27 26 29 27 30 28 31 80 32 29 33 79 34 30 35
REMARK SMILES IDX 31 36 32 37 73 38 33 39 78 40 72 41 74 42 34 43 77 44 71 45
REMARK SMILES IDX 70 46 35 48 61 49 44 50 60 51 45 52 48 53 59 54 75 55 46 56
REMARK SMILES IDX 47 57 58 59 76 60 49 61 36 62 37 63 42 64 38 65 39 66 41 67
REMARK SMILES IDX 43 68 40 69 62 70 63 71 68 72 64 73 65 74 67 75 69 76 66 77
REMARK SMILES IDX 50 78 51 79 56 80 52 81 53 82 55 83 57 84 54 85
REMARK H PARENT 19 7 5 14 24 28 74 47 48 58
REMARK Flexibility Score: inf
ROOT
ATOM      1  C   UNL A   1      37.871  19.474  24.813  1.00  0.00     0.023 C 
ENDROOT
BRANCH   1   2
ATOM      2  C   UNL A   1      36.459  20.012  25.027  1.00  0.00     0.023 C 
BRANCH   2   3
ATOM      3  C   UNL A   1      36.278  21.489  25.383  1.00  0.00     0.116 C 
BRANCH   3   4
ATOM      4  N   UNL A   1      35.326  21.825  26.430  1.00  0.00    -0.354 N 
ATOM      5  C   UNL A   1      33.956  21.797  26.476  1.00  0.00     0.245 C 
ATOM      6  O   UNL A   1      33.445  21.916  27.594  1.00  0.00    -0.272 OA
ATOM      7  H   UNL A   1      35.746  22.132  27.267  1.00  0.00     0.163 HD
BRANCH   5   8
ATOM      8  C   UNL A   1      33.093  21.525  25.212  1.00  0.00     0.117 C 
ATOM      9  C   UNL A   1      31.668  22.110  25.320  1.00  0.00     0.045 C 
BRANCH   8  10
ATOM     10  C   UNL A   1      32.946  19.959  25.224  1.00  0.00     0.035 C 
ATOM     11  C   UNL A   1      32.524  19.281  23.931  1.00  0.00     0.007 C 
ENDBRANCH   8  10
BRANCH   8  12
ATOM     12  N   UNL A   1      33.716  22.050  23.976  1.00  0.00    -0.324 N 
ATOM     13  C   UNL A   1      33.669  23.228  23.308  1.00  0.00     0.318 C 
ATOM     14  H   UNL A   1      34.300  21.390  23.538  1.00  0.00     0.166 HD
ATOM     15  O   UNL A   1      33.955  23.154  22.108  1.00  0.00    -0.249 OA
ATOM     16  N   UNL A   1      33.392  24.424  23.885  1.00  0.00    -0.316 N 
ATOM     17  C   UNL A   1      33.461  25.645  23.061  1.00  0.00     0.157 C 
ATOM     18  C   UNL A   1      33.212  24.775  25.287  1.00  0.00     0.157 C 
ATOM     19  C   UNL A   1      33.512  26.766  24.055  1.00  0.00    -0.023 A 
ATOM     20  C   UNL A   1      33.368  26.255  25.343  1.00  0.00    -0.023 A 
ATOM     21  C   UNL A   1      33.724  28.120  23.863  1.00  0.00     0.006 A 
ATOM     22  C   UNL A   1      33.471  27.055  26.470  1.00  0.00     0.006 A 
ATOM     23  C   UNL A   1      33.823  28.944  24.992  1.00  0.00     0.000 A 
ATOM     24  C   UNL A   1      33.708  28.414  26.287  1.00  0.00     0.000 A 
ENDBRANCH   8  12
ENDBRANCH   5   8
ENDBRANCH   3   4
ENDBRANCH   2   3
ENDBRANCH   1   2
BRANCH   1  25
ATOM     25  C   UNL A   1      38.951  20.024  25.729  1.00  0.00     0.116 C 
BRANCH  25  26
ATOM     26  N   UNL A   1      40.143  19.195  25.747  1.00  0.00    -0.352 N 
ATOM     27  C   UNL A   1      41.439  19.525  26.058  1.00  0.00     0.251 C 
ATOM     28  H   UNL A   1      40.000  18.253  25.498  1.00  0.00     0.163 HD
ATOM     29  O   UNL A   1      42.334  18.709  25.864  1.00  0.00    -0.269 OA
BRANCH  27  30
ATOM     30  C   UNL A   1      41.770  20.861  26.606  1.00  0.00     0.039 A 
ATOM     31  C   UNL A   1      42.222  21.848  25.725  1.00  0.00     0.014 A 
ATOM     32  C   UNL A   1      41.676  21.137  27.973  1.00  0.00     0.014 A 
ATOM     33  C   UNL A   1      42.534  23.123  26.206  1.00  0.00     0.010 A 
ATOM     34  C   UNL A   1      41.917  22.428  28.440  1.00  0.00     0.010 A 
ATOM     35  C   UNL A   1      42.360  23.430  27.565  1.00  0.00    -0.014 A 
BRANCH  35  36
ATOM     36  C   UNL A   1      42.656  24.787  28.089  1.00  0.00     0.031 A 
ATOM     37  C   UNL A   1      44.055  25.146  28.510  1.00  0.00     0.074 A 
ATOM     38  C   UNL A   1      41.658  25.680  28.239  1.00  0.00     0.049 A 
ATOM     39  N   UNL A   1      44.498  26.251  29.055  1.00  0.00    -0.248 NA
ATOM     40  C   UNL A   1      45.088  24.117  28.317  1.00  0.00     0.031 C 
ATOM     41  C   UNL A   1      40.253  25.442  27.907  1.00  0.00     0.029 A 
ATOM     42  N   UNL A   1      41.674  26.965  28.721  1.00  0.00    -0.354 N 
ATOM     43  C   UNL A   1      45.852  26.045  29.283  1.00  0.00     0.074 A 
ATOM     44  C   UNL A   1      46.149  24.691  28.865  1.00  0.00     0.031 C 
ATOM     45  C   UNL A   1      39.545  26.551  28.175  1.00  0.00     0.029 A 
ATOM     46  C   UNL A   1      40.436  27.564  28.732  1.00  0.00     0.049 A 
ATOM     47  H   UNL A   1      42.493  27.416  29.029  1.00  0.00     0.167 HD
ATOM     48  C   UNL A   1      46.770  26.909  29.776  1.00  0.00     0.037 A 
ATOM     49  C   UNL A   1      40.063  28.788  29.150  1.00  0.00     0.037 A 
ATOM     50  C   UNL A   1      46.481  28.264  30.166  1.00  0.00     0.049 A 
ATOM     51  C   UNL A   1      41.101  29.728  29.697  1.00  0.00     0.074 A 
ATOM     52  C   UNL A   1      47.355  29.236  30.622  1.00  0.00     0.029 A 
ATOM     53  N   UNL A   1      45.219  28.838  30.146  1.00  0.00    -0.354 N 
ATOM     54  N   UNL A   1      42.389  29.539  29.850  1.00  0.00    -0.248 NA
ATOM     55  C   UNL A   1      40.634  31.055  30.122  1.00  0.00     0.031 C 
ATOM     56  C   UNL A   1      46.615  30.386  30.915  1.00  0.00     0.029 A 
ATOM     57  C   UNL A   1      45.287  30.145  30.599  1.00  0.00     0.049 A 
ATOM     58  H   UNL A   1      44.397  28.384  29.852  1.00  0.00     0.167 HD
ATOM     59  C   UNL A   1      42.890  30.729  30.364  1.00  0.00     0.074 A 
ATOM     60  C   UNL A   1      41.769  31.638  30.482  1.00  0.00     0.031 C 
ATOM     61  C   UNL A   1      44.164  31.040  30.705  1.00  0.00     0.037 A 
BRANCH  48  62
ATOM     62  C   UNL A   1      48.181  26.414  29.918  1.00  0.00     0.057 A 
ATOM     63  C   UNL A   1      49.130  26.589  28.903  1.00  0.00     0.134 A 
ATOM     64  C   UNL A   1      48.605  25.785  31.096  1.00  0.00     0.134 A 
ATOM     65  F   UNL A   1      48.787  27.173  27.745  1.00  0.00    -0.206 F 
ATOM     66  C   UNL A   1      50.442  26.132  29.042  1.00  0.00     0.040 A 
ATOM     67  C   UNL A   1      49.920  25.348  31.257  1.00  0.00     0.040 A 
ATOM     68  F   UNL A   1      47.749  25.591  32.111  1.00  0.00    -0.206 F 
ATOM     69  C   UNL A   1      50.843  25.516  30.225  1.00  0.00     0.006 A 
ENDBRANCH  48  62
BRANCH  49  70
ATOM     70  C   UNL A   1      38.643  29.205  29.050  1.00  0.00     0.057 A 
ATOM     71  C   UNL A   1      37.794  29.146  30.162  1.00  0.00     0.134 A 
ATOM     72  C   UNL A   1      38.097  29.664  27.846  1.00  0.00     0.134 A 
ATOM     73  F   UNL A   1      38.255  28.696  31.338  1.00  0.00    -0.206 F 
ATOM     74  C   UNL A   1      36.450  29.511  30.077  1.00  0.00     0.040 A 
ATOM     75  C   UNL A   1      36.760  30.056  27.752  1.00  0.00     0.040 A 
ATOM     76  F   UNL A   1      38.860  29.750  26.745  1.00  0.00    -0.206 F 
ATOM     77  C   UNL A   1      35.931  29.973  28.869  1.00  0.00     0.006 A 
ENDBRANCH  49  70
BRANCH  61  78
ATOM     78  C   UNL A   1      44.420  32.431  31.207  1.00  0.00     0.057 A 
ATOM     79  C   UNL A   1      44.711  33.489  30.338  1.00  0.00     0.134 A 
ATOM     80  C   UNL A   1      44.336  32.720  32.575  1.00  0.00     0.134 A 
ATOM     81  F   UNL A   1      44.819  33.276  29.018  1.00  0.00    -0.206 F 
ATOM     82  C   UNL A   1      44.931  34.784  30.814  1.00  0.00     0.040 A 
ATOM     83  C   UNL A   1      44.529  34.014  33.061  1.00  0.00     0.040 A 
ATOM     84  F   UNL A   1      44.052  31.753  33.461  1.00  0.00    -0.206 F 
ATOM     85  C   UNL A   1      44.833  35.049  32.179  1.00  0.00     0.006 A 
ENDBRANCH  61  78
ENDBRANCH  35  36
ENDBRANCH  27  30
ENDBRANCH  25  26
ENDBRANCH   1  25
TORSDOF 13
ENDMDL
MODEL 2
REMARK VINA RESULT:     -11.7      0.399      6.343
REMARK SMILES CC[C@](C)(NC(=O)N1Cc2ccccc2C1)C(=O)NCCCCNC(=O)c1ccc(-c2c3nc(c(-c4c(F)cccc4F)c4ccc([nH]4)c(-c4c(F)cccc4F)c4nc(c(-c5c(F)cccc5F)c5ccc2[nH]5)C=C4)C=C3)cc1
REMARK SMILES IDX 22 1 21 2 20 3 19 4 17 5 18 6 3 8 4 9 2 10 1 11 5 12 6 13
REMARK SMILES IDX 7 15 8 16 9 17 16 18 10 19 15 20 11 21 14 22 12 23 13 24
REMARK SMILES IDX 23 25 24 26 25 27 26 29 27 30 28 31 80 32 29 33 79 34 30 35
REMARK SMILES IDX 31 36 32 37 73 38 33 39 78 40 72 41 74 42 34 43 77 44 71 45
REMARK SMILES IDX 70 46 35 48 61 49 44 50 60 51 45 52 48 53 59 54 75 55 46 56
REMARK SMILES IDX 47 57 58 59 76 60 49 61 36 62 37 63 42 64 38 65 39 66 41 67
REMARK SMILES IDX 43 68 40 69 62 70 63 71 68 72 64 73 65 74 67 75 69 76 66 77
REMARK SMILES IDX 50 78 51 79 56 80 52 81 53 82 55 83 57 84 54 85
REMARK H PARENT 19 7 5 14 24 28 74 47 48 58
REMARK Flexibility Score: inf
ROOT
ATOM      1  C   UNL A   1      37.818  19.785  24.753  1.00  0.00     0.023 C 
ENDROOT
BRANCH   1   2
ATOM      2  C   UNL A   1      36.393  20.249  25.040  1.00  0.00     0.023 C 
BRANCH   2   3
ATOM      3  C   UNL A   1      36.151  21.721  25.382  1.00  0.00     0.116 C 
BRANCH   3   4
ATOM      4  N   UNL A   1      35.197  22.027  26.437  1.00  0.00    -0.354 N 
ATOM      5  C   UNL A   1      33.830  21.941  26.499  1.00  0.00     0.245 C 
ATOM      6  O   UNL A   1      33.327  22.049  27.622  1.00  0.00    -0.272 OA
ATOM      7  H   UNL A   1      35.613  22.360  27.265  1.00  0.00     0.163 HD
BRANCH   5   8
ATOM      8  C   UNL A   1      32.965  21.618  25.248  1.00  0.00     0.117 C 
ATOM      9  C   UNL A   1      31.537  22.200  25.339  1.00  0.00     0.045 C 
BRANCH   8  10
ATOM     10  C   UNL A   1      32.826  20.053  25.318  1.00  0.00     0.035 C 
ATOM     11  C   UNL A   1      32.535  19.313  24.022  1.00  0.00     0.007 C 
ENDBRANCH   8  10
BRANCH   8  12
ATOM     12  N   UNL A   1      33.582  22.101  23.992  1.00  0.00    -0.324 N 
ATOM     13  C   UNL A   1      33.553  23.264  23.299  1.00  0.00     0.318 C 
ATOM     14  H   UNL A   1      34.144  21.418  23.561  1.00  0.00     0.166 HD
ATOM     15  O   UNL A   1      33.820  23.157  22.096  1.00  0.00    -0.249 OA
ATOM     16  N   UNL A   1      33.312  24.480  23.852  1.00  0.00    -0.316 N 
ATOM     17  C   UNL A   1      33.398  25.680  22.999  1.00  0.00     0.157 C 
ATOM     18  C   UNL A   1      33.161  24.865  25.248  1.00  0.00     0.157 C 
ATOM     19  C   UNL A   1      33.489  26.821  23.968  1.00  0.00    -0.023 A 
ATOM     20  C   UNL A   1      33.352  26.342  25.269  1.00  0.00    -0.023 A 
ATOM     21  C   UNL A   1      33.730  28.165  23.742  1.00  0.00     0.006 A 
ATOM     22  C   UNL A   1      33.489  27.165  26.375  1.00  0.00     0.006 A 
ATOM     23  C   UNL A   1      33.864  29.012  24.851  1.00  0.00     0.000 A 
ATOM     24  C   UNL A   1      33.755  28.514  26.159  1.00  0.00     0.000 A 
ENDBRANCH   8  12
ENDBRANCH   5   8
ENDBRANCH   3   4
ENDBRANCH   2   3
ENDBRANCH   1   2
BRANCH   1  25
ATOM     25  C   UNL A   1      38.880  20.197  25.757  1.00  0.00     0.116 C 
BRANCH  25  26
ATOM     26  N   UNL A   1      40.021  19.301  25.762  1.00  0.00    -0.352 N 
ATOM     27  C   UNL A   1      41.337  19.553  26.068  1.00  0.00     0.251 C 
ATOM     28  H   UNL A   1      39.823  18.371  25.507  1.00  0.00     0.163 HD
ATOM     29  O   UNL A   1      42.181  18.688  25.862  1.00  0.00    -0.269 OA
BRANCH  27  30
ATOM     30  C   UNL A   1      41.747  20.863  26.623  1.00  0.00     0.039 A 
ATOM     31  C   UNL A   1      42.169  21.859  25.736  1.00  0.00     0.014 A 
ATOM     32  C   UNL A   1      41.757  21.106  27.999  1.00  0.00     0.014 A 
ATOM     33  C   UNL A   1      42.554  23.111  26.225  1.00  0.00     0.010 A 
ATOM     34  C   UNL A   1      42.072  22.377  28.479  1.00  0.00     0.010 A 
ATOM     35  C   UNL A   1      42.485  23.387  27.600  1.00  0.00    -0.014 A 
BRANCH  35  36
ATOM     36  C   UNL A   1      42.860  24.721  28.135  1.00  0.00     0.031 A 
ATOM     37  C   UNL A   1      41.805  25.770  28.358  1.00  0.00     0.074 A 
ATOM     38  C   UNL A   1      44.155  25.008  28.370  1.00  0.00     0.049 A 
ATOM     39  N   UNL A   1      41.942  27.011  28.751  1.00  0.00    -0.248 NA
ATOM     40  C   UNL A   1      40.415  25.379  28.077  1.00  0.00     0.031 C 
ATOM     41  C   UNL A   1      45.277  24.093  28.155  1.00  0.00     0.029 A 
ATOM     42  N   UNL A   1      44.747  26.159  28.829  1.00  0.00    -0.354 N 
ATOM     43  C   UNL A   1      40.663  27.552  28.750  1.00  0.00     0.074 A 
ATOM     44  C   UNL A   1      39.769  26.521  28.268  1.00  0.00     0.031 C 
ATOM     45  C   UNL A   1      46.418  24.710  28.503  1.00  0.00     0.029 A 
ATOM     46  C   UNL A   1      46.115  26.073  28.927  1.00  0.00     0.049 A 
ATOM     47  H   UNL A   1      44.239  26.968  29.067  1.00  0.00     0.167 HD
ATOM     48  C   UNL A   1      40.264  28.788  29.133  1.00  0.00     0.037 A 
ATOM     49  C   UNL A   1      47.021  26.992  29.309  1.00  0.00     0.037 A 
ATOM     50  C   UNL A   1      41.149  29.804  29.639  1.00  0.00     0.049 A 
ATOM     51  C   UNL A   1      46.554  28.358  29.728  1.00  0.00     0.074 A 
ATOM     52  C   UNL A   1      40.834  31.068  30.108  1.00  0.00     0.029 A 
ATOM     53  N   UNL A   1      42.526  29.672  29.739  1.00  0.00    -0.354 N 
ATOM     54  N   UNL A   1      45.334  28.836  29.778  1.00  0.00    -0.248 NA
ATOM     55  C   UNL A   1      47.590  29.311  30.150  1.00  0.00     0.031 C 
ATOM     56  C   UNL A   1      42.024  31.715  30.455  1.00  0.00     0.029 A 
ATOM     57  C   UNL A   1      43.077  30.839  30.245  1.00  0.00     0.049 A 
ATOM     58  H   UNL A   1      43.037  28.869  29.488  1.00  0.00     0.167 HD
ATOM     59  C   UNL A   1      45.452  30.133  30.261  1.00  0.00     0.074 A 
ATOM     60  C   UNL A   1      46.862  30.363  30.502  1.00  0.00     0.031 C 
ATOM     61  C   UNL A   1      44.481  31.050  30.486  1.00  0.00     0.037 A 
BRANCH  48  62
ATOM     62  C   UNL A   1      38.801  29.108  29.026  1.00  0.00     0.057 A 
ATOM     63  C   UNL A   1      37.943  29.018  30.129  1.00  0.00     0.134 A 
ATOM     64  C   UNL A   1      38.250  29.543  27.814  1.00  0.00     0.134 A 
ATOM     65  F   UNL A   1      38.404  28.596  31.317  1.00  0.00    -0.206 F 
ATOM     66  C   UNL A   1      36.584  29.323  30.025  1.00  0.00     0.040 A 
ATOM     67  C   UNL A   1      36.900  29.877  27.704  1.00  0.00     0.040 A 
ATOM     68  F   UNL A   1      39.017  29.659  26.719  1.00  0.00    -0.206 F 
ATOM     69  C   UNL A   1      36.061  29.761  28.811  1.00  0.00     0.006 A 
ENDBRANCH  48  62
BRANCH  49  70
ATOM     70  C   UNL A   1      48.464  26.645  29.334  1.00  0.00     0.057 A 
ATOM     71  C   UNL A   1      49.293  26.931  28.243  1.00  0.00     0.134 A 
ATOM     72  C   UNL A   1      49.048  26.017  30.441  1.00  0.00     0.134 A 
ATOM     73  F   UNL A   1      48.787  27.515  27.147  1.00  0.00    -0.206 F 
ATOM     74  C   UNL A   1      50.646  26.589  28.243  1.00  0.00     0.040 A 
ATOM     75  C   UNL A   1      50.404  25.690  30.464  1.00  0.00     0.040 A 
ATOM     76  F   UNL A   1      48.308  25.722  31.521  1.00  0.00    -0.206 F 
ATOM     77  C   UNL A   1      51.206  25.970  29.359  1.00  0.00     0.006 A 
ENDBRANCH  49  70
BRANCH  61  78
ATOM     78  C   UNL A   1      44.904  32.375  31.050  1.00  0.00     0.057 A 
ATOM     79  C   UNL A   1      45.007  32.592  32.429  1.00  0.00     0.134 A 
ATOM     80  C   UNL A   1      45.250  33.433  30.199  1.00  0.00     0.134 A 
ATOM     81  F   UNL A   1      44.678  31.624  33.297  1.00  0.00    -0.206 F 
ATOM     82  C   UNL A   1      45.419  33.823  32.944  1.00  0.00     0.040 A 
ATOM     83  C   UNL A   1      45.686  34.660  30.701  1.00  0.00     0.040 A 
ATOM     84  F   UNL A   1      45.182  33.287  28.867  1.00  0.00    -0.206 F 
ATOM     85  C   UNL A   1      45.766  34.858  32.078  1.00  0.00     0.006 A 
ENDBRANCH  61  78
ENDBRANCH  35  36
ENDBRANCH  27  30
ENDBRANCH  25  26
ENDBRANCH   1  25
TORSDOF 13
ENDMDL
MODEL 3
REMARK VINA RESULT:     -11.6      2.119      7.585
REMARK SMILES CC[C@](C)(NC(=O)N1Cc2ccccc2C1)C(=O)NCCCCNC(=O)c1ccc(-c2c3nc(c(-c4c(F)cccc4F)c4ccc([nH]4)c(-c4c(F)cccc4F)c4nc(c(-c5c(F)cccc5F)c5ccc2[nH]5)C=C4)C=C3)cc1
REMARK SMILES IDX 22 1 21 2 20 3 19 4 17 5 18 6 3 8 4 9 2 10 1 11 5 12 6 13
REMARK SMILES IDX 7 15 8 16 9 17 16 18 10 19 15 20 11 21 14 22 12 23 13 24
REMARK SMILES IDX 23 25 24 26 25 27 26 29 27 30 28 31 80 32 29 33 79 34 30 35
REMARK SMILES IDX 31 36 32 37 73 38 33 39 78 40 72 41 74 42 34 43 77 44 71 45
REMARK SMILES IDX 70 46 35 48 61 49 44 50 60 51 45 52 48 53 59 54 75 55 46 56
REMARK SMILES IDX 47 57 58 59 76 60 49 61 36 62 37 63 42 64 38 65 39 66 41 67
REMARK SMILES IDX 43 68 40 69 62 70 63 71 68 72 64 73 65 74 67 75 69 76 66 77
REMARK SMILES IDX 50 78 51 79 56 80 52 81 53 82 55 83 57 84 54 85
REMARK H PARENT 19 7 5 14 24 28 74 47 48 58
REMARK Flexibility Score: inf
ROOT
ATOM      1  C   UNL A   1      32.767  28.084  26.188  1.00  0.00     0.023 C 
ENDROOT
BRANCH   1   2
ATOM      2  C   UNL A   1      31.523  27.393  26.739  1.00  0.00     0.023 C 
BRANCH   2   3
ATOM      3  C   UNL A   1      30.686  26.520  25.801  1.00  0.00     0.116 C 
BRANCH   3   4
ATOM      4  N   UNL A   1      29.988  25.380  26.374  1.00  0.00    -0.354 N 
ATOM      5  C   UNL A   1      30.359  24.074  26.570  1.00  0.00     0.245 C 
ATOM      6  O   UNL A   1      29.625  23.402  27.302  1.00  0.00    -0.272 OA
ATOM      7  H   UNL A   1      29.075  25.584  26.680  1.00  0.00     0.163 HD
BRANCH   5   8
ATOM      8  C   UNL A   1      31.683  23.495  25.994  1.00  0.00     0.117 C 
ATOM      9  C   UNL A   1      32.935  24.005  26.739  1.00  0.00     0.045 C 
BRANCH   8  10
ATOM     10  C   UNL A   1      31.729  24.111  24.548  1.00  0.00     0.035 C 
ATOM     11  C   UNL A   1      30.736  23.584  23.525  1.00  0.00     0.007 C 
ENDBRANCH   8  10
BRANCH   8  12
ATOM     12  N   UNL A   1      31.707  22.015  26.007  1.00  0.00    -0.324 N 
ATOM     13  C   UNL A   1      32.531  21.069  25.498  1.00  0.00     0.318 C 
ATOM     14  H   UNL A   1      30.948  21.630  26.501  1.00  0.00     0.166 HD
ATOM     15  O   UNL A   1      32.006  19.962  25.329  1.00  0.00    -0.249 OA
ATOM     16  N   UNL A   1      33.848  21.262  25.234  1.00  0.00    -0.316 N 
ATOM     17  C   UNL A   1      34.654  20.120  24.764  1.00  0.00     0.157 C 
ATOM     18  C   UNL A   1      34.709  22.400  25.523  1.00  0.00     0.157 C 
ATOM     19  C   UNL A   1      36.074  20.556  24.968  1.00  0.00    -0.023 A 
ATOM     20  C   UNL A   1      36.099  21.878  25.409  1.00  0.00    -0.023 A 
ATOM     21  C   UNL A   1      37.254  19.844  24.837  1.00  0.00     0.006 A 
ATOM     22  C   UNL A   1      37.276  22.514  25.768  1.00  0.00     0.006 A 
ATOM     23  C   UNL A   1      38.455  20.475  25.189  1.00  0.00     0.000 A 
ATOM     24  C   UNL A   1      38.465  21.797  25.662  1.00  0.00     0.000 A 
ENDBRANCH   8  12
ENDBRANCH   5   8
ENDBRANCH   3   4
ENDBRANCH   2   3
ENDBRANCH   1   2
BRANCH   1  25
ATOM     25  C   UNL A   1      33.836  28.459  27.198  1.00  0.00     0.116 C 
BRANCH  25  26
ATOM     26  N   UNL A   1      33.739  29.843  27.626  1.00  0.00    -0.352 N 
ATOM     27  C   UNL A   1      34.661  30.631  28.272  1.00  0.00     0.251 C 
ATOM     28  H   UNL A   1      32.883  30.285  27.421  1.00  0.00     0.163 HD
ATOM     29  O   UNL A   1      34.327  31.737  28.683  1.00  0.00    -0.269 OA
BRANCH  27  30
ATOM     30  C   UNL A   1      36.044  30.151  28.494  1.00  0.00     0.039 A 
ATOM     31  C   UNL A   1      36.953  30.225  27.434  1.00  0.00     0.014 A 
ATOM     32  C   UNL A   1      36.441  29.597  29.714  1.00  0.00     0.014 A 
ATOM     33  C   UNL A   1      38.269  29.789  27.611  1.00  0.00     0.010 A 
ATOM     34  C   UNL A   1      37.772  29.231  29.912  1.00  0.00     0.010 A 
ATOM     35  C   UNL A   1      38.696  29.312  28.860  1.00  0.00    -0.014 A 
BRANCH  35  36
ATOM     36  C   UNL A   1      40.098  28.873  29.077  1.00  0.00     0.031 A 
ATOM     37  C   UNL A   1      41.095  29.811  29.700  1.00  0.00     0.074 A 
ATOM     38  C   UNL A   1      40.489  27.651  28.666  1.00  0.00     0.049 A 
ATOM     39  N   UNL A   1      42.377  29.639  29.908  1.00  0.00    -0.248 NA
ATOM     40  C   UNL A   1      40.591  31.128  30.121  1.00  0.00     0.031 C 
ATOM     41  C   UNL A   1      39.630  26.663  28.012  1.00  0.00     0.029 A 
ATOM     42  N   UNL A   1      41.715  27.038  28.727  1.00  0.00    -0.354 N 
ATOM     43  C   UNL A   1      42.832  30.826  30.467  1.00  0.00     0.074 A 
ATOM     44  C   UNL A   1      41.702  31.729  30.520  1.00  0.00     0.031 C 
ATOM     45  C   UNL A   1      40.349  25.560  27.752  1.00  0.00     0.029 A 
ATOM     46  C   UNL A   1      41.726  25.775  28.184  1.00  0.00     0.049 A 
ATOM     47  H   UNL A   1      42.511  27.462  29.123  1.00  0.00     0.167 HD
ATOM     48  C   UNL A   1      44.073  31.130  30.915  1.00  0.00     0.037 A 
ATOM     49  C   UNL A   1      42.736  24.895  28.045  1.00  0.00     0.037 A 
ATOM     50  C   UNL A   1      45.190  30.223  30.888  1.00  0.00     0.049 A 
ATOM     51  C   UNL A   1      44.105  25.257  28.548  1.00  0.00     0.074 A 
ATOM     52  C   UNL A   1      46.472  30.417  31.372  1.00  0.00     0.029 A 
ATOM     53  N   UNL A   1      45.156  28.947  30.346  1.00  0.00    -0.354 N 
ATOM     54  N   UNL A   1      44.507  26.361  29.129  1.00  0.00    -0.248 NA
ATOM     55  C   UNL A   1      45.160  24.248  28.381  1.00  0.00     0.031 C 
ATOM     56  C   UNL A   1      47.225  29.274  31.087  1.00  0.00     0.029 A 
ATOM     57  C   UNL A   1      46.400  28.350  30.466  1.00  0.00     0.049 A 
ATOM     58  H   UNL A   1      44.366  28.527  29.937  1.00  0.00     0.167 HD
ATOM     59  C   UNL A   1      45.852  26.171  29.421  1.00  0.00     0.074 A 
ATOM     60  C   UNL A   1      46.194  24.839  28.966  1.00  0.00     0.031 C 
ATOM     61  C   UNL A   1      46.724  27.021  30.014  1.00  0.00     0.037 A 
BRANCH  48  62
ATOM     62  C   UNL A   1      44.287  32.506  31.479  1.00  0.00     0.057 A 
ATOM     63  C   UNL A   1      44.129  32.776  32.845  1.00  0.00     0.134 A 
ATOM     64  C   UNL A   1      44.688  33.564  30.654  1.00  0.00     0.134 A 
ATOM     65  F   UNL A   1      43.736  31.810  33.688  1.00  0.00    -0.206 F 
ATOM     66  C   UNL A   1      44.336  34.055  33.365  1.00  0.00     0.040 A 
ATOM     67  C   UNL A   1      44.924  34.840  31.167  1.00  0.00     0.040 A 
ATOM     68  F   UNL A   1      44.865  33.373  29.338  1.00  0.00    -0.206 F 
ATOM     69  C   UNL A   1      44.742  35.090  32.526  1.00  0.00     0.006 A 
ENDBRANCH  48  62
BRANCH  49  70
ATOM     70  C   UNL A   1      42.485  23.573  27.419  1.00  0.00     0.057 A 
ATOM     71  C   UNL A   1      42.137  22.462  28.196  1.00  0.00     0.134 A 
ATOM     72  C   UNL A   1      42.592  23.384  26.036  1.00  0.00     0.134 A 
ATOM     73  F   UNL A   1      42.037  22.576  29.529  1.00  0.00    -0.206 F 
ATOM     74  C   UNL A   1      41.921  21.207  27.625  1.00  0.00     0.040 A 
ATOM     75  C   UNL A   1      42.356  22.141  25.448  1.00  0.00     0.040 A 
ATOM     76  F   UNL A   1      42.917  24.411  25.236  1.00  0.00    -0.206 F 
ATOM     77  C   UNL A   1      42.027  21.046  26.244  1.00  0.00     0.006 A 
ENDBRANCH  49  70
BRANCH  61  78
ATOM     78  C   UNL A   1      48.123  26.526  30.235  1.00  0.00     0.057 A 
ATOM     79  C   UNL A   1      48.489  25.836  31.398  1.00  0.00     0.134 A 
ATOM     80  C   UNL A   1      49.106  26.710  29.254  1.00  0.00     0.134 A 
ATOM     81  F   UNL A   1      47.597  25.639  32.380  1.00  0.00    -0.206 F 
ATOM     82  C   UNL A   1      49.789  25.364  31.586  1.00  0.00     0.040 A 
ATOM     83  C   UNL A   1      50.403  26.222  29.420  1.00  0.00     0.040 A 
ATOM     84  F   UNL A   1      48.819  27.356  28.114  1.00  0.00    -0.206 F 
ATOM     85  C   UNL A   1      50.748  25.552  30.592  1.00  0.00     0.006 A 
ENDBRANCH  61  78
ENDBRANCH  35  36
ENDBRANCH  27  30
ENDBRANCH  25  26
ENDBRANCH   1  25
TORSDOF 13
ENDMDL
