MODEL 1
REMARK VINA RESULT:     -12.8      0.000      0.000
REMARK SMILES O=C(NCCCCNC(=O)[C@H]1C[C@@H](C(=O)N2CCCC2)C[N@@H+](Cc2cccnc2)C1)c1ccc(-c2c3nc(c(-c4c(F)cccc4F)c4ccc([nH]4)c(-c4c(F)cccc4F)c4nc(c(-c5c(F)cccc5F)c5ccc2[nH]5)C=C4)C=C3)cc1
REMARK SMILES IDX 5 1 4 2 3 3 1 4 2 5 31 7 32 8 84 9 33 10 83 11 34 12 35 13
REMARK SMILES IDX 36 14 77 15 37 16 82 17 76 18 78 19 38 20 81 21 75 22 74 23
REMARK SMILES IDX 39 25 65 26 48 27 64 28 49 29 52 30 63 31 79 32 50 33 51 34
REMARK SMILES IDX 62 36 80 37 53 38 40 39 41 40 46 41 42 42 43 43 45 44 47 45
REMARK SMILES IDX 44 46 66 47 67 48 72 49 68 50 69 51 71 52 73 53 70 54 54 55
REMARK SMILES IDX 55 56 60 57 56 58 57 59 59 60 61 61 58 62 6 63 7 64 8 65
REMARK SMILES IDX 9 66 10 68 11 69 12 70 30 71 13 72 22 73 21 74 14 76 15 77
REMARK SMILES IDX 16 78 17 79 20 80 18 81 19 82 23 83 24 84 25 85 29 86 26 87
REMARK SMILES IDX 28 88 27 89
REMARK H PARENT 3 6 78 24 52 35 8 67 22 75
REMARK Flexibility Score: inf
ROOT
ATOM      1  C   UNL A   1      31.351  32.139  26.504  1.00  0.00     0.023 C 
ENDROOT
BRANCH   1   2
ATOM      2  C   UNL A   1      32.645  32.688  27.095  1.00  0.00     0.116 C 
BRANCH   2   3
ATOM      3  N   UNL A   1      32.488  34.015  27.658  1.00  0.00    -0.352 N 
ATOM      4  O   UNL A   1      32.837  35.698  29.114  1.00  0.00    -0.269 OA
ATOM      5  C   UNL A   1      33.195  34.616  28.674  1.00  0.00     0.251 C 
ATOM      6  H   UNL A   1      31.777  34.563  27.256  1.00  0.00     0.163 HD
BRANCH   5   7
ATOM      7  C   UNL A   1      34.376  33.934  29.255  1.00  0.00     0.039 A 
ATOM      8  C   UNL A   1      35.672  34.298  28.884  1.00  0.00     0.014 A 
ATOM      9  C   UNL A   1      34.176  32.925  30.200  1.00  0.00     0.014 A 
ATOM     10  C   UNL A   1      36.758  33.570  29.359  1.00  0.00     0.010 A 
ATOM     11  C   UNL A   1      35.273  32.248  30.739  1.00  0.00     0.010 A 
ATOM     12  C   UNL A   1      36.574  32.550  30.305  1.00  0.00    -0.014 A 
BRANCH  12  13
ATOM     13  C   UNL A   1      37.758  31.863  30.881  1.00  0.00     0.031 A 
ATOM     14  C   UNL A   1      38.263  32.191  32.259  1.00  0.00     0.074 A 
ATOM     15  C   UNL A   1      38.377  30.919  30.145  1.00  0.00     0.049 A 
ATOM     16  N   UNL A   1      39.279  31.680  32.907  1.00  0.00    -0.248 NA
ATOM     17  C   UNL A   1      37.538  33.231  33.004  1.00  0.00     0.031 C 
ATOM     18  C   UNL A   1      37.990  30.523  28.788  1.00  0.00     0.029 A 
ATOM     19  N   UNL A   1      39.449  30.112  30.431  1.00  0.00    -0.354 N 
ATOM     20  C   UNL A   1      39.327  32.342  34.128  1.00  0.00     0.074 A 
ATOM     21  C   UNL A   1      38.254  33.315  34.118  1.00  0.00     0.031 C 
ATOM     22  C   UNL A   1      38.784  29.525  28.377  1.00  0.00     0.029 A 
ATOM     23  C   UNL A   1      39.775  29.252  29.411  1.00  0.00     0.049 A 
ATOM     24  H   UNL A   1      39.937  30.147  31.285  1.00  0.00     0.167 HD
ATOM     25  C   UNL A   1      40.182  32.150  35.162  1.00  0.00     0.037 A 
ATOM     26  C   UNL A   1      40.773  28.357  29.309  1.00  0.00     0.037 A 
ATOM     27  C   UNL A   1      41.244  31.175  35.167  1.00  0.00     0.049 A 
ATOM     28  C   UNL A   1      41.726  28.190  30.456  1.00  0.00     0.074 A 
ATOM     29  C   UNL A   1      42.137  30.879  36.183  1.00  0.00     0.029 A 
ATOM     30  N   UNL A   1      41.561  30.343  34.103  1.00  0.00    -0.354 N 
ATOM     31  N   UNL A   1      41.732  28.794  31.618  1.00  0.00    -0.248 NA
ATOM     32  C   UNL A   1      42.813  27.219  30.274  1.00  0.00     0.031 C 
ATOM     33  C   UNL A   1      43.027  29.905  35.715  1.00  0.00     0.029 A 
ATOM     34  C   UNL A   1      42.654  29.554  34.428  1.00  0.00     0.049 A 
ATOM     35  H   UNL A   1      41.081  30.316  33.244  1.00  0.00     0.167 HD
ATOM     36  C   UNL A   1      42.809  28.265  32.315  1.00  0.00     0.074 A 
ATOM     37  C   UNL A   1      43.420  27.275  31.452  1.00  0.00     0.031 C 
ATOM     38  C   UNL A   1      43.254  28.574  33.557  1.00  0.00     0.037 A 
BRANCH  25  39
ATOM     39  C   UNL A   1      40.019  33.024  36.373  1.00  0.00     0.057 A 
ATOM     40  C   UNL A   1      40.764  34.197  36.548  1.00  0.00     0.134 A 
ATOM     41  C   UNL A   1      39.069  32.713  37.355  1.00  0.00     0.134 A 
ATOM     42  F   UNL A   1      41.698  34.550  35.651  1.00  0.00    -0.206 F 
ATOM     43  C   UNL A   1      40.586  35.018  37.664  1.00  0.00     0.040 A 
ATOM     44  C   UNL A   1      38.862  33.539  38.461  1.00  0.00     0.040 A 
ATOM     45  F   UNL A   1      38.313  31.610  37.247  1.00  0.00    -0.206 F 
ATOM     46  C   UNL A   1      39.627  34.693  38.621  1.00  0.00     0.006 A 
ENDBRANCH  25  39
BRANCH  26  47
ATOM     47  C   UNL A   1      40.921  27.556  28.067  1.00  0.00     0.057 A 
ATOM     48  C   UNL A   1      40.308  26.306  27.933  1.00  0.00     0.134 A 
ATOM     49  C   UNL A   1      41.671  28.029  26.983  1.00  0.00     0.134 A 
ATOM     50  F   UNL A   1      39.590  25.795  28.943  1.00  0.00    -0.206 F 
ATOM     51  C   UNL A   1      40.447  25.546  26.771  1.00  0.00     0.040 A 
ATOM     52  C   UNL A   1      41.796  27.292  25.804  1.00  0.00     0.040 A 
ATOM     53  F   UNL A   1      42.276  29.224  27.046  1.00  0.00    -0.206 F 
ATOM     54  C   UNL A   1      41.187  26.043  25.699  1.00  0.00     0.006 A 
ENDBRANCH  26  47
BRANCH  38  55
ATOM     55  C   UNL A   1      44.442  27.811  34.065  1.00  0.00     0.057 A 
ATOM     56  C   UNL A   1      44.305  26.579  34.717  1.00  0.00     0.134 A 
ATOM     57  C   UNL A   1      45.740  28.304  33.881  1.00  0.00     0.134 A 
ATOM     58  F   UNL A   1      43.089  26.058  34.941  1.00  0.00    -0.206 F 
ATOM     59  C   UNL A   1      45.415  25.877  35.191  1.00  0.00     0.040 A 
ATOM     60  C   UNL A   1      46.859  27.599  34.325  1.00  0.00     0.040 A 
ATOM     61  F   UNL A   1      45.942  29.475  33.258  1.00  0.00    -0.206 F 
ATOM     62  C   UNL A   1      46.698  26.385  34.989  1.00  0.00     0.006 A 
ENDBRANCH  38  55
ENDBRANCH  12  13
ENDBRANCH   5   7
ENDBRANCH   2   3
ENDBRANCH   1   2
BRANCH   1  63
ATOM     63  C   UNL A   1      31.388  30.667  26.071  1.00  0.00     0.023 C 
BRANCH  63  64
ATOM     64  C   UNL A   1      32.785  30.035  26.013  1.00  0.00     0.116 C 
BRANCH  64  65
ATOM     65  N   UNL A   1      33.235  29.911  24.642  1.00  0.00    -0.356 N 
ATOM     66  C   UNL A   1      33.265  28.836  23.816  1.00  0.00     0.228 C 
ATOM     67  H   UNL A   1      33.575  30.745  24.244  1.00  0.00     0.163 HD
ATOM     68  O   UNL A   1      34.304  28.716  23.157  1.00  0.00    -0.275 OA
BRANCH  66  69
ATOM     69  C   UNL A   1      32.021  27.994  23.530  1.00  0.00     0.134 C 
ATOM     70  C   UNL A   1      32.015  26.830  24.549  1.00  0.00     0.038 C 
ATOM     71  C   UNL A   1      30.657  28.698  23.552  1.00  0.00     0.276 C 
ATOM     72  C   UNL A   1      30.847  25.890  24.310  1.00  0.00     0.134 C 
ATOM     73  N   UNL A   1      29.568  27.743  23.269  1.00  0.00    -0.330 N 
ATOM     74  C   UNL A   1      29.527  26.664  24.265  1.00  0.00     0.276 C 
ATOM     75  H   UNL A   1      29.797  27.334  22.363  1.00  0.00     0.348 HD
BRANCH  72  76
ATOM     76  C   UNL A   1      30.712  24.878  25.438  1.00  0.00     0.231 C 
ATOM     77  O   UNL A   1      29.881  25.035  26.336  1.00  0.00    -0.274 OA
ATOM     78  N   UNL A   1      31.442  23.722  25.341  1.00  0.00    -0.342 N 
ATOM     79  C   UNL A   1      32.682  23.473  24.633  1.00  0.00     0.119 C 
ATOM     80  C   UNL A   1      30.944  22.503  25.945  1.00  0.00     0.119 C 
ATOM     81  C   UNL A   1      32.489  22.056  24.134  1.00  0.00     0.023 C 
ATOM     82  C   UNL A   1      31.743  21.381  25.285  1.00  0.00     0.023 C 
ENDBRANCH  72  76
BRANCH  73  83
ATOM     83  C   UNL A   1      28.243  28.364  23.075  1.00  0.00     0.300 C 
BRANCH  83  84
ATOM     84  C   UNL A   1      28.234  29.808  22.645  1.00  0.00     0.025 A 
ATOM     85  C   UNL A   1      28.146  30.854  23.567  1.00  0.00     0.013 A 
ATOM     86  C   UNL A   1      28.262  30.152  21.294  1.00  0.00     0.120 A 
ATOM     87  C   UNL A   1      28.054  32.167  23.114  1.00  0.00     0.021 A 
ATOM     88  N   UNL A   1      28.189  31.419  20.827  1.00  0.00    -0.264 NA
ATOM     89  C   UNL A   1      28.071  32.396  21.749  1.00  0.00     0.111 A 
ENDBRANCH  83  84
ENDBRANCH  73  83
ENDBRANCH  66  69
ENDBRANCH  64  65
ENDBRANCH  63  64
ENDBRANCH   1  63
TORSDOF 14
ENDMDL
MODEL 2
REMARK VINA RESULT:     -12.7      2.530      5.217
REMARK SMILES O=C(NCCCCNC(=O)[C@H]1C[C@@H](C(=O)N2CCCC2)C[N@@H+](Cc2cccnc2)C1)c1ccc(-c2c3nc(c(-c4c(F)cccc4F)c4ccc([nH]4)c(-c4c(F)cccc4F)c4nc(c(-c5c(F)cccc5F)c5ccc2[nH]5)C=C4)C=C3)cc1
REMARK SMILES IDX 5 1 4 2 3 3 1 4 2 5 31 7 32 8 84 9 33 10 83 11 34 12 35 13
REMARK SMILES IDX 36 14 77 15 37 16 82 17 76 18 78 19 38 20 81 21 75 22 74 23
REMARK SMILES IDX 39 25 65 26 48 27 64 28 49 29 52 30 63 31 79 32 50 33 51 34
REMARK SMILES IDX 62 36 80 37 53 38 40 39 41 40 46 41 42 42 43 43 45 44 47 45
REMARK SMILES IDX 44 46 66 47 67 48 72 49 68 50 69 51 71 52 73 53 70 54 54 55
REMARK SMILES IDX 55 56 60 57 56 58 57 59 59 60 61 61 58 62 6 63 7 64 8 65
REMARK SMILES IDX 9 66 10 68 11 69 12 70 30 71 13 72 22 73 21 74 14 76 15 77
REMARK SMILES IDX 16 78 17 79 20 80 18 81 19 82 23 83 24 84 25 85 29 86 26 87
REMARK SMILES IDX 28 88 27 89
REMARK H PARENT 3 6 78 24 52 35 8 67 22 75
REMARK Flexibility Score: inf
ROOT
ATOM      1  C   UNL A   1      33.078  27.616  25.691  1.00  0.00     0.023 C 
ENDROOT
BRANCH   1   2
ATOM      2  C   UNL A   1      33.565  28.920  25.068  1.00  0.00     0.116 C 
BRANCH   2   3
ATOM      3  N   UNL A   1      32.883  30.085  25.597  1.00  0.00    -0.352 N 
ATOM      4  O   UNL A   1      32.409  31.703  27.091  1.00  0.00    -0.269 OA
ATOM      5  C   UNL A   1      33.176  30.828  26.718  1.00  0.00     0.251 C 
ATOM      6  H   UNL A   1      32.101  30.388  25.082  1.00  0.00     0.163 HD
BRANCH   5   7
ATOM      7  C   UNL A   1      34.411  30.546  27.488  1.00  0.00     0.039 A 
ATOM      8  C   UNL A   1      34.636  29.288  28.053  1.00  0.00     0.014 A 
ATOM      9  C   UNL A   1      35.364  31.556  27.628  1.00  0.00     0.014 A 
ATOM     10  C   UNL A   1      35.748  29.082  28.862  1.00  0.00     0.010 A 
ATOM     11  C   UNL A   1      36.523  31.322  28.374  1.00  0.00     0.010 A 
ATOM     12  C   UNL A   1      36.713  30.089  29.017  1.00  0.00    -0.014 A 
BRANCH  12  13
ATOM     13  C   UNL A   1      37.948  29.807  29.795  1.00  0.00     0.031 A 
ATOM     14  C   UNL A   1      38.153  30.372  31.172  1.00  0.00     0.074 A 
ATOM     15  C   UNL A   1      38.889  29.016  29.243  1.00  0.00     0.049 A 
ATOM     16  N   UNL A   1      39.170  30.216  31.982  1.00  0.00    -0.248 NA
ATOM     17  C   UNL A   1      37.084  31.226  31.709  1.00  0.00     0.031 C 
ATOM     18  C   UNL A   1      38.810  28.421  27.907  1.00  0.00     0.029 A 
ATOM     19  N   UNL A   1      40.087  28.564  29.736  1.00  0.00    -0.354 N 
ATOM     20  C   UNL A   1      38.873  30.961  33.117  1.00  0.00     0.074 A 
ATOM     21  C   UNL A   1      37.592  31.593  32.879  1.00  0.00     0.031 C 
ATOM     22  C   UNL A   1      39.889  27.653  27.702  1.00  0.00     0.029 A 
ATOM     23  C   UNL A   1      40.766  27.750  28.863  1.00  0.00     0.049 A 
ATOM     24  H   UNL A   1      40.427  28.802  30.629  1.00  0.00     0.167 HD
ATOM     25  C   UNL A   1      39.598  31.098  34.254  1.00  0.00     0.037 A 
ATOM     26  C   UNL A   1      41.970  27.161  28.974  1.00  0.00     0.037 A 
ATOM     27  C   UNL A   1      40.870  30.459  34.487  1.00  0.00     0.049 A 
ATOM     28  C   UNL A   1      42.767  27.358  30.230  1.00  0.00     0.074 A 
ATOM     29  C   UNL A   1      41.662  30.505  35.622  1.00  0.00     0.029 A 
ATOM     30  N   UNL A   1      41.539  29.665  33.567  1.00  0.00    -0.354 N 
ATOM     31  N   UNL A   1      42.453  28.031  31.309  1.00  0.00    -0.248 NA
ATOM     32  C   UNL A   1      44.087  26.716  30.281  1.00  0.00     0.031 C 
ATOM     33  C   UNL A   1      42.834  29.783  35.369  1.00  0.00     0.029 A 
ATOM     34  C   UNL A   1      42.747  29.239  34.098  1.00  0.00     0.049 A 
ATOM     35  H   UNL A   1      41.205  29.438  32.669  1.00  0.00     0.167 HD
ATOM     36  C   UNL A   1      43.526  27.880  32.176  1.00  0.00     0.074 A 
ATOM     37  C   UNL A   1      44.490  27.032  31.504  1.00  0.00     0.031 C 
ATOM     38  C   UNL A   1      43.699  28.398  33.416  1.00  0.00     0.037 A 
BRANCH  25  39
ATOM     39  C   UNL A   1      39.046  31.986  35.332  1.00  0.00     0.057 A 
ATOM     40  C   UNL A   1      38.253  31.485  36.372  1.00  0.00     0.134 A 
ATOM     41  C   UNL A   1      39.353  33.352  35.358  1.00  0.00     0.134 A 
ATOM     42  F   UNL A   1      37.913  30.187  36.405  1.00  0.00    -0.206 F 
ATOM     43  C   UNL A   1      37.767  32.313  37.387  1.00  0.00     0.040 A 
ATOM     44  C   UNL A   1      38.896  34.187  36.380  1.00  0.00     0.040 A 
ATOM     45  F   UNL A   1      40.116  33.899  34.399  1.00  0.00    -0.206 F 
ATOM     46  C   UNL A   1      38.095  33.668  37.396  1.00  0.00     0.006 A 
ENDBRANCH  25  39
BRANCH  26  47
ATOM     47  C   UNL A   1      42.493  26.336  27.856  1.00  0.00     0.057 A 
ATOM     48  C   UNL A   1      43.260  26.904  26.833  1.00  0.00     0.134 A 
ATOM     49  C   UNL A   1      42.245  24.960  27.790  1.00  0.00     0.134 A 
ATOM     50  F   UNL A   1      43.517  28.220  26.833  1.00  0.00    -0.206 F 
ATOM     51  C   UNL A   1      43.750  26.136  25.775  1.00  0.00     0.040 A 
ATOM     52  C   UNL A   1      42.753  24.174  26.755  1.00  0.00     0.040 A 
ATOM     53  F   UNL A   1      41.524  24.354  28.745  1.00  0.00    -0.206 F 
ATOM     54  C   UNL A   1      43.502  24.765  25.739  1.00  0.00     0.006 A 
ENDBRANCH  26  47
BRANCH  38  55
ATOM     55  C   UNL A   1      44.966  28.038  34.135  1.00  0.00     0.057 A 
ATOM     56  C   UNL A   1      45.069  26.879  34.915  1.00  0.00     0.134 A 
ATOM     57  C   UNL A   1      46.102  28.849  34.029  1.00  0.00     0.134 A 
ATOM     58  F   UNL A   1      44.013  26.067  35.071  1.00  0.00    -0.206 F 
ATOM     59  C   UNL A   1      46.250  26.553  35.585  1.00  0.00     0.040 A 
ATOM     60  C   UNL A   1      47.297  28.521  34.671  1.00  0.00     0.040 A 
ATOM     61  F   UNL A   1      46.073  29.971  33.293  1.00  0.00    -0.206 F 
ATOM     62  C   UNL A   1      47.370  27.372  35.458  1.00  0.00     0.006 A 
ENDBRANCH  38  55
ENDBRANCH  12  13
ENDBRANCH   5   7
ENDBRANCH   2   3
ENDBRANCH   1   2
BRANCH   1  63
ATOM     63  C   UNL A   1      31.558  27.402  25.686  1.00  0.00     0.023 C 
BRANCH  63  64
ATOM     64  C   UNL A   1      31.097  25.983  25.326  1.00  0.00     0.116 C 
BRANCH  64  65
ATOM     65  N   UNL A   1      30.938  25.178  26.519  1.00  0.00    -0.356 N 
ATOM     66  C   UNL A   1      31.038  23.838  26.700  1.00  0.00     0.228 C 
ATOM     67  H   UNL A   1      30.722  25.688  27.333  1.00  0.00     0.163 HD
ATOM     68  O   UNL A   1      30.156  23.342  27.410  1.00  0.00    -0.275 OA
BRANCH  66  69
ATOM     69  C   UNL A   1      32.279  23.049  26.281  1.00  0.00     0.134 C 
ATOM     70  C   UNL A   1      31.802  21.907  25.354  1.00  0.00     0.038 C 
ATOM     71  C   UNL A   1      33.420  23.817  25.597  1.00  0.00     0.276 C 
ATOM     72  C   UNL A   1      32.957  21.019  24.928  1.00  0.00     0.134 C 
ATOM     73  N   UNL A   1      34.531  22.910  25.250  1.00  0.00    -0.330 N 
ATOM     74  C   UNL A   1      34.091  21.853  24.328  1.00  0.00     0.276 C 
ATOM     75  H   UNL A   1      34.808  22.473  26.129  1.00  0.00     0.348 HD
BRANCH  72  76
ATOM     76  C   UNL A   1      32.531  20.036  23.848  1.00  0.00     0.231 C 
ATOM     77  O   UNL A   1      32.104  20.433  22.761  1.00  0.00    -0.274 OA
ATOM     78  N   UNL A   1      32.772  18.706  24.072  1.00  0.00    -0.342 N 
ATOM     79  C   UNL A   1      32.908  17.994  25.328  1.00  0.00     0.119 C 
ATOM     80  C   UNL A   1      33.008  17.817  22.952  1.00  0.00     0.119 C 
ATOM     81  C   UNL A   1      33.978  16.972  25.004  1.00  0.00     0.023 C 
ATOM     82  C   UNL A   1      33.657  16.577  23.562  1.00  0.00     0.023 C 
ENDBRANCH  72  76
BRANCH  73  83
ATOM     83  C   UNL A   1      35.750  23.588  24.769  1.00  0.00     0.300 C 
BRANCH  83  84
ATOM     84  C   UNL A   1      37.043  23.199  25.437  1.00  0.00     0.025 A 
ATOM     85  C   UNL A   1      37.766  24.095  26.229  1.00  0.00     0.013 A 
ATOM     86  C   UNL A   1      37.595  21.932  25.246  1.00  0.00     0.120 A 
ATOM     87  C   UNL A   1      38.998  23.714  26.753  1.00  0.00     0.021 A 
ATOM     88  N   UNL A   1      38.781  21.531  25.755  1.00  0.00    -0.264 NA
ATOM     89  C   UNL A   1      39.463  22.438  26.485  1.00  0.00     0.111 A 
ENDBRANCH  83  84
ENDBRANCH  73  83
ENDBRANCH  66  69
ENDBRANCH  64  65
ENDBRANCH  63  64
ENDBRANCH   1  63
TORSDOF 14
ENDMDL
MODEL 3
REMARK VINA RESULT:     -12.7      0.228      6.059
REMARK SMILES O=C(NCCCCNC(=O)[C@H]1C[C@@H](C(=O)N2CCCC2)C[N@@H+](Cc2cccnc2)C1)c1ccc(-c2c3nc(c(-c4c(F)cccc4F)c4ccc([nH]4)c(-c4c(F)cccc4F)c4nc(c(-c5c(F)cccc5F)c5ccc2[nH]5)C=C4)C=C3)cc1
REMARK SMILES IDX 5 1 4 2 3 3 1 4 2 5 31 7 32 8 84 9 33 10 83 11 34 12 35 13
REMARK SMILES IDX 36 14 77 15 37 16 82 17 76 18 78 19 38 20 81 21 75 22 74 23
REMARK SMILES IDX 39 25 65 26 48 27 64 28 49 29 52 30 63 31 79 32 50 33 51 34
REMARK SMILES IDX 62 36 80 37 53 38 40 39 41 40 46 41 42 42 43 43 45 44 47 45
REMARK SMILES IDX 44 46 66 47 67 48 72 49 68 50 69 51 71 52 73 53 70 54 54 55
REMARK SMILES IDX 55 56 60 57 56 58 57 59 59 60 61 61 58 62 6 63 7 64 8 65
REMARK SMILES IDX 9 66 10 68 11 69 12 70 30 71 13 72 22 73 21 74 14 76 15 77
REMARK SMILES IDX 16 78 17 79 20 80 18 81 19 82 23 83 24 84 25 85 29 86 26 87
REMARK SMILES IDX 28 88 27 89
REMARK H PARENT 3 6 78 24 52 35 8 67 22 75
REMARK Flexibility Score: inf
ROOT
ATOM      1  C   UNL A   1      31.392  32.159  26.498  1.00  0.00     0.023 C 
ENDROOT
BRANCH   1   2
ATOM      2  C   UNL A   1      32.691  32.739  27.047  1.00  0.00     0.116 C 
BRANCH   2   3
ATOM      3  N   UNL A   1      32.517  34.055  27.631  1.00  0.00    -0.352 N 
ATOM      4  O   UNL A   1      32.836  35.715  29.119  1.00  0.00    -0.269 OA
ATOM      5  C   UNL A   1      33.207  34.644  28.665  1.00  0.00     0.251 C 
ATOM      6  H   UNL A   1      31.806  34.604  27.230  1.00  0.00     0.163 HD
BRANCH   5   7
ATOM      7  C   UNL A   1      34.387  33.961  29.247  1.00  0.00     0.039 A 
ATOM      8  C   UNL A   1      35.683  34.300  28.852  1.00  0.00     0.014 A 
ATOM      9  C   UNL A   1      34.187  32.977  30.218  1.00  0.00     0.014 A 
ATOM     10  C   UNL A   1      36.766  33.570  29.331  1.00  0.00     0.010 A 
ATOM     11  C   UNL A   1      35.283  32.299  30.760  1.00  0.00     0.010 A 
ATOM     12  C   UNL A   1      36.581  32.574  30.303  1.00  0.00    -0.014 A 
BRANCH  12  13
ATOM     13  C   UNL A   1      37.765  31.887  30.881  1.00  0.00     0.031 A 
ATOM     14  C   UNL A   1      38.487  30.804  30.128  1.00  0.00     0.074 A 
ATOM     15  C   UNL A   1      38.194  32.260  32.102  1.00  0.00     0.049 A 
ATOM     16  N   UNL A   1      39.537  30.110  30.491  1.00  0.00    -0.248 NA
ATOM     17  C   UNL A   1      37.962  30.449  28.802  1.00  0.00     0.031 C 
ATOM     18  C   UNL A   1      37.566  33.288  32.936  1.00  0.00     0.029 A 
ATOM     19  N   UNL A   1      39.262  31.834  32.850  1.00  0.00    -0.354 N 
ATOM     20  C   UNL A   1      39.791  29.228  29.447  1.00  0.00     0.074 A 
ATOM     21  C   UNL A   1      38.766  29.454  28.450  1.00  0.00     0.031 C 
ATOM     22  C   UNL A   1      38.280  33.440  34.060  1.00  0.00     0.029 A 
ATOM     23  C   UNL A   1      39.378  32.481  34.056  1.00  0.00     0.049 A 
ATOM     24  H   UNL A   1      39.884  31.132  32.552  1.00  0.00     0.167 HD
ATOM     25  C   UNL A   1      40.791  28.321  29.331  1.00  0.00     0.037 A 
ATOM     26  C   UNL A   1      40.257  32.308  35.059  1.00  0.00     0.037 A 
ATOM     27  C   UNL A   1      41.812  28.105  30.326  1.00  0.00     0.049 A 
ATOM     28  C   UNL A   1      41.333  31.271  34.918  1.00  0.00     0.074 A 
ATOM     29  C   UNL A   1      42.890  27.237  30.281  1.00  0.00     0.029 A 
ATOM     30  N   UNL A   1      41.879  28.760  31.548  1.00  0.00    -0.354 N 
ATOM     31  N   UNL A   1      41.584  30.476  33.908  1.00  0.00    -0.248 NA
ATOM     32  C   UNL A   1      42.245  31.108  36.058  1.00  0.00     0.031 C 
ATOM     33  C   UNL A   1      43.577  27.327  31.497  1.00  0.00     0.029 A 
ATOM     34  C   UNL A   1      42.962  28.293  32.277  1.00  0.00     0.049 A 
ATOM     35  H   UNL A   1      41.250  29.453  31.852  1.00  0.00     0.167 HD
ATOM     36  C   UNL A   1      42.693  29.729  34.281  1.00  0.00     0.074 A 
ATOM     37  C   UNL A   1      43.079  30.184  35.601  1.00  0.00     0.031 C 
ATOM     38  C   UNL A   1      43.333  28.753  33.592  1.00  0.00     0.037 A 
BRANCH  25  39
ATOM     39  C   UNL A   1      40.825  27.474  28.090  1.00  0.00     0.057 A 
ATOM     40  C   UNL A   1      41.548  27.853  26.953  1.00  0.00     0.134 A 
ATOM     41  C   UNL A   1      40.165  26.239  28.051  1.00  0.00     0.134 A 
ATOM     42  F   UNL A   1      42.197  29.027  26.919  1.00  0.00    -0.206 F 
ATOM     43  C   UNL A   1      41.597  27.045  25.814  1.00  0.00     0.040 A 
ATOM     44  C   UNL A   1      40.227  25.410  26.929  1.00  0.00     0.040 A 
ATOM     45  F   UNL A   1      39.460  25.808  29.109  1.00  0.00    -0.206 F 
ATOM     46  C   UNL A   1      40.941  25.816  25.803  1.00  0.00     0.006 A 
ENDBRANCH  25  39
BRANCH  26  47
ATOM     47  C   UNL A   1      40.147  33.135  36.287  1.00  0.00     0.057 A 
ATOM     48  C   UNL A   1      39.258  32.796  37.313  1.00  0.00     0.134 A 
ATOM     49  C   UNL A   1      40.935  34.279  36.466  1.00  0.00     0.134 A 
ATOM     50  F   UNL A   1      38.466  31.722  37.191  1.00  0.00    -0.206 F 
ATOM     51  C   UNL A   1      39.145  33.573  38.467  1.00  0.00     0.040 A 
ATOM     52  C   UNL A   1      40.853  35.049  37.627  1.00  0.00     0.040 A 
ATOM     53  F   UNL A   1      41.812  34.653  35.523  1.00  0.00    -0.206 F 
ATOM     54  C   UNL A   1      39.950  34.699  38.629  1.00  0.00     0.006 A 
ENDBRANCH  26  47
BRANCH  38  55
ATOM     55  C   UNL A   1      44.533  28.133  34.245  1.00  0.00     0.057 A 
ATOM     56  C   UNL A   1      45.816  28.676  34.101  1.00  0.00     0.134 A 
ATOM     57  C   UNL A   1      44.401  26.990  35.044  1.00  0.00     0.134 A 
ATOM     58  F   UNL A   1      46.015  29.759  33.336  1.00  0.00    -0.206 F 
ATOM     59  C   UNL A   1      46.928  28.090  34.708  1.00  0.00     0.040 A 
ATOM     60  C   UNL A   1      45.500  26.411  35.679  1.00  0.00     0.040 A 
ATOM     61  F   UNL A   1      43.199  26.423  35.229  1.00  0.00    -0.206 F 
ATOM     62  C   UNL A   1      46.770  26.957  35.505  1.00  0.00     0.006 A 
ENDBRANCH  38  55
ENDBRANCH  12  13
ENDBRANCH   5   7
ENDBRANCH   2   3
ENDBRANCH   1   2
BRANCH   1  63
ATOM     63  C   UNL A   1      31.383  30.640  26.273  1.00  0.00     0.023 C 
BRANCH  63  64
ATOM     64  C   UNL A   1      32.767  29.986  26.159  1.00  0.00     0.116 C 
BRANCH  64  65
ATOM     65  N   UNL A   1      33.201  29.945  24.778  1.00  0.00    -0.356 N 
ATOM     66  C   UNL A   1      33.246  28.915  23.896  1.00  0.00     0.228 C 
ATOM     67  H   UNL A   1      33.517  30.806  24.420  1.00  0.00     0.163 HD
ATOM     68  O   UNL A   1      34.278  28.855  23.219  1.00  0.00    -0.275 OA
BRANCH  66  69
ATOM     69  C   UNL A   1      32.018  28.060  23.581  1.00  0.00     0.134 C 
ATOM     70  C   UNL A   1      32.007  26.889  24.591  1.00  0.00     0.038 C 
ATOM     71  C   UNL A   1      30.645  28.747  23.582  1.00  0.00     0.276 C 
ATOM     72  C   UNL A   1      30.856  25.936  24.324  1.00  0.00     0.134 C 
ATOM     73  N   UNL A   1      29.573  27.781  23.271  1.00  0.00    -0.330 N 
ATOM     74  C   UNL A   1      29.528  26.694  24.259  1.00  0.00     0.276 C 
ATOM     75  H   UNL A   1      29.824  27.381  22.367  1.00  0.00     0.348 HD
BRANCH  72  76
ATOM     76  C   UNL A   1      30.712  24.915  25.441  1.00  0.00     0.231 C 
ATOM     77  O   UNL A   1      29.874  25.063  26.334  1.00  0.00    -0.274 OA
ATOM     78  N   UNL A   1      31.444  23.760  25.341  1.00  0.00    -0.342 N 
ATOM     79  C   UNL A   1      32.690  23.518  24.642  1.00  0.00     0.119 C 
ATOM     80  C   UNL A   1      30.941  22.535  25.931  1.00  0.00     0.119 C 
ATOM     81  C   UNL A   1      32.502  22.105  24.128  1.00  0.00     0.023 C 
ATOM     82  C   UNL A   1      31.747  21.420  25.268  1.00  0.00     0.023 C 
ENDBRANCH  72  76
BRANCH  73  83
ATOM     83  C   UNL A   1      28.245  28.386  23.057  1.00  0.00     0.300 C 
BRANCH  83  84
ATOM     84  C   UNL A   1      28.225  29.829  22.621  1.00  0.00     0.025 A 
ATOM     85  C   UNL A   1      28.126  30.878  23.538  1.00  0.00     0.013 A 
ATOM     86  C   UNL A   1      28.257  30.168  21.269  1.00  0.00     0.120 A 
ATOM     87  C   UNL A   1      28.025  32.188  23.080  1.00  0.00     0.021 A 
ATOM     88  N   UNL A   1      28.176  31.432  20.797  1.00  0.00    -0.264 NA
ATOM     89  C   UNL A   1      28.047  32.412  21.714  1.00  0.00     0.111 A 
ENDBRANCH  83  84
ENDBRANCH  73  83
ENDBRANCH  66  69
ENDBRANCH  64  65
ENDBRANCH  63  64
ENDBRANCH   1  63
TORSDOF 14
ENDMDL
