MODEL 1
REMARK VINA RESULT:     -12.7      0.000      0.000
REMARK SMILES O=C(NCCCCNC(=O)c1cc(-c2ccccc2)nc(Nc2nc3ccccc3s2)n1)c1ccc(-c2c3nc(c(-c4c(F)cccc4F)c4ccc([nH]4)c(-c4c(F)cccc4F)c4nc(c(-c5c(F)cccc5F)c5ccc2[nH]5)C=C4)C=C3)cc1
REMARK SMILES IDX 5 1 4 2 3 3 1 4 2 5 33 7 34 8 86 9 35 10 85 11 36 12 37 13
REMARK SMILES IDX 38 14 79 15 39 16 84 17 78 18 80 19 40 20 83 21 77 22 76 23
REMARK SMILES IDX 41 25 67 26 50 27 66 28 51 29 54 30 65 31 81 32 52 33 53 34
REMARK SMILES IDX 64 36 82 37 55 38 42 39 43 40 48 41 44 42 45 43 47 44 49 45
REMARK SMILES IDX 46 46 68 47 69 48 74 49 70 50 71 51 73 52 75 53 72 54 56 55
REMARK SMILES IDX 57 56 62 57 58 58 59 59 61 60 63 61 60 62 6 63 7 64 8 65
REMARK SMILES IDX 9 66 10 68 11 69 12 70 32 71 13 72 21 73 20 74 14 75 15 76
REMARK SMILES IDX 19 77 16 78 18 79 17 80 22 81 23 83 24 84 31 85 25 86 30 87
REMARK SMILES IDX 26 88 29 89 27 90 28 91
REMARK H PARENT 3 6 80 24 54 35 8 67 22 82
REMARK Flexibility Score: inf
ROOT
ATOM      1  C   UNL A   1      38.966  21.279  25.493  1.00  0.00     0.023 C 
ENDROOT
BRANCH   1   2
ATOM      2  C   UNL A   1      39.277  20.041  26.324  1.00  0.00     0.116 C 
BRANCH   2   3
ATOM      3  N   UNL A   1      40.468  19.344  25.867  1.00  0.00    -0.352 N 
ATOM      4  O   UNL A   1      42.624  19.111  25.250  1.00  0.00    -0.269 OA
ATOM      5  C   UNL A   1      41.771  19.779  25.822  1.00  0.00     0.251 C 
ATOM      6  H   UNL A   1      40.320  18.427  25.543  1.00  0.00     0.163 HD
BRANCH   5   7
ATOM      7  C   UNL A   1      42.136  21.069  26.444  1.00  0.00     0.039 A 
ATOM      8  C   UNL A   1      42.138  21.220  27.834  1.00  0.00     0.014 A 
ATOM      9  C   UNL A   1      42.494  22.136  25.618  1.00  0.00     0.014 A 
ATOM     10  C   UNL A   1      42.368  22.473  28.392  1.00  0.00     0.010 A 
ATOM     11  C   UNL A   1      42.801  23.374  26.184  1.00  0.00     0.010 A 
ATOM     12  C   UNL A   1      42.715  23.559  27.574  1.00  0.00    -0.014 A 
BRANCH  12  13
ATOM     13  C   UNL A   1      43.045  24.874  28.176  1.00  0.00     0.031 A 
ATOM     14  C   UNL A   1      41.972  25.887  28.442  1.00  0.00     0.074 A 
ATOM     15  C   UNL A   1      44.332  25.165  28.438  1.00  0.00     0.049 A 
ATOM     16  N   UNL A   1      42.088  27.122  28.861  1.00  0.00    -0.248 NA
ATOM     17  C   UNL A   1      40.586  25.462  28.195  1.00  0.00     0.031 C 
ATOM     18  C   UNL A   1      45.462  24.260  28.217  1.00  0.00     0.029 A 
ATOM     19  N   UNL A   1      44.911  26.308  28.927  1.00  0.00    -0.354 N 
ATOM     20  C   UNL A   1      40.796  27.631  28.903  1.00  0.00     0.074 A 
ATOM     21  C   UNL A   1      39.915  26.578  28.443  1.00  0.00     0.031 C 
ATOM     22  C   UNL A   1      46.596  24.881  28.567  1.00  0.00     0.029 A 
ATOM     23  C   UNL A   1      46.281  26.247  28.974  1.00  0.00     0.049 A 
ATOM     24  H   UNL A   1      44.393  27.095  29.215  1.00  0.00     0.167 HD
ATOM     25  C   UNL A   1      40.387  28.864  29.290  1.00  0.00     0.037 A 
ATOM     26  C   UNL A   1      47.190  27.194  29.269  1.00  0.00     0.037 A 
ATOM     27  C   UNL A   1      41.277  29.902  29.746  1.00  0.00     0.049 A 
ATOM     28  C   UNL A   1      46.721  28.565  29.651  1.00  0.00     0.074 A 
ATOM     29  C   UNL A   1      40.959  31.169  30.205  1.00  0.00     0.029 A 
ATOM     30  N   UNL A   1      42.660  29.799  29.783  1.00  0.00    -0.354 N 
ATOM     31  N   UNL A   1      45.495  29.024  29.729  1.00  0.00    -0.248 NA
ATOM     32  C   UNL A   1      47.756  29.552  29.987  1.00  0.00     0.031 C 
ATOM     33  C   UNL A   1      42.153  31.853  30.460  1.00  0.00     0.029 A 
ATOM     34  C   UNL A   1      43.213  30.992  30.224  1.00  0.00     0.049 A 
ATOM     35  H   UNL A   1      43.174  28.999  29.532  1.00  0.00     0.167 HD
ATOM     36  C   UNL A   1      45.608  30.342  30.149  1.00  0.00     0.074 A 
ATOM     37  C   UNL A   1      47.023  30.610  30.309  1.00  0.00     0.031 C 
ATOM     38  C   UNL A   1      44.623  31.244  30.386  1.00  0.00     0.037 A 
BRANCH  25  39
ATOM     39  C   UNL A   1      38.918  29.167  29.196  1.00  0.00     0.057 A 
ATOM     40  C   UNL A   1      38.066  29.086  30.306  1.00  0.00     0.134 A 
ATOM     41  C   UNL A   1      38.349  29.553  27.976  1.00  0.00     0.134 A 
ATOM     42  F   UNL A   1      38.541  28.716  31.504  1.00  0.00    -0.206 F 
ATOM     43  C   UNL A   1      36.697  29.341  30.195  1.00  0.00     0.040 A 
ATOM     44  C   UNL A   1      36.988  29.840  27.860  1.00  0.00     0.040 A 
ATOM     45  F   UNL A   1      39.107  29.663  26.874  1.00  0.00    -0.206 F 
ATOM     46  C   UNL A   1      36.155  29.721  28.969  1.00  0.00     0.006 A 
ENDBRANCH  25  39
BRANCH  26  47
ATOM     47  C   UNL A   1      48.632  26.856  29.188  1.00  0.00     0.057 A 
ATOM     48  C   UNL A   1      49.356  27.048  28.007  1.00  0.00     0.134 A 
ATOM     49  C   UNL A   1      49.332  26.394  30.309  1.00  0.00     0.134 A 
ATOM     50  F   UNL A   1      48.736  27.478  26.898  1.00  0.00    -0.206 F 
ATOM     51  C   UNL A   1      50.726  26.793  27.943  1.00  0.00     0.040 A 
ATOM     52  C   UNL A   1      50.707  26.160  30.267  1.00  0.00     0.040 A 
ATOM     53  F   UNL A   1      48.695  26.205  31.475  1.00  0.00    -0.206 F 
ATOM     54  C   UNL A   1      51.407  26.357  29.080  1.00  0.00     0.006 A 
ENDBRANCH  26  47
BRANCH  38  55
ATOM     55  C   UNL A   1      45.030  32.597  30.889  1.00  0.00     0.057 A 
ATOM     56  C   UNL A   1      45.235  33.681  30.027  1.00  0.00     0.134 A 
ATOM     57  C   UNL A   1      45.138  32.835  32.266  1.00  0.00     0.134 A 
ATOM     58  F   UNL A   1      45.161  33.516  28.698  1.00  0.00    -0.206 F 
ATOM     59  C   UNL A   1      45.539  34.953  30.517  1.00  0.00     0.040 A 
ATOM     60  C   UNL A   1      45.416  34.107  32.769  1.00  0.00     0.040 A 
ATOM     61  F   UNL A   1      44.949  31.840  33.146  1.00  0.00    -0.206 F 
ATOM     62  C   UNL A   1      45.617  35.171  31.892  1.00  0.00     0.006 A 
ENDBRANCH  38  55
ENDBRANCH  12  13
ENDBRANCH   5   7
ENDBRANCH   2   3
ENDBRANCH   1   2
BRANCH   1  63
ATOM     63  C   UNL A   1      38.641  22.535  26.300  1.00  0.00     0.023 C 
BRANCH  63  64
ATOM     64  C   UNL A   1      37.457  23.345  25.789  1.00  0.00     0.116 C 
BRANCH  64  65
ATOM     65  N   UNL A   1      37.257  23.215  24.356  1.00  0.00    -0.351 N 
ATOM     66  C   UNL A   1      36.078  23.261  23.644  1.00  0.00     0.270 C 
ATOM     67  H   UNL A   1      38.073  23.074  23.822  1.00  0.00     0.163 HD
ATOM     68  O   UNL A   1      36.093  23.083  22.431  1.00  0.00    -0.268 OA
BRANCH  66  69
ATOM     69  C   UNL A   1      34.813  23.553  24.359  1.00  0.00     0.134 A 
ATOM     70  C   UNL A   1      34.476  24.842  24.661  1.00  0.00     0.063 A 
ATOM     71  N   UNL A   1      34.086  22.493  24.719  1.00  0.00    -0.207 NA
ATOM     72  C   UNL A   1      33.357  24.987  25.447  1.00  0.00     0.077 A 
ATOM     73  C   UNL A   1      32.983  22.706  25.441  1.00  0.00     0.230 A 
ATOM     74  N   UNL A   1      32.596  23.934  25.835  1.00  0.00    -0.213 NA
BRANCH  72  75
ATOM     75  C   UNL A   1      33.015  26.319  25.970  1.00  0.00     0.000 A 
ATOM     76  C   UNL A   1      31.761  26.568  26.549  1.00  0.00     0.010 A 
ATOM     77  C   UNL A   1      33.982  27.340  26.022  1.00  0.00     0.010 A 
ATOM     78  C   UNL A   1      31.498  27.782  27.193  1.00  0.00     0.001 A 
ATOM     79  C   UNL A   1      33.720  28.552  26.661  1.00  0.00     0.001 A 
ATOM     80  C   UNL A   1      32.480  28.770  27.255  1.00  0.00     0.000 A 
ENDBRANCH  72  75
BRANCH  73  81
ATOM     81  N   UNL A   1      32.147  21.630  25.736  1.00  0.00    -0.300 N 
ATOM     82  H   UNL A   1      31.378  21.776  26.332  1.00  0.00     0.172 HD
BRANCH  81  83
ATOM     83  C   UNL A   1      32.354  20.394  25.232  1.00  0.00     0.190 A 
ATOM     84  N   UNL A   1      32.570  19.316  25.951  1.00  0.00    -0.220 NA
ATOM     85  S   UNL A   1      32.375  20.115  23.529  1.00  0.00    -0.097 S 
ATOM     86  C   UNL A   1      33.005  18.276  25.164  1.00  0.00     0.084 A 
ATOM     87  C   UNL A   1      32.993  18.524  23.793  1.00  0.00     0.056 A 
ATOM     88  C   UNL A   1      33.469  17.031  25.635  1.00  0.00     0.030 A 
ATOM     89  C   UNL A   1      33.441  17.565  22.868  1.00  0.00     0.021 A 
ATOM     90  C   UNL A   1      33.931  16.077  24.727  1.00  0.00     0.002 A 
ATOM     91  C   UNL A   1      33.918  16.343  23.362  1.00  0.00     0.002 A 
ENDBRANCH  81  83
ENDBRANCH  73  81
ENDBRANCH  66  69
ENDBRANCH  64  65
ENDBRANCH  63  64
ENDBRANCH   1  63
TORSDOF 14
ENDMDL
MODEL 2
REMARK VINA RESULT:     -12.7      2.121      6.944
REMARK SMILES O=C(NCCCCNC(=O)c1cc(-c2ccccc2)nc(Nc2nc3ccccc3s2)n1)c1ccc(-c2c3nc(c(-c4c(F)cccc4F)c4ccc([nH]4)c(-c4c(F)cccc4F)c4nc(c(-c5c(F)cccc5F)c5ccc2[nH]5)C=C4)C=C3)cc1
REMARK SMILES IDX 5 1 4 2 3 3 1 4 2 5 33 7 34 8 86 9 35 10 85 11 36 12 37 13
REMARK SMILES IDX 38 14 79 15 39 16 84 17 78 18 80 19 40 20 83 21 77 22 76 23
REMARK SMILES IDX 41 25 67 26 50 27 66 28 51 29 54 30 65 31 81 32 52 33 53 34
REMARK SMILES IDX 64 36 82 37 55 38 42 39 43 40 48 41 44 42 45 43 47 44 49 45
REMARK SMILES IDX 46 46 68 47 69 48 74 49 70 50 71 51 73 52 75 53 72 54 56 55
REMARK SMILES IDX 57 56 62 57 58 58 59 59 61 60 63 61 60 62 6 63 7 64 8 65
REMARK SMILES IDX 9 66 10 68 11 69 12 70 32 71 13 72 21 73 20 74 14 75 15 76
REMARK SMILES IDX 19 77 16 78 18 79 17 80 22 81 23 83 24 84 31 85 25 86 30 87
REMARK SMILES IDX 26 88 29 89 27 90 28 91
REMARK H PARENT 3 6 80 24 54 35 8 67 22 82
REMARK Flexibility Score: inf
ROOT
ATOM      1  C   UNL A   1      33.648  28.048  25.554  1.00  0.00     0.023 C 
ENDROOT
BRANCH   1   2
ATOM      2  C   UNL A   1      34.031  28.298  27.007  1.00  0.00     0.116 C 
BRANCH   2   3
ATOM      3  N   UNL A   1      33.868  29.688  27.398  1.00  0.00    -0.352 N 
ATOM      4  O   UNL A   1      34.358  31.610  28.469  1.00  0.00    -0.269 OA
ATOM      5  C   UNL A   1      34.731  30.510  28.084  1.00  0.00     0.251 C 
ATOM      6  H   UNL A   1      33.016  30.103  27.132  1.00  0.00     0.163 HD
BRANCH   5   7
ATOM      7  C   UNL A   1      36.105  30.049  28.377  1.00  0.00     0.039 A 
ATOM      8  C   UNL A   1      36.430  29.513  29.626  1.00  0.00     0.014 A 
ATOM      9  C   UNL A   1      37.074  30.148  27.378  1.00  0.00     0.014 A 
ATOM     10  C   UNL A   1      37.753  29.197  29.920  1.00  0.00     0.010 A 
ATOM     11  C   UNL A   1      38.386  29.758  27.649  1.00  0.00     0.010 A 
ATOM     12  C   UNL A   1      38.741  29.304  28.929  1.00  0.00    -0.014 A 
BRANCH  12  13
ATOM     13  C   UNL A   1      40.135  28.886  29.216  1.00  0.00     0.031 A 
ATOM     14  C   UNL A   1      41.109  29.840  29.842  1.00  0.00     0.074 A 
ATOM     15  C   UNL A   1      40.530  27.650  28.863  1.00  0.00     0.049 A 
ATOM     16  N   UNL A   1      42.390  29.684  30.065  1.00  0.00    -0.248 NA
ATOM     17  C   UNL A   1      40.579  31.145  30.262  1.00  0.00     0.031 C 
ATOM     18  C   UNL A   1      39.671  26.637  28.244  1.00  0.00     0.029 A 
ATOM     19  N   UNL A   1      41.754  27.039  28.954  1.00  0.00    -0.354 N 
ATOM     20  C   UNL A   1      42.824  30.877  30.627  1.00  0.00     0.074 A 
ATOM     21  C   UNL A   1      41.675  31.756  30.688  1.00  0.00     0.031 C 
ATOM     22  C   UNL A   1      40.395  25.534  28.010  1.00  0.00     0.029 A 
ATOM     23  C   UNL A   1      41.778  25.783  28.401  1.00  0.00     0.049 A 
ATOM     24  H   UNL A   1      42.538  27.461  29.374  1.00  0.00     0.167 HD
ATOM     25  C   UNL A   1      44.068  31.206  31.052  1.00  0.00     0.037 A 
ATOM     26  C   UNL A   1      42.805  24.940  28.189  1.00  0.00     0.037 A 
ATOM     27  C   UNL A   1      45.204  30.320  30.985  1.00  0.00     0.049 A 
ATOM     28  C   UNL A   1      44.183  25.338  28.624  1.00  0.00     0.074 A 
ATOM     29  C   UNL A   1      46.496  30.540  31.431  1.00  0.00     0.029 A 
ATOM     30  N   UNL A   1      45.186  29.053  30.420  1.00  0.00    -0.354 N 
ATOM     31  N   UNL A   1      44.575  26.452  29.194  1.00  0.00    -0.248 NA
ATOM     32  C   UNL A   1      45.260  24.368  28.390  1.00  0.00     0.031 C 
ATOM     33  C   UNL A   1      47.273  29.431  31.081  1.00  0.00     0.029 A 
ATOM     34  C   UNL A   1      46.452  28.492  30.476  1.00  0.00     0.049 A 
ATOM     35  H   UNL A   1      44.393  28.616  30.036  1.00  0.00     0.167 HD
ATOM     36  C   UNL A   1      45.939  26.308  29.412  1.00  0.00     0.074 A 
ATOM     37  C   UNL A   1      46.305  24.998  28.913  1.00  0.00     0.031 C 
ATOM     38  C   UNL A   1      46.803  27.183  29.982  1.00  0.00     0.037 A 
BRANCH  25  39
ATOM     39  C   UNL A   1      44.273  32.596  31.587  1.00  0.00     0.057 A 
ATOM     40  C   UNL A   1      44.120  32.904  32.945  1.00  0.00     0.134 A 
ATOM     41  C   UNL A   1      44.637  33.641  30.728  1.00  0.00     0.134 A 
ATOM     42  F   UNL A   1      43.766  31.954  33.823  1.00  0.00    -0.206 F 
ATOM     43  C   UNL A   1      44.282  34.207  33.422  1.00  0.00     0.040 A 
ATOM     44  C   UNL A   1      44.832  34.941  31.197  1.00  0.00     0.040 A 
ATOM     45  F   UNL A   1      44.813  33.417  29.417  1.00  0.00    -0.206 F 
ATOM     46  C   UNL A   1      44.642  35.230  32.546  1.00  0.00     0.006 A 
ENDBRANCH  25  39
BRANCH  26  47
ATOM     47  C   UNL A   1      42.544  23.646  27.512  1.00  0.00     0.057 A 
ATOM     48  C   UNL A   1      42.625  23.526  26.121  1.00  0.00     0.134 A 
ATOM     49  C   UNL A   1      42.271  22.486  28.247  1.00  0.00     0.134 A 
ATOM     50  F   UNL A   1      42.873  24.606  25.364  1.00  0.00    -0.206 F 
ATOM     51  C   UNL A   1      42.444  22.298  25.484  1.00  0.00     0.040 A 
ATOM     52  C   UNL A   1      42.113  21.247  27.625  1.00  0.00     0.040 A 
ATOM     53  F   UNL A   1      42.195  22.534  29.585  1.00  0.00    -0.206 F 
ATOM     54  C   UNL A   1      42.197  21.152  26.239  1.00  0.00     0.006 A 
ENDBRANCH  26  47
BRANCH  38  55
ATOM     55  C   UNL A   1      48.228  26.742  30.143  1.00  0.00     0.057 A 
ATOM     56  C   UNL A   1      48.648  25.964  31.229  1.00  0.00     0.134 A 
ATOM     57  C   UNL A   1      49.175  27.036  29.153  1.00  0.00     0.134 A 
ATOM     58  F   UNL A   1      47.794  25.661  32.219  1.00  0.00    -0.206 F 
ATOM     59  C   UNL A   1      49.960  25.497  31.325  1.00  0.00     0.040 A 
ATOM     60  C   UNL A   1      50.482  26.554  29.224  1.00  0.00     0.040 A 
ATOM     61  F   UNL A   1      48.835  27.773  28.084  1.00  0.00    -0.206 F 
ATOM     62  C   UNL A   1      50.878  25.782  30.315  1.00  0.00     0.006 A 
ENDBRANCH  38  55
ENDBRANCH  12  13
ENDBRANCH   5   7
ENDBRANCH   2   3
ENDBRANCH   1   2
BRANCH   1  63
ATOM     63  C   UNL A   1      32.147  28.073  25.267  1.00  0.00     0.023 C 
BRANCH  63  64
ATOM     64  C   UNL A   1      31.641  26.951  24.369  1.00  0.00     0.116 C 
BRANCH  64  65
ATOM     65  N   UNL A   1      32.278  26.939  23.063  1.00  0.00    -0.351 N 
ATOM     66  C   UNL A   1      33.163  26.018  22.546  1.00  0.00     0.270 C 
ATOM     67  H   UNL A   1      32.047  27.690  22.469  1.00  0.00     0.163 HD
ATOM     68  O   UNL A   1      33.641  26.195  21.431  1.00  0.00    -0.268 OA
BRANCH  66  69
ATOM     69  C   UNL A   1      33.499  24.813  23.341  1.00  0.00     0.134 A 
ATOM     70  C   UNL A   1      34.741  24.681  23.894  1.00  0.00     0.063 A 
ATOM     71  N   UNL A   1      32.548  23.881  23.422  1.00  0.00    -0.207 NA
ATOM     72  C   UNL A   1      34.991  23.466  24.488  1.00  0.00     0.077 A 
ATOM     73  C   UNL A   1      32.839  22.742  24.054  1.00  0.00     0.230 A 
ATOM     74  N   UNL A   1      34.052  22.494  24.586  1.00  0.00    -0.213 NA
BRANCH  72  75
ATOM     75  C   UNL A   1      36.353  23.163  24.956  1.00  0.00     0.000 A 
ATOM     76  C   UNL A   1      37.058  24.067  25.767  1.00  0.00     0.010 A 
ATOM     77  C   UNL A   1      36.932  21.904  24.711  1.00  0.00     0.010 A 
ATOM     78  C   UNL A   1      38.280  23.708  26.345  1.00  0.00     0.001 A 
ATOM     79  C   UNL A   1      38.153  21.546  25.285  1.00  0.00     0.001 A 
ATOM     80  C   UNL A   1      38.822  22.445  26.110  1.00  0.00     0.000 A 
ENDBRANCH  72  75
BRANCH  73  81
ATOM     81  N   UNL A   1      31.833  21.798  24.250  1.00  0.00    -0.300 N 
ATOM     82  H   UNL A   1      30.916  22.111  24.426  1.00  0.00     0.172 HD
BRANCH  81  83
ATOM     83  C   UNL A   1      32.070  20.469  24.208  1.00  0.00     0.190 A 
ATOM     84  N   UNL A   1      32.040  19.666  25.248  1.00  0.00    -0.220 NA
ATOM     85  S   UNL A   1      32.468  19.679  22.726  1.00  0.00    -0.097 S 
ATOM     86  C   UNL A   1      32.578  18.439  24.940  1.00  0.00     0.084 A 
ATOM     87  C   UNL A   1      32.902  18.252  23.598  1.00  0.00     0.056 A 
ATOM     88  C   UNL A   1      32.836  17.405  25.862  1.00  0.00     0.030 A 
ATOM     89  C   UNL A   1      33.488  17.059  23.142  1.00  0.00     0.021 A 
ATOM     90  C   UNL A   1      33.433  16.221  25.423  1.00  0.00     0.002 A 
ATOM     91  C   UNL A   1      33.756  16.054  24.081  1.00  0.00     0.002 A 
ENDBRANCH  81  83
ENDBRANCH  73  81
ENDBRANCH  66  69
ENDBRANCH  64  65
ENDBRANCH  63  64
ENDBRANCH   1  63
TORSDOF 14
ENDMDL
MODEL 3
REMARK VINA RESULT:     -12.7      0.563      6.068
REMARK SMILES O=C(NCCCCNC(=O)c1cc(-c2ccccc2)nc(Nc2nc3ccccc3s2)n1)c1ccc(-c2c3nc(c(-c4c(F)cccc4F)c4ccc([nH]4)c(-c4c(F)cccc4F)c4nc(c(-c5c(F)cccc5F)c5ccc2[nH]5)C=C4)C=C3)cc1
REMARK SMILES IDX 5 1 4 2 3 3 1 4 2 5 33 7 34 8 86 9 35 10 85 11 36 12 37 13
REMARK SMILES IDX 38 14 79 15 39 16 84 17 78 18 80 19 40 20 83 21 77 22 76 23
REMARK SMILES IDX 41 25 67 26 50 27 66 28 51 29 54 30 65 31 81 32 52 33 53 34
REMARK SMILES IDX 64 36 82 37 55 38 42 39 43 40 48 41 44 42 45 43 47 44 49 45
REMARK SMILES IDX 46 46 68 47 69 48 74 49 70 50 71 51 73 52 75 53 72 54 56 55
REMARK SMILES IDX 57 56 62 57 58 58 59 59 61 60 63 61 60 62 6 63 7 64 8 65
REMARK SMILES IDX 9 66 10 68 11 69 12 70 32 71 13 72 21 73 20 74 14 75 15 76
REMARK SMILES IDX 19 77 16 78 18 79 17 80 22 81 23 83 24 84 31 85 25 86 30 87
REMARK SMILES IDX 26 88 29 89 27 90 28 91
REMARK H PARENT 3 6 80 24 54 35 8 67 22 82
REMARK Flexibility Score: inf
ROOT
ATOM      1  C   UNL A   1      39.054  21.124  25.488  1.00  0.00     0.023 C 
ENDROOT
BRANCH   1   2
ATOM      2  C   UNL A   1      39.402  19.904  26.332  1.00  0.00     0.116 C 
BRANCH   2   3
ATOM      3  N   UNL A   1      40.618  19.244  25.886  1.00  0.00    -0.352 N 
ATOM      4  O   UNL A   1      42.777  19.081  25.257  1.00  0.00    -0.269 OA
ATOM      5  C   UNL A   1      41.901  19.731  25.815  1.00  0.00     0.251 C 
ATOM      6  H   UNL A   1      40.506  18.311  25.592  1.00  0.00     0.163 HD
BRANCH   5   7
ATOM      7  C   UNL A   1      42.217  21.054  26.393  1.00  0.00     0.039 A 
ATOM      8  C   UNL A   1      42.166  21.264  27.774  1.00  0.00     0.014 A 
ATOM      9  C   UNL A   1      42.581  22.093  25.535  1.00  0.00     0.014 A 
ATOM     10  C   UNL A   1      42.350  22.544  28.286  1.00  0.00     0.010 A 
ATOM     11  C   UNL A   1      42.842  23.360  26.058  1.00  0.00     0.010 A 
ATOM     12  C   UNL A   1      42.702  23.602  27.434  1.00  0.00    -0.014 A 
BRANCH  12  13
ATOM     13  C   UNL A   1      42.983  24.948  27.990  1.00  0.00     0.031 A 
ATOM     14  C   UNL A   1      44.361  25.314  28.456  1.00  0.00     0.074 A 
ATOM     15  C   UNL A   1      41.971  25.825  28.114  1.00  0.00     0.049 A 
ATOM     16  N   UNL A   1      44.766  26.400  29.065  1.00  0.00    -0.248 NA
ATOM     17  C   UNL A   1      45.423  24.325  28.218  1.00  0.00     0.031 C 
ATOM     18  C   UNL A   1      40.588  25.579  27.699  1.00  0.00     0.029 A 
ATOM     19  N   UNL A   1      41.941  27.090  28.642  1.00  0.00    -0.354 N 
ATOM     20  C   UNL A   1      46.121  26.217  29.306  1.00  0.00     0.074 A 
ATOM     21  C   UNL A   1      46.464  24.905  28.800  1.00  0.00     0.031 C 
ATOM     22  C   UNL A   1      39.846  26.655  27.989  1.00  0.00     0.029 A 
ATOM     23  C   UNL A   1      40.683  27.639  28.667  1.00  0.00     0.049 A 
ATOM     24  H   UNL A   1      42.742  27.557  28.972  1.00  0.00     0.167 HD
ATOM     25  C   UNL A   1      46.995  27.067  29.896  1.00  0.00     0.037 A 
ATOM     26  C   UNL A   1      40.239  28.786  29.213  1.00  0.00     0.037 A 
ATOM     27  C   UNL A   1      46.639  28.372  30.395  1.00  0.00     0.049 A 
ATOM     28  C   UNL A   1      41.213  29.694  29.902  1.00  0.00     0.074 A 
ATOM     29  C   UNL A   1      47.459  29.329  30.968  1.00  0.00     0.029 A 
ATOM     30  N   UNL A   1      45.353  28.894  30.399  1.00  0.00    -0.354 N 
ATOM     31  N   UNL A   1      42.501  29.531  30.088  1.00  0.00    -0.248 NA
ATOM     32  C   UNL A   1      40.677  30.944  30.458  1.00  0.00     0.031 C 
ATOM     33  C   UNL A   1      46.660  30.404  31.372  1.00  0.00     0.029 A 
ATOM     34  C   UNL A   1      45.352  30.146  30.993  1.00  0.00     0.049 A 
ATOM     35  H   UNL A   1      44.559  28.442  30.033  1.00  0.00     0.167 HD
ATOM     36  C   UNL A   1      42.936  30.667  30.756  1.00  0.00     0.074 A 
ATOM     37  C   UNL A   1      41.774  31.513  30.943  1.00  0.00     0.031 C 
ATOM     38  C   UNL A   1      44.189  30.981  31.168  1.00  0.00     0.037 A 
BRANCH  25  39
ATOM     39  C   UNL A   1      48.411  26.594  30.070  1.00  0.00     0.057 A 
ATOM     40  C   UNL A   1      48.815  25.831  31.174  1.00  0.00     0.134 A 
ATOM     41  C   UNL A   1      49.385  26.902  29.111  1.00  0.00     0.134 A 
ATOM     42  F   UNL A   1      47.936  25.506  32.134  1.00  0.00    -0.206 F 
ATOM     43  C   UNL A   1      50.142  25.426  31.338  1.00  0.00     0.040 A 
ATOM     44  C   UNL A   1      50.708  26.476  29.248  1.00  0.00     0.040 A 
ATOM     45  F   UNL A   1      49.069  27.618  28.022  1.00  0.00    -0.206 F 
ATOM     46  C   UNL A   1      51.092  25.747  30.371  1.00  0.00     0.006 A 
ENDBRANCH  25  39
BRANCH  26  47
ATOM     47  C   UNL A   1      38.794  29.108  29.134  1.00  0.00     0.057 A 
ATOM     48  C   UNL A   1      37.962  28.992  30.251  1.00  0.00     0.134 A 
ATOM     49  C   UNL A   1      38.225  29.601  27.952  1.00  0.00     0.134 A 
ATOM     50  F   UNL A   1      38.448  28.515  31.407  1.00  0.00    -0.206 F 
ATOM     51  C   UNL A   1      36.616  29.355  30.199  1.00  0.00     0.040 A 
ATOM     52  C   UNL A   1      36.887  29.991  27.892  1.00  0.00     0.040 A 
ATOM     53  F   UNL A   1      38.976  29.748  26.850  1.00  0.00    -0.206 F 
ATOM     54  C   UNL A   1      36.078  29.866  29.018  1.00  0.00     0.006 A 
ENDBRANCH  26  47
BRANCH  38  55
ATOM     55  C   UNL A   1      44.388  32.315  31.825  1.00  0.00     0.057 A 
ATOM     56  C   UNL A   1      44.346  32.472  33.216  1.00  0.00     0.134 A 
ATOM     57  C   UNL A   1      44.707  33.441  31.055  1.00  0.00     0.134 A 
ATOM     58  F   UNL A   1      44.032  31.437  34.009  1.00  0.00    -0.206 F 
ATOM     59  C   UNL A   1      44.610  33.705  33.816  1.00  0.00     0.040 A 
ATOM     60  C   UNL A   1      44.997  34.672  31.644  1.00  0.00     0.040 A 
ATOM     61  F   UNL A   1      44.768  33.356  29.717  1.00  0.00    -0.206 F 
ATOM     62  C   UNL A   1      44.948  34.806  33.030  1.00  0.00     0.006 A 
ENDBRANCH  38  55
ENDBRANCH  12  13
ENDBRANCH   5   7
ENDBRANCH   2   3
ENDBRANCH   1   2
BRANCH   1  63
ATOM     63  C   UNL A   1      38.732  22.389  26.282  1.00  0.00     0.023 C 
BRANCH  63  64
ATOM     64  C   UNL A   1      37.483  23.136  25.831  1.00  0.00     0.116 C 
BRANCH  64  65
ATOM     65  N   UNL A   1      37.293  23.105  24.392  1.00  0.00    -0.351 N 
ATOM     66  C   UNL A   1      36.123  23.240  23.676  1.00  0.00     0.270 C 
ATOM     67  H   UNL A   1      38.107  22.968  23.856  1.00  0.00     0.163 HD
ATOM     68  O   UNL A   1      36.142  23.139  22.454  1.00  0.00    -0.268 OA
BRANCH  66  69
ATOM     69  C   UNL A   1      34.862  23.533  24.400  1.00  0.00     0.134 A 
ATOM     70  C   UNL A   1      34.517  24.824  24.681  1.00  0.00     0.063 A 
ATOM     71  N   UNL A   1      34.150  22.473  24.787  1.00  0.00    -0.207 NA
ATOM     72  C   UNL A   1      33.405  24.973  25.476  1.00  0.00     0.077 A 
ATOM     73  C   UNL A   1      33.053  22.689  25.517  1.00  0.00     0.230 A 
ATOM     74  N   UNL A   1      32.658  23.920  25.892  1.00  0.00    -0.213 NA
BRANCH  72  75
ATOM     75  C   UNL A   1      33.055  26.311  25.979  1.00  0.00     0.000 A 
ATOM     76  C   UNL A   1      31.816  26.552  26.593  1.00  0.00     0.010 A 
ATOM     77  C   UNL A   1      34.004  27.350  25.974  1.00  0.00     0.010 A 
ATOM     78  C   UNL A   1      31.552  27.776  27.216  1.00  0.00     0.001 A 
ATOM     79  C   UNL A   1      33.741  28.573  26.593  1.00  0.00     0.001 A 
ATOM     80  C   UNL A   1      32.517  28.782  27.223  1.00  0.00     0.000 A 
ENDBRANCH  72  75
BRANCH  73  81
ATOM     81  N   UNL A   1      32.231  21.611  25.840  1.00  0.00    -0.300 N 
ATOM     82  H   UNL A   1      31.494  21.751  26.477  1.00  0.00     0.172 HD
BRANCH  81  83
ATOM     83  C   UNL A   1      32.409  20.381  25.311  1.00  0.00     0.190 A 
ATOM     84  N   UNL A   1      32.611  19.285  26.007  1.00  0.00    -0.220 NA
ATOM     85  S   UNL A   1      32.407  20.134  23.602  1.00  0.00    -0.097 S 
ATOM     86  C   UNL A   1      33.018  18.252  25.196  1.00  0.00     0.084 A 
ATOM     87  C   UNL A   1      32.997  18.527  23.830  1.00  0.00     0.056 A 
ATOM     88  C   UNL A   1      33.463  16.990  25.638  1.00  0.00     0.030 A 
ATOM     89  C   UNL A   1      33.417  17.577  22.883  1.00  0.00     0.021 A 
ATOM     90  C   UNL A   1      33.897  16.044  24.708  1.00  0.00     0.002 A 
ATOM     91  C   UNL A   1      33.876  16.337  23.348  1.00  0.00     0.002 A 
ENDBRANCH  81  83
ENDBRANCH  73  81
ENDBRANCH  66  69
ENDBRANCH  64  65
ENDBRANCH  63  64
ENDBRANCH   1  63
TORSDOF 14
ENDMDL
