MODEL 1
REMARK VINA RESULT:     -13.8      0.000      0.000
REMARK SMILES Cc1c(NC(=O)[C@@H]2CC=CC[C@@H]2C(=O)NCCCCNC(=O)c2ccc(-c3c4nc(c(-c5c(F)cccc5F)c5ccc([nH]5)c(-c5c(F)cccc5F)c5nc(c(-c6c(F)cccc6F)c6ccc3[nH]6)C=C5)C=C4)cc2)cccc1C(=O)N1CCOCC1
REMARK SMILES IDX 17 1 16 2 15 3 13 4 14 5 12 7 7 8 8 9 9 10 11 11 10 12 5 13
REMARK SMILES IDX 4 14 6 16 3 17 1 18 2 19 80 20 77 21 79 22 78 23 81 24 82 25
REMARK SMILES IDX 83 26 84 27 88 28 85 29 87 30 86 31 18 32 19 33 20 34 21 35
REMARK SMILES IDX 22 37 23 38 24 39 76 40 25 41 75 42 26 43 27 44 28 45 69 46
REMARK SMILES IDX 29 47 74 48 68 49 70 50 30 51 73 52 67 53 66 54 31 56 57 57
REMARK SMILES IDX 40 58 56 59 41 60 44 61 55 62 71 63 42 64 43 65 54 67 72 68
REMARK SMILES IDX 45 69 32 70 33 71 38 72 34 73 35 74 37 75 39 76 36 77 58 78
REMARK SMILES IDX 59 79 64 80 60 81 61 82 63 83 65 84 62 85 46 86 47 87 52 88
REMARK SMILES IDX 48 89 49 90 51 91 53 92 50 93
REMARK H PARENT 15 6 4 15 20 36 70 55 44 66
REMARK Flexibility Score: inf
ROOT
ATOM      1  C   UNL A   1      34.458  28.927  27.315  1.00  0.00     0.023 C 
ENDROOT
BRANCH   1   2
ATOM      2  C   UNL A   1      34.030  28.670  25.858  1.00  0.00     0.116 C 
BRANCH   2   3
ATOM      3  N   UNL A   1      32.896  29.479  25.440  1.00  0.00    -0.356 N 
ATOM      4  C   UNL A   1      31.610  29.293  25.078  1.00  0.00     0.224 C 
ATOM      5  O   UNL A   1      30.993  30.370  24.974  1.00  0.00    -0.275 OA
ATOM      6  H   UNL A   1      33.135  30.434  25.415  1.00  0.00     0.163 HD
BRANCH   4   7
ATOM      7  C   UNL A   1      30.819  27.985  24.828  1.00  0.00     0.095 C 
ATOM      8  C   UNL A   1      31.465  26.583  24.719  1.00  0.00     0.095 C 
ATOM      9  C   UNL A   1      32.484  26.556  23.579  1.00  0.00     0.041 C 
ATOM     10  C   UNL A   1      31.936  27.167  22.319  1.00  0.00    -0.030 C 
ATOM     11  C   UNL A   1      29.996  28.190  23.524  1.00  0.00     0.041 C 
ATOM     12  C   UNL A   1      30.795  27.873  22.287  1.00  0.00    -0.030 C 
BRANCH   8  13
ATOM     13  C   UNL A   1      31.899  26.076  26.078  1.00  0.00     0.228 C 
ATOM     14  N   UNL A   1      32.806  25.092  26.279  1.00  0.00    -0.326 N 
ATOM     15  H   UNL A   1      33.055  25.029  27.229  1.00  0.00     0.169 HD
ATOM     16  O   UNL A   1      31.436  26.578  27.110  1.00  0.00    -0.274 OA
BRANCH  14  17
ATOM     17  C   UNL A   1      33.494  24.131  25.511  1.00  0.00     0.044 A 
ATOM     18  C   UNL A   1      31.280  22.980  25.333  1.00  0.00     0.047 C 
ATOM     19  C   UNL A   1      32.699  23.133  24.878  1.00  0.00    -0.015 A 
ATOM     20  C   UNL A   1      33.264  22.230  23.958  1.00  0.00     0.045 A 
ATOM     21  C   UNL A   1      34.870  24.119  25.315  1.00  0.00     0.026 A 
ATOM     22  C   UNL A   1      34.657  22.222  23.809  1.00  0.00     0.014 A 
ATOM     23  C   UNL A   1      35.452  23.144  24.498  1.00  0.00     0.003 A 
BRANCH  20  24
ATOM     24  C   UNL A   1      32.493  21.122  23.309  1.00  0.00     0.254 C 
ATOM     25  O   UNL A   1      31.911  21.390  22.257  1.00  0.00    -0.269 OA
ATOM     26  N   UNL A   1      32.520  19.823  23.818  1.00  0.00    -0.334 N 
ATOM     27  C   UNL A   1      32.589  19.431  25.233  1.00  0.00     0.148 C 
ATOM     28  C   UNL A   1      32.211  18.717  22.910  1.00  0.00     0.148 C 
ATOM     29  C   UNL A   1      33.418  18.144  25.441  1.00  0.00     0.181 C 
ATOM     30  C   UNL A   1      33.163  17.546  23.168  1.00  0.00     0.181 C 
ATOM     31  O   UNL A   1      33.048  17.099  24.529  1.00  0.00    -0.378 OA
ENDBRANCH  20  24
ENDBRANCH  14  17
ENDBRANCH   8  13
ENDBRANCH   4   7
ENDBRANCH   2   3
ENDBRANCH   1   2
BRANCH   1  32
ATOM     32  C   UNL A   1      34.169  30.323  27.866  1.00  0.00     0.023 C 
BRANCH  32  33
ATOM     33  C   UNL A   1      35.298  31.319  27.661  1.00  0.00     0.116 C 
BRANCH  33  34
ATOM     34  N   UNL A   1      35.974  31.761  28.883  1.00  0.00    -0.352 N 
ATOM     35  C   UNL A   1      36.932  31.087  29.620  1.00  0.00     0.251 C 
ATOM     36  H   UNL A   1      35.714  32.647  29.223  1.00  0.00     0.163 HD
ATOM     37  O   UNL A   1      37.405  31.588  30.638  1.00  0.00    -0.269 OA
BRANCH  35  38
ATOM     38  C   UNL A   1      37.491  29.820  29.084  1.00  0.00     0.039 A 
ATOM     39  C   UNL A   1      37.672  28.762  29.980  1.00  0.00     0.014 A 
ATOM     40  C   UNL A   1      38.092  29.789  27.830  1.00  0.00     0.014 A 
ATOM     41  C   UNL A   1      38.690  27.844  29.740  1.00  0.00     0.010 A 
ATOM     42  C   UNL A   1      39.168  28.944  27.635  1.00  0.00     0.010 A 
ATOM     43  C   UNL A   1      39.513  28.022  28.626  1.00  0.00    -0.014 A 
BRANCH  43  44
ATOM     44  C   UNL A   1      40.792  27.335  28.483  1.00  0.00     0.031 A 
ATOM     45  C   UNL A   1      40.830  25.880  28.287  1.00  0.00     0.074 A 
ATOM     46  C   UNL A   1      41.959  28.011  28.555  1.00  0.00     0.049 A 
ATOM     47  N   UNL A   1      41.720  25.100  28.802  1.00  0.00    -0.248 NA
ATOM     48  C   UNL A   1      39.834  25.189  27.481  1.00  0.00     0.031 C 
ATOM     49  C   UNL A   1      43.308  27.485  28.364  1.00  0.00     0.029 A 
ATOM     50  N   UNL A   1      42.161  29.280  29.104  1.00  0.00    -0.354 N 
ATOM     51  C   UNL A   1      41.614  23.891  28.155  1.00  0.00     0.074 A 
ATOM     52  C   UNL A   1      40.374  23.970  27.413  1.00  0.00     0.031 C 
ATOM     53  C   UNL A   1      44.157  28.217  29.105  1.00  0.00     0.029 A 
ATOM     54  C   UNL A   1      43.358  29.175  29.849  1.00  0.00     0.049 A 
ATOM     55  H   UNL A   1      41.593  30.077  28.996  1.00  0.00     0.167 HD
ATOM     56  C   UNL A   1      42.667  23.022  28.166  1.00  0.00     0.037 A 
ATOM     57  C   UNL A   1      43.385  29.402  31.193  1.00  0.00     0.037 A 
ATOM     58  C   UNL A   1      43.786  23.534  28.956  1.00  0.00     0.049 A 
ATOM     59  C   UNL A   1      43.958  28.257  31.983  1.00  0.00     0.074 A 
ATOM     60  C   UNL A   1      44.958  24.181  28.594  1.00  0.00     0.029 A 
ATOM     61  N   UNL A   1      43.658  23.704  30.332  1.00  0.00    -0.354 N 
ATOM     62  N   UNL A   1      44.074  27.054  31.497  1.00  0.00    -0.248 NA
ATOM     63  C   UNL A   1      44.405  28.343  33.372  1.00  0.00     0.031 C 
ATOM     64  C   UNL A   1      45.511  24.781  29.748  1.00  0.00     0.029 A 
ATOM     65  C   UNL A   1      44.680  24.500  30.817  1.00  0.00     0.049 A 
ATOM     66  H   UNL A   1      42.941  23.313  30.881  1.00  0.00     0.167 HD
ATOM     67  C   UNL A   1      44.563  26.216  32.460  1.00  0.00     0.074 A 
ATOM     68  C   UNL A   1      44.771  27.070  33.614  1.00  0.00     0.031 C 
ATOM     69  C   UNL A   1      44.743  24.885  32.218  1.00  0.00     0.037 A 
BRANCH  56  70
ATOM     70  C   UNL A   1      42.782  21.903  27.153  1.00  0.00     0.057 A 
ATOM     71  C   UNL A   1      42.011  20.730  27.261  1.00  0.00     0.134 A 
ATOM     72  C   UNL A   1      43.696  21.897  26.087  1.00  0.00     0.134 A 
ATOM     73  F   UNL A   1      40.999  20.625  28.130  1.00  0.00    -0.206 F 
ATOM     74  C   UNL A   1      42.242  19.592  26.479  1.00  0.00     0.040 A 
ATOM     75  C   UNL A   1      43.980  20.748  25.334  1.00  0.00     0.040 A 
ATOM     76  F   UNL A   1      44.327  23.018  25.707  1.00  0.00    -0.206 F 
ATOM     77  C   UNL A   1      43.263  19.580  25.542  1.00  0.00     0.006 A 
ENDBRANCH  56  70
BRANCH  57  78
ATOM     78  C   UNL A   1      42.321  30.339  31.639  1.00  0.00     0.057 A 
ATOM     79  C   UNL A   1      41.148  29.772  32.175  1.00  0.00     0.134 A 
ATOM     80  C   UNL A   1      42.536  31.691  31.902  1.00  0.00     0.134 A 
ATOM     81  F   UNL A   1      40.903  28.463  31.985  1.00  0.00    -0.206 F 
ATOM     82  C   UNL A   1      40.302  30.468  33.039  1.00  0.00     0.040 A 
ATOM     83  C   UNL A   1      41.674  32.411  32.741  1.00  0.00     0.040 A 
ATOM     84  F   UNL A   1      43.639  32.308  31.457  1.00  0.00    -0.206 F 
ATOM     85  C   UNL A   1      40.578  31.790  33.345  1.00  0.00     0.006 A 
ENDBRANCH  57  78
BRANCH  69  86
ATOM     86  C   UNL A   1      45.104  23.860  33.254  1.00  0.00     0.057 A 
ATOM     87  C   UNL A   1      46.357  23.787  33.876  1.00  0.00     0.134 A 
ATOM     88  C   UNL A   1      44.126  22.976  33.755  1.00  0.00     0.134 A 
ATOM     89  F   UNL A   1      47.341  24.645  33.567  1.00  0.00    -0.206 F 
ATOM     90  C   UNL A   1      46.640  22.855  34.882  1.00  0.00     0.040 A 
ATOM     91  C   UNL A   1      44.382  22.073  34.790  1.00  0.00     0.040 A 
ATOM     92  F   UNL A   1      42.874  22.964  33.268  1.00  0.00    -0.206 F 
ATOM     93  C   UNL A   1      45.649  21.999  35.348  1.00  0.00     0.006 A 
ENDBRANCH  69  86
ENDBRANCH  43  44
ENDBRANCH  35  38
ENDBRANCH  33  34
ENDBRANCH  32  33
ENDBRANCH   1  32
TORSDOF 14
ENDMDL
MODEL 2
REMARK VINA RESULT:     -13.7      3.736      9.567
REMARK SMILES Cc1c(NC(=O)[C@@H]2CC=CC[C@@H]2C(=O)NCCCCNC(=O)c2ccc(-c3c4nc(c(-c5c(F)cccc5F)c5ccc([nH]5)c(-c5c(F)cccc5F)c5nc(c(-c6c(F)cccc6F)c6ccc3[nH]6)C=C5)C=C4)cc2)cccc1C(=O)N1CCOCC1
REMARK SMILES IDX 17 1 16 2 15 3 13 4 14 5 12 7 7 8 8 9 9 10 11 11 10 12 5 13
REMARK SMILES IDX 4 14 6 16 3 17 1 18 2 19 80 20 77 21 79 22 78 23 81 24 82 25
REMARK SMILES IDX 83 26 84 27 88 28 85 29 87 30 86 31 18 32 19 33 20 34 21 35
REMARK SMILES IDX 22 37 23 38 24 39 76 40 25 41 75 42 26 43 27 44 28 45 69 46
REMARK SMILES IDX 29 47 74 48 68 49 70 50 30 51 73 52 67 53 66 54 31 56 57 57
REMARK SMILES IDX 40 58 56 59 41 60 44 61 55 62 71 63 42 64 43 65 54 67 72 68
REMARK SMILES IDX 45 69 32 70 33 71 38 72 34 73 35 74 37 75 39 76 36 77 58 78
REMARK SMILES IDX 59 79 64 80 60 81 61 82 63 83 65 84 62 85 46 86 47 87 52 88
REMARK SMILES IDX 48 89 49 90 51 91 53 92 50 93
REMARK H PARENT 15 6 4 15 20 36 70 55 44 66
REMARK Flexibility Score: inf
ROOT
ATOM      1  C   UNL A   1      37.352  22.525  25.272  1.00  0.00     0.023 C 
ENDROOT
BRANCH   1   2
ATOM      2  C   UNL A   1      36.720  23.635  26.133  1.00  0.00     0.116 C 
BRANCH   2   3
ATOM      3  N   UNL A   1      35.507  23.213  26.814  1.00  0.00    -0.356 N 
ATOM      4  C   UNL A   1      34.172  23.311  26.641  1.00  0.00     0.224 C 
ATOM      5  O   UNL A   1      33.542  22.605  27.450  1.00  0.00    -0.275 OA
ATOM      6  H   UNL A   1      35.720  22.713  27.635  1.00  0.00     0.163 HD
BRANCH   4   7
ATOM      7  C   UNL A   1      33.355  24.110  25.595  1.00  0.00     0.095 C 
ATOM      8  C   UNL A   1      31.850  23.887  25.310  1.00  0.00     0.095 C 
ATOM      9  C   UNL A   1      31.603  22.445  24.866  1.00  0.00     0.041 C 
ATOM     10  C   UNL A   1      32.582  22.004  23.813  1.00  0.00    -0.030 C 
ATOM     11  C   UNL A   1      34.086  23.960  24.231  1.00  0.00     0.041 C 
ATOM     12  C   UNL A   1      33.683  22.705  23.501  1.00  0.00    -0.030 C 
BRANCH   8  13
ATOM     13  C   UNL A   1      30.995  24.448  26.426  1.00  0.00     0.228 C 
ATOM     14  N   UNL A   1      30.834  25.766  26.685  1.00  0.00    -0.326 N 
ATOM     15  H   UNL A   1      30.120  25.912  27.346  1.00  0.00     0.169 HD
ATOM     16  O   UNL A   1      30.362  23.688  27.171  1.00  0.00    -0.274 OA
BRANCH  14  17
ATOM     17  C   UNL A   1      31.400  26.990  26.275  1.00  0.00     0.044 A 
ATOM     18  C   UNL A   1      30.304  26.530  24.074  1.00  0.00     0.047 C 
ATOM     19  C   UNL A   1      31.002  27.480  24.998  1.00  0.00    -0.015 A 
ATOM     20  C   UNL A   1      31.376  28.766  24.565  1.00  0.00     0.045 A 
ATOM     21  C   UNL A   1      32.281  27.745  27.041  1.00  0.00     0.026 A 
ATOM     22  C   UNL A   1      32.292  29.486  25.343  1.00  0.00     0.014 A 
ATOM     23  C   UNL A   1      32.755  28.970  26.558  1.00  0.00     0.003 A 
BRANCH  20  24
ATOM     24  C   UNL A   1      31.042  29.310  23.210  1.00  0.00     0.254 C 
ATOM     25  O   UNL A   1      31.769  28.967  22.277  1.00  0.00    -0.269 OA
ATOM     26  N   UNL A   1      29.899  30.082  22.999  1.00  0.00    -0.334 N 
ATOM     27  C   UNL A   1      29.304  31.051  23.931  1.00  0.00     0.148 C 
ATOM     28  C   UNL A   1      29.345  30.144  21.645  1.00  0.00     0.148 C 
ATOM     29  C   UNL A   1      27.762  31.076  23.840  1.00  0.00     0.181 C 
ATOM     30  C   UNL A   1      27.816  30.070  21.701  1.00  0.00     0.181 C 
ATOM     31  O   UNL A   1      27.293  31.154  22.485  1.00  0.00    -0.378 OA
ENDBRANCH  20  24
ENDBRANCH  14  17
ENDBRANCH   8  13
ENDBRANCH   4   7
ENDBRANCH   2   3
ENDBRANCH   1   2
BRANCH   1  32
ATOM     32  C   UNL A   1      38.737  22.044  25.704  1.00  0.00     0.023 C 
BRANCH  32  33
ATOM     33  C   UNL A   1      39.372  22.880  26.803  1.00  0.00     0.116 C 
BRANCH  33  34
ATOM     34  N   UNL A   1      40.767  23.261  26.574  1.00  0.00    -0.352 N 
ATOM     35  C   UNL A   1      41.302  24.534  26.487  1.00  0.00     0.251 C 
ATOM     36  H   UNL A   1      41.405  22.518  26.468  1.00  0.00     0.163 HD
ATOM     37  O   UNL A   1      42.503  24.696  26.281  1.00  0.00    -0.269 OA
BRANCH  35  38
ATOM     38  C   UNL A   1      40.435  25.700  26.795  1.00  0.00     0.039 A 
ATOM     39  C   UNL A   1      40.771  26.927  26.217  1.00  0.00     0.014 A 
ATOM     40  C   UNL A   1      39.525  25.644  27.847  1.00  0.00     0.014 A 
ATOM     41  C   UNL A   1      40.440  28.101  26.889  1.00  0.00     0.010 A 
ATOM     42  C   UNL A   1      39.282  26.796  28.570  1.00  0.00     0.010 A 
ATOM     43  C   UNL A   1      39.806  28.014  28.130  1.00  0.00    -0.014 A 
BRANCH  43  44
ATOM     44  C   UNL A   1      39.734  29.143  29.050  1.00  0.00     0.031 A 
ATOM     45  C   UNL A   1      38.704  30.176  28.873  1.00  0.00     0.074 A 
ATOM     46  C   UNL A   1      40.622  29.278  30.059  1.00  0.00     0.049 A 
ATOM     47  N   UNL A   1      38.895  31.435  29.081  1.00  0.00    -0.248 NA
ATOM     48  C   UNL A   1      37.359  29.847  28.428  1.00  0.00     0.031 C 
ATOM     49  C   UNL A   1      40.642  30.304  31.099  1.00  0.00     0.029 A 
ATOM     50  N   UNL A   1      41.866  28.653  30.171  1.00  0.00    -0.354 N 
ATOM     51  C   UNL A   1      37.654  32.026  29.115  1.00  0.00     0.074 A 
ATOM     52  C   UNL A   1      36.744  31.018  28.615  1.00  0.00     0.031 C 
ATOM     53  C   UNL A   1      41.917  30.499  31.476  1.00  0.00     0.029 A 
ATOM     54  C   UNL A   1      42.747  29.660  30.631  1.00  0.00     0.049 A 
ATOM     55  H   UNL A   1      42.085  27.713  29.974  1.00  0.00     0.167 HD
ATOM     56  C   UNL A   1      37.496  33.236  29.729  1.00  0.00     0.037 A 
ATOM     57  C   UNL A   1      43.833  30.044  29.902  1.00  0.00     0.037 A 
ATOM     58  C   UNL A   1      38.764  33.757  30.238  1.00  0.00     0.049 A 
ATOM     59  C   UNL A   1      43.875  31.522  29.621  1.00  0.00     0.074 A 
ATOM     60  C   UNL A   1      39.333  33.741  31.503  1.00  0.00     0.029 A 
ATOM     61  N   UNL A   1      39.783  34.116  29.359  1.00  0.00    -0.354 N 
ATOM     62  N   UNL A   1      42.828  32.289  29.732  1.00  0.00    -0.248 NA
ATOM     63  C   UNL A   1      45.055  32.250  29.159  1.00  0.00     0.031 C 
ATOM     64  C   UNL A   1      40.707  34.045  31.377  1.00  0.00     0.029 A 
ATOM     65  C   UNL A   1      40.980  34.250  30.036  1.00  0.00     0.049 A 
ATOM     66  H   UNL A   1      39.666  34.253  28.391  1.00  0.00     0.167 HD
ATOM     67  C   UNL A   1      43.151  33.561  29.351  1.00  0.00     0.074 A 
ATOM     68  C   UNL A   1      44.561  33.494  29.015  1.00  0.00     0.031 C 
ATOM     69  C   UNL A   1      42.219  34.557  29.337  1.00  0.00     0.037 A 
BRANCH  56  70
ATOM     70  C   UNL A   1      36.135  33.728  30.172  1.00  0.00     0.057 A 
ATOM     71  C   UNL A   1      35.203  34.244  29.250  1.00  0.00     0.134 A 
ATOM     72  C   UNL A   1      35.716  33.787  31.511  1.00  0.00     0.134 A 
ATOM     73  F   UNL A   1      35.380  34.137  27.928  1.00  0.00    -0.206 F 
ATOM     74  C   UNL A   1      34.031  34.903  29.640  1.00  0.00     0.040 A 
ATOM     75  C   UNL A   1      34.577  34.495  31.922  1.00  0.00     0.040 A 
ATOM     76  F   UNL A   1      36.376  33.128  32.474  1.00  0.00    -0.206 F 
ATOM     77  C   UNL A   1      33.738  35.076  30.984  1.00  0.00     0.006 A 
ENDBRANCH  56  70
BRANCH  57  78
ATOM     78  C   UNL A   1      44.349  28.961  29.023  1.00  0.00     0.057 A 
ATOM     79  C   UNL A   1      44.024  29.036  27.654  1.00  0.00     0.134 A 
ATOM     80  C   UNL A   1      45.398  28.112  29.369  1.00  0.00     0.134 A 
ATOM     81  F   UNL A   1      43.043  29.865  27.254  1.00  0.00    -0.206 F 
ATOM     82  C   UNL A   1      44.783  28.410  26.665  1.00  0.00     0.040 A 
ATOM     83  C   UNL A   1      46.147  27.449  28.387  1.00  0.00     0.040 A 
ATOM     84  F   UNL A   1      45.794  27.999  30.644  1.00  0.00    -0.206 F 
ATOM     85  C   UNL A   1      45.868  27.631  27.030  1.00  0.00     0.006 A 
ENDBRANCH  57  78
BRANCH  69  86
ATOM     86  C   UNL A   1      42.430  35.932  28.773  1.00  0.00     0.057 A 
ATOM     87  C   UNL A   1      41.861  36.379  27.573  1.00  0.00     0.134 A 
ATOM     88  C   UNL A   1      43.128  36.908  29.514  1.00  0.00     0.134 A 
ATOM     89  F   UNL A   1      41.083  35.579  26.829  1.00  0.00    -0.206 F 
ATOM     90  C   UNL A   1      42.030  37.689  27.107  1.00  0.00     0.040 A 
ATOM     91  C   UNL A   1      43.264  38.230  29.083  1.00  0.00     0.040 A 
ATOM     92  F   UNL A   1      43.695  36.621  30.697  1.00  0.00    -0.206 F 
ATOM     93  C   UNL A   1      42.727  38.622  27.866  1.00  0.00     0.006 A 
ENDBRANCH  69  86
ENDBRANCH  43  44
ENDBRANCH  35  38
ENDBRANCH  33  34
ENDBRANCH  32  33
ENDBRANCH   1  32
TORSDOF 14
ENDMDL
MODEL 3
REMARK VINA RESULT:     -13.3      3.456      9.518
REMARK SMILES Cc1c(NC(=O)[C@@H]2CC=CC[C@@H]2C(=O)NCCCCNC(=O)c2ccc(-c3c4nc(c(-c5c(F)cccc5F)c5ccc([nH]5)c(-c5c(F)cccc5F)c5nc(c(-c6c(F)cccc6F)c6ccc3[nH]6)C=C5)C=C4)cc2)cccc1C(=O)N1CCOCC1
REMARK SMILES IDX 17 1 16 2 15 3 13 4 14 5 12 7 7 8 8 9 9 10 11 11 10 12 5 13
REMARK SMILES IDX 4 14 6 16 3 17 1 18 2 19 80 20 77 21 79 22 78 23 81 24 82 25
REMARK SMILES IDX 83 26 84 27 88 28 85 29 87 30 86 31 18 32 19 33 20 34 21 35
REMARK SMILES IDX 22 37 23 38 24 39 76 40 25 41 75 42 26 43 27 44 28 45 69 46
REMARK SMILES IDX 29 47 74 48 68 49 70 50 30 51 73 52 67 53 66 54 31 56 57 57
REMARK SMILES IDX 40 58 56 59 41 60 44 61 55 62 71 63 42 64 43 65 54 67 72 68
REMARK SMILES IDX 45 69 32 70 33 71 38 72 34 73 35 74 37 75 39 76 36 77 58 78
REMARK SMILES IDX 59 79 64 80 60 81 61 82 63 83 65 84 62 85 46 86 47 87 52 88
REMARK SMILES IDX 48 89 49 90 51 91 53 92 50 93
REMARK H PARENT 15 6 4 15 20 36 70 55 44 66
REMARK Flexibility Score: inf
ROOT
ATOM      1  C   UNL A   1      37.566  22.086  25.445  1.00  0.00     0.023 C 
ENDROOT
BRANCH   1   2
ATOM      2  C   UNL A   1      36.822  23.334  25.957  1.00  0.00     0.116 C 
BRANCH   2   3
ATOM      3  N   UNL A   1      35.642  23.018  26.745  1.00  0.00    -0.356 N 
ATOM      4  C   UNL A   1      34.355  22.676  26.531  1.00  0.00     0.224 C 
ATOM      5  O   UNL A   1      33.780  22.334  27.581  1.00  0.00    -0.275 OA
ATOM      6  H   UNL A   1      35.839  23.066  27.708  1.00  0.00     0.163 HD
BRANCH   4   7
ATOM      7  C   UNL A   1      33.542  22.610  25.214  1.00  0.00     0.095 C 
ATOM      8  C   UNL A   1      32.174  21.902  25.067  1.00  0.00     0.095 C 
ATOM      9  C   UNL A   1      32.302  20.422  25.431  1.00  0.00     0.041 C 
ATOM     10  C   UNL A   1      33.490  19.780  24.768  1.00  0.00    -0.030 C 
ATOM     11  C   UNL A   1      34.473  21.992  24.131  1.00  0.00     0.041 C 
ATOM     12  C   UNL A   1      34.450  20.486  24.151  1.00  0.00    -0.030 C 
BRANCH   8  13
ATOM     13  C   UNL A   1      31.071  22.706  25.723  1.00  0.00     0.228 C 
ATOM     14  N   UNL A   1      30.579  23.872  25.244  1.00  0.00    -0.326 N 
ATOM     15  H   UNL A   1      29.769  24.141  25.733  1.00  0.00     0.169 HD
ATOM     16  O   UNL A   1      30.535  22.300  26.762  1.00  0.00    -0.274 OA
BRANCH  14  17
ATOM     17  C   UNL A   1      30.900  24.810  24.242  1.00  0.00     0.044 A 
ATOM     18  C   UNL A   1      30.334  26.539  25.959  1.00  0.00     0.047 C 
ATOM     19  C   UNL A   1      30.943  26.177  24.640  1.00  0.00    -0.015 A 
ATOM     20  C   UNL A   1      31.414  27.173  23.764  1.00  0.00     0.045 A 
ATOM     21  C   UNL A   1      31.201  24.482  22.925  1.00  0.00     0.026 A 
ATOM     22  C   UNL A   1      31.676  26.816  22.435  1.00  0.00     0.014 A 
ATOM     23  C   UNL A   1      31.550  25.487  22.016  1.00  0.00     0.003 A 
BRANCH  20  24
ATOM     24  C   UNL A   1      31.424  28.632  24.103  1.00  0.00     0.254 C 
ATOM     25  O   UNL A   1      30.561  29.333  23.572  1.00  0.00    -0.269 OA
ATOM     26  N   UNL A   1      32.303  29.151  25.054  1.00  0.00    -0.334 N 
ATOM     27  C   UNL A   1      33.683  28.714  25.313  1.00  0.00     0.148 C 
ATOM     28  C   UNL A   1      31.945  30.407  25.716  1.00  0.00     0.148 C 
ATOM     29  C   UNL A   1      34.054  28.811  26.809  1.00  0.00     0.181 C 
ATOM     30  C   UNL A   1      32.286  30.330  27.206  1.00  0.00     0.181 C 
ATOM     31  O   UNL A   1      33.688  30.074  27.385  1.00  0.00    -0.378 OA
ENDBRANCH  20  24
ENDBRANCH  14  17
ENDBRANCH   8  13
ENDBRANCH   4   7
ENDBRANCH   2   3
ENDBRANCH   1   2
BRANCH   1  32
ATOM     32  C   UNL A   1      39.033  21.961  25.854  1.00  0.00     0.023 C 
BRANCH  32  33
ATOM     33  C   UNL A   1      39.469  22.952  26.922  1.00  0.00     0.116 C 
BRANCH  33  34
ATOM     34  N   UNL A   1      40.872  23.366  26.857  1.00  0.00    -0.352 N 
ATOM     35  C   UNL A   1      41.384  24.651  26.868  1.00  0.00     0.251 C 
ATOM     36  H   UNL A   1      41.534  22.639  26.798  1.00  0.00     0.163 HD
ATOM     37  O   UNL A   1      42.597  24.842  26.798  1.00  0.00    -0.269 OA
BRANCH  35  38
ATOM     38  C   UNL A   1      40.463  25.790  27.116  1.00  0.00     0.039 A 
ATOM     39  C   UNL A   1      40.749  27.003  26.485  1.00  0.00     0.014 A 
ATOM     40  C   UNL A   1      39.548  25.740  28.164  1.00  0.00     0.014 A 
ATOM     41  C   UNL A   1      40.360  28.190  27.101  1.00  0.00     0.010 A 
ATOM     42  C   UNL A   1      39.247  26.911  28.832  1.00  0.00     0.010 A 
ATOM     43  C   UNL A   1      39.720  28.131  28.340  1.00  0.00    -0.014 A 
BRANCH  43  44
ATOM     44  C   UNL A   1      39.589  29.297  29.207  1.00  0.00     0.031 A 
ATOM     45  C   UNL A   1      38.571  30.316  28.925  1.00  0.00     0.074 A 
ATOM     46  C   UNL A   1      40.415  29.476  30.262  1.00  0.00     0.049 A 
ATOM     47  N   UNL A   1      38.746  31.584  29.093  1.00  0.00    -0.248 NA
ATOM     48  C   UNL A   1      37.255  29.963  28.414  1.00  0.00     0.031 C 
ATOM     49  C   UNL A   1      40.369  30.544  31.258  1.00  0.00     0.029 A 
ATOM     50  N   UNL A   1      41.651  28.862  30.475  1.00  0.00    -0.354 N 
ATOM     51  C   UNL A   1      37.503  32.170  29.027  1.00  0.00     0.074 A 
ATOM     52  C   UNL A   1      36.628  31.138  28.515  1.00  0.00     0.031 C 
ATOM     53  C   UNL A   1      41.618  30.760  31.704  1.00  0.00     0.029 A 
ATOM     54  C   UNL A   1      42.499  29.891  30.945  1.00  0.00     0.049 A 
ATOM     55  H   UNL A   1      41.883  27.916  30.329  1.00  0.00     0.167 HD
ATOM     56  C   UNL A   1      37.306  33.403  29.580  1.00  0.00     0.037 A 
ATOM     57  C   UNL A   1      43.627  30.250  30.269  1.00  0.00     0.037 A 
ATOM     58  C   UNL A   1      38.540  33.950  30.144  1.00  0.00     0.049 A 
ATOM     59  C   UNL A   1      43.683  31.715  29.930  1.00  0.00     0.074 A 
ATOM     60  C   UNL A   1      39.030  33.989  31.440  1.00  0.00     0.029 A 
ATOM     61  N   UNL A   1      39.609  34.278  29.313  1.00  0.00    -0.354 N 
ATOM     62  N   UNL A   1      42.630  32.481  29.946  1.00  0.00    -0.248 NA
ATOM     63  C   UNL A   1      44.887  32.429  29.511  1.00  0.00     0.031 C 
ATOM     64  C   UNL A   1      40.409  34.294  31.385  1.00  0.00     0.029 A 
ATOM     65  C   UNL A   1      40.763  34.445  30.057  1.00  0.00     0.049 A 
ATOM     66  H   UNL A   1      39.551  34.375  28.335  1.00  0.00     0.167 HD
ATOM     67  C   UNL A   1      42.973  33.739  29.533  1.00  0.00     0.074 A 
ATOM     68  C   UNL A   1      44.401  33.664  29.287  1.00  0.00     0.031 C 
ATOM     69  C   UNL A   1      42.041  34.729  29.422  1.00  0.00     0.037 A 
BRANCH  56  70
ATOM     70  C   UNL A   1      35.919  33.907  29.919  1.00  0.00     0.057 A 
ATOM     71  C   UNL A   1      35.062  34.424  28.929  1.00  0.00     0.134 A 
ATOM     72  C   UNL A   1      35.403  33.975  31.223  1.00  0.00     0.134 A 
ATOM     73  F   UNL A   1      35.336  34.310  27.624  1.00  0.00    -0.206 F 
ATOM     74  C   UNL A   1      33.869  35.094  29.228  1.00  0.00     0.040 A 
ATOM     75  C   UNL A   1      34.242  34.693  31.545  1.00  0.00     0.040 A 
ATOM     76  F   UNL A   1      35.985  33.316  32.235  1.00  0.00    -0.206 F 
ATOM     77  C   UNL A   1      33.478  35.275  30.545  1.00  0.00     0.006 A 
ENDBRANCH  56  70
BRANCH  57  78
ATOM     78  C   UNL A   1      44.198  29.135  29.468  1.00  0.00     0.057 A 
ATOM     79  C   UNL A   1      43.924  29.132  28.086  1.00  0.00     0.134 A 
ATOM     80  C   UNL A   1      45.249  28.328  29.897  1.00  0.00     0.134 A 
ATOM     81  F   UNL A   1      42.944  29.917  27.606  1.00  0.00    -0.206 F 
ATOM     82  C   UNL A   1      44.733  28.472  27.160  1.00  0.00     0.040 A 
ATOM     83  C   UNL A   1      46.049  27.631  28.980  1.00  0.00     0.040 A 
ATOM     84  F   UNL A   1      45.599  28.290  31.190  1.00  0.00    -0.206 F 
ATOM     85  C   UNL A   1      45.818  27.736  27.606  1.00  0.00     0.006 A 
ENDBRANCH  57  78
BRANCH  69  86
ATOM     86  C   UNL A   1      42.283  36.081  28.816  1.00  0.00     0.057 A 
ATOM     87  C   UNL A   1      42.975  37.113  29.463  1.00  0.00     0.134 A 
ATOM     88  C   UNL A   1      41.925  36.336  27.476  1.00  0.00     0.134 A 
ATOM     89  F   UNL A   1      43.465  36.957  30.701  1.00  0.00    -0.206 F 
ATOM     90  C   UNL A   1      43.235  38.342  28.843  1.00  0.00     0.040 A 
ATOM     91  C   UNL A   1      42.220  37.540  26.832  1.00  0.00     0.040 A 
ATOM     92  F   UNL A   1      41.286  35.420  26.732  1.00  0.00    -0.206 F 
ATOM     93  C   UNL A   1      42.865  38.557  27.520  1.00  0.00     0.006 A 
ENDBRANCH  69  86
ENDBRANCH  43  44
ENDBRANCH  35  38
ENDBRANCH  33  34
ENDBRANCH  32  33
ENDBRANCH   1  32
TORSDOF 14
ENDMDL
