MODEL 1
REMARK VINA RESULT:     -12.8      0.000      0.000
REMARK SMILES O=C(COc1ccccc1/C=C1/SC(=S)N(c2ccc(F)c(Cl)c2)C1=O)NCCCCNC(=O)c1ccc(-c2c3nc(c(-c4c(F)cccc4F)c4ccc([nH]4)c(-c4c(F)cccc4F)c4nc(c(-c5c(F)cccc5F)c5ccc2[nH]5)C=C4)C=C3)cc1
REMARK SMILES IDX 28 1 27 2 1 3 2 4 3 6 4 7 5 8 6 9 10 10 7 11 9 12 8 13 11 14
REMARK SMILES IDX 12 15 13 16 25 17 14 18 16 19 26 20 15 21 17 22 18 23 24 24
REMARK SMILES IDX 19 25 22 26 20 27 23 28 21 29 29 30 30 31 31 32 32 33 33 34
REMARK SMILES IDX 34 36 35 37 36 38 88 39 37 40 87 41 38 42 39 43 40 44 81 45
REMARK SMILES IDX 41 46 86 47 80 48 82 49 42 50 85 51 79 52 78 53 43 55 69 56
REMARK SMILES IDX 52 57 68 58 53 59 56 60 67 61 83 62 54 63 55 64 66 66 84 67
REMARK SMILES IDX 57 68 44 69 45 70 50 71 46 72 47 73 49 74 51 75 48 76 70 77
REMARK SMILES IDX 71 78 76 79 72 80 73 81 75 82 77 83 74 84 58 85 59 86 64 87
REMARK SMILES IDX 60 88 61 89 63 90 65 91 62 92
REMARK H PARENT 27 5 32 35 82 54 56 65
REMARK Flexibility Score: inf
ROOT
ATOM      1  C   UNL A   1      40.083  22.356  26.862  1.00  0.00     0.116 C 
ENDROOT
BRANCH   1   2
ATOM      2  N   UNL A   1      38.116  22.144  26.134  1.00  0.00    -0.353 N 
ATOM      3  O   UNL A   1      37.072  22.921  24.058  1.00  0.00    -0.271 OA
ATOM      4  C   UNL A   1      37.121  22.190  25.040  1.00  0.00     0.257 C 
ATOM      5  H   UNL A   1      37.593  21.882  26.926  1.00  0.00     0.163 HD
BRANCH   4   6
ATOM      6  C   UNL A   1      36.024  21.130  25.230  1.00  0.00     0.329 C 
BRANCH   6   7
ATOM      7  O   UNL A   1      34.776  21.473  24.657  1.00  0.00    -0.483 OA
BRANCH   7   8
ATOM      8  C   UNL A   1      33.884  22.157  25.455  1.00  0.00     0.127 A 
ATOM      9  C   UNL A   1      33.902  21.714  26.783  1.00  0.00     0.047 A 
ATOM     10  C   UNL A   1      32.860  23.033  25.014  1.00  0.00     0.018 A 
ATOM     11  C   UNL A   1      32.915  22.117  27.679  1.00  0.00     0.004 A 
ATOM     12  C   UNL A   1      31.875  23.426  25.933  1.00  0.00     0.012 A 
ATOM     13  C   UNL A   1      31.895  22.960  27.250  1.00  0.00     0.001 A 
BRANCH  10  14
ATOM     14  C   UNL A   1      32.677  23.507  23.634  1.00  0.00     0.033 C 
ATOM     15  C   UNL A   1      33.055  24.756  23.308  1.00  0.00     0.081 C 
ATOM     16  S   UNL A   1      31.779  25.823  21.740  1.00  0.00    -0.054 SA
ATOM     17  C   UNL A   1      33.674  26.022  24.687  1.00  0.00     0.270 C 
ATOM     18  C   UNL A   1      31.772  27.818  22.973  1.00  0.00     0.152 C 
ATOM     19  N   UNL A   1      32.915  27.657  24.382  1.00  0.00    -0.261 N 
ATOM     20  O   UNL A   1      34.500  25.750  25.546  1.00  0.00    -0.268 OA
ATOM     21  S   UNL A   1      30.654  29.010  22.545  1.00  0.00    -0.051 S 
BRANCH  19  22
ATOM     22  C   UNL A   1      33.156  28.682  25.371  1.00  0.00     0.052 A 
ATOM     23  C   UNL A   1      34.308  28.614  26.179  1.00  0.00     0.030 A 
ATOM     24  C   UNL A   1      32.276  29.743  25.598  1.00  0.00     0.050 A 
ATOM     25  C   UNL A   1      34.565  29.551  27.185  1.00  0.00     0.043 A 
ATOM     26  C   UNL A   1      32.531  30.686  26.608  1.00  0.00     0.078 A 
ATOM     27  C   UNL A   1      33.669  30.583  27.398  1.00  0.00     0.141 A 
ATOM     28  Cl  UNL A   1      31.401  31.958  26.876  1.00  0.00    -0.081 Cl
ATOM     29  F   UNL A   1      33.919  31.463  28.377  1.00  0.00    -0.205 F 
ENDBRANCH  19  22
ENDBRANCH  10  14
ENDBRANCH   7   8
ENDBRANCH   6   7
ENDBRANCH   4   6
ENDBRANCH   1   2
BRANCH   1  30
ATOM     30  C   UNL A   1      41.545  21.638  26.400  1.00  0.00     0.023 C 
BRANCH  30  31
ATOM     31  C   UNL A   1      41.511  20.160  25.985  1.00  0.00     0.023 C 
BRANCH  31  32
ATOM     32  C   UNL A   1      42.724  19.332  26.384  1.00  0.00     0.116 C 
BRANCH  32  33
ATOM     33  N   UNL A   1      43.464  18.815  25.248  1.00  0.00    -0.352 N 
ATOM     34  C   UNL A   1      44.324  19.523  24.437  1.00  0.00     0.251 C 
ATOM     35  H   UNL A   1      43.341  17.862  25.036  1.00  0.00     0.163 HD
ATOM     36  O   UNL A   1      44.797  19.028  23.422  1.00  0.00    -0.269 OA
BRANCH  34  37
ATOM     37  C   UNL A   1      44.634  20.918  24.811  1.00  0.00     0.039 A 
ATOM     38  C   UNL A   1      44.212  21.954  23.978  1.00  0.00     0.014 A 
ATOM     39  C   UNL A   1      45.237  21.188  26.044  1.00  0.00     0.014 A 
ATOM     40  C   UNL A   1      44.363  23.274  24.404  1.00  0.00     0.010 A 
ATOM     41  C   UNL A   1      45.303  22.499  26.501  1.00  0.00     0.010 A 
ATOM     42  C   UNL A   1      44.886  23.557  25.677  1.00  0.00    -0.014 A 
BRANCH  42  43
ATOM     43  C   UNL A   1      45.061  24.956  26.141  1.00  0.00     0.031 A 
ATOM     44  C   UNL A   1      46.415  25.606  26.044  1.00  0.00     0.074 A 
ATOM     45  C   UNL A   1      44.024  25.628  26.680  1.00  0.00     0.049 A 
ATOM     46  N   UNL A   1      46.791  26.800  26.423  1.00  0.00    -0.248 NA
ATOM     47  C   UNL A   1      47.501  24.791  25.473  1.00  0.00     0.031 C 
ATOM     48  C   UNL A   1      42.676  25.093  26.878  1.00  0.00     0.029 A 
ATOM     49  N   UNL A   1      43.947  26.911  27.161  1.00  0.00    -0.354 N 
ATOM     50  C   UNL A   1      48.154  26.867  26.159  1.00  0.00     0.074 A 
ATOM     51  C   UNL A   1      48.552  25.575  25.648  1.00  0.00     0.031 C 
ATOM     52  C   UNL A   1      41.897  26.052  27.407  1.00  0.00     0.029 A 
ATOM     53  C   UNL A   1      42.695  27.256  27.614  1.00  0.00     0.049 A 
ATOM     54  H   UNL A   1      44.715  27.527  27.180  1.00  0.00     0.167 HD
ATOM     55  C   UNL A   1      48.993  27.919  26.296  1.00  0.00     0.037 A 
ATOM     56  C   UNL A   1      42.247  28.415  28.133  1.00  0.00     0.037 A 
ATOM     57  C   UNL A   1      48.585  29.217  26.761  1.00  0.00     0.049 A 
ATOM     58  C   UNL A   1      43.197  29.575  28.267  1.00  0.00     0.074 A 
ATOM     59  C   UNL A   1      49.339  30.371  26.868  1.00  0.00     0.029 A 
ATOM     60  N   UNL A   1      47.305  29.531  27.193  1.00  0.00    -0.354 N 
ATOM     61  N   UNL A   1      44.465  29.649  27.939  1.00  0.00    -0.248 NA
ATOM     62  C   UNL A   1      42.651  30.816  28.834  1.00  0.00     0.031 C 
ATOM     63  C   UNL A   1      48.526  31.374  27.407  1.00  0.00     0.029 A 
ATOM     64  C   UNL A   1      47.254  30.857  27.589  1.00  0.00     0.049 A 
ATOM     65  H   UNL A   1      46.546  28.905  27.216  1.00  0.00     0.167 HD
ATOM     66  C   UNL A   1      44.860  30.948  28.233  1.00  0.00     0.074 A 
ATOM     67  C   UNL A   1      43.693  31.632  28.751  1.00  0.00     0.031 C 
ATOM     68  C   UNL A   1      46.079  31.523  28.089  1.00  0.00     0.037 A 
BRANCH  55  69
ATOM     69  C   UNL A   1      50.433  27.708  25.928  1.00  0.00     0.057 A 
ATOM     70  C   UNL A   1      50.885  27.821  24.606  1.00  0.00     0.134 A 
ATOM     71  C   UNL A   1      51.384  27.406  26.911  1.00  0.00     0.134 A 
ATOM     72  F   UNL A   1      50.023  28.093  23.614  1.00  0.00    -0.206 F 
ATOM     73  C   UNL A   1      52.223  27.609  24.271  1.00  0.00     0.040 A 
ATOM     74  C   UNL A   1      52.730  27.222  26.592  1.00  0.00     0.040 A 
ATOM     75  F   UNL A   1      51.022  27.286  28.197  1.00  0.00    -0.206 F 
ATOM     76  C   UNL A   1      53.152  27.315  25.266  1.00  0.00     0.006 A 
ENDBRANCH  55  69
BRANCH  56  77
ATOM     77  C   UNL A   1      40.823  28.554  28.535  1.00  0.00     0.057 A 
ATOM     78  C   UNL A   1      40.410  28.267  29.842  1.00  0.00     0.134 A 
ATOM     79  C   UNL A   1      39.840  28.959  27.625  1.00  0.00     0.134 A 
ATOM     80  F   UNL A   1      41.302  27.854  30.755  1.00  0.00    -0.206 F 
ATOM     81  C   UNL A   1      39.072  28.357  30.224  1.00  0.00     0.040 A 
ATOM     82  C   UNL A   1      38.500  29.079  28.000  1.00  0.00     0.040 A 
ATOM     83  F   UNL A   1      40.169  29.255  26.360  1.00  0.00    -0.206 F 
ATOM     84  C   UNL A   1      38.112  28.770  29.303  1.00  0.00     0.006 A 
ENDBRANCH  56  77
BRANCH  68  85
ATOM     85  C   UNL A   1      46.203  32.972  28.458  1.00  0.00     0.057 A 
ATOM     86  C   UNL A   1      46.622  33.378  29.732  1.00  0.00     0.134 A 
ATOM     87  C   UNL A   1      45.949  33.971  27.511  1.00  0.00     0.134 A 
ATOM     88  F   UNL A   1      46.871  32.469  30.688  1.00  0.00    -0.206 F 
ATOM     89  C   UNL A   1      46.759  34.728  30.058  1.00  0.00     0.040 A 
ATOM     90  C   UNL A   1      46.110  35.323  27.816  1.00  0.00     0.040 A 
ATOM     91  F   UNL A   1      45.556  33.650  26.269  1.00  0.00    -0.206 F 
ATOM     92  C   UNL A   1      46.511  35.705  29.095  1.00  0.00     0.006 A 
ENDBRANCH  68  85
ENDBRANCH  42  43
ENDBRANCH  34  37
ENDBRANCH  32  33
ENDBRANCH  31  32
ENDBRANCH  30  31
ENDBRANCH   1  30
TORSDOF 15
ENDMDL
MODEL 2
REMARK VINA RESULT:     -12.7      5.913     11.246
REMARK SMILES O=C(COc1ccccc1/C=C1/SC(=S)N(c2ccc(F)c(Cl)c2)C1=O)NCCCCNC(=O)c1ccc(-c2c3nc(c(-c4c(F)cccc4F)c4ccc([nH]4)c(-c4c(F)cccc4F)c4nc(c(-c5c(F)cccc5F)c5ccc2[nH]5)C=C4)C=C3)cc1
REMARK SMILES IDX 28 1 27 2 1 3 2 4 3 6 4 7 5 8 6 9 10 10 7 11 9 12 8 13 11 14
REMARK SMILES IDX 12 15 13 16 25 17 14 18 16 19 26 20 15 21 17 22 18 23 24 24
REMARK SMILES IDX 19 25 22 26 20 27 23 28 21 29 29 30 30 31 31 32 32 33 33 34
REMARK SMILES IDX 34 36 35 37 36 38 88 39 37 40 87 41 38 42 39 43 40 44 81 45
REMARK SMILES IDX 41 46 86 47 80 48 82 49 42 50 85 51 79 52 78 53 43 55 69 56
REMARK SMILES IDX 52 57 68 58 53 59 56 60 67 61 83 62 54 63 55 64 66 66 84 67
REMARK SMILES IDX 57 68 44 69 45 70 50 71 46 72 47 73 49 74 51 75 48 76 70 77
REMARK SMILES IDX 71 78 76 79 72 80 73 81 75 82 77 83 74 84 58 85 59 86 64 87
REMARK SMILES IDX 60 88 61 89 63 90 65 91 62 92
REMARK H PARENT 27 5 32 35 82 54 56 65
REMARK Flexibility Score: inf
ROOT
ATOM      1  C   UNL A   1      32.115  29.868  25.391  1.00  0.00     0.116 C 
ENDROOT
BRANCH   1   2
ATOM      2  N   UNL A   1      30.963  28.583  24.181  1.00  0.00    -0.353 N 
ATOM      3  O   UNL A   1      30.221  28.793  21.855  1.00  0.00    -0.271 OA
ATOM      4  C   UNL A   1      30.466  28.136  22.861  1.00  0.00     0.257 C 
ATOM      5  H   UNL A   1      30.540  27.965  24.820  1.00  0.00     0.163 HD
BRANCH   4   6
ATOM      6  C   UNL A   1      30.260  26.613  22.820  1.00  0.00     0.329 C 
BRANCH   6   7
ATOM      7  O   UNL A   1      31.437  25.859  23.036  1.00  0.00    -0.483 OA
BRANCH   7   8
ATOM      8  C   UNL A   1      31.532  25.168  24.225  1.00  0.00     0.127 A 
ATOM      9  C   UNL A   1      30.339  25.190  24.957  1.00  0.00     0.047 A 
ATOM     10  C   UNL A   1      32.724  24.687  24.826  1.00  0.00     0.018 A 
ATOM     11  C   UNL A   1      30.309  24.754  26.278  1.00  0.00     0.004 A 
ATOM     12  C   UNL A   1      32.671  24.252  26.160  1.00  0.00     0.012 A 
ATOM     13  C   UNL A   1      31.477  24.298  26.883  1.00  0.00     0.001 A 
BRANCH  10  14
ATOM     14  C   UNL A   1      34.055  24.685  24.201  1.00  0.00     0.033 C 
ATOM     15  C   UNL A   1      34.546  23.539  23.695  1.00  0.00     0.081 C 
ATOM     16  S   UNL A   1      36.806  23.244  23.866  1.00  0.00    -0.054 SA
ATOM     17  C   UNL A   1      33.595  21.830  23.942  1.00  0.00     0.270 C 
ATOM     18  C   UNL A   1      36.553  21.013  24.544  1.00  0.00     0.152 C 
ATOM     19  N   UNL A   1      34.803  20.532  24.385  1.00  0.00    -0.261 N 
ATOM     20  O   UNL A   1      32.399  21.675  23.739  1.00  0.00    -0.268 OA
ATOM     21  S   UNL A   1      37.890  20.234  25.220  1.00  0.00    -0.051 S 
BRANCH  19  22
ATOM     22  C   UNL A   1      34.269  19.235  24.729  1.00  0.00     0.052 A 
ATOM     23  C   UNL A   1      32.932  19.123  25.161  1.00  0.00     0.030 A 
ATOM     24  C   UNL A   1      35.028  18.063  24.687  1.00  0.00     0.050 A 
ATOM     25  C   UNL A   1      32.379  17.901  25.554  1.00  0.00     0.043 A 
ATOM     26  C   UNL A   1      34.475  16.832  25.082  1.00  0.00     0.078 A 
ATOM     27  C   UNL A   1      33.157  16.758  25.517  1.00  0.00     0.141 A 
ATOM     28  Cl  UNL A   1      35.458  15.419  25.047  1.00  0.00    -0.081 Cl
ATOM     29  F   UNL A   1      32.620  15.597  25.912  1.00  0.00    -0.205 F 
ENDBRANCH  19  22
ENDBRANCH  10  14
ENDBRANCH   7   8
ENDBRANCH   6   7
ENDBRANCH   4   6
ENDBRANCH   1   2
BRANCH   1  30
ATOM     30  C   UNL A   1      31.793  30.618  26.874  1.00  0.00     0.023 C 
BRANCH  30  31
ATOM     31  C   UNL A   1      31.545  32.133  26.865  1.00  0.00     0.023 C 
BRANCH  31  32
ATOM     32  C   UNL A   1      32.746  33.004  27.206  1.00  0.00     0.116 C 
BRANCH  32  33
ATOM     33  N   UNL A   1      32.381  34.341  27.635  1.00  0.00    -0.352 N 
ATOM     34  C   UNL A   1      32.977  35.072  28.638  1.00  0.00     0.251 C 
ATOM     35  H   UNL A   1      31.633  34.770  27.160  1.00  0.00     0.163 HD
ATOM     36  O   UNL A   1      32.509  36.139  29.015  1.00  0.00    -0.269 OA
BRANCH  34  37
ATOM     37  C   UNL A   1      34.185  34.512  29.276  1.00  0.00     0.039 A 
ATOM     38  C   UNL A   1      34.047  33.724  30.419  1.00  0.00     0.014 A 
ATOM     39  C   UNL A   1      35.433  34.679  28.667  1.00  0.00     0.014 A 
ATOM     40  C   UNL A   1      35.165  33.065  30.931  1.00  0.00     0.010 A 
ATOM     41  C   UNL A   1      36.523  33.950  29.127  1.00  0.00     0.010 A 
ATOM     42  C   UNL A   1      36.405  33.153  30.277  1.00  0.00    -0.014 A 
BRANCH  42  43
ATOM     43  C   UNL A   1      37.606  32.465  30.814  1.00  0.00     0.031 A 
ATOM     44  C   UNL A   1      38.216  32.939  32.107  1.00  0.00     0.074 A 
ATOM     45  C   UNL A   1      38.170  31.448  30.133  1.00  0.00     0.049 A 
ATOM     46  N   UNL A   1      39.280  32.504  32.730  1.00  0.00    -0.248 NA
ATOM     47  C   UNL A   1      37.557  34.076  32.771  1.00  0.00     0.031 C 
ATOM     48  C   UNL A   1      37.706  30.929  28.844  1.00  0.00     0.029 A 
ATOM     49  N   UNL A   1      39.259  30.668  30.432  1.00  0.00    -0.354 N 
ATOM     50  C   UNL A   1      39.429  33.328  33.840  1.00  0.00     0.074 A 
ATOM     51  C   UNL A   1      38.387  34.326  33.771  1.00  0.00     0.031 C 
ATOM     52  C   UNL A   1      38.485  29.895  28.482  1.00  0.00     0.029 A 
ATOM     53  C   UNL A   1      39.519  29.698  29.494  1.00  0.00     0.049 A 
ATOM     54  H   UNL A   1      39.803  30.792  31.243  1.00  0.00     0.167 HD
ATOM     55  C   UNL A   1      40.331  33.240  34.844  1.00  0.00     0.037 A 
ATOM     56  C   UNL A   1      40.480  28.756  29.459  1.00  0.00     0.037 A 
ATOM     57  C   UNL A   1      41.338  32.218  34.934  1.00  0.00     0.049 A 
ATOM     58  C   UNL A   1      41.466  28.673  30.593  1.00  0.00     0.074 A 
ATOM     59  C   UNL A   1      42.254  31.996  35.946  1.00  0.00     0.029 A 
ATOM     60  N   UNL A   1      41.558  31.244  33.972  1.00  0.00    -0.354 N 
ATOM     61  N   UNL A   1      41.547  29.409  31.676  1.00  0.00    -0.248 NA
ATOM     62  C   UNL A   1      42.490  27.622  30.505  1.00  0.00     0.031 C 
ATOM     63  C   UNL A   1      43.058  30.913  35.576  1.00  0.00     0.029 A 
ATOM     64  C   UNL A   1      42.610  30.430  34.357  1.00  0.00     0.049 A 
ATOM     65  H   UNL A   1      41.043  31.145  33.139  1.00  0.00     0.167 HD
ATOM     66  C   UNL A   1      42.608  28.894  32.410  1.00  0.00     0.074 A 
ATOM     67  C   UNL A   1      43.131  27.772  31.656  1.00  0.00     0.031 C 
ATOM     68  C   UNL A   1      43.106  29.311  33.599  1.00  0.00     0.037 A 
BRANCH  55  69
ATOM     69  C   UNL A   1      40.259  34.275  35.930  1.00  0.00     0.057 A 
ATOM     70  C   UNL A   1      39.532  34.063  37.109  1.00  0.00     0.134 A 
ATOM     71  C   UNL A   1      40.941  35.492  35.803  1.00  0.00     0.134 A 
ATOM     72  F   UNL A   1      38.842  32.925  37.287  1.00  0.00    -0.206 F 
ATOM     73  C   UNL A   1      39.458  35.035  38.107  1.00  0.00     0.040 A 
ATOM     74  C   UNL A   1      40.899  36.460  36.808  1.00  0.00     0.040 A 
ATOM     75  F   UNL A   1      41.659  35.760  34.702  1.00  0.00    -0.206 F 
ATOM     76  C   UNL A   1      40.149  36.236  37.961  1.00  0.00     0.006 A 
ENDBRANCH  55  69
BRANCH  56  77
ATOM     77  C   UNL A   1      40.541  27.791  28.331  1.00  0.00     0.057 A 
ATOM     78  C   UNL A   1      39.905  26.546  28.411  1.00  0.00     0.134 A 
ATOM     79  C   UNL A   1      41.246  28.079  27.156  1.00  0.00     0.134 A 
ATOM     80  F   UNL A   1      39.230  26.203  29.518  1.00  0.00    -0.206 F 
ATOM     81  C   UNL A   1      39.985  25.615  27.375  1.00  0.00     0.040 A 
ATOM     82  C   UNL A   1      41.312  27.167  26.101  1.00  0.00     0.040 A 
ATOM     83  F   UNL A   1      41.872  29.255  27.014  1.00  0.00    -0.206 F 
ATOM     84  C   UNL A   1      40.686  25.926  26.212  1.00  0.00     0.006 A 
ENDBRANCH  56  77
BRANCH  68  85
ATOM     85  C   UNL A   1      44.249  28.529  34.178  1.00  0.00     0.057 A 
ATOM     86  C   UNL A   1      44.043  27.425  35.014  1.00  0.00     0.134 A 
ATOM     87  C   UNL A   1      45.571  28.858  33.853  1.00  0.00     0.134 A 
ATOM     88  F   UNL A   1      42.801  27.065  35.372  1.00  0.00    -0.206 F 
ATOM     89  C   UNL A   1      45.113  26.690  35.526  1.00  0.00     0.040 A 
ATOM     90  C   UNL A   1      46.647  28.114  34.336  1.00  0.00     0.040 A 
ATOM     91  F   UNL A   1      45.837  29.898  33.047  1.00  0.00    -0.206 F 
ATOM     92  C   UNL A   1      46.420  27.029  35.181  1.00  0.00     0.006 A 
ENDBRANCH  68  85
ENDBRANCH  42  43
ENDBRANCH  34  37
ENDBRANCH  32  33
ENDBRANCH  31  32
ENDBRANCH  30  31
ENDBRANCH   1  30
TORSDOF 15
ENDMDL
MODEL 3
REMARK VINA RESULT:     -12.5      6.193     11.084
REMARK SMILES O=C(COc1ccccc1/C=C1/SC(=S)N(c2ccc(F)c(Cl)c2)C1=O)NCCCCNC(=O)c1ccc(-c2c3nc(c(-c4c(F)cccc4F)c4ccc([nH]4)c(-c4c(F)cccc4F)c4nc(c(-c5c(F)cccc5F)c5ccc2[nH]5)C=C4)C=C3)cc1
REMARK SMILES IDX 28 1 27 2 1 3 2 4 3 6 4 7 5 8 6 9 10 10 7 11 9 12 8 13 11 14
REMARK SMILES IDX 12 15 13 16 25 17 14 18 16 19 26 20 15 21 17 22 18 23 24 24
REMARK SMILES IDX 19 25 22 26 20 27 23 28 21 29 29 30 30 31 31 32 32 33 33 34
REMARK SMILES IDX 34 36 35 37 36 38 88 39 37 40 87 41 38 42 39 43 40 44 81 45
REMARK SMILES IDX 41 46 86 47 80 48 82 49 42 50 85 51 79 52 78 53 43 55 69 56
REMARK SMILES IDX 52 57 68 58 53 59 56 60 67 61 83 62 54 63 55 64 66 66 84 67
REMARK SMILES IDX 57 68 44 69 45 70 50 71 46 72 47 73 49 74 51 75 48 76 70 77
REMARK SMILES IDX 71 78 76 79 72 80 73 81 75 82 77 83 74 84 58 85 59 86 64 87
REMARK SMILES IDX 60 88 61 89 63 90 65 91 62 92
REMARK H PARENT 27 5 32 35 82 54 56 65
REMARK Flexibility Score: inf
ROOT
ATOM      1  C   UNL A   1      32.298  29.773  25.387  1.00  0.00     0.116 C 
ENDROOT
BRANCH   1   2
ATOM      2  N   UNL A   1      31.090  28.556  24.163  1.00  0.00    -0.353 N 
ATOM      3  O   UNL A   1      30.265  28.880  21.878  1.00  0.00    -0.271 OA
ATOM      4  C   UNL A   1      30.540  28.176  22.843  1.00  0.00     0.257 C 
ATOM      5  H   UNL A   1      30.683  27.912  24.788  1.00  0.00     0.163 HD
BRANCH   4   6
ATOM      6  C   UNL A   1      30.316  26.658  22.739  1.00  0.00     0.329 C 
BRANCH   6   7
ATOM      7  O   UNL A   1      31.477  25.880  22.965  1.00  0.00    -0.483 OA
BRANCH   7   8
ATOM      8  C   UNL A   1      31.557  25.205  24.164  1.00  0.00     0.127 A 
ATOM      9  C   UNL A   1      30.354  25.232  24.879  1.00  0.00     0.047 A 
ATOM     10  C   UNL A   1      32.741  24.734  24.788  1.00  0.00     0.018 A 
ATOM     11  C   UNL A   1      30.307  24.811  26.205  1.00  0.00     0.004 A 
ATOM     12  C   UNL A   1      32.671  24.315  26.125  1.00  0.00     0.012 A 
ATOM     13  C   UNL A   1      31.467  24.367  26.831  1.00  0.00     0.001 A 
BRANCH  10  14
ATOM     14  C   UNL A   1      34.082  24.728  24.181  1.00  0.00     0.033 C 
ATOM     15  C   UNL A   1      34.578  23.580  23.684  1.00  0.00     0.081 C 
ATOM     16  S   UNL A   1      36.834  23.282  23.888  1.00  0.00    -0.054 SA
ATOM     17  C   UNL A   1      33.620  21.873  23.923  1.00  0.00     0.270 C 
ATOM     18  C   UNL A   1      36.568  21.053  24.568  1.00  0.00     0.152 C 
ATOM     19  N   UNL A   1      34.820  20.574  24.386  1.00  0.00    -0.261 N 
ATOM     20  O   UNL A   1      32.427  21.720  23.705  1.00  0.00    -0.268 OA
ATOM     21  S   UNL A   1      37.895  20.274  25.265  1.00  0.00    -0.051 S 
BRANCH  19  22
ATOM     22  C   UNL A   1      34.279  19.279  24.727  1.00  0.00     0.052 A 
ATOM     23  C   UNL A   1      32.938  19.172  25.144  1.00  0.00     0.030 A 
ATOM     24  C   UNL A   1      35.036  18.105  24.695  1.00  0.00     0.050 A 
ATOM     25  C   UNL A   1      32.378  17.951  25.533  1.00  0.00     0.043 A 
ATOM     26  C   UNL A   1      34.476  16.877  25.085  1.00  0.00     0.078 A 
ATOM     27  C   UNL A   1      33.153  16.806  25.506  1.00  0.00     0.141 A 
ATOM     28  Cl  UNL A   1      35.456  15.461  25.063  1.00  0.00    -0.081 Cl
ATOM     29  F   UNL A   1      32.609  15.647  25.897  1.00  0.00    -0.205 F 
ENDBRANCH  19  22
ENDBRANCH  10  14
ENDBRANCH   7   8
ENDBRANCH   6   7
ENDBRANCH   4   6
ENDBRANCH   1   2
BRANCH   1  30
ATOM     30  C   UNL A   1      32.006  30.530  26.873  1.00  0.00     0.023 C 
BRANCH  30  31
ATOM     31  C   UNL A   1      31.740  32.043  26.859  1.00  0.00     0.023 C 
BRANCH  31  32
ATOM     32  C   UNL A   1      32.881  32.921  27.353  1.00  0.00     0.116 C 
BRANCH  32  33
ATOM     33  N   UNL A   1      32.473  34.283  27.641  1.00  0.00    -0.352 N 
ATOM     34  C   UNL A   1      32.982  35.102  28.624  1.00  0.00     0.251 C 
ATOM     35  H   UNL A   1      31.761  34.660  27.075  1.00  0.00     0.163 HD
ATOM     36  O   UNL A   1      32.478  36.189  28.874  1.00  0.00    -0.269 OA
BRANCH  34  37
ATOM     37  C   UNL A   1      34.141  34.613  29.398  1.00  0.00     0.039 A 
ATOM     38  C   UNL A   1      33.926  34.025  30.645  1.00  0.00     0.014 A 
ATOM     39  C   UNL A   1      35.417  34.637  28.827  1.00  0.00     0.014 A 
ATOM     40  C   UNL A   1      34.996  33.421  31.307  1.00  0.00     0.010 A 
ATOM     41  C   UNL A   1      36.458  33.957  29.448  1.00  0.00     0.010 A 
ATOM     42  C   UNL A   1      36.264  33.361  30.704  1.00  0.00    -0.014 A 
BRANCH  42  43
ATOM     43  C   UNL A   1      37.413  32.729  31.399  1.00  0.00     0.031 A 
ATOM     44  C   UNL A   1      38.099  31.545  30.772  1.00  0.00     0.074 A 
ATOM     45  C   UNL A   1      37.817  33.187  32.601  1.00  0.00     0.049 A 
ATOM     46  N   UNL A   1      39.093  30.827  31.226  1.00  0.00    -0.248 NA
ATOM     47  C   UNL A   1      37.575  31.088  29.474  1.00  0.00     0.031 C 
ATOM     48  C   UNL A   1      37.203  34.293  33.339  1.00  0.00     0.029 A 
ATOM     49  N   UNL A   1      38.843  32.776  33.413  1.00  0.00    -0.354 N 
ATOM     50  C   UNL A   1      39.294  29.824  30.284  1.00  0.00     0.074 A 
ATOM     51  C   UNL A   1      38.280  29.987  29.267  1.00  0.00     0.031 C 
ATOM     52  C   UNL A   1      37.887  34.494  34.478  1.00  0.00     0.029 A 
ATOM     53  C   UNL A   1      38.965  33.514  34.567  1.00  0.00     0.049 A 
ATOM     54  H   UNL A   1      39.438  32.023  33.191  1.00  0.00     0.167 HD
ATOM     55  C   UNL A   1      40.257  28.875  30.249  1.00  0.00     0.037 A 
ATOM     56  C   UNL A   1      39.850  33.412  35.576  1.00  0.00     0.037 A 
ATOM     57  C   UNL A   1      41.293  28.743  31.238  1.00  0.00     0.049 A 
ATOM     58  C   UNL A   1      40.918  32.353  35.511  1.00  0.00     0.074 A 
ATOM     59  C   UNL A   1      42.358  27.862  31.259  1.00  0.00     0.029 A 
ATOM     60  N   UNL A   1      41.391  29.521  32.381  1.00  0.00    -0.354 N 
ATOM     61  N   UNL A   1      41.145  31.462  34.575  1.00  0.00    -0.248 NA
ATOM     62  C   UNL A   1      41.860  32.291  36.637  1.00  0.00     0.031 C 
ATOM     63  C   UNL A   1      43.078  28.078  32.438  1.00  0.00     0.029 A 
ATOM     64  C   UNL A   1      42.489  29.126  33.127  1.00  0.00     0.049 A 
ATOM     65  H   UNL A   1      40.773  30.247  32.628  1.00  0.00     0.167 HD
ATOM     66  C   UNL A   1      42.268  30.755  34.985  1.00  0.00     0.074 A 
ATOM     67  C   UNL A   1      42.686  31.331  36.247  1.00  0.00     0.031 C 
ATOM     68  C   UNL A   1      42.896  29.722  34.373  1.00  0.00     0.037 A 
BRANCH  55  69
ATOM     69  C   UNL A   1      40.237  27.911  29.098  1.00  0.00     0.057 A 
ATOM     70  C   UNL A   1      39.496  26.722  29.139  1.00  0.00     0.134 A 
ATOM     71  C   UNL A   1      40.954  28.184  27.926  1.00  0.00     0.134 A 
ATOM     72  F   UNL A   1      38.801  26.392  30.238  1.00  0.00    -0.206 F 
ATOM     73  C   UNL A   1      39.495  25.825  28.070  1.00  0.00     0.040 A 
ATOM     74  C   UNL A   1      40.936  27.309  26.839  1.00  0.00     0.040 A 
ATOM     75  F   UNL A   1      41.682  29.306  27.817  1.00  0.00    -0.206 F 
ATOM     76  C   UNL A   1      40.211  26.120  26.912  1.00  0.00     0.006 A 
ENDBRANCH  55  69
BRANCH  56  77
ATOM     77  C   UNL A   1      39.791  34.356  36.722  1.00  0.00     0.057 A 
ATOM     78  C   UNL A   1      39.113  34.020  37.900  1.00  0.00     0.134 A 
ATOM     79  C   UNL A   1      40.394  35.618  36.665  1.00  0.00     0.134 A 
ATOM     80  F   UNL A   1      38.498  32.832  38.009  1.00  0.00    -0.206 F 
ATOM     81  C   UNL A   1      39.018  34.911  38.970  1.00  0.00     0.040 A 
ATOM     82  C   UNL A   1      40.328  36.509  37.738  1.00  0.00     0.040 A 
ATOM     83  F   UNL A   1      41.063  35.999  35.568  1.00  0.00    -0.206 F 
ATOM     84  C   UNL A   1      39.632  36.158  38.893  1.00  0.00     0.006 A 
ENDBRANCH  56  77
BRANCH  68  85
ATOM     85  C   UNL A   1      44.124  29.173  35.039  1.00  0.00     0.057 A 
ATOM     86  C   UNL A   1      45.397  29.705  34.800  1.00  0.00     0.134 A 
ATOM     87  C   UNL A   1      44.022  28.130  35.968  1.00  0.00     0.134 A 
ATOM     88  F   UNL A   1      45.564  30.698  33.912  1.00  0.00    -0.206 F 
ATOM     89  C   UNL A   1      46.529  29.203  35.444  1.00  0.00     0.040 A 
ATOM     90  C   UNL A   1      45.142  27.639  36.640  1.00  0.00     0.040 A 
ATOM     91  F   UNL A   1      42.829  27.583  36.252  1.00  0.00    -0.206 F 
ATOM     92  C   UNL A   1      46.401  28.172  36.374  1.00  0.00     0.006 A 
ENDBRANCH  68  85
ENDBRANCH  42  43
ENDBRANCH  34  37
ENDBRANCH  32  33
ENDBRANCH  31  32
ENDBRANCH  30  31
ENDBRANCH   1  30
TORSDOF 15
ENDMDL
