MODEL 1
REMARK VINA RESULT:     -12.1      0.000      0.000
REMARK SMILES O=C(NCCCCNC(=O)c1cc(S(=O)(=O)Nc2cccc(Cl)c2)ccc1O)c1ccc(-c2c3nc(c(-c4c(F)cccc4F)c4ccc([nH]4)c(-c4c(F)cccc4F)c4nc(c(-c5c(F)cccc5F)c5ccc2[nH]5)C=C4)C=C3)cc1
REMARK SMILES IDX 6 1 5 2 4 3 3 4 1 5 2 6 29 8 30 9 82 10 31 11 81 12 32 13
REMARK SMILES IDX 33 14 34 15 75 16 35 17 80 18 74 19 76 20 36 21 79 22 73 23
REMARK SMILES IDX 72 24 37 26 63 27 46 28 62 29 47 30 50 31 61 32 77 33 48 34
REMARK SMILES IDX 49 35 60 37 78 38 51 39 38 40 39 41 44 42 40 43 41 44 43 45
REMARK SMILES IDX 45 46 42 47 64 48 65 49 70 50 66 51 67 52 69 53 71 54 68 55
REMARK SMILES IDX 52 56 53 57 58 58 54 59 55 60 57 61 59 62 56 63 7 64 8 65
REMARK SMILES IDX 9 66 10 68 11 69 12 70 27 71 13 72 26 73 25 74 28 75 14 77
REMARK SMILES IDX 15 78 16 79 17 80 18 82 19 83 24 84 20 85 22 86 21 87 23 88
REMARK H PARENT 3 7 76 25 50 36 8 67 28 76 17 81
REMARK Flexibility Score: inf
ROOT
ATOM      1  C   UNL A   1      36.444  20.234  25.010  1.00  0.00     0.023 C 
ENDROOT
BRANCH   1   2
ATOM      2  C   UNL A   1      37.881  19.856  24.673  1.00  0.00     0.023 C 
BRANCH   2   3
ATOM      3  C   UNL A   1      38.916  20.200  25.737  1.00  0.00     0.116 C 
BRANCH   3   4
ATOM      4  N   UNL A   1      40.039  19.274  25.765  1.00  0.00    -0.352 N 
ATOM      5  O   UNL A   1      42.184  18.601  25.931  1.00  0.00    -0.269 OA
ATOM      6  C   UNL A   1      41.354  19.489  26.099  1.00  0.00     0.251 C 
ATOM      7  H   UNL A   1      39.822  18.349  25.503  1.00  0.00     0.163 HD
BRANCH   6   8
ATOM      8  C   UNL A   1      41.781  20.802  26.628  1.00  0.00     0.039 A 
ATOM      9  C   UNL A   1      41.715  21.084  27.994  1.00  0.00     0.014 A 
ATOM     10  C   UNL A   1      42.262  21.764  25.734  1.00  0.00     0.014 A 
ATOM     11  C   UNL A   1      41.982  22.372  28.448  1.00  0.00     0.010 A 
ATOM     12  C   UNL A   1      42.602  23.035  26.202  1.00  0.00     0.010 A 
ATOM     13  C   UNL A   1      42.427  23.360  27.557  1.00  0.00    -0.014 A 
BRANCH  13  14
ATOM     14  C   UNL A   1      42.733  24.726  28.052  1.00  0.00     0.031 A 
ATOM     15  C   UNL A   1      44.138  25.114  28.415  1.00  0.00     0.074 A 
ATOM     16  C   UNL A   1      41.732  25.617  28.179  1.00  0.00     0.049 A 
ATOM     17  N   UNL A   1      44.578  26.239  28.922  1.00  0.00    -0.248 NA
ATOM     18  C   UNL A   1      45.184  24.106  28.187  1.00  0.00     0.031 C 
ATOM     19  C   UNL A   1      40.327  25.357  27.857  1.00  0.00     0.029 A 
ATOM     20  N   UNL A   1      41.741  26.915  28.615  1.00  0.00    -0.354 N 
ATOM     21  C   UNL A   1      45.944  26.065  29.098  1.00  0.00     0.074 A 
ATOM     22  C   UNL A   1      46.260  24.722  28.660  1.00  0.00     0.031 C 
ATOM     23  C   UNL A   1      39.613  26.468  28.090  1.00  0.00     0.029 A 
ATOM     24  C   UNL A   1      40.497  27.497  28.627  1.00  0.00     0.049 A 
ATOM     25  H   UNL A   1      42.560  27.387  28.891  1.00  0.00     0.167 HD
ATOM     26  C   UNL A   1      46.853  26.949  29.577  1.00  0.00     0.037 A 
ATOM     27  C   UNL A   1      40.105  28.712  29.050  1.00  0.00     0.037 A 
ATOM     28  C   UNL A   1      46.539  28.292  29.993  1.00  0.00     0.049 A 
ATOM     29  C   UNL A   1      41.125  29.665  29.596  1.00  0.00     0.074 A 
ATOM     30  C   UNL A   1      47.397  29.274  30.459  1.00  0.00     0.029 A 
ATOM     31  N   UNL A   1      45.266  28.840  29.996  1.00  0.00    -0.354 N 
ATOM     32  N   UNL A   1      42.418  29.497  29.739  1.00  0.00    -0.248 NA
ATOM     33  C   UNL A   1      40.635  30.976  30.043  1.00  0.00     0.031 C 
ATOM     34  C   UNL A   1      46.637  30.405  30.776  1.00  0.00     0.029 A 
ATOM     35  C   UNL A   1      45.311  30.141  30.472  1.00  0.00     0.049 A 
ATOM     36  H   UNL A   1      44.449  28.374  29.703  1.00  0.00     0.167 HD
ATOM     37  C   UNL A   1      42.898  30.683  30.274  1.00  0.00     0.074 A 
ATOM     38  C   UNL A   1      41.760  31.567  30.423  1.00  0.00     0.031 C 
ATOM     39  C   UNL A   1      44.170  31.009  30.609  1.00  0.00     0.037 A 
BRANCH  26  40
ATOM     40  C   UNL A   1      48.274  26.481  29.699  1.00  0.00     0.057 A 
ATOM     41  C   UNL A   1      48.736  25.805  30.835  1.00  0.00     0.134 A 
ATOM     42  C   UNL A   1      49.183  26.686  28.653  1.00  0.00     0.134 A 
ATOM     43  F   UNL A   1      47.920  25.589  31.877  1.00  0.00    -0.206 F 
ATOM     44  C   UNL A   1      50.059  25.370  30.937  1.00  0.00     0.040 A 
ATOM     45  C   UNL A   1      50.501  26.235  28.733  1.00  0.00     0.040 A 
ATOM     46  F   UNL A   1      48.803  27.320  27.535  1.00  0.00    -0.206 F 
ATOM     47  C   UNL A   1      50.945  25.580  29.881  1.00  0.00     0.006 A 
ENDBRANCH  26  40
BRANCH  27  48
ATOM     48  C   UNL A   1      38.672  29.080  28.971  1.00  0.00     0.057 A 
ATOM     49  C   UNL A   1      37.839  28.981  30.089  1.00  0.00     0.134 A 
ATOM     50  C   UNL A   1      38.115  29.580  27.787  1.00  0.00     0.134 A 
ATOM     51  F   UNL A   1      38.314  28.496  31.245  1.00  0.00    -0.206 F 
ATOM     52  C   UNL A   1      36.499  29.368  30.035  1.00  0.00     0.040 A 
ATOM     53  C   UNL A   1      36.784  29.990  27.725  1.00  0.00     0.040 A 
ATOM     54  F   UNL A   1      38.869  29.706  26.685  1.00  0.00    -0.206 F 
ATOM     55  C   UNL A   1      35.970  29.882  28.850  1.00  0.00     0.006 A 
ENDBRANCH  27  48
BRANCH  39  56
ATOM     56  C   UNL A   1      44.404  32.391  31.140  1.00  0.00     0.057 A 
ATOM     57  C   UNL A   1      44.377  32.668  32.511  1.00  0.00     0.134 A 
ATOM     58  C   UNL A   1      44.702  33.446  30.269  1.00  0.00     0.134 A 
ATOM     59  F   UNL A   1      44.082  31.702  33.395  1.00  0.00    -0.206 F 
ATOM     60  C   UNL A   1      44.626  33.952  32.998  1.00  0.00     0.040 A 
ATOM     61  C   UNL A   1      44.973  34.728  30.745  1.00  0.00     0.040 A 
ATOM     62  F   UNL A   1      44.749  33.243  28.944  1.00  0.00    -0.206 F 
ATOM     63  C   UNL A   1      44.932  34.985  32.114  1.00  0.00     0.006 A 
ENDBRANCH  39  56
ENDBRANCH  13  14
ENDBRANCH   6   8
ENDBRANCH   3   4
ENDBRANCH   2   3
ENDBRANCH   1   2
BRANCH   1  64
ATOM     64  C   UNL A   1      36.256  21.621  25.606  1.00  0.00     0.116 C 
BRANCH  64  65
ATOM     65  N   UNL A   1      35.384  21.665  26.770  1.00  0.00    -0.352 N 
ATOM     66  C   UNL A   1      34.007  21.576  26.783  1.00  0.00     0.255 C 
ATOM     67  H   UNL A   1      35.825  21.771  27.643  1.00  0.00     0.163 HD
ATOM     68  O   UNL A   1      33.381  21.614  27.838  1.00  0.00    -0.269 OA
BRANCH  66  69
ATOM     69  C   UNL A   1      33.290  21.559  25.492  1.00  0.00     0.082 A 
ATOM     70  C   UNL A   1      33.390  22.693  24.680  1.00  0.00     0.040 A 
ATOM     71  C   UNL A   1      32.628  20.419  25.024  1.00  0.00     0.128 A 
ATOM     72  C   UNL A   1      32.975  22.620  23.348  1.00  0.00     0.088 A 
ATOM     73  C   UNL A   1      32.307  20.316  23.678  1.00  0.00     0.048 A 
ATOM     74  C   UNL A   1      32.555  21.395  22.827  1.00  0.00     0.026 A 
BRANCH  71  75
ATOM     75  O   UNL A   1      32.350  19.379  25.863  1.00  0.00    -0.507 OA
ATOM     76  H   UNL A   1      33.025  19.023  26.408  1.00  0.00     0.293 HD
ENDBRANCH  71  75
BRANCH  72  77
ATOM     77  S   UNL A   1      32.890  24.157  22.447  1.00  0.00     0.261 S 
ATOM     78  O   UNL A   1      33.372  23.878  21.114  1.00  0.00    -0.201 OA
ATOM     79  O   UNL A   1      31.560  24.686  22.675  1.00  0.00    -0.201 OA
BRANCH  77  80
ATOM     80  N   UNL A   1      33.924  25.284  23.139  1.00  0.00    -0.280 N 
ATOM     81  H   UNL A   1      34.864  25.021  23.268  1.00  0.00     0.180 HD
BRANCH  80  82
ATOM     82  C   UNL A   1      33.545  26.589  23.552  1.00  0.00     0.050 A 
ATOM     83  C   UNL A   1      33.450  27.679  22.684  1.00  0.00     0.027 A 
ATOM     84  C   UNL A   1      33.404  26.782  24.931  1.00  0.00     0.047 A 
ATOM     85  C   UNL A   1      33.353  28.973  23.208  1.00  0.00     0.004 A 
ATOM     86  C   UNL A   1      33.303  28.072  25.443  1.00  0.00     0.043 A 
ATOM     87  C   UNL A   1      33.303  29.172  24.590  1.00  0.00     0.020 A 
ATOM     88  Cl  UNL A   1      33.262  28.305  27.148  1.00  0.00    -0.084 Cl
ENDBRANCH  80  82
ENDBRANCH  77  80
ENDBRANCH  72  77
ENDBRANCH  66  69
ENDBRANCH  64  65
ENDBRANCH   1  64
TORSDOF 15
ENDMDL
MODEL 2
REMARK VINA RESULT:     -12.0      2.530      7.796
REMARK SMILES O=C(NCCCCNC(=O)c1cc(S(=O)(=O)Nc2cccc(Cl)c2)ccc1O)c1ccc(-c2c3nc(c(-c4c(F)cccc4F)c4ccc([nH]4)c(-c4c(F)cccc4F)c4nc(c(-c5c(F)cccc5F)c5ccc2[nH]5)C=C4)C=C3)cc1
REMARK SMILES IDX 6 1 5 2 4 3 3 4 1 5 2 6 29 8 30 9 82 10 31 11 81 12 32 13
REMARK SMILES IDX 33 14 34 15 75 16 35 17 80 18 74 19 76 20 36 21 79 22 73 23
REMARK SMILES IDX 72 24 37 26 63 27 46 28 62 29 47 30 50 31 61 32 77 33 48 34
REMARK SMILES IDX 49 35 60 37 78 38 51 39 38 40 39 41 44 42 40 43 41 44 43 45
REMARK SMILES IDX 45 46 42 47 64 48 65 49 70 50 66 51 67 52 69 53 71 54 68 55
REMARK SMILES IDX 52 56 53 57 58 58 54 59 55 60 57 61 59 62 56 63 7 64 8 65
REMARK SMILES IDX 9 66 10 68 11 69 12 70 27 71 13 72 26 73 25 74 28 75 14 77
REMARK SMILES IDX 15 78 16 79 17 80 18 82 19 83 24 84 20 85 22 86 21 87 23 88
REMARK H PARENT 3 7 76 25 50 36 8 67 28 76 17 81
REMARK Flexibility Score: inf
ROOT
ATOM      1  C   UNL A   1      32.729  29.695  25.083  1.00  0.00     0.023 C 
ENDROOT
BRANCH   1   2
ATOM      2  C   UNL A   1      33.350  28.431  25.663  1.00  0.00     0.023 C 
BRANCH   2   3
ATOM      3  C   UNL A   1      33.835  28.540  27.104  1.00  0.00     0.116 C 
BRANCH   3   4
ATOM      4  N   UNL A   1      33.766  29.896  27.630  1.00  0.00    -0.352 N 
ATOM      5  O   UNL A   1      34.408  31.718  28.791  1.00  0.00    -0.269 OA
ATOM      6  C   UNL A   1      34.707  30.628  28.313  1.00  0.00     0.251 C 
ATOM      7  H   UNL A   1      32.912  30.360  27.473  1.00  0.00     0.163 HD
BRANCH   6   8
ATOM      8  C   UNL A   1      36.071  30.091  28.503  1.00  0.00     0.039 A 
ATOM      9  C   UNL A   1      36.458  29.520  29.718  1.00  0.00     0.014 A 
ATOM     10  C   UNL A   1      36.976  30.159  27.439  1.00  0.00     0.014 A 
ATOM     11  C   UNL A   1      37.786  29.159  29.920  1.00  0.00     0.010 A 
ATOM     12  C   UNL A   1      38.290  29.724  27.620  1.00  0.00     0.010 A 
ATOM     13  C   UNL A   1      38.715  29.258  28.874  1.00  0.00    -0.014 A 
BRANCH  13  14
ATOM     14  C   UNL A   1      40.126  28.848  29.089  1.00  0.00     0.031 A 
ATOM     15  C   UNL A   1      41.109  29.790  29.724  1.00  0.00     0.074 A 
ATOM     16  C   UNL A   1      40.519  27.620  28.703  1.00  0.00     0.049 A 
ATOM     17  N   UNL A   1      42.393  29.626  29.931  1.00  0.00    -0.248 NA
ATOM     18  C   UNL A   1      40.588  31.088  30.177  1.00  0.00     0.031 C 
ATOM     19  C   UNL A   1      39.655  26.618  28.077  1.00  0.00     0.029 A 
ATOM     20  N   UNL A   1      41.743  27.009  28.776  1.00  0.00    -0.354 N 
ATOM     21  C   UNL A   1      42.836  30.806  30.514  1.00  0.00     0.074 A 
ATOM     22  C   UNL A   1      41.690  31.685  30.611  1.00  0.00     0.031 C 
ATOM     23  C   UNL A   1      40.373  25.509  27.840  1.00  0.00     0.029 A 
ATOM     24  C   UNL A   1      41.755  25.744  28.245  1.00  0.00     0.049 A 
ATOM     25  H   UNL A   1      42.537  27.436  29.173  1.00  0.00     0.167 HD
ATOM     26  C   UNL A   1      44.085  31.124  30.932  1.00  0.00     0.037 A 
ATOM     27  C   UNL A   1      42.769  24.877  28.076  1.00  0.00     0.037 A 
ATOM     28  C   UNL A   1      45.219  30.239  30.852  1.00  0.00     0.049 A 
ATOM     29  C   UNL A   1      44.146  25.258  28.528  1.00  0.00     0.074 A 
ATOM     30  C   UNL A   1      46.516  30.458  31.284  1.00  0.00     0.029 A 
ATOM     31  N   UNL A   1      45.190  28.967  30.302  1.00  0.00    -0.354 N 
ATOM     32  N   UNL A   1      44.549  26.370  29.095  1.00  0.00    -0.248 NA
ATOM     33  C   UNL A   1      45.212  24.271  28.314  1.00  0.00     0.031 C 
ATOM     34  C   UNL A   1      47.280  29.331  30.961  1.00  0.00     0.029 A 
ATOM     35  C   UNL A   1      46.450  28.395  30.365  1.00  0.00     0.049 A 
ATOM     36  H   UNL A   1      44.391  28.534  29.921  1.00  0.00     0.167 HD
ATOM     37  C   UNL A   1      45.908  26.209  29.323  1.00  0.00     0.074 A 
ATOM     38  C   UNL A   1      46.260  24.889  28.841  1.00  0.00     0.031 C 
ATOM     39  C   UNL A   1      46.783  27.079  29.885  1.00  0.00     0.037 A 
BRANCH  26  40
ATOM     40  C   UNL A   1      44.295  32.499  31.495  1.00  0.00     0.057 A 
ATOM     41  C   UNL A   1      44.640  33.587  30.684  1.00  0.00     0.134 A 
ATOM     42  C   UNL A   1      44.122  32.742  32.864  1.00  0.00     0.134 A 
ATOM     43  F   UNL A   1      44.833  33.419  29.367  1.00  0.00    -0.206 F 
ATOM     44  C   UNL A   1      44.829  34.864  31.217  1.00  0.00     0.040 A 
ATOM     45  C   UNL A   1      44.285  34.018  33.405  1.00  0.00     0.040 A 
ATOM     46  F   UNL A   1      43.785  31.745  33.695  1.00  0.00    -0.206 F 
ATOM     47  C   UNL A   1      44.646  35.083  32.582  1.00  0.00     0.006 A 
ENDBRANCH  26  40
BRANCH  27  48
ATOM     48  C   UNL A   1      42.503  23.564  27.442  1.00  0.00     0.057 A 
ATOM     49  C   UNL A   1      42.578  23.404  26.056  1.00  0.00     0.134 A 
ATOM     50  C   UNL A   1      42.213  22.431  28.213  1.00  0.00     0.134 A 
ATOM     51  F   UNL A   1      42.838  24.456  25.267  1.00  0.00    -0.206 F 
ATOM     52  C   UNL A   1      42.372  22.161  25.454  1.00  0.00     0.040 A 
ATOM     53  C   UNL A   1      42.026  21.180  27.627  1.00  0.00     0.040 A 
ATOM     54  F   UNL A   1      42.138  22.523  29.549  1.00  0.00    -0.206 F 
ATOM     55  C   UNL A   1      42.103  21.042  26.243  1.00  0.00     0.006 A 
ENDBRANCH  27  48
BRANCH  39  56
ATOM     56  C   UNL A   1      48.200  26.617  30.038  1.00  0.00     0.057 A 
ATOM     57  C   UNL A   1      49.183  26.929  29.091  1.00  0.00     0.134 A 
ATOM     58  C   UNL A   1      48.594  25.890  31.168  1.00  0.00     0.134 A 
ATOM     59  F   UNL A   1      48.865  27.611  27.980  1.00  0.00    -0.206 F 
ATOM     60  C   UNL A   1      50.507  26.522  29.257  1.00  0.00     0.040 A 
ATOM     61  C   UNL A   1      49.918  25.495  31.355  1.00  0.00     0.040 A 
ATOM     62  F   UNL A   1      47.700  25.565  32.113  1.00  0.00    -0.206 F 
ATOM     63  C   UNL A   1      50.879  25.808  30.395  1.00  0.00     0.006 A 
ENDBRANCH  39  56
ENDBRANCH  13  14
ENDBRANCH   6   8
ENDBRANCH   3   4
ENDBRANCH   2   3
ENDBRANCH   1   2
BRANCH   1  64
ATOM     64  C   UNL A   1      31.212  29.679  24.953  1.00  0.00     0.116 C 
BRANCH  64  65
ATOM     65  N   UNL A   1      30.715  30.043  23.636  1.00  0.00    -0.352 N 
ATOM     66  C   UNL A   1      30.211  29.195  22.671  1.00  0.00     0.255 C 
ATOM     67  H   UNL A   1      30.742  31.001  23.408  1.00  0.00     0.163 HD
ATOM     68  O   UNL A   1      29.808  29.629  21.596  1.00  0.00    -0.269 OA
BRANCH  66  69
ATOM     69  C   UNL A   1      30.281  27.739  22.908  1.00  0.00     0.082 A 
ATOM     70  C   UNL A   1      31.508  27.105  22.690  1.00  0.00     0.040 A 
ATOM     71  C   UNL A   1      29.207  27.021  23.444  1.00  0.00     0.128 A 
ATOM     72  C   UNL A   1      31.702  25.805  23.164  1.00  0.00     0.088 A 
ATOM     73  C   UNL A   1      29.429  25.769  24.000  1.00  0.00     0.048 A 
ATOM     74  C   UNL A   1      30.701  25.198  23.926  1.00  0.00     0.026 A 
BRANCH  71  75
ATOM     75  O   UNL A   1      27.955  27.561  23.482  1.00  0.00    -0.507 OA
ATOM     76  H   UNL A   1      27.770  28.349  23.007  1.00  0.00     0.293 HD
ENDBRANCH  71  75
BRANCH  72  77
ATOM     77  S   UNL A   1      33.184  24.968  22.634  1.00  0.00     0.261 S 
ATOM     78  O   UNL A   1      32.844  23.567  22.519  1.00  0.00    -0.201 OA
ATOM     79  O   UNL A   1      33.689  25.718  21.502  1.00  0.00    -0.201 OA
BRANCH  77  80
ATOM     80  N   UNL A   1      34.374  25.111  23.809  1.00  0.00    -0.280 N 
ATOM     81  H   UNL A   1      34.645  26.019  24.075  1.00  0.00     0.180 HD
BRANCH  80  82
ATOM     82  C   UNL A   1      35.018  24.019  24.451  1.00  0.00     0.050 A 
ATOM     83  C   UNL A   1      36.061  23.290  23.876  1.00  0.00     0.027 A 
ATOM     84  C   UNL A   1      34.455  23.597  25.660  1.00  0.00     0.047 A 
ATOM     85  C   UNL A   1      36.442  22.068  24.441  1.00  0.00     0.004 A 
ATOM     86  C   UNL A   1      34.843  22.382  26.217  1.00  0.00     0.043 A 
ATOM     87  C   UNL A   1      35.817  21.602  25.600  1.00  0.00     0.020 A 
ATOM     88  Cl  UNL A   1      34.052  21.810  27.634  1.00  0.00    -0.084 Cl
ENDBRANCH  80  82
ENDBRANCH  77  80
ENDBRANCH  72  77
ENDBRANCH  66  69
ENDBRANCH  64  65
ENDBRANCH   1  64
TORSDOF 15
ENDMDL
MODEL 3
REMARK VINA RESULT:     -12.0      1.152      6.185
REMARK SMILES O=C(NCCCCNC(=O)c1cc(S(=O)(=O)Nc2cccc(Cl)c2)ccc1O)c1ccc(-c2c3nc(c(-c4c(F)cccc4F)c4ccc([nH]4)c(-c4c(F)cccc4F)c4nc(c(-c5c(F)cccc5F)c5ccc2[nH]5)C=C4)C=C3)cc1
REMARK SMILES IDX 6 1 5 2 4 3 3 4 1 5 2 6 29 8 30 9 82 10 31 11 81 12 32 13
REMARK SMILES IDX 33 14 34 15 75 16 35 17 80 18 74 19 76 20 36 21 79 22 73 23
REMARK SMILES IDX 72 24 37 26 63 27 46 28 62 29 47 30 50 31 61 32 77 33 48 34
REMARK SMILES IDX 49 35 60 37 78 38 51 39 38 40 39 41 44 42 40 43 41 44 43 45
REMARK SMILES IDX 45 46 42 47 64 48 65 49 70 50 66 51 67 52 69 53 71 54 68 55
REMARK SMILES IDX 52 56 53 57 58 58 54 59 55 60 57 61 59 62 56 63 7 64 8 65
REMARK SMILES IDX 9 66 10 68 11 69 12 70 27 71 13 72 26 73 25 74 28 75 14 77
REMARK SMILES IDX 15 78 16 79 17 80 18 82 19 83 24 84 20 85 22 86 21 87 23 88
REMARK H PARENT 3 7 76 25 50 36 8 67 28 76 17 81
REMARK Flexibility Score: inf
ROOT
ATOM      1  C   UNL A   1      36.580  20.288  25.014  1.00  0.00     0.023 C 
ENDROOT
BRANCH   1   2
ATOM      2  C   UNL A   1      38.026  19.936  24.689  1.00  0.00     0.023 C 
BRANCH   2   3
ATOM      3  C   UNL A   1      39.026  20.171  25.815  1.00  0.00     0.116 C 
BRANCH   3   4
ATOM      4  N   UNL A   1      40.075  19.163  25.869  1.00  0.00    -0.352 N 
ATOM      5  O   UNL A   1      42.168  18.336  26.002  1.00  0.00    -0.269 OA
ATOM      6  C   UNL A   1      41.416  19.297  26.134  1.00  0.00     0.251 C 
ATOM      7  H   UNL A   1      39.777  18.242  25.687  1.00  0.00     0.163 HD
BRANCH   6   8
ATOM      8  C   UNL A   1      41.966  20.606  26.545  1.00  0.00     0.039 A 
ATOM      9  C   UNL A   1      42.055  20.959  27.894  1.00  0.00     0.014 A 
ATOM     10  C   UNL A   1      42.404  21.493  25.557  1.00  0.00     0.014 A 
ATOM     11  C   UNL A   1      42.436  22.250  28.247  1.00  0.00     0.010 A 
ATOM     12  C   UNL A   1      42.859  22.763  25.918  1.00  0.00     0.010 A 
ATOM     13  C   UNL A   1      42.841  23.164  27.263  1.00  0.00    -0.014 A 
BRANCH  13  14
ATOM     14  C   UNL A   1      43.268  24.532  27.649  1.00  0.00     0.031 A 
ATOM     15  C   UNL A   1      42.256  25.570  28.043  1.00  0.00     0.074 A 
ATOM     16  C   UNL A   1      44.579  24.838  27.637  1.00  0.00     0.049 A 
ATOM     17  N   UNL A   1      42.442  26.831  28.348  1.00  0.00    -0.248 NA
ATOM     18  C   UNL A   1      40.851  25.140  28.095  1.00  0.00     0.031 C 
ATOM     19  C   UNL A   1      45.656  23.915  27.274  1.00  0.00     0.029 A 
ATOM     20  N   UNL A   1      45.227  26.008  27.934  1.00  0.00    -0.354 N 
ATOM     21  C   UNL A   1      41.179  27.349  28.600  1.00  0.00     0.074 A 
ATOM     22  C   UNL A   1      40.232  26.274  28.397  1.00  0.00     0.031 C 
ATOM     23  C   UNL A   1      46.832  24.550  27.386  1.00  0.00     0.029 A 
ATOM     24  C   UNL A   1      46.588  25.935  27.775  1.00  0.00     0.049 A 
ATOM     25  H   UNL A   1      44.761  26.823  28.233  1.00  0.00     0.167 HD
ATOM     26  C   UNL A   1      40.843  28.608  28.972  1.00  0.00     0.037 A 
ATOM     27  C   UNL A   1      47.535  26.882  27.900  1.00  0.00     0.037 A 
ATOM     28  C   UNL A   1      41.789  29.671  29.193  1.00  0.00     0.049 A 
ATOM     29  C   UNL A   1      47.136  28.273  28.292  1.00  0.00     0.074 A 
ATOM     30  C   UNL A   1      41.547  30.970  29.607  1.00  0.00     0.029 A 
ATOM     31  N   UNL A   1      43.159  29.557  29.016  1.00  0.00    -0.354 N 
ATOM     32  N   UNL A   1      45.940  28.747  28.547  1.00  0.00    -0.248 NA
ATOM     33  C   UNL A   1      48.214  29.264  28.410  1.00  0.00     0.031 C 
ATOM     34  C   UNL A   1      42.768  31.652  29.645  1.00  0.00     0.029 A 
ATOM     35  C   UNL A   1      43.775  30.766  29.294  1.00  0.00     0.049 A 
ATOM     36  H   UNL A   1      43.626  28.737  28.733  1.00  0.00     0.167 HD
ATOM     37  C   UNL A   1      46.123  30.082  28.874  1.00  0.00     0.074 A 
ATOM     38  C   UNL A   1      47.545  30.343  28.793  1.00  0.00     0.031 C 
ATOM     39  C   UNL A   1      45.192  31.008  29.213  1.00  0.00     0.037 A 
BRANCH  26  40
ATOM     40  C   UNL A   1      39.382  28.911  29.141  1.00  0.00     0.057 A 
ATOM     41  C   UNL A   1      38.583  29.333  28.071  1.00  0.00     0.134 A 
ATOM     42  C   UNL A   1      38.762  28.750  30.387  1.00  0.00     0.134 A 
ATOM     43  F   UNL A   1      39.119  29.518  26.855  1.00  0.00    -0.206 F 
ATOM     44  C   UNL A   1      37.225  29.607  28.238  1.00  0.00     0.040 A 
ATOM     45  C   UNL A   1      37.400  28.999  30.562  1.00  0.00     0.040 A 
ATOM     46  F   UNL A   1      39.467  28.343  31.452  1.00  0.00    -0.206 F 
ATOM     47  C   UNL A   1      36.628  29.436  29.486  1.00  0.00     0.006 A 
ENDBRANCH  26  40
BRANCH  27  48
ATOM     48  C   UNL A   1      48.951  26.531  27.643  1.00  0.00     0.057 A 
ATOM     49  C   UNL A   1      49.782  26.083  28.674  1.00  0.00     0.134 A 
ATOM     50  C   UNL A   1      49.491  26.592  26.353  1.00  0.00     0.134 A 
ATOM     51  F   UNL A   1      49.323  26.017  29.932  1.00  0.00    -0.206 F 
ATOM     52  C   UNL A   1      51.105  25.708  28.432  1.00  0.00     0.040 A 
ATOM     53  C   UNL A   1      50.804  26.200  26.093  1.00  0.00     0.040 A 
ATOM     54  F   UNL A   1      48.738  27.005  25.323  1.00  0.00    -0.206 F 
ATOM     55  C   UNL A   1      51.616  25.759  27.135  1.00  0.00     0.006 A 
ENDBRANCH  27  48
BRANCH  39  56
ATOM     56  C   UNL A   1      45.688  32.381  29.553  1.00  0.00     0.057 A 
ATOM     57  C   UNL A   1      46.086  32.719  30.852  1.00  0.00     0.134 A 
ATOM     58  C   UNL A   1      45.809  33.360  28.560  1.00  0.00     0.134 A 
ATOM     59  F   UNL A   1      45.980  31.828  31.850  1.00  0.00    -0.206 F 
ATOM     60  C   UNL A   1      46.576  33.991  31.154  1.00  0.00     0.040 A 
ATOM     61  C   UNL A   1      46.317  34.628  28.846  1.00  0.00     0.040 A 
ATOM     62  F   UNL A   1      45.451  33.095  27.295  1.00  0.00    -0.206 F 
ATOM     63  C   UNL A   1      46.698  34.947  30.147  1.00  0.00     0.006 A 
ENDBRANCH  39  56
ENDBRANCH  13  14
ENDBRANCH   6   8
ENDBRANCH   3   4
ENDBRANCH   2   3
ENDBRANCH   1   2
BRANCH   1  64
ATOM     64  C   UNL A   1      36.353  21.695  25.548  1.00  0.00     0.116 C 
BRANCH  64  65
ATOM     65  N   UNL A   1      35.519  21.763  26.737  1.00  0.00    -0.352 N 
ATOM     66  C   UNL A   1      34.143  21.674  26.796  1.00  0.00     0.255 C 
ATOM     67  H   UNL A   1      35.987  21.886  27.594  1.00  0.00     0.163 HD
ATOM     68  O   UNL A   1      33.551  21.734  27.869  1.00  0.00    -0.269 OA
BRANCH  66  69
ATOM     69  C   UNL A   1      33.385  21.632  25.529  1.00  0.00     0.082 A 
ATOM     70  C   UNL A   1      33.464  22.748  24.688  1.00  0.00     0.040 A 
ATOM     71  C   UNL A   1      32.705  20.485  25.107  1.00  0.00     0.128 A 
ATOM     72  C   UNL A   1      33.007  22.647  23.372  1.00  0.00     0.088 A 
ATOM     73  C   UNL A   1      32.341  20.354  23.775  1.00  0.00     0.048 A 
ATOM     74  C   UNL A   1      32.566  21.412  22.892  1.00  0.00     0.026 A 
BRANCH  71  75
ATOM     75  O   UNL A   1      32.448  19.466  25.978  1.00  0.00    -0.507 OA
ATOM     76  H   UNL A   1      33.157  18.974  26.345  1.00  0.00     0.293 HD
ENDBRANCH  71  75
BRANCH  72  77
ATOM     77  S   UNL A   1      32.900  24.164  22.440  1.00  0.00     0.261 S 
ATOM     78  O   UNL A   1      33.328  23.850  21.096  1.00  0.00    -0.201 OA
ATOM     79  O   UNL A   1      31.584  24.709  22.706  1.00  0.00    -0.201 OA
BRANCH  77  80
ATOM     80  N   UNL A   1      33.969  25.297  23.066  1.00  0.00    -0.280 N 
ATOM     81  H   UNL A   1      34.920  25.047  23.117  1.00  0.00     0.180 HD
BRANCH  80  82
ATOM     82  C   UNL A   1      33.605  26.590  23.527  1.00  0.00     0.050 A 
ATOM     83  C   UNL A   1      33.486  27.704  22.693  1.00  0.00     0.027 A 
ATOM     84  C   UNL A   1      33.505  26.744  24.914  1.00  0.00     0.047 A 
ATOM     85  C   UNL A   1      33.407  28.982  23.255  1.00  0.00     0.004 A 
ATOM     86  C   UNL A   1      33.422  28.019  25.465  1.00  0.00     0.043 A 
ATOM     87  C   UNL A   1      33.398  29.142  24.643  1.00  0.00     0.020 A 
ATOM     88  Cl  UNL A   1      33.432  28.204  27.176  1.00  0.00    -0.084 Cl
ENDBRANCH  80  82
ENDBRANCH  77  80
ENDBRANCH  72  77
ENDBRANCH  66  69
ENDBRANCH  64  65
ENDBRANCH   1  64
TORSDOF 15
ENDMDL
