MODEL 1
REMARK VINA RESULT:     -10.8      0.000      0.000
REMARK SMILES CC[C@H](C)CN(CC)c1nc(C(=O)NCCCCNC(=O)c2ccc(-c3c4nc(c(-c5c(F)cccc5F)c5ccc([nH]5)c(-c5c(F)cccc5F)c5nc(c(-c6c(F)cccc6F)c6ccc3[nH]6)C=C5)C=C4)cc2)cc2ccccc12
REMARK SMILES IDX 15 1 14 2 12 3 13 4 11 6 9 7 10 8 82 9 77 10 81 11 76 12
REMARK SMILES IDX 78 13 80 14 79 15 6 16 5 17 3 18 4 19 2 20 1 21 7 22 8 23
REMARK SMILES IDX 16 24 17 25 18 26 19 27 20 28 21 30 22 31 23 32 75 33 24 34
REMARK SMILES IDX 74 35 25 36 26 37 27 38 68 39 28 40 73 41 67 42 69 43 29 44
REMARK SMILES IDX 72 45 66 46 65 47 30 49 56 50 39 51 55 52 40 53 43 54 54 55
REMARK SMILES IDX 70 56 41 57 42 58 53 60 71 61 44 62 31 63 32 64 37 65 33 66
REMARK SMILES IDX 34 67 36 68 38 69 35 70 57 71 58 72 63 73 59 74 60 75 62 76
REMARK SMILES IDX 64 77 61 78 45 79 46 80 51 81 47 82 48 83 50 84 52 85 49 86
REMARK H PARENT 14 5 19 29 69 48 43 59
REMARK Flexibility Score: inf
ROOT
ATOM      1  C   UNL A   1      31.777  29.806  27.247  1.00  0.00     0.116 C 
ENDROOT
BRANCH   1   2
ATOM      2  N   UNL A   1      33.203  29.661  27.437  1.00  0.00    -0.351 N 
ATOM      3  C   UNL A   1      34.073  28.727  26.920  1.00  0.00     0.269 C 
ATOM      4  O   UNL A   1      35.258  28.830  27.250  1.00  0.00    -0.268 OA
ATOM      5  H   UNL A   1      33.614  30.334  28.026  1.00  0.00     0.163 HD
BRANCH   3   6
ATOM      6  C   UNL A   1      33.659  27.615  25.993  1.00  0.00     0.131 A 
ATOM      7  C   UNL A   1      32.899  25.439  25.648  1.00  0.00     0.137 A 
ATOM      8  N   UNL A   1      33.287  26.414  26.502  1.00  0.00    -0.225 NA
ATOM      9  C   UNL A   1      32.759  25.679  24.258  1.00  0.00     0.024 A 
ATOM     10  C   UNL A   1      33.256  26.892  23.745  1.00  0.00    -0.012 A 
ATOM     11  C   UNL A   1      32.218  24.744  23.348  1.00  0.00     0.012 A 
ATOM     12  C   UNL A   1      33.697  27.874  24.630  1.00  0.00     0.043 A 
ATOM     13  C   UNL A   1      33.346  27.076  22.355  1.00  0.00     0.009 A 
ATOM     14  C   UNL A   1      32.306  24.936  21.970  1.00  0.00     0.001 A 
ATOM     15  C   UNL A   1      32.903  26.089  21.474  1.00  0.00     0.001 A 
BRANCH   7  16
ATOM     16  N   UNL A   1      32.830  24.121  26.131  1.00  0.00    -0.356 N 
BRANCH  16  17
ATOM     17  C   UNL A   1      34.108  23.518  26.590  1.00  0.00     0.121 C 
BRANCH  17  18
ATOM     18  C   UNL A   1      34.851  22.665  25.524  1.00  0.00     0.005 C 
ATOM     19  C   UNL A   1      33.874  21.847  24.669  1.00  0.00     0.009 C 
BRANCH  18  20
ATOM     20  C   UNL A   1      35.766  23.539  24.631  1.00  0.00     0.002 C 
ATOM     21  C   UNL A   1      35.566  23.323  23.133  1.00  0.00     0.004 C 
ENDBRANCH  18  20
ENDBRANCH  17  18
ENDBRANCH  16  17
BRANCH  16  22
ATOM     22  C   UNL A   1      31.613  23.744  26.860  1.00  0.00     0.114 C 
ATOM     23  C   UNL A   1      30.658  22.842  26.093  1.00  0.00     0.027 C 
ENDBRANCH  16  22
ENDBRANCH   7  16
ENDBRANCH   3   6
ENDBRANCH   1   2
BRANCH   1  24
ATOM     24  C   UNL A   1      31.413  30.821  26.173  1.00  0.00     0.023 C 
BRANCH  24  25
ATOM     25  C   UNL A   1      31.316  32.269  26.636  1.00  0.00     0.023 C 
BRANCH  25  26
ATOM     26  C   UNL A   1      32.647  32.969  26.866  1.00  0.00     0.116 C 
BRANCH  26  27
ATOM     27  N   UNL A   1      32.528  34.197  27.640  1.00  0.00    -0.352 N 
ATOM     28  C   UNL A   1      33.251  34.615  28.735  1.00  0.00     0.251 C 
ATOM     29  H   UNL A   1      31.829  34.819  27.336  1.00  0.00     0.163 HD
ATOM     30  O   UNL A   1      32.931  35.627  29.339  1.00  0.00    -0.269 OA
BRANCH  28  31
ATOM     31  C   UNL A   1      34.405  33.810  29.195  1.00  0.00     0.039 A 
ATOM     32  C   UNL A   1      35.698  34.256  28.916  1.00  0.00     0.014 A 
ATOM     33  C   UNL A   1      34.208  32.629  29.915  1.00  0.00     0.014 A 
ATOM     34  C   UNL A   1      36.794  33.550  29.415  1.00  0.00     0.010 A 
ATOM     35  C   UNL A   1      35.294  31.985  30.493  1.00  0.00     0.010 A 
ATOM     36  C   UNL A   1      36.601  32.426  30.236  1.00  0.00    -0.014 A 
BRANCH  36  37
ATOM     37  C   UNL A   1      37.750  31.672  30.800  1.00  0.00     0.031 A 
ATOM     38  C   UNL A   1      38.204  31.946  32.209  1.00  0.00     0.074 A 
ATOM     39  C   UNL A   1      38.419  30.789  30.033  1.00  0.00     0.049 A 
ATOM     40  N   UNL A   1      39.219  31.443  32.864  1.00  0.00    -0.248 NA
ATOM     41  C   UNL A   1      37.433  32.942  32.970  1.00  0.00     0.031 C 
ATOM     42  C   UNL A   1      38.113  30.472  28.637  1.00  0.00     0.029 A 
ATOM     43  N   UNL A   1      39.503  29.999  30.323  1.00  0.00    -0.354 N 
ATOM     44  C   UNL A   1      39.216  32.075  34.102  1.00  0.00     0.074 A 
ATOM     45  C   UNL A   1      38.145  33.044  34.083  1.00  0.00     0.031 C 
ATOM     46  C   UNL A   1      38.971  29.534  28.202  1.00  0.00     0.029 A 
ATOM     47  C   UNL A   1      39.907  29.209  29.274  1.00  0.00     0.049 A 
ATOM     48  H   UNL A   1      39.949  29.997  31.201  1.00  0.00     0.167 HD
ATOM     49  C   UNL A   1      40.015  31.848  35.172  1.00  0.00     0.037 A 
ATOM     50  C   UNL A   1      40.919  28.325  29.187  1.00  0.00     0.037 A 
ATOM     51  C   UNL A   1      41.064  30.863  35.201  1.00  0.00     0.049 A 
ATOM     52  C   UNL A   1      41.789  28.086  30.391  1.00  0.00     0.074 A 
ATOM     53  C   UNL A   1      41.897  30.519  36.251  1.00  0.00     0.029 A 
ATOM     54  N   UNL A   1      41.423  30.064  34.126  1.00  0.00    -0.354 N 
ATOM     55  N   UNL A   1      41.734  28.643  31.578  1.00  0.00    -0.248 NA
ATOM     56  C   UNL A   1      42.854  27.084  30.248  1.00  0.00     0.031 C 
ATOM     57  C   UNL A   1      42.789  29.542  35.798  1.00  0.00     0.029 A 
ATOM     58  C   UNL A   1      42.475  29.236  34.484  1.00  0.00     0.049 A 
ATOM     59  H   UNL A   1      40.995  30.081  33.240  1.00  0.00     0.167 HD
ATOM     60  C   UNL A   1      42.729  28.032  32.331  1.00  0.00     0.074 A 
ATOM     61  C   UNL A   1      43.362  27.054  31.471  1.00  0.00     0.031 C 
ATOM     62  C   UNL A   1      43.086  28.258  33.619  1.00  0.00     0.037 A 
BRANCH  49  63
ATOM     63  C   UNL A   1      39.776  32.679  36.400  1.00  0.00     0.057 A 
ATOM     64  C   UNL A   1      40.519  33.839  36.666  1.00  0.00     0.134 A 
ATOM     65  C   UNL A   1      38.781  32.328  37.321  1.00  0.00     0.134 A 
ATOM     66  F   UNL A   1      41.497  34.225  35.832  1.00  0.00    -0.206 F 
ATOM     67  C   UNL A   1      40.303  34.599  37.817  1.00  0.00     0.040 A 
ATOM     68  C   UNL A   1      38.535  33.098  38.460  1.00  0.00     0.040 A 
ATOM     69  F   UNL A   1      38.029  31.235  37.128  1.00  0.00    -0.206 F 
ATOM     70  C   UNL A   1      39.303  34.232  38.715  1.00  0.00     0.006 A 
ENDBRANCH  49  63
BRANCH  50  71
ATOM     71  C   UNL A   1      41.149  27.572  27.927  1.00  0.00     0.057 A 
ATOM     72  C   UNL A   1      40.580  26.309  27.727  1.00  0.00     0.134 A 
ATOM     73  C   UNL A   1      41.956  28.084  26.904  1.00  0.00     0.134 A 
ATOM     74  F   UNL A   1      39.810  25.757  28.678  1.00  0.00    -0.206 F 
ATOM     75  C   UNL A   1      40.825  25.569  26.569  1.00  0.00     0.040 A 
ATOM     76  C   UNL A   1      42.189  27.367  25.729  1.00  0.00     0.040 A 
ATOM     77  F   UNL A   1      42.524  29.291  27.029  1.00  0.00    -0.206 F 
ATOM     78  C   UNL A   1      41.630  26.101  25.564  1.00  0.00     0.006 A 
ENDBRANCH  50  71
BRANCH  62  79
ATOM     79  C   UNL A   1      44.172  27.393  34.193  1.00  0.00     0.057 A 
ATOM     80  C   UNL A   1      43.906  26.143  34.766  1.00  0.00     0.134 A 
ATOM     81  C   UNL A   1      45.507  27.816  34.154  1.00  0.00     0.134 A 
ATOM     82  F   UNL A   1      42.648  25.684  34.845  1.00  0.00    -0.206 F 
ATOM     83  C   UNL A   1      44.925  25.359  35.309  1.00  0.00     0.040 A 
ATOM     84  C   UNL A   1      46.538  27.026  34.665  1.00  0.00     0.040 A 
ATOM     85  F   UNL A   1      45.834  28.997  33.609  1.00  0.00    -0.206 F 
ATOM     86  C   UNL A   1      46.247  25.799  35.255  1.00  0.00     0.006 A 
ENDBRANCH  62  79
ENDBRANCH  36  37
ENDBRANCH  28  31
ENDBRANCH  26  27
ENDBRANCH  25  26
ENDBRANCH  24  25
ENDBRANCH   1  24
TORSDOF 16
ENDMDL
MODEL 2
REMARK VINA RESULT:     -10.7      3.572      5.262
REMARK SMILES CC[C@H](C)CN(CC)c1nc(C(=O)NCCCCNC(=O)c2ccc(-c3c4nc(c(-c5c(F)cccc5F)c5ccc([nH]5)c(-c5c(F)cccc5F)c5nc(c(-c6c(F)cccc6F)c6ccc3[nH]6)C=C5)C=C4)cc2)cc2ccccc12
REMARK SMILES IDX 15 1 14 2 12 3 13 4 11 6 9 7 10 8 82 9 77 10 81 11 76 12
REMARK SMILES IDX 78 13 80 14 79 15 6 16 5 17 3 18 4 19 2 20 1 21 7 22 8 23
REMARK SMILES IDX 16 24 17 25 18 26 19 27 20 28 21 30 22 31 23 32 75 33 24 34
REMARK SMILES IDX 74 35 25 36 26 37 27 38 68 39 28 40 73 41 67 42 69 43 29 44
REMARK SMILES IDX 72 45 66 46 65 47 30 49 56 50 39 51 55 52 40 53 43 54 54 55
REMARK SMILES IDX 70 56 41 57 42 58 53 60 71 61 44 62 31 63 32 64 37 65 33 66
REMARK SMILES IDX 34 67 36 68 38 69 35 70 57 71 58 72 63 73 59 74 60 75 62 76
REMARK SMILES IDX 64 77 61 78 45 79 46 80 51 81 47 82 48 83 50 84 52 85 49 86
REMARK H PARENT 14 5 19 29 69 48 43 59
REMARK Flexibility Score: inf
ROOT
ATOM      1  C   UNL A   1      31.967  26.656  24.683  1.00  0.00     0.116 C 
ENDROOT
BRANCH   1   2
ATOM      2  N   UNL A   1      31.363  25.930  25.778  1.00  0.00    -0.351 N 
ATOM      3  C   UNL A   1      31.697  24.708  26.319  1.00  0.00     0.269 C 
ATOM      4  O   UNL A   1      31.005  24.311  27.261  1.00  0.00    -0.268 OA
ATOM      5  H   UNL A   1      30.597  26.379  26.202  1.00  0.00     0.163 HD
BRANCH   3   6
ATOM      6  C   UNL A   1      32.838  23.855  25.830  1.00  0.00     0.131 A 
ATOM      7  C   UNL A   1      33.627  22.007  24.650  1.00  0.00     0.137 A 
ATOM      8  N   UNL A   1      32.584  22.744  25.095  1.00  0.00    -0.225 NA
ATOM      9  C   UNL A   1      34.968  22.431  24.830  1.00  0.00     0.024 A 
ATOM     10  C   UNL A   1      35.206  23.521  25.688  1.00  0.00    -0.012 A 
ATOM     11  C   UNL A   1      36.084  21.779  24.259  1.00  0.00     0.012 A 
ATOM     12  C   UNL A   1      34.122  24.247  26.180  1.00  0.00     0.043 A 
ATOM     13  C   UNL A   1      36.521  23.831  26.075  1.00  0.00     0.009 A 
ATOM     14  C   UNL A   1      37.386  22.096  24.644  1.00  0.00     0.001 A 
ATOM     15  C   UNL A   1      37.601  23.101  25.579  1.00  0.00     0.001 A 
BRANCH   7  16
ATOM     16  N   UNL A   1      33.372  20.708  24.180  1.00  0.00    -0.356 N 
BRANCH  16  17
ATOM     17  C   UNL A   1      33.686  19.595  25.113  1.00  0.00     0.121 C 
BRANCH  17  18
ATOM     18  C   UNL A   1      33.314  18.178  24.595  1.00  0.00     0.005 C 
ATOM     19  C   UNL A   1      34.523  17.463  23.976  1.00  0.00     0.009 C 
BRANCH  18  20
ATOM     20  C   UNL A   1      32.673  17.314  25.708  1.00  0.00     0.002 C 
ATOM     21  C   UNL A   1      32.972  15.821  25.589  1.00  0.00     0.004 C 
ENDBRANCH  18  20
ENDBRANCH  17  18
ENDBRANCH  16  17
BRANCH  16  22
ATOM     22  C   UNL A   1      32.209  20.535  23.301  1.00  0.00     0.114 C 
ATOM     23  C   UNL A   1      32.194  21.434  22.074  1.00  0.00     0.027 C 
ENDBRANCH  16  22
ENDBRANCH   7  16
ENDBRANCH   3   6
ENDBRANCH   1   2
BRANCH   1  24
ATOM     24  C   UNL A   1      32.383  28.072  25.056  1.00  0.00     0.023 C 
BRANCH  24  25
ATOM     25  C   UNL A   1      33.736  28.205  25.744  1.00  0.00     0.023 C 
BRANCH  25  26
ATOM     26  C   UNL A   1      33.683  28.403  27.251  1.00  0.00     0.116 C 
BRANCH  26  27
ATOM     27  N   UNL A   1      33.614  29.802  27.648  1.00  0.00    -0.352 N 
ATOM     28  C   UNL A   1      34.582  30.598  28.220  1.00  0.00     0.251 C 
ATOM     29  H   UNL A   1      32.751  30.244  27.483  1.00  0.00     0.163 HD
ATOM     30  O   UNL A   1      34.310  31.724  28.604  1.00  0.00    -0.269 OA
BRANCH  28  31
ATOM     31  C   UNL A   1      35.951  30.063  28.397  1.00  0.00     0.039 A 
ATOM     32  C   UNL A   1      36.850  30.136  27.331  1.00  0.00     0.014 A 
ATOM     33  C   UNL A   1      36.350  29.511  29.616  1.00  0.00     0.014 A 
ATOM     34  C   UNL A   1      38.168  29.712  27.510  1.00  0.00     0.010 A 
ATOM     35  C   UNL A   1      37.683  29.183  29.822  1.00  0.00     0.010 A 
ATOM     36  C   UNL A   1      38.605  29.263  28.767  1.00  0.00    -0.014 A 
BRANCH  36  37
ATOM     37  C   UNL A   1      40.008  28.829  28.990  1.00  0.00     0.031 A 
ATOM     38  C   UNL A   1      40.988  29.773  29.634  1.00  0.00     0.074 A 
ATOM     39  C   UNL A   1      40.416  27.616  28.566  1.00  0.00     0.049 A 
ATOM     40  N   UNL A   1      42.267  29.612  29.860  1.00  0.00    -0.248 NA
ATOM     41  C   UNL A   1      40.468  31.086  30.047  1.00  0.00     0.031 C 
ATOM     42  C   UNL A   1      39.578  26.629  27.882  1.00  0.00     0.029 A 
ATOM     43  N   UNL A   1      41.645  27.012  28.644  1.00  0.00    -0.354 N 
ATOM     44  C   UNL A   1      42.703  30.805  30.422  1.00  0.00     0.074 A 
ATOM     45  C   UNL A   1      41.571  31.705  30.440  1.00  0.00     0.031 C 
ATOM     46  C   UNL A   1      40.311  25.532  27.630  1.00  0.00     0.029 A 
ATOM     47  C   UNL A   1      41.675  25.750  28.100  1.00  0.00     0.049 A 
ATOM     48  H   UNL A   1      42.432  27.441  29.052  1.00  0.00     0.167 HD
ATOM     49  C   UNL A   1      43.927  31.117  30.910  1.00  0.00     0.037 A 
ATOM     50  C   UNL A   1      42.689  24.872  27.993  1.00  0.00     0.037 A 
ATOM     51  C   UNL A   1      45.046  30.212  30.917  1.00  0.00     0.049 A 
ATOM     52  C   UNL A   1      44.039  25.238  28.546  1.00  0.00     0.074 A 
ATOM     53  C   UNL A   1      46.314  30.412  31.433  1.00  0.00     0.029 A 
ATOM     54  N   UNL A   1      45.028  28.933  30.381  1.00  0.00    -0.354 N 
ATOM     55  N   UNL A   1      44.421  26.347  29.136  1.00  0.00    -0.248 NA
ATOM     56  C   UNL A   1      45.097  24.225  28.433  1.00  0.00     0.031 C 
ATOM     57  C   UNL A   1      47.077  29.269  31.170  1.00  0.00     0.029 A 
ATOM     58  C   UNL A   1      46.267  28.336  30.543  1.00  0.00     0.049 A 
ATOM     59  H   UNL A   1      44.249  28.511  29.951  1.00  0.00     0.167 HD
ATOM     60  C   UNL A   1      45.747  26.149  29.496  1.00  0.00     0.074 A 
ATOM     61  C   UNL A   1      46.100  24.809  29.071  1.00  0.00     0.031 C 
ATOM     62  C   UNL A   1      46.598  26.997  30.125  1.00  0.00     0.037 A 
BRANCH  49  63
ATOM     63  C   UNL A   1      44.113  32.494  31.479  1.00  0.00     0.057 A 
ATOM     64  C   UNL A   1      43.884  32.772  32.835  1.00  0.00     0.134 A 
ATOM     65  C   UNL A   1      44.543  33.553  30.670  1.00  0.00     0.134 A 
ATOM     66  F   UNL A   1      43.456  31.807  33.664  1.00  0.00    -0.206 F 
ATOM     67  C   UNL A   1      44.043  34.058  33.356  1.00  0.00     0.040 A 
ATOM     68  C   UNL A   1      44.736  34.836  31.187  1.00  0.00     0.040 A 
ATOM     69  F   UNL A   1      44.786  33.358  29.366  1.00  0.00    -0.206 F 
ATOM     70  C   UNL A   1      44.477  35.093  32.531  1.00  0.00     0.006 A 
ENDBRANCH  49  63
BRANCH  50  71
ATOM     71  C   UNL A   1      42.465  23.544  27.366  1.00  0.00     0.057 A 
ATOM     72  C   UNL A   1      42.100  22.433  28.136  1.00  0.00     0.134 A 
ATOM     73  C   UNL A   1      42.631  23.346  25.989  1.00  0.00     0.134 A 
ATOM     74  F   UNL A   1      41.943  22.555  29.463  1.00  0.00    -0.206 F 
ATOM     75  C   UNL A   1      41.933  21.169  27.568  1.00  0.00     0.040 A 
ATOM     76  C   UNL A   1      42.440  22.093  25.403  1.00  0.00     0.040 A 
ATOM     77  F   UNL A   1      42.972  24.369  25.193  1.00  0.00    -0.206 F 
ATOM     78  C   UNL A   1      42.100  20.998  26.195  1.00  0.00     0.006 A 
ENDBRANCH  50  71
BRANCH  62  79
ATOM     79  C   UNL A   1      47.973  26.482  30.442  1.00  0.00     0.057 A 
ATOM     80  C   UNL A   1      48.278  25.870  31.664  1.00  0.00     0.134 A 
ATOM     81  C   UNL A   1      49.003  26.586  29.497  1.00  0.00     0.134 A 
ATOM     82  F   UNL A   1      47.340  25.747  32.616  1.00  0.00    -0.206 F 
ATOM     83  C   UNL A   1      49.565  25.411  31.949  1.00  0.00     0.040 A 
ATOM     84  C   UNL A   1      50.286  26.102  29.758  1.00  0.00     0.040 A 
ATOM     85  F   UNL A   1      48.778  27.150  28.301  1.00  0.00    -0.206 F 
ATOM     86  C   UNL A   1      50.572  25.522  30.992  1.00  0.00     0.006 A 
ENDBRANCH  62  79
ENDBRANCH  36  37
ENDBRANCH  28  31
ENDBRANCH  26  27
ENDBRANCH  25  26
ENDBRANCH  24  25
ENDBRANCH   1  24
TORSDOF 16
ENDMDL
MODEL 3
REMARK VINA RESULT:     -10.7      1.226      6.341
REMARK SMILES CC[C@H](C)CN(CC)c1nc(C(=O)NCCCCNC(=O)c2ccc(-c3c4nc(c(-c5c(F)cccc5F)c5ccc([nH]5)c(-c5c(F)cccc5F)c5nc(c(-c6c(F)cccc6F)c6ccc3[nH]6)C=C5)C=C4)cc2)cc2ccccc12
REMARK SMILES IDX 15 1 14 2 12 3 13 4 11 6 9 7 10 8 82 9 77 10 81 11 76 12
REMARK SMILES IDX 78 13 80 14 79 15 6 16 5 17 3 18 4 19 2 20 1 21 7 22 8 23
REMARK SMILES IDX 16 24 17 25 18 26 19 27 20 28 21 30 22 31 23 32 75 33 24 34
REMARK SMILES IDX 74 35 25 36 26 37 27 38 68 39 28 40 73 41 67 42 69 43 29 44
REMARK SMILES IDX 72 45 66 46 65 47 30 49 56 50 39 51 55 52 40 53 43 54 54 55
REMARK SMILES IDX 70 56 41 57 42 58 53 60 71 61 44 62 31 63 32 64 37 65 33 66
REMARK SMILES IDX 34 67 36 68 38 69 35 70 57 71 58 72 63 73 59 74 60 75 62 76
REMARK SMILES IDX 64 77 61 78 45 79 46 80 51 81 47 82 48 83 50 84 52 85 49 86
REMARK H PARENT 14 5 19 29 69 48 43 59
REMARK Flexibility Score: inf
ROOT
ATOM      1  C   UNL A   1      31.970  29.790  27.224  1.00  0.00     0.116 C 
ENDROOT
BRANCH   1   2
ATOM      2  N   UNL A   1      33.397  29.699  27.437  1.00  0.00    -0.351 N 
ATOM      3  C   UNL A   1      34.316  28.819  26.910  1.00  0.00     0.269 C 
ATOM      4  O   UNL A   1      35.489  28.962  27.266  1.00  0.00    -0.268 OA
ATOM      5  H   UNL A   1      33.768  30.371  28.054  1.00  0.00     0.163 HD
BRANCH   3   6
ATOM      6  C   UNL A   1      33.967  27.720  25.941  1.00  0.00     0.131 A 
ATOM      7  C   UNL A   1      33.427  25.495  25.508  1.00  0.00     0.137 A 
ATOM      8  N   UNL A   1      33.760  26.460  26.396  1.00  0.00    -0.225 NA
ATOM      9  C   UNL A   1      33.174  25.793  24.145  1.00  0.00     0.024 A 
ATOM     10  C   UNL A   1      33.504  27.080  23.679  1.00  0.00    -0.012 A 
ATOM     11  C   UNL A   1      32.681  24.854  23.212  1.00  0.00     0.012 A 
ATOM     12  C   UNL A   1      33.891  28.055  24.596  1.00  0.00     0.043 A 
ATOM     13  C   UNL A   1      33.486  27.348  22.300  1.00  0.00     0.009 A 
ATOM     14  C   UNL A   1      32.661  25.130  21.845  1.00  0.00     0.001 A 
ATOM     15  C   UNL A   1      33.097  26.367  21.388  1.00  0.00     0.001 A 
BRANCH   7  16
ATOM     16  N   UNL A   1      33.530  24.153  25.913  1.00  0.00    -0.356 N 
BRANCH  16  17
ATOM     17  C   UNL A   1      34.895  23.668  26.245  1.00  0.00     0.121 C 
BRANCH  17  18
ATOM     18  C   UNL A   1      35.812  23.397  25.020  1.00  0.00     0.005 C 
ATOM     19  C   UNL A   1      37.292  23.619  25.358  1.00  0.00     0.009 C 
BRANCH  18  20
ATOM     20  C   UNL A   1      35.585  21.981  24.439  1.00  0.00     0.002 C 
ATOM     21  C   UNL A   1      36.576  20.933  24.944  1.00  0.00     0.004 C 
ENDBRANCH  18  20
ENDBRANCH  17  18
ENDBRANCH  16  17
BRANCH  16  22
ATOM     22  C   UNL A   1      32.417  23.608  26.699  1.00  0.00     0.114 C 
ATOM     23  C   UNL A   1      32.791  22.474  27.641  1.00  0.00     0.027 C 
ENDBRANCH  16  22
ENDBRANCH   7  16
ENDBRANCH   3   6
ENDBRANCH   1   2
BRANCH   1  24
ATOM     24  C   UNL A   1      31.586  30.769  26.124  1.00  0.00     0.023 C 
BRANCH  24  25
ATOM     25  C   UNL A   1      31.346  32.206  26.572  1.00  0.00     0.023 C 
BRANCH  25  26
ATOM     26  C   UNL A   1      32.515  32.867  27.288  1.00  0.00     0.116 C 
BRANCH  26  27
ATOM     27  N   UNL A   1      32.276  34.267  27.612  1.00  0.00    -0.352 N 
ATOM     28  C   UNL A   1      32.910  35.073  28.532  1.00  0.00     0.251 C 
ATOM     29  H   UNL A   1      31.556  34.700  27.100  1.00  0.00     0.163 HD
ATOM     30  O   UNL A   1      32.494  36.197  28.761  1.00  0.00    -0.269 OA
BRANCH  28  31
ATOM     31  C   UNL A   1      34.085  34.552  29.266  1.00  0.00     0.039 A 
ATOM     32  C   UNL A   1      33.892  33.925  30.499  1.00  0.00     0.014 A 
ATOM     33  C   UNL A   1      35.369  34.666  28.729  1.00  0.00     0.014 A 
ATOM     34  C   UNL A   1      34.980  33.357  31.162  1.00  0.00     0.010 A 
ATOM     35  C   UNL A   1      36.433  34.015  29.340  1.00  0.00     0.010 A 
ATOM     36  C   UNL A   1      36.256  33.369  30.572  1.00  0.00    -0.014 A 
BRANCH  36  37
ATOM     37  C   UNL A   1      37.426  32.750  31.246  1.00  0.00     0.031 A 
ATOM     38  C   UNL A   1      38.102  31.557  30.624  1.00  0.00     0.074 A 
ATOM     39  C   UNL A   1      37.845  33.218  32.439  1.00  0.00     0.049 A 
ATOM     40  N   UNL A   1      39.094  30.836  31.080  1.00  0.00    -0.248 NA
ATOM     41  C   UNL A   1      37.568  31.093  29.333  1.00  0.00     0.031 C 
ATOM     42  C   UNL A   1      37.243  34.333  33.172  1.00  0.00     0.029 A 
ATOM     43  N   UNL A   1      38.875  32.806  33.246  1.00  0.00    -0.354 N 
ATOM     44  C   UNL A   1      39.288  29.828  30.143  1.00  0.00     0.074 A 
ATOM     45  C   UNL A   1      38.269  29.988  29.130  1.00  0.00     0.031 C 
ATOM     46  C   UNL A   1      37.934  34.535  34.307  1.00  0.00     0.029 A 
ATOM     47  C   UNL A   1      39.001  33.544  34.399  1.00  0.00     0.049 A 
ATOM     48  H   UNL A   1      39.469  32.054  33.021  1.00  0.00     0.167 HD
ATOM     49  C   UNL A   1      40.246  28.872  30.110  1.00  0.00     0.037 A 
ATOM     50  C   UNL A   1      39.878  33.430  35.414  1.00  0.00     0.037 A 
ATOM     51  C   UNL A   1      41.277  28.729  31.105  1.00  0.00     0.049 A 
ATOM     52  C   UNL A   1      40.937  32.364  35.353  1.00  0.00     0.074 A 
ATOM     53  C   UNL A   1      42.325  27.827  31.139  1.00  0.00     0.029 A 
ATOM     54  N   UNL A   1      41.386  29.514  32.243  1.00  0.00    -0.354 N 
ATOM     55  N   UNL A   1      41.151  31.459  34.427  1.00  0.00    -0.248 NA
ATOM     56  C   UNL A   1      41.889  32.313  36.472  1.00  0.00     0.031 C 
ATOM     57  C   UNL A   1      43.044  28.037  32.320  1.00  0.00     0.029 A 
ATOM     58  C   UNL A   1      42.478  29.108  32.993  1.00  0.00     0.049 A 
ATOM     59  H   UNL A   1      40.779  30.251  32.482  1.00  0.00     0.167 HD
ATOM     60  C   UNL A   1      42.279  30.758  34.833  1.00  0.00     0.074 A 
ATOM     61  C   UNL A   1      42.713  31.353  36.081  1.00  0.00     0.031 C 
ATOM     62  C   UNL A   1      42.904  29.718  34.227  1.00  0.00     0.037 A 
BRANCH  49  63
ATOM     63  C   UNL A   1      40.224  27.911  28.956  1.00  0.00     0.057 A 
ATOM     64  C   UNL A   1      39.516  26.701  29.013  1.00  0.00     0.134 A 
ATOM     65  C   UNL A   1      40.902  28.203  27.766  1.00  0.00     0.134 A 
ATOM     66  F   UNL A   1      38.857  26.352  30.129  1.00  0.00    -0.206 F 
ATOM     67  C   UNL A   1      39.512  25.804  27.943  1.00  0.00     0.040 A 
ATOM     68  C   UNL A   1      40.879  27.328  26.678  1.00  0.00     0.040 A 
ATOM     69  F   UNL A   1      41.595  29.345  27.640  1.00  0.00    -0.206 F 
ATOM     70  C   UNL A   1      40.190  26.121  26.768  1.00  0.00     0.006 A 
ENDBRANCH  49  63
BRANCH  50  71
ATOM     71  C   UNL A   1      39.818  34.371  36.562  1.00  0.00     0.057 A 
ATOM     72  C   UNL A   1      40.497  35.595  36.530  1.00  0.00     0.134 A 
ATOM     73  C   UNL A   1      39.102  34.064  37.726  1.00  0.00     0.134 A 
ATOM     74  F   UNL A   1      41.215  35.939  35.450  1.00  0.00    -0.206 F 
ATOM     75  C   UNL A   1      40.490  36.468  37.619  1.00  0.00     0.040 A 
ATOM     76  C   UNL A   1      39.063  34.939  38.813  1.00  0.00     0.040 A 
ATOM     77  F   UNL A   1      38.423  32.912  37.819  1.00  0.00    -0.206 F 
ATOM     78  C   UNL A   1      39.767  36.140  38.765  1.00  0.00     0.006 A 
ENDBRANCH  50  71
BRANCH  62  79
ATOM     79  C   UNL A   1      44.154  29.195  34.875  1.00  0.00     0.057 A 
ATOM     80  C   UNL A   1      44.130  28.154  35.811  1.00  0.00     0.134 A 
ATOM     81  C   UNL A   1      45.403  29.735  34.541  1.00  0.00     0.134 A 
ATOM     82  F   UNL A   1      42.966  27.600  36.184  1.00  0.00    -0.206 F 
ATOM     83  C   UNL A   1      45.299  27.691  36.416  1.00  0.00     0.040 A 
ATOM     84  C   UNL A   1      46.582  29.258  35.115  1.00  0.00     0.040 A 
ATOM     85  F   UNL A   1      45.500  30.727  33.643  1.00  0.00    -0.206 F 
ATOM     86  C   UNL A   1      46.531  28.240  36.065  1.00  0.00     0.006 A 
ENDBRANCH  62  79
ENDBRANCH  36  37
ENDBRANCH  28  31
ENDBRANCH  26  27
ENDBRANCH  25  26
ENDBRANCH  24  25
ENDBRANCH   1  24
TORSDOF 16
ENDMDL
