MODEL 1
REMARK VINA RESULT:     -12.1      0.000      0.000
REMARK SMILES CC1(C)CCN(C(=O)N[C@](C)(C(=O)NCCCCNC(=O)c2ccc(-c3c4nc(c(-c5c(F)cccc5F)c5ccc([nH]5)c(-c5c(F)cccc5F)c5nc(c(-c6c(F)cccc6F)c6ccc3[nH]6)C=C5)C=C4)cc2)c2ccccc2)C1
REMARK SMILES IDX 16 1 15 2 14 3 12 4 13 5 10 7 11 8 9 9 7 10 8 11 6 13 1 14
REMARK SMILES IDX 2 15 3 16 4 17 82 18 5 19 76 20 77 21 81 22 78 23 80 24
REMARK SMILES IDX 79 25 17 26 18 27 19 28 20 29 21 31 22 32 23 33 75 34 24 35
REMARK SMILES IDX 74 36 25 37 26 38 27 39 68 40 28 41 73 42 67 43 69 44 29 45
REMARK SMILES IDX 72 46 66 47 65 48 30 50 56 51 39 52 55 53 40 54 43 55 54 56
REMARK SMILES IDX 70 57 41 58 42 59 53 61 71 62 44 63 31 64 32 65 37 66 33 67
REMARK SMILES IDX 34 68 36 69 38 70 35 71 57 72 58 73 63 74 59 75 60 76 62 77
REMARK SMILES IDX 64 78 61 79 45 80 46 81 51 82 47 83 48 84 50 85 52 86 49 87
REMARK H PARENT 14 6 9 12 19 30 69 49 43 60
REMARK Flexibility Score: inf
ROOT
ATOM      1  C   UNL A   1      36.026  21.188  25.192  1.00  0.00     0.023 C 
ENDROOT
BRANCH   1   2
ATOM      2  C   UNL A   1      35.787  22.446  26.035  1.00  0.00     0.116 C 
BRANCH   2   3
ATOM      3  N   UNL A   1      34.737  22.234  27.007  1.00  0.00    -0.354 N 
ATOM      4  C   UNL A   1      33.380  22.337  26.970  1.00  0.00     0.250 C 
ATOM      5  O   UNL A   1      32.892  22.513  28.096  1.00  0.00    -0.272 OA
ATOM      6  H   UNL A   1      35.078  21.955  27.887  1.00  0.00     0.163 HD
BRANCH   4   7
ATOM      7  C   UNL A   1      32.489  22.284  25.640  1.00  0.00     0.143 C 
ATOM      8  C   UNL A   1      31.026  22.648  26.001  1.00  0.00     0.051 C 
BRANCH   7   9
ATOM      9  N   UNL A   1      32.916  23.361  24.699  1.00  0.00    -0.320 N 
ATOM     10  C   UNL A   1      32.265  24.490  24.338  1.00  0.00     0.318 C 
ATOM     11  O   UNL A   1      31.765  24.506  23.211  1.00  0.00    -0.249 OA
ATOM     12  H   UNL A   1      33.798  23.231  24.281  1.00  0.00     0.166 HD
BRANCH  10  13
ATOM     13  N   UNL A   1      32.384  25.616  25.099  1.00  0.00    -0.324 N 
ATOM     14  C   UNL A   1      31.559  28.002  27.673  1.00  0.00     0.013 C 
ATOM     15  C   UNL A   1      32.046  27.679  26.258  1.00  0.00    -0.016 C 
ATOM     16  C   UNL A   1      31.782  28.899  25.362  1.00  0.00     0.013 C 
ATOM     17  C   UNL A   1      33.554  27.346  26.224  1.00  0.00     0.030 C 
ATOM     18  C   UNL A   1      31.347  26.409  25.728  1.00  0.00     0.127 C 
ATOM     19  C   UNL A   1      33.657  25.916  25.720  1.00  0.00     0.122 C 
ENDBRANCH  10  13
ENDBRANCH   7   9
BRANCH   7  20
ATOM     20  C   UNL A   1      32.526  20.859  25.028  1.00  0.00    -0.013 A 
ATOM     21  C   UNL A   1      32.745  19.734  25.849  1.00  0.00     0.007 A 
ATOM     22  C   UNL A   1      32.350  20.610  23.648  1.00  0.00     0.007 A 
ATOM     23  C   UNL A   1      32.749  18.437  25.329  1.00  0.00     0.000 A 
ATOM     24  C   UNL A   1      32.389  19.315  23.123  1.00  0.00     0.000 A 
ATOM     25  C   UNL A   1      32.581  18.228  23.965  1.00  0.00     0.000 A 
ENDBRANCH   7  20
ENDBRANCH   4   7
ENDBRANCH   2   3
ENDBRANCH   1   2
BRANCH   1  26
ATOM     26  C   UNL A   1      37.454  21.014  24.661  1.00  0.00     0.023 C 
BRANCH  26  27
ATOM     27  C   UNL A   1      38.556  21.072  25.711  1.00  0.00     0.116 C 
BRANCH  27  28
ATOM     28  N   UNL A   1      39.467  19.940  25.643  1.00  0.00    -0.352 N 
ATOM     29  C   UNL A   1      40.796  19.878  25.993  1.00  0.00     0.251 C 
ATOM     30  H   UNL A   1      39.078  19.104  25.299  1.00  0.00     0.163 HD
ATOM     31  O   UNL A   1      41.450  18.870  25.778  1.00  0.00    -0.269 OA
BRANCH  29  32
ATOM     32  C   UNL A   1      41.434  21.067  26.593  1.00  0.00     0.039 A 
ATOM     33  C   UNL A   1      42.006  22.020  25.748  1.00  0.00     0.014 A 
ATOM     34  C   UNL A   1      41.416  21.261  27.977  1.00  0.00     0.014 A 
ATOM     35  C   UNL A   1      42.484  23.216  26.286  1.00  0.00     0.010 A 
ATOM     36  C   UNL A   1      41.836  22.477  28.504  1.00  0.00     0.010 A 
ATOM     37  C   UNL A   1      42.358  23.471  27.660  1.00  0.00    -0.014 A 
BRANCH  37  38
ATOM     38  C   UNL A   1      42.729  24.784  28.239  1.00  0.00     0.031 A 
ATOM     39  C   UNL A   1      41.684  25.841  28.443  1.00  0.00     0.074 A 
ATOM     40  C   UNL A   1      44.024  25.052  28.493  1.00  0.00     0.049 A 
ATOM     41  N   UNL A   1      41.828  27.080  28.839  1.00  0.00    -0.248 NA
ATOM     42  C   UNL A   1      40.297  25.461  28.136  1.00  0.00     0.031 C 
ATOM     43  C   UNL A   1      45.136  24.119  28.301  1.00  0.00     0.029 A 
ATOM     44  N   UNL A   1      44.626  26.196  28.953  1.00  0.00    -0.354 N 
ATOM     45  C   UNL A   1      40.555  27.632  28.812  1.00  0.00     0.074 A 
ATOM     46  C   UNL A   1      39.659  26.608  28.318  1.00  0.00     0.031 C 
ATOM     47  C   UNL A   1      46.281  24.719  28.664  1.00  0.00     0.029 A 
ATOM     48  C   UNL A   1      45.990  26.089  29.072  1.00  0.00     0.049 A 
ATOM     49  H   UNL A   1      44.128  27.014  29.178  1.00  0.00     0.167 HD
ATOM     50  C   UNL A   1      40.166  28.876  29.182  1.00  0.00     0.037 A 
ATOM     51  C   UNL A   1      46.904  26.999  29.457  1.00  0.00     0.037 A 
ATOM     52  C   UNL A   1      41.058  29.884  29.690  1.00  0.00     0.049 A 
ATOM     53  C   UNL A   1      46.454  28.384  29.822  1.00  0.00     0.074 A 
ATOM     54  C   UNL A   1      40.753  31.146  30.167  1.00  0.00     0.029 A 
ATOM     55  N   UNL A   1      42.436  29.745  29.778  1.00  0.00    -0.354 N 
ATOM     56  N   UNL A   1      45.238  28.874  29.860  1.00  0.00    -0.248 NA
ATOM     57  C   UNL A   1      47.503  29.345  30.189  1.00  0.00     0.031 C 
ATOM     58  C   UNL A   1      41.950  31.788  30.502  1.00  0.00     0.029 A 
ATOM     59  C   UNL A   1      42.999  30.912  30.270  1.00  0.00     0.049 A 
ATOM     60  H   UNL A   1      42.939  28.937  29.528  1.00  0.00     0.167 HD
ATOM     61  C   UNL A   1      45.373  30.191  30.278  1.00  0.00     0.074 A 
ATOM     62  C   UNL A   1      46.788  30.422  30.488  1.00  0.00     0.031 C 
ATOM     63  C   UNL A   1      44.409  31.125  30.471  1.00  0.00     0.037 A 
BRANCH  50  64
ATOM     64  C   UNL A   1      38.711  29.210  29.038  1.00  0.00     0.057 A 
ATOM     65  C   UNL A   1      37.829  29.153  30.126  1.00  0.00     0.134 A 
ATOM     66  C   UNL A   1      38.185  29.596  27.800  1.00  0.00     0.134 A 
ATOM     67  F   UNL A   1      38.267  28.777  31.337  1.00  0.00    -0.206 F 
ATOM     68  C   UNL A   1      36.470  29.436  29.979  1.00  0.00     0.040 A 
ATOM     69  C   UNL A   1      36.833  29.907  27.646  1.00  0.00     0.040 A 
ATOM     70  F   UNL A   1      38.975  29.677  26.719  1.00  0.00    -0.206 F 
ATOM     71  C   UNL A   1      35.970  29.819  28.736  1.00  0.00     0.006 A 
ENDBRANCH  50  64
BRANCH  51  72
ATOM     72  C   UNL A   1      48.336  26.620  29.540  1.00  0.00     0.057 A 
ATOM     73  C   UNL A   1      48.847  26.013  30.693  1.00  0.00     0.134 A 
ATOM     74  C   UNL A   1      49.222  26.842  28.479  1.00  0.00     0.134 A 
ATOM     75  F   UNL A   1      48.050  25.793  31.747  1.00  0.00    -0.206 F 
ATOM     76  C   UNL A   1      50.190  25.645  30.791  1.00  0.00     0.040 A 
ATOM     77  C   UNL A   1      50.562  26.462  28.556  1.00  0.00     0.040 A 
ATOM     78  F   UNL A   1      48.791  27.416  27.346  1.00  0.00    -0.206 F 
ATOM     79  C   UNL A   1      51.050  25.865  29.718  1.00  0.00     0.006 A 
ENDBRANCH  51  72
BRANCH  63  80
ATOM     80  C   UNL A   1      44.851  32.474  30.953  1.00  0.00     0.057 A 
ATOM     81  C   UNL A   1      45.132  33.517  30.063  1.00  0.00     0.134 A 
ATOM     82  C   UNL A   1      44.953  32.744  32.324  1.00  0.00     0.134 A 
ATOM     83  F   UNL A   1      45.067  33.317  28.739  1.00  0.00    -0.206 F 
ATOM     84  C   UNL A   1      45.512  34.780  30.520  1.00  0.00     0.040 A 
ATOM     85  C   UNL A   1      45.311  34.008  32.792  1.00  0.00     0.040 A 
ATOM     86  F   UNL A   1      44.693  31.787  33.228  1.00  0.00    -0.206 F 
ATOM     87  C   UNL A   1      45.594  35.030  31.888  1.00  0.00     0.006 A 
ENDBRANCH  63  80
ENDBRANCH  37  38
ENDBRANCH  29  32
ENDBRANCH  27  28
ENDBRANCH  26  27
ENDBRANCH   1  26
TORSDOF 14
ENDMDL
MODEL 2
REMARK VINA RESULT:     -12.1      1.572      2.042
REMARK SMILES CC1(C)CCN(C(=O)N[C@](C)(C(=O)NCCCCNC(=O)c2ccc(-c3c4nc(c(-c5c(F)cccc5F)c5ccc([nH]5)c(-c5c(F)cccc5F)c5nc(c(-c6c(F)cccc6F)c6ccc3[nH]6)C=C5)C=C4)cc2)c2ccccc2)C1
REMARK SMILES IDX 16 1 15 2 14 3 12 4 13 5 10 7 11 8 9 9 7 10 8 11 6 13 1 14
REMARK SMILES IDX 2 15 3 16 4 17 82 18 5 19 76 20 77 21 81 22 78 23 80 24
REMARK SMILES IDX 79 25 17 26 18 27 19 28 20 29 21 31 22 32 23 33 75 34 24 35
REMARK SMILES IDX 74 36 25 37 26 38 27 39 68 40 28 41 73 42 67 43 69 44 29 45
REMARK SMILES IDX 72 46 66 47 65 48 30 50 56 51 39 52 55 53 40 54 43 55 54 56
REMARK SMILES IDX 70 57 41 58 42 59 53 61 71 62 44 63 31 64 32 65 37 66 33 67
REMARK SMILES IDX 34 68 36 69 38 70 35 71 57 72 58 73 63 74 59 75 60 76 62 77
REMARK SMILES IDX 64 78 61 79 45 80 46 81 51 82 47 83 48 84 50 85 52 86 49 87
REMARK H PARENT 14 6 9 12 19 30 69 49 43 60
REMARK Flexibility Score: inf
ROOT
ATOM      1  C   UNL A   1      37.171  21.489  24.420  1.00  0.00     0.023 C 
ENDROOT
BRANCH   1   2
ATOM      2  C   UNL A   1      36.492  22.434  25.420  1.00  0.00     0.116 C 
BRANCH   2   3
ATOM      3  N   UNL A   1      35.625  21.708  26.321  1.00  0.00    -0.354 N 
ATOM      4  C   UNL A   1      34.294  21.418  26.325  1.00  0.00     0.250 C 
ATOM      5  O   UNL A   1      33.869  21.181  27.464  1.00  0.00    -0.272 OA
ATOM      6  H   UNL A   1      36.100  21.346  27.103  1.00  0.00     0.163 HD
BRANCH   4   7
ATOM      7  C   UNL A   1      33.351  21.415  25.030  1.00  0.00     0.143 C 
ATOM      8  C   UNL A   1      31.908  21.784  25.461  1.00  0.00     0.051 C 
BRANCH   7   9
ATOM      9  N   UNL A   1      33.753  22.515  24.105  1.00  0.00    -0.320 N 
ATOM     10  C   UNL A   1      33.027  23.563  23.655  1.00  0.00     0.318 C 
ATOM     11  O   UNL A   1      32.638  23.508  22.486  1.00  0.00    -0.249 OA
ATOM     12  H   UNL A   1      34.679  22.471  23.775  1.00  0.00     0.166 HD
BRANCH  10  13
ATOM     13  N   UNL A   1      32.957  24.708  24.395  1.00  0.00    -0.324 N 
ATOM     14  C   UNL A   1      31.559  27.115  26.686  1.00  0.00     0.013 C 
ATOM     15  C   UNL A   1      32.330  26.781  25.407  1.00  0.00    -0.016 C 
ATOM     16  C   UNL A   1      32.215  27.973  24.444  1.00  0.00     0.013 C 
ATOM     17  C   UNL A   1      33.824  26.500  25.684  1.00  0.00     0.030 C 
ATOM     18  C   UNL A   1      31.791  25.477  24.782  1.00  0.00     0.127 C 
ATOM     19  C   UNL A   1      34.069  25.064  25.250  1.00  0.00     0.122 C 
ENDBRANCH  10  13
ENDBRANCH   7   9
BRANCH   7  20
ATOM     20  C   UNL A   1      33.346  20.009  24.375  1.00  0.00    -0.013 A 
ATOM     21  C   UNL A   1      34.344  19.066  24.698  1.00  0.00     0.007 A 
ATOM     22  C   UNL A   1      32.369  19.600  23.440  1.00  0.00     0.007 A 
ATOM     23  C   UNL A   1      34.344  17.781  24.148  1.00  0.00     0.000 A 
ATOM     24  C   UNL A   1      32.389  18.326  22.864  1.00  0.00     0.000 A 
ATOM     25  C   UNL A   1      33.372  17.414  23.224  1.00  0.00     0.000 A 
ENDBRANCH   7  20
ENDBRANCH   4   7
ENDBRANCH   2   3
ENDBRANCH   1   2
BRANCH   1  26
ATOM     26  C   UNL A   1      37.849  20.259  25.034  1.00  0.00     0.023 C 
BRANCH  26  27
ATOM     27  C   UNL A   1      39.159  20.528  25.762  1.00  0.00     0.116 C 
BRANCH  27  28
ATOM     28  N   UNL A   1      40.025  19.361  25.825  1.00  0.00    -0.352 N 
ATOM     29  C   UNL A   1      41.370  19.296  26.110  1.00  0.00     0.251 C 
ATOM     30  H   UNL A   1      39.589  18.498  25.637  1.00  0.00     0.163 HD
ATOM     31  O   UNL A   1      41.975  18.240  26.022  1.00  0.00    -0.269 OA
BRANCH  29  32
ATOM     32  C   UNL A   1      42.082  20.535  26.484  1.00  0.00     0.039 A 
ATOM     33  C   UNL A   1      42.635  21.322  25.472  1.00  0.00     0.014 A 
ATOM     34  C   UNL A   1      42.153  20.939  27.820  1.00  0.00     0.014 A 
ATOM     35  C   UNL A   1      43.184  22.565  25.791  1.00  0.00     0.010 A 
ATOM     36  C   UNL A   1      42.645  22.202  28.128  1.00  0.00     0.010 A 
ATOM     37  C   UNL A   1      43.149  23.032  27.113  1.00  0.00    -0.014 A 
BRANCH  37  38
ATOM     38  C   UNL A   1      43.597  24.402  27.460  1.00  0.00     0.031 A 
ATOM     39  C   UNL A   1      42.599  25.438  27.884  1.00  0.00     0.074 A 
ATOM     40  C   UNL A   1      44.893  24.732  27.303  1.00  0.00     0.049 A 
ATOM     41  N   UNL A   1      42.781  26.711  28.128  1.00  0.00    -0.248 NA
ATOM     42  C   UNL A   1      41.205  24.989  28.025  1.00  0.00     0.031 C 
ATOM     43  C   UNL A   1      45.953  23.822  26.863  1.00  0.00     0.029 A 
ATOM     44  N   UNL A   1      45.538  25.929  27.482  1.00  0.00    -0.354 N 
ATOM     45  C   UNL A   1      41.526  27.217  28.436  1.00  0.00     0.074 A 
ATOM     46  C   UNL A   1      40.585  26.126  28.302  1.00  0.00     0.031 C 
ATOM     47  C   UNL A   1      47.118  24.487  26.830  1.00  0.00     0.029 A 
ATOM     48  C   UNL A   1      46.882  25.877  27.203  1.00  0.00     0.049 A 
ATOM     49  H   UNL A   1      45.081  26.748  27.782  1.00  0.00     0.167 HD
ATOM     50  C   UNL A   1      41.193  28.476  28.811  1.00  0.00     0.037 A 
ATOM     51  C   UNL A   1      47.816  26.846  27.235  1.00  0.00     0.037 A 
ATOM     52  C   UNL A   1      42.137  29.552  28.961  1.00  0.00     0.049 A 
ATOM     53  C   UNL A   1      47.414  28.242  27.615  1.00  0.00     0.074 A 
ATOM     54  C   UNL A   1      41.912  30.839  29.412  1.00  0.00     0.029 A 
ATOM     55  N   UNL A   1      43.486  29.465  28.650  1.00  0.00    -0.354 N 
ATOM     56  N   UNL A   1      46.236  28.694  27.971  1.00  0.00    -0.248 NA
ATOM     57  C   UNL A   1      48.469  29.265  27.587  1.00  0.00     0.031 C 
ATOM     58  C   UNL A   1      43.117  31.546  29.334  1.00  0.00     0.029 A 
ATOM     59  C   UNL A   1      44.101  30.687  28.870  1.00  0.00     0.049 A 
ATOM     60  H   UNL A   1      43.939  28.655  28.323  1.00  0.00     0.167 HD
ATOM     61  C   UNL A   1      46.412  30.046  28.234  1.00  0.00     0.074 A 
ATOM     62  C   UNL A   1      47.812  30.340  28.002  1.00  0.00     0.031 C 
ATOM     63  C   UNL A   1      45.495  30.962  28.632  1.00  0.00     0.037 A 
BRANCH  50  64
ATOM     64  C   UNL A   1      39.743  28.749  29.076  1.00  0.00     0.057 A 
ATOM     65  C   UNL A   1      38.877  29.189  28.065  1.00  0.00     0.134 A 
ATOM     66  C   UNL A   1      39.203  28.568  30.354  1.00  0.00     0.134 A 
ATOM     67  F   UNL A   1      39.334  29.396  26.821  1.00  0.00    -0.206 F 
ATOM     68  C   UNL A   1      37.535  29.470  28.325  1.00  0.00     0.040 A 
ATOM     69  C   UNL A   1      37.856  28.820  30.621  1.00  0.00     0.040 A 
ATOM     70  F   UNL A   1      39.974  28.144  31.366  1.00  0.00    -0.206 F 
ATOM     71  C   UNL A   1      37.020  29.282  29.606  1.00  0.00     0.006 A 
ENDBRANCH  50  64
BRANCH  51  72
ATOM     72  C   UNL A   1      49.229  26.521  26.923  1.00  0.00     0.057 A 
ATOM     73  C   UNL A   1      50.077  26.007  27.910  1.00  0.00     0.134 A 
ATOM     74  C   UNL A   1      49.763  26.704  25.642  1.00  0.00     0.134 A 
ATOM     75  F   UNL A   1      49.627  25.828  29.159  1.00  0.00    -0.206 F 
ATOM     76  C   UNL A   1      51.409  25.692  27.637  1.00  0.00     0.040 A 
ATOM     77  C   UNL A   1      51.087  26.375  25.350  1.00  0.00     0.040 A 
ATOM     78  F   UNL A   1      48.999  27.190  24.653  1.00  0.00    -0.206 F 
ATOM     79  C   UNL A   1      51.916  25.871  26.352  1.00  0.00     0.006 A 
ENDBRANCH  51  72
BRANCH  63  80
ATOM     80  C   UNL A   1      45.981  32.361  28.863  1.00  0.00     0.057 A 
ATOM     81  C   UNL A   1      45.926  33.334  27.859  1.00  0.00     0.134 A 
ATOM     82  C   UNL A   1      46.470  32.749  30.118  1.00  0.00     0.134 A 
ATOM     83  F   UNL A   1      45.484  33.021  26.632  1.00  0.00    -0.206 F 
ATOM     84  C   UNL A   1      46.351  34.643  28.091  1.00  0.00     0.040 A 
ATOM     85  C   UNL A   1      46.876  34.060  30.367  1.00  0.00     0.040 A 
ATOM     86  F   UNL A   1      46.544  31.864  31.124  1.00  0.00    -0.206 F 
ATOM     87  C   UNL A   1      46.820  35.011  29.351  1.00  0.00     0.006 A 
ENDBRANCH  63  80
ENDBRANCH  37  38
ENDBRANCH  29  32
ENDBRANCH  27  28
ENDBRANCH  26  27
ENDBRANCH   1  26
TORSDOF 14
ENDMDL
MODEL 3
REMARK VINA RESULT:     -12.1      0.361      6.268
REMARK SMILES CC1(C)CCN(C(=O)N[C@](C)(C(=O)NCCCCNC(=O)c2ccc(-c3c4nc(c(-c5c(F)cccc5F)c5ccc([nH]5)c(-c5c(F)cccc5F)c5nc(c(-c6c(F)cccc6F)c6ccc3[nH]6)C=C5)C=C4)cc2)c2ccccc2)C1
REMARK SMILES IDX 16 1 15 2 14 3 12 4 13 5 10 7 11 8 9 9 7 10 8 11 6 13 1 14
REMARK SMILES IDX 2 15 3 16 4 17 82 18 5 19 76 20 77 21 81 22 78 23 80 24
REMARK SMILES IDX 79 25 17 26 18 27 19 28 20 29 21 31 22 32 23 33 75 34 24 35
REMARK SMILES IDX 74 36 25 37 26 38 27 39 68 40 28 41 73 42 67 43 69 44 29 45
REMARK SMILES IDX 72 46 66 47 65 48 30 50 56 51 39 52 55 53 40 54 43 55 54 56
REMARK SMILES IDX 70 57 41 58 42 59 53 61 71 62 44 63 31 64 32 65 37 66 33 67
REMARK SMILES IDX 34 68 36 69 38 70 35 71 57 72 58 73 63 74 59 75 60 76 62 77
REMARK SMILES IDX 64 78 61 79 45 80 46 81 51 82 47 83 48 84 50 85 52 86 49 87
REMARK H PARENT 14 6 9 12 19 30 69 49 43 60
REMARK Flexibility Score: inf
ROOT
ATOM      1  C   UNL A   1      36.312  20.736  25.061  1.00  0.00     0.023 C 
ENDROOT
BRANCH   1   2
ATOM      2  C   UNL A   1      36.065  22.103  25.712  1.00  0.00     0.116 C 
BRANCH   2   3
ATOM      3  N   UNL A   1      35.115  22.003  26.798  1.00  0.00    -0.354 N 
ATOM      4  C   UNL A   1      33.775  22.217  26.905  1.00  0.00     0.250 C 
ATOM      5  O   UNL A   1      33.430  22.460  28.070  1.00  0.00    -0.272 OA
ATOM      6  H   UNL A   1      35.528  21.717  27.645  1.00  0.00     0.163 HD
BRANCH   4   7
ATOM      7  C   UNL A   1      32.741  22.206  25.681  1.00  0.00     0.143 C 
ATOM      8  C   UNL A   1      31.340  22.613  26.204  1.00  0.00     0.051 C 
BRANCH   7   9
ATOM      9  N   UNL A   1      33.098  23.277  24.705  1.00  0.00    -0.320 N 
ATOM     10  C   UNL A   1      32.391  24.372  24.341  1.00  0.00     0.318 C 
ATOM     11  O   UNL A   1      31.858  24.344  23.229  1.00  0.00    -0.249 OA
ATOM     12  H   UNL A   1      33.970  23.173  24.263  1.00  0.00     0.166 HD
BRANCH  10  13
ATOM     13  N   UNL A   1      32.489  25.519  25.074  1.00  0.00    -0.324 N 
ATOM     14  C   UNL A   1      31.592  27.970  27.561  1.00  0.00     0.013 C 
ATOM     15  C   UNL A   1      32.117  27.611  26.168  1.00  0.00    -0.016 C 
ATOM     16  C   UNL A   1      31.874  28.806  25.234  1.00  0.00     0.013 C 
ATOM     17  C   UNL A   1      33.626  27.281  26.182  1.00  0.00     0.030 C 
ATOM     18  C   UNL A   1      31.435  26.326  25.655  1.00  0.00     0.127 C 
ATOM     19  C   UNL A   1      33.744  25.838  25.720  1.00  0.00     0.122 C 
ENDBRANCH  10  13
ENDBRANCH   7   9
BRANCH   7  20
ATOM     20  C   UNL A   1      32.664  20.787  25.060  1.00  0.00    -0.013 A 
ATOM     21  C   UNL A   1      32.832  19.642  25.867  1.00  0.00     0.007 A 
ATOM     22  C   UNL A   1      32.427  20.561  23.685  1.00  0.00     0.007 A 
ATOM     23  C   UNL A   1      32.733  18.352  25.339  1.00  0.00     0.000 A 
ATOM     24  C   UNL A   1      32.363  19.271  23.152  1.00  0.00     0.000 A 
ATOM     25  C   UNL A   1      32.508  18.166  23.980  1.00  0.00     0.000 A 
ENDBRANCH   7  20
ENDBRANCH   4   7
ENDBRANCH   2   3
ENDBRANCH   1   2
BRANCH   1  26
ATOM     26  C   UNL A   1      37.762  20.454  24.654  1.00  0.00     0.023 C 
BRANCH  26  27
ATOM     27  C   UNL A   1      38.796  20.603  25.763  1.00  0.00     0.116 C 
BRANCH  27  28
ATOM     28  N   UNL A   1      39.781  19.533  25.771  1.00  0.00    -0.352 N 
ATOM     29  C   UNL A   1      41.111  19.584  26.118  1.00  0.00     0.251 C 
ATOM     30  H   UNL A   1      39.448  18.650  25.489  1.00  0.00     0.163 HD
ATOM     31  O   UNL A   1      41.831  18.609  25.972  1.00  0.00    -0.269 OA
BRANCH  29  32
ATOM     32  C   UNL A   1      41.669  20.853  26.630  1.00  0.00     0.039 A 
ATOM     33  C   UNL A   1      42.226  21.755  25.722  1.00  0.00     0.014 A 
ATOM     34  C   UNL A   1      41.588  21.167  27.989  1.00  0.00     0.014 A 
ATOM     35  C   UNL A   1      42.626  23.017  26.165  1.00  0.00     0.010 A 
ATOM     36  C   UNL A   1      41.930  22.444  28.417  1.00  0.00     0.010 A 
ATOM     37  C   UNL A   1      42.436  23.385  27.505  1.00  0.00    -0.014 A 
BRANCH  37  38
ATOM     38  C   UNL A   1      42.720  24.762  27.975  1.00  0.00     0.031 A 
ATOM     39  C   UNL A   1      44.113  25.152  28.370  1.00  0.00     0.074 A 
ATOM     40  C   UNL A   1      41.702  25.630  28.131  1.00  0.00     0.049 A 
ATOM     41  N   UNL A   1      44.541  26.271  28.898  1.00  0.00    -0.248 NA
ATOM     42  C   UNL A   1      45.161  24.140  28.169  1.00  0.00     0.031 C 
ATOM     43  C   UNL A   1      40.298  25.356  27.816  1.00  0.00     0.029 A 
ATOM     44  N   UNL A   1      41.690  26.916  28.610  1.00  0.00    -0.354 N 
ATOM     45  C   UNL A   1      45.901  26.091  29.108  1.00  0.00     0.074 A 
ATOM     46  C   UNL A   1      46.219  24.741  28.693  1.00  0.00     0.031 C 
ATOM     47  C   UNL A   1      39.566  26.448  28.086  1.00  0.00     0.029 A 
ATOM     48  C   UNL A   1      40.439  27.482  28.633  1.00  0.00     0.049 A 
ATOM     49  H   UNL A   1      42.501  27.388  28.907  1.00  0.00     0.167 HD
ATOM     50  C   UNL A   1      46.805  26.978  29.588  1.00  0.00     0.037 A 
ATOM     51  C   UNL A   1      40.040  28.695  29.058  1.00  0.00     0.037 A 
ATOM     52  C   UNL A   1      46.487  28.325  29.981  1.00  0.00     0.049 A 
ATOM     53  C   UNL A   1      41.055  29.646  29.624  1.00  0.00     0.074 A 
ATOM     54  C   UNL A   1      47.343  29.326  30.404  1.00  0.00     0.029 A 
ATOM     55  N   UNL A   1      45.205  28.856  30.008  1.00  0.00    -0.354 N 
ATOM     56  N   UNL A   1      42.350  29.490  29.753  1.00  0.00    -0.248 NA
ATOM     57  C   UNL A   1      40.551  30.936  30.113  1.00  0.00     0.031 C 
ATOM     58  C   UNL A   1      46.574  30.449  30.729  1.00  0.00     0.029 A 
ATOM     59  C   UNL A   1      45.243  30.161  30.472  1.00  0.00     0.049 A 
ATOM     60  H   UNL A   1      44.390  28.376  29.738  1.00  0.00     0.167 HD
ATOM     61  C   UNL A   1      42.820  30.670  30.314  1.00  0.00     0.074 A 
ATOM     62  C   UNL A   1      41.672  31.535  30.495  1.00  0.00     0.031 C 
ATOM     63  C   UNL A   1      44.090  31.006  30.648  1.00  0.00     0.037 A 
BRANCH  50  64
ATOM     64  C   UNL A   1      48.223  26.507  29.720  1.00  0.00     0.057 A 
ATOM     65  C   UNL A   1      49.157  26.679  28.689  1.00  0.00     0.134 A 
ATOM     66  C   UNL A   1      48.662  25.877  30.890  1.00  0.00     0.134 A 
ATOM     67  F   UNL A   1      48.797  27.263  27.536  1.00  0.00    -0.206 F 
ATOM     68  C   UNL A   1      50.467  26.212  28.806  1.00  0.00     0.040 A 
ATOM     69  C   UNL A   1      49.976  25.429  31.029  1.00  0.00     0.040 A 
ATOM     70  F   UNL A   1      47.821  25.685  31.917  1.00  0.00    -0.206 F 
ATOM     71  C   UNL A   1      50.881  25.587  29.981  1.00  0.00     0.006 A 
ENDBRANCH  50  64
BRANCH  51  72
ATOM     72  C   UNL A   1      38.614  29.089  28.939  1.00  0.00     0.057 A 
ATOM     73  C   UNL A   1      38.106  29.568  27.726  1.00  0.00     0.134 A 
ATOM     74  C   UNL A   1      37.728  28.988  30.018  1.00  0.00     0.134 A 
ATOM     75  F   UNL A   1      38.912  29.703  26.664  1.00  0.00    -0.206 F 
ATOM     76  C   UNL A   1      36.768  29.941  27.592  1.00  0.00     0.040 A 
ATOM     77  C   UNL A   1      36.384  29.339  29.892  1.00  0.00     0.040 A 
ATOM     78  F   UNL A   1      38.155  28.532  31.205  1.00  0.00    -0.206 F 
ATOM     79  C   UNL A   1      35.901  29.821  28.677  1.00  0.00     0.006 A 
ENDBRANCH  51  72
BRANCH  63  80
ATOM     80  C   UNL A   1      44.307  32.374  31.223  1.00  0.00     0.057 A 
ATOM     81  C   UNL A   1      44.302  32.601  32.604  1.00  0.00     0.134 A 
ATOM     82  C   UNL A   1      44.567  33.467  30.386  1.00  0.00     0.134 A 
ATOM     83  F   UNL A   1      44.044  31.598  33.456  1.00  0.00    -0.206 F 
ATOM     84  C   UNL A   1      44.536  33.870  33.133  1.00  0.00     0.040 A 
ATOM     85  C   UNL A   1      44.824  34.736  30.905  1.00  0.00     0.040 A 
ATOM     86  F   UNL A   1      44.589  33.314  29.053  1.00  0.00    -0.206 F 
ATOM     87  C   UNL A   1      44.806  34.940  32.283  1.00  0.00     0.006 A 
ENDBRANCH  63  80
ENDBRANCH  37  38
ENDBRANCH  29  32
ENDBRANCH  27  28
ENDBRANCH  26  27
ENDBRANCH   1  26
TORSDOF 14
ENDMDL
