MODEL 1
REMARK VINA RESULT:     -11.9      0.000      0.000
REMARK SMILES C[C@H](c1ccccc1F)N(C)c1cccc(F)c1C(=O)NCCCCNC(=O)c1ccc(-c2c3nc(c(-c4c(F)cccc4F)c4ccc([nH]4)c(-c4c(F)cccc4F)c4nc(c(-c5c(F)cccc5F)c5ccc2[nH]5)C=C4)C=C3)cc1
REMARK SMILES IDX 23 1 22 2 21 3 19 4 20 5 18 7 12 8 13 9 14 10 16 11 15 12
REMARK SMILES IDX 17 13 10 14 11 15 2 16 1 17 3 18 4 19 8 20 5 21 7 22 9 23
REMARK SMILES IDX 6 24 24 25 25 26 26 27 27 28 28 30 29 31 30 32 82 33 31 34
REMARK SMILES IDX 81 35 32 36 33 37 34 38 75 39 35 40 80 41 74 42 76 43 36 44
REMARK SMILES IDX 79 45 73 46 72 47 37 49 63 50 46 51 62 52 47 53 50 54 61 55
REMARK SMILES IDX 77 56 48 57 49 58 60 60 78 61 51 62 38 63 39 64 44 65 40 66
REMARK SMILES IDX 41 67 43 68 45 69 42 70 64 71 65 72 70 73 66 74 67 75 69 76
REMARK SMILES IDX 71 77 68 78 52 79 53 80 58 81 54 82 55 83 57 84 59 85 56 86
REMARK H PARENT 21 6 26 29 76 48 50 59
REMARK Flexibility Score: inf
ROOT
ATOM      1  C   UNL A   1      31.404  30.810  25.858  1.00  0.00     0.023 C 
ENDROOT
BRANCH   1   2
ATOM      2  C   UNL A   1      32.575  29.834  25.933  1.00  0.00     0.116 C 
BRANCH   2   3
ATOM      3  N   UNL A   1      33.295  29.624  24.687  1.00  0.00    -0.352 N 
ATOM      4  C   UNL A   1      32.917  28.915  23.555  1.00  0.00     0.256 C 
ATOM      5  O   UNL A   1      33.608  29.039  22.547  1.00  0.00    -0.269 OA
ATOM      6  H   UNL A   1      34.184  30.047  24.638  1.00  0.00     0.163 HD
BRANCH   4   7
ATOM      7  C   UNL A   1      31.750  27.992  23.591  1.00  0.00     0.098 A 
ATOM      8  C   UNL A   1      31.815  26.696  24.151  1.00  0.00     0.053 A 
ATOM      9  C   UNL A   1      30.589  26.034  24.380  1.00  0.00     0.027 A 
ATOM     10  C   UNL A   1      29.369  26.541  23.935  1.00  0.00     0.005 A 
ATOM     11  C   UNL A   1      30.537  28.434  23.046  1.00  0.00     0.138 A 
ATOM     12  C   UNL A   1      29.352  27.726  23.219  1.00  0.00     0.040 A 
ATOM     13  F   UNL A   1      30.475  29.575  22.341  1.00  0.00    -0.206 F 
BRANCH   8  14
ATOM     14  N   UNL A   1      32.980  25.985  24.422  1.00  0.00    -0.367 N 
ATOM     15  C   UNL A   1      33.567  26.049  25.747  1.00  0.00     0.144 C 
BRANCH  14  16
ATOM     16  C   UNL A   1      33.719  25.314  23.319  1.00  0.00     0.112 C 
ATOM     17  C   UNL A   1      33.008  25.451  21.968  1.00  0.00     0.036 C 
BRANCH  16  18
ATOM     18  C   UNL A   1      34.126  23.896  23.706  1.00  0.00     0.010 A 
ATOM     19  C   UNL A   1      35.494  23.602  23.876  1.00  0.00     0.009 A 
ATOM     20  C   UNL A   1      33.207  22.873  23.974  1.00  0.00     0.128 A 
ATOM     21  C   UNL A   1      35.913  22.341  24.309  1.00  0.00     0.001 A 
ATOM     22  C   UNL A   1      33.621  21.618  24.419  1.00  0.00     0.039 A 
ATOM     23  F   UNL A   1      31.889  23.083  23.854  1.00  0.00    -0.207 F 
ATOM     24  C   UNL A   1      34.976  21.350  24.590  1.00  0.00     0.003 A 
ENDBRANCH  16  18
ENDBRANCH  14  16
ENDBRANCH   8  14
ENDBRANCH   4   7
ENDBRANCH   2   3
ENDBRANCH   1   2
BRANCH   1  25
ATOM     25  C   UNL A   1      31.384  31.955  26.868  1.00  0.00     0.023 C 
BRANCH  25  26
ATOM     26  C   UNL A   1      32.357  33.105  26.625  1.00  0.00     0.116 C 
BRANCH  26  27
ATOM     27  N   UNL A   1      32.270  34.176  27.606  1.00  0.00    -0.352 N 
ATOM     28  C   UNL A   1      33.087  34.495  28.668  1.00  0.00     0.251 C 
ATOM     29  H   UNL A   1      31.496  34.774  27.492  1.00  0.00     0.163 HD
ATOM     30  O   UNL A   1      32.781  35.419  29.414  1.00  0.00    -0.269 OA
BRANCH  28  31
ATOM     31  C   UNL A   1      34.302  33.698  28.959  1.00  0.00     0.039 A 
ATOM     32  C   UNL A   1      35.551  34.305  28.785  1.00  0.00     0.014 A 
ATOM     33  C   UNL A   1      34.229  32.381  29.414  1.00  0.00     0.014 A 
ATOM     34  C   UNL A   1      36.712  33.640  29.192  1.00  0.00     0.010 A 
ATOM     35  C   UNL A   1      35.377  31.745  29.885  1.00  0.00     0.010 A 
ATOM     36  C   UNL A   1      36.625  32.384  29.812  1.00  0.00    -0.014 A 
BRANCH  36  37
ATOM     37  C   UNL A   1      37.804  31.768  30.477  1.00  0.00     0.031 A 
ATOM     38  C   UNL A   1      38.615  30.711  29.787  1.00  0.00     0.074 A 
ATOM     39  C   UNL A   1      38.087  32.106  31.752  1.00  0.00     0.049 A 
ATOM     40  N   UNL A   1      39.595  29.984  30.262  1.00  0.00    -0.248 NA
ATOM     41  C   UNL A   1      38.273  30.419  28.385  1.00  0.00     0.031 C 
ATOM     42  C   UNL A   1      37.357  33.095  32.549  1.00  0.00     0.029 A 
ATOM     43  N   UNL A   1      39.057  31.646  32.609  1.00  0.00    -0.354 N 
ATOM     44  C   UNL A   1      39.981  29.144  29.226  1.00  0.00     0.074 A 
ATOM     45  C   UNL A   1      39.108  29.426  28.106  1.00  0.00     0.031 C 
ATOM     46  C   UNL A   1      37.916  33.183  33.765  1.00  0.00     0.029 A 
ATOM     47  C   UNL A   1      39.011  32.223  33.855  1.00  0.00     0.049 A 
ATOM     48  H   UNL A   1      39.722  30.965  32.354  1.00  0.00     0.167 HD
ATOM     49  C   UNL A   1      40.984  28.234  29.207  1.00  0.00     0.037 A 
ATOM     50  C   UNL A   1      39.752  31.995  34.956  1.00  0.00     0.037 A 
ATOM     51  C   UNL A   1      41.869  27.973  30.311  1.00  0.00     0.049 A 
ATOM     52  C   UNL A   1      40.829  30.949  34.920  1.00  0.00     0.074 A 
ATOM     53  C   UNL A   1      42.952  27.112  30.357  1.00  0.00     0.029 A 
ATOM     54  N   UNL A   1      41.775  28.565  31.560  1.00  0.00    -0.354 N 
ATOM     55  N   UNL A   1      41.207  30.192  33.920  1.00  0.00    -0.248 NA
ATOM     56  C   UNL A   1      41.573  30.716  36.166  1.00  0.00     0.031 C 
ATOM     57  C   UNL A   1      43.493  27.156  31.645  1.00  0.00     0.029 A 
ATOM     58  C   UNL A   1      42.767  28.070  32.391  1.00  0.00     0.049 A 
ATOM     59  H   UNL A   1      41.104  29.238  31.818  1.00  0.00     0.167 HD
ATOM     60  C   UNL A   1      42.240  29.405  34.409  1.00  0.00     0.074 A 
ATOM     61  C   UNL A   1      42.440  29.783  35.792  1.00  0.00     0.031 C 
ATOM     62  C   UNL A   1      42.956  28.453  33.765  1.00  0.00     0.037 A 
BRANCH  49  63
ATOM     63  C   UNL A   1      41.201  27.458  27.945  1.00  0.00     0.057 A 
ATOM     64  C   UNL A   1      41.965  27.990  26.899  1.00  0.00     0.134 A 
ATOM     65  C   UNL A   1      40.573  26.226  27.730  1.00  0.00     0.134 A 
ATOM     66  F   UNL A   1      42.584  29.172  27.040  1.00  0.00    -0.206 F 
ATOM     67  C   UNL A   1      42.086  27.329  25.676  1.00  0.00     0.040 A 
ATOM     68  C   UNL A   1      40.702  25.546  26.518  1.00  0.00     0.040 A 
ATOM     69  F   UNL A   1      39.832  25.662  28.696  1.00  0.00    -0.206 F 
ATOM     70  C   UNL A   1      41.452  26.102  25.483  1.00  0.00     0.006 A 
ENDBRANCH  49  63
BRANCH  50  71
ATOM     71  C   UNL A   1      39.501  32.778  36.192  1.00  0.00     0.057 A 
ATOM     72  C   UNL A   1      40.193  33.964  36.463  1.00  0.00     0.134 A 
ATOM     73  C   UNL A   1      38.563  32.346  37.136  1.00  0.00     0.134 A 
ATOM     74  F   UNL A   1      41.108  34.429  35.600  1.00  0.00    -0.206 F 
ATOM     75  C   UNL A   1      39.968  34.687  37.636  1.00  0.00     0.040 A 
ATOM     76  C   UNL A   1      38.313  33.069  38.302  1.00  0.00     0.040 A 
ATOM     77  F   UNL A   1      37.855  31.226  36.920  1.00  0.00    -0.206 F 
ATOM     78  C   UNL A   1      39.021  34.242  38.557  1.00  0.00     0.006 A 
ENDBRANCH  50  71
BRANCH  62  79
ATOM     79  C   UNL A   1      44.030  27.752  34.538  1.00  0.00     0.057 A 
ATOM     80  C   UNL A   1      45.332  28.267  34.585  1.00  0.00     0.134 A 
ATOM     81  C   UNL A   1      43.794  26.524  35.167  1.00  0.00     0.134 A 
ATOM     82  F   UNL A   1      45.622  29.436  33.995  1.00  0.00    -0.206 F 
ATOM     83  C   UNL A   1      46.366  27.576  35.217  1.00  0.00     0.040 A 
ATOM     84  C   UNL A   1      44.815  25.833  35.818  1.00  0.00     0.040 A 
ATOM     85  F   UNL A   1      42.564  25.986  35.167  1.00  0.00    -0.206 F 
ATOM     86  C   UNL A   1      46.108  26.354  35.835  1.00  0.00     0.006 A 
ENDBRANCH  62  79
ENDBRANCH  36  37
ENDBRANCH  28  31
ENDBRANCH  26  27
ENDBRANCH  25  26
ENDBRANCH   1  25
TORSDOF 14
ENDMDL
MODEL 2
REMARK VINA RESULT:     -11.8      3.859      7.360
REMARK SMILES C[C@H](c1ccccc1F)N(C)c1cccc(F)c1C(=O)NCCCCNC(=O)c1ccc(-c2c3nc(c(-c4c(F)cccc4F)c4ccc([nH]4)c(-c4c(F)cccc4F)c4nc(c(-c5c(F)cccc5F)c5ccc2[nH]5)C=C4)C=C3)cc1
REMARK SMILES IDX 23 1 22 2 21 3 19 4 20 5 18 7 12 8 13 9 14 10 16 11 15 12
REMARK SMILES IDX 17 13 10 14 11 15 2 16 1 17 3 18 4 19 8 20 5 21 7 22 9 23
REMARK SMILES IDX 6 24 24 25 25 26 26 27 27 28 28 30 29 31 30 32 82 33 31 34
REMARK SMILES IDX 81 35 32 36 33 37 34 38 75 39 35 40 80 41 74 42 76 43 36 44
REMARK SMILES IDX 79 45 73 46 72 47 37 49 63 50 46 51 62 52 47 53 50 54 61 55
REMARK SMILES IDX 77 56 48 57 49 58 60 60 78 61 51 62 38 63 39 64 44 65 40 66
REMARK SMILES IDX 41 67 43 68 45 69 42 70 64 71 65 72 70 73 66 74 67 75 69 76
REMARK SMILES IDX 71 77 68 78 52 79 53 80 58 81 54 82 55 83 57 84 59 85 56 86
REMARK H PARENT 21 6 26 29 76 48 50 59
REMARK Flexibility Score: inf
ROOT
ATOM      1  C   UNL A   1      34.033  28.610  24.708  1.00  0.00     0.023 C 
ENDROOT
BRANCH   1   2
ATOM      2  C   UNL A   1      33.578  28.680  23.254  1.00  0.00     0.116 C 
BRANCH   2   3
ATOM      3  N   UNL A   1      33.822  27.482  22.464  1.00  0.00    -0.352 N 
ATOM      4  C   UNL A   1      32.983  26.407  22.205  1.00  0.00     0.256 C 
ATOM      5  O   UNL A   1      33.336  25.601  21.349  1.00  0.00    -0.269 OA
ATOM      6  H   UNL A   1      34.714  27.426  22.050  1.00  0.00     0.163 HD
BRANCH   4   7
ATOM      7  C   UNL A   1      31.732  26.214  22.989  1.00  0.00     0.098 A 
ATOM      8  C   UNL A   1      31.588  25.202  23.965  1.00  0.00     0.053 A 
ATOM      9  C   UNL A   1      30.475  25.298  24.828  1.00  0.00     0.027 A 
ATOM     10  C   UNL A   1      29.463  26.239  24.644  1.00  0.00     0.005 A 
ATOM     11  C   UNL A   1      30.655  27.076  22.743  1.00  0.00     0.138 A 
ATOM     12  C   UNL A   1      29.532  27.101  23.563  1.00  0.00     0.040 A 
ATOM     13  F   UNL A   1      30.678  27.926  21.704  1.00  0.00    -0.206 F 
BRANCH   8  14
ATOM     14  N   UNL A   1      32.400  24.080  24.100  1.00  0.00    -0.367 N 
ATOM     15  C   UNL A   1      32.159  22.917  23.265  1.00  0.00     0.144 C 
BRANCH  14  16
ATOM     16  C   UNL A   1      33.387  24.000  25.210  1.00  0.00     0.112 C 
ATOM     17  C   UNL A   1      33.708  25.374  25.808  1.00  0.00     0.036 C 
BRANCH  16  18
ATOM     18  C   UNL A   1      34.595  23.155  24.819  1.00  0.00     0.010 A 
ATOM     19  C   UNL A   1      35.488  23.651  23.849  1.00  0.00     0.009 A 
ATOM     20  C   UNL A   1      34.912  21.932  25.425  1.00  0.00     0.128 A 
ATOM     21  C   UNL A   1      36.652  22.953  23.515  1.00  0.00     0.001 A 
ATOM     22  C   UNL A   1      36.080  21.240  25.105  1.00  0.00     0.039 A 
ATOM     23  F   UNL A   1      34.122  21.407  26.372  1.00  0.00    -0.207 F 
ATOM     24  C   UNL A   1      36.954  21.751  24.150  1.00  0.00     0.003 A 
ENDBRANCH  16  18
ENDBRANCH  14  16
ENDBRANCH   8  14
ENDBRANCH   4   7
ENDBRANCH   2   3
ENDBRANCH   1   2
BRANCH   1  25
ATOM     25  C   UNL A   1      33.098  29.202  25.761  1.00  0.00     0.023 C 
BRANCH  25  26
ATOM     26  C   UNL A   1      33.531  29.069  27.219  1.00  0.00     0.116 C 
BRANCH  26  27
ATOM     27  N   UNL A   1      33.704  30.339  27.906  1.00  0.00    -0.352 N 
ATOM     28  C   UNL A   1      34.796  30.872  28.555  1.00  0.00     0.251 C 
ATOM     29  H   UNL A   1      32.906  30.916  27.909  1.00  0.00     0.163 HD
ATOM     30  O   UNL A   1      34.695  31.951  29.128  1.00  0.00    -0.269 OA
BRANCH  28  31
ATOM     31  C   UNL A   1      36.077  30.131  28.623  1.00  0.00     0.039 A 
ATOM     32  C   UNL A   1      36.909  30.141  27.498  1.00  0.00     0.014 A 
ATOM     33  C   UNL A   1      36.475  29.448  29.773  1.00  0.00     0.014 A 
ATOM     34  C   UNL A   1      38.190  29.583  27.573  1.00  0.00     0.010 A 
ATOM     35  C   UNL A   1      37.776  28.955  29.871  1.00  0.00     0.010 A 
ATOM     36  C   UNL A   1      38.658  29.051  28.784  1.00  0.00    -0.014 A 
BRANCH  36  37
ATOM     37  C   UNL A   1      40.087  28.683  28.964  1.00  0.00     0.031 A 
ATOM     38  C   UNL A   1      41.084  29.682  29.473  1.00  0.00     0.074 A 
ATOM     39  C   UNL A   1      40.501  27.459  28.577  1.00  0.00     0.049 A 
ATOM     40  N   UNL A   1      42.384  29.569  29.574  1.00  0.00    -0.248 NA
ATOM     41  C   UNL A   1      40.557  30.985  29.912  1.00  0.00     0.031 C 
ATOM     42  C   UNL A   1      39.640  26.405  28.034  1.00  0.00     0.029 A 
ATOM     43  N   UNL A   1      41.754  26.896  28.567  1.00  0.00    -0.354 N 
ATOM     44  C   UNL A   1      42.833  30.783  30.077  1.00  0.00     0.074 A 
ATOM     45  C   UNL A   1      41.670  31.633  30.229  1.00  0.00     0.031 C 
ATOM     46  C   UNL A   1      40.383  25.321  27.766  1.00  0.00     0.029 A 
ATOM     47  C   UNL A   1      41.780  25.616  28.068  1.00  0.00     0.049 A 
ATOM     48  H   UNL A   1      42.559  27.367  28.885  1.00  0.00     0.167 HD
ATOM     49  C   UNL A   1      44.097  31.148  30.399  1.00  0.00     0.037 A 
ATOM     50  C   UNL A   1      42.811  24.776  27.857  1.00  0.00     0.037 A 
ATOM     51  C   UNL A   1      45.249  30.295  30.273  1.00  0.00     0.049 A 
ATOM     52  C   UNL A   1      44.208  25.223  28.182  1.00  0.00     0.074 A 
ATOM     53  C   UNL A   1      46.558  30.563  30.635  1.00  0.00     0.029 A 
ATOM     54  N   UNL A   1      45.233  29.014  29.747  1.00  0.00    -0.354 N 
ATOM     55  N   UNL A   1      44.609  26.360  28.695  1.00  0.00    -0.248 NA
ATOM     56  C   UNL A   1      45.295  24.278  27.889  1.00  0.00     0.031 C 
ATOM     57  C   UNL A   1      47.342  29.457  30.294  1.00  0.00     0.029 A 
ATOM     58  C   UNL A   1      46.514  28.487  29.752  1.00  0.00     0.049 A 
ATOM     59  H   UNL A   1      44.431  28.547  29.418  1.00  0.00     0.167 HD
ATOM     60  C   UNL A   1      45.989  26.262  28.800  1.00  0.00     0.074 A 
ATOM     61  C   UNL A   1      46.358  24.951  28.309  1.00  0.00     0.031 C 
ATOM     62  C   UNL A   1      46.870  27.182  29.261  1.00  0.00     0.037 A 
BRANCH  49  63
ATOM     63  C   UNL A   1      44.311  32.528  30.941  1.00  0.00     0.057 A 
ATOM     64  C   UNL A   1      44.623  33.593  30.087  1.00  0.00     0.134 A 
ATOM     65  C   UNL A   1      44.303  32.780  32.317  1.00  0.00     0.134 A 
ATOM     66  F   UNL A   1      44.656  33.413  28.758  1.00  0.00    -0.206 F 
ATOM     67  C   UNL A   1      44.933  34.859  30.585  1.00  0.00     0.040 A 
ATOM     68  C   UNL A   1      44.593  34.046  32.827  1.00  0.00     0.040 A 
ATOM     69  F   UNL A   1      44.006  31.801  33.186  1.00  0.00    -0.206 F 
ATOM     70  C   UNL A   1      44.919  35.088  31.960  1.00  0.00     0.006 A 
ENDBRANCH  49  63
BRANCH  50  71
ATOM     71  C   UNL A   1      42.561  23.419  27.310  1.00  0.00     0.057 A 
ATOM     72  C   UNL A   1      42.258  22.335  28.142  1.00  0.00     0.134 A 
ATOM     73  C   UNL A   1      42.629  23.179  25.934  1.00  0.00     0.134 A 
ATOM     74  F   UNL A   1      42.182  22.501  29.471  1.00  0.00    -0.206 F 
ATOM     75  C   UNL A   1      42.042  21.057  27.625  1.00  0.00     0.040 A 
ATOM     76  C   UNL A   1      42.395  21.910  25.401  1.00  0.00     0.040 A 
ATOM     77  F   UNL A   1      42.896  24.183  25.085  1.00  0.00    -0.206 F 
ATOM     78  C   UNL A   1      42.106  20.844  26.249  1.00  0.00     0.006 A 
ENDBRANCH  50  71
BRANCH  62  79
ATOM     79  C   UNL A   1      48.321  26.810  29.268  1.00  0.00     0.057 A 
ATOM     80  C   UNL A   1      49.149  27.136  28.187  1.00  0.00     0.134 A 
ATOM     81  C   UNL A   1      48.876  26.057  30.309  1.00  0.00     0.134 A 
ATOM     82  F   UNL A   1      48.673  27.850  27.157  1.00  0.00    -0.206 F 
ATOM     83  C   UNL A   1      50.477  26.711  28.133  1.00  0.00     0.040 A 
ATOM     84  C   UNL A   1      50.207  25.641  30.276  1.00  0.00     0.040 A 
ATOM     85  F   UNL A   1      48.135  25.724  31.378  1.00  0.00    -0.206 F 
ATOM     86  C   UNL A   1      51.008  25.960  29.180  1.00  0.00     0.006 A 
ENDBRANCH  62  79
ENDBRANCH  36  37
ENDBRANCH  28  31
ENDBRANCH  26  27
ENDBRANCH  25  26
ENDBRANCH   1  25
TORSDOF 14
ENDMDL
MODEL 3
REMARK VINA RESULT:     -11.8      4.117      9.350
REMARK SMILES C[C@H](c1ccccc1F)N(C)c1cccc(F)c1C(=O)NCCCCNC(=O)c1ccc(-c2c3nc(c(-c4c(F)cccc4F)c4ccc([nH]4)c(-c4c(F)cccc4F)c4nc(c(-c5c(F)cccc5F)c5ccc2[nH]5)C=C4)C=C3)cc1
REMARK SMILES IDX 23 1 22 2 21 3 19 4 20 5 18 7 12 8 13 9 14 10 16 11 15 12
REMARK SMILES IDX 17 13 10 14 11 15 2 16 1 17 3 18 4 19 8 20 5 21 7 22 9 23
REMARK SMILES IDX 6 24 24 25 25 26 26 27 27 28 28 30 29 31 30 32 82 33 31 34
REMARK SMILES IDX 81 35 32 36 33 37 34 38 75 39 35 40 80 41 74 42 76 43 36 44
REMARK SMILES IDX 79 45 73 46 72 47 37 49 63 50 46 51 62 52 47 53 50 54 61 55
REMARK SMILES IDX 77 56 48 57 49 58 60 60 78 61 51 62 38 63 39 64 44 65 40 66
REMARK SMILES IDX 41 67 43 68 45 69 42 70 64 71 65 72 70 73 66 74 67 75 69 76
REMARK SMILES IDX 71 77 68 78 52 79 53 80 58 81 54 82 55 83 57 84 59 85 56 86
REMARK H PARENT 21 6 26 29 76 48 50 59
REMARK Flexibility Score: inf
ROOT
ATOM      1  C   UNL A   1      34.554  22.273  23.910  1.00  0.00     0.023 C 
ENDROOT
BRANCH   1   2
ATOM      2  C   UNL A   1      34.049  23.542  23.230  1.00  0.00     0.116 C 
BRANCH   2   3
ATOM      3  N   UNL A   1      34.414  24.789  23.883  1.00  0.00    -0.352 N 
ATOM      4  C   UNL A   1      33.891  25.375  25.027  1.00  0.00     0.256 C 
ATOM      5  O   UNL A   1      34.491  26.336  25.502  1.00  0.00    -0.269 OA
ATOM      6  H   UNL A   1      35.142  25.293  23.451  1.00  0.00     0.163 HD
BRANCH   4   7
ATOM      7  C   UNL A   1      32.613  24.889  25.613  1.00  0.00     0.098 A 
ATOM      8  C   UNL A   1      31.356  25.444  25.280  1.00  0.00     0.053 A 
ATOM      9  C   UNL A   1      30.210  24.722  25.677  1.00  0.00     0.027 A 
ATOM     10  C   UNL A   1      30.280  23.599  26.501  1.00  0.00     0.005 A 
ATOM     11  C   UNL A   1      32.664  23.833  26.534  1.00  0.00     0.138 A 
ATOM     12  C   UNL A   1      31.514  23.184  26.971  1.00  0.00     0.040 A 
ATOM     13  F   UNL A   1      33.838  23.400  27.019  1.00  0.00    -0.206 F 
BRANCH   8  14
ATOM     14  N   UNL A   1      31.148  26.676  24.667  1.00  0.00    -0.367 N 
ATOM     15  C   UNL A   1      31.254  27.893  25.450  1.00  0.00     0.144 C 
BRANCH  14  16
ATOM     16  C   UNL A   1      30.644  26.740  23.269  1.00  0.00     0.112 C 
ATOM     17  C   UNL A   1      31.777  26.768  22.238  1.00  0.00     0.036 C 
BRANCH  16  18
ATOM     18  C   UNL A   1      29.584  27.825  23.110  1.00  0.00     0.010 A 
ATOM     19  C   UNL A   1      29.936  29.032  22.474  1.00  0.00     0.009 A 
ATOM     20  C   UNL A   1      28.248  27.665  23.501  1.00  0.00     0.128 A 
ATOM     21  C   UNL A   1      28.982  30.025  22.231  1.00  0.00     0.001 A 
ATOM     22  C   UNL A   1      27.291  28.648  23.248  1.00  0.00     0.039 A 
ATOM     23  F   UNL A   1      27.834  26.537  24.093  1.00  0.00    -0.207 F 
ATOM     24  C   UNL A   1      27.656  29.830  22.610  1.00  0.00     0.003 A 
ENDBRANCH  16  18
ENDBRANCH  14  16
ENDBRANCH   8  14
ENDBRANCH   4   7
ENDBRANCH   2   3
ENDBRANCH   1   2
BRANCH   1  25
ATOM     25  C   UNL A   1      36.063  22.139  24.105  1.00  0.00     0.023 C 
BRANCH  25  26
ATOM     26  C   UNL A   1      36.542  21.695  25.485  1.00  0.00     0.116 C 
BRANCH  26  27
ATOM     27  N   UNL A   1      37.678  20.788  25.458  1.00  0.00    -0.352 N 
ATOM     28  C   UNL A   1      38.978  20.956  25.883  1.00  0.00     0.251 C 
ATOM     29  H   UNL A   1      37.487  19.903  25.068  1.00  0.00     0.163 HD
ATOM     30  O   UNL A   1      39.797  20.063  25.701  1.00  0.00    -0.269 OA
BRANCH  28  31
ATOM     31  C   UNL A   1      39.415  22.227  26.507  1.00  0.00     0.039 A 
ATOM     32  C   UNL A   1      40.407  22.176  27.492  1.00  0.00     0.014 A 
ATOM     33  C   UNL A   1      38.880  23.458  26.125  1.00  0.00     0.014 A 
ATOM     34  C   UNL A   1      40.952  23.361  27.995  1.00  0.00     0.010 A 
ATOM     35  C   UNL A   1      39.471  24.639  26.573  1.00  0.00     0.010 A 
ATOM     36  C   UNL A   1      40.538  24.601  27.484  1.00  0.00    -0.014 A 
BRANCH  36  37
ATOM     37  C   UNL A   1      41.268  25.854  27.812  1.00  0.00     0.031 A 
ATOM     38  C   UNL A   1      40.593  26.970  28.554  1.00  0.00     0.074 A 
ATOM     39  C   UNL A   1      42.526  26.018  27.353  1.00  0.00     0.049 A 
ATOM     40  N   UNL A   1      41.039  28.173  28.815  1.00  0.00    -0.248 NA
ATOM     41  C   UNL A   1      39.234  26.709  29.056  1.00  0.00     0.031 C 
ATOM     42  C   UNL A   1      43.286  25.024  26.590  1.00  0.00     0.029 A 
ATOM     43  N   UNL A   1      43.386  27.084  27.449  1.00  0.00    -0.354 N 
ATOM     44  C   UNL A   1      40.017  28.816  29.501  1.00  0.00     0.074 A 
ATOM     45  C   UNL A   1      38.914  27.882  29.587  1.00  0.00     0.031 C 
ATOM     46  C   UNL A   1      44.501  25.517  26.307  1.00  0.00     0.029 A 
ATOM     47  C   UNL A   1      44.592  26.880  26.823  1.00  0.00     0.049 A 
ATOM     48  H   UNL A   1      43.159  27.918  27.921  1.00  0.00     0.167 HD
ATOM     49  C   UNL A   1      40.009  30.064  30.026  1.00  0.00     0.037 A 
ATOM     50  C   UNL A   1      45.648  27.699  26.663  1.00  0.00     0.037 A 
ATOM     51  C   UNL A   1      41.114  30.982  29.964  1.00  0.00     0.049 A 
ATOM     52  C   UNL A   1      45.594  29.093  27.218  1.00  0.00     0.074 A 
ATOM     53  C   UNL A   1      41.213  32.244  30.524  1.00  0.00     0.029 A 
ATOM     54  N   UNL A   1      42.309  30.742  29.305  1.00  0.00    -0.354 N 
ATOM     55  N   UNL A   1      44.636  29.671  27.899  1.00  0.00    -0.248 NA
ATOM     56  C   UNL A   1      46.760  29.954  26.972  1.00  0.00     0.031 C 
ATOM     57  C   UNL A   1      42.455  32.783  30.173  1.00  0.00     0.029 A 
ATOM     58  C   UNL A   1      43.142  31.842  29.424  1.00  0.00     0.049 A 
ATOM     59  H   UNL A   1      42.532  29.912  28.823  1.00  0.00     0.167 HD
ATOM     60  C   UNL A   1      45.087  30.953  28.176  1.00  0.00     0.074 A 
ATOM     61  C   UNL A   1      46.410  31.069  27.600  1.00  0.00     0.031 C 
ATOM     62  C   UNL A   1      44.456  31.946  28.847  1.00  0.00     0.037 A 
BRANCH  49  63
ATOM     63  C   UNL A   1      38.770  30.516  30.737  1.00  0.00     0.057 A 
ATOM     64  C   UNL A   1      37.794  31.267  30.071  1.00  0.00     0.134 A 
ATOM     65  C   UNL A   1      38.592  30.288  32.107  1.00  0.00     0.134 A 
ATOM     66  F   UNL A   1      37.913  31.527  28.760  1.00  0.00    -0.206 F 
ATOM     67  C   UNL A   1      36.690  31.789  30.746  1.00  0.00     0.040 A 
ATOM     68  C   UNL A   1      37.482  30.789  32.789  1.00  0.00     0.040 A 
ATOM     69  F   UNL A   1      39.490  29.571  32.799  1.00  0.00    -0.206 F 
ATOM     70  C   UNL A   1      36.532  31.550  32.110  1.00  0.00     0.006 A 
ENDBRANCH  49  63
BRANCH  50  71
ATOM     71  C   UNL A   1      46.855  27.219  25.944  1.00  0.00     0.057 A 
ATOM     72  C   UNL A   1      47.888  26.547  26.608  1.00  0.00     0.134 A 
ATOM     73  C   UNL A   1      47.001  27.432  24.569  1.00  0.00     0.134 A 
ATOM     74  F   UNL A   1      47.808  26.316  27.927  1.00  0.00    -0.206 F 
ATOM     75  C   UNL A   1      49.029  26.114  25.932  1.00  0.00     0.040 A 
ATOM     76  C   UNL A   1      48.127  26.986  23.877  1.00  0.00     0.040 A 
ATOM     77  F   UNL A   1      46.034  28.052  23.876  1.00  0.00    -0.206 F 
ATOM     78  C   UNL A   1      49.148  26.329  24.560  1.00  0.00     0.006 A 
ENDBRANCH  50  71
BRANCH  62  79
ATOM     79  C   UNL A   1      45.183  33.246  29.007  1.00  0.00     0.057 A 
ATOM     80  C   UNL A   1      46.001  33.476  30.121  1.00  0.00     0.134 A 
ATOM     81  C   UNL A   1      45.006  34.298  28.101  1.00  0.00     0.134 A 
ATOM     82  F   UNL A   1      46.203  32.509  31.028  1.00  0.00    -0.206 F 
ATOM     83  C   UNL A   1      46.605  34.715  30.336  1.00  0.00     0.040 A 
ATOM     84  C   UNL A   1      45.620  35.535  28.296  1.00  0.00     0.040 A 
ATOM     85  F   UNL A   1      44.244  34.133  27.009  1.00  0.00    -0.206 F 
ATOM     86  C   UNL A   1      46.414  35.749  29.421  1.00  0.00     0.006 A 
ENDBRANCH  62  79
ENDBRANCH  36  37
ENDBRANCH  28  31
ENDBRANCH  26  27
ENDBRANCH  25  26
ENDBRANCH   1  25
TORSDOF 14
ENDMDL
