MODEL 1
REMARK VINA RESULT:     -11.5      0.000      0.000
REMARK SMILES CCCc1c(C(=O)NCCCCNC(=O)c2ccc(-c3c4nc(c(-c5c(F)cccc5F)c5ccc([nH]5)c(-c5c(F)cccc5F)c5nc(c(-c6c(F)cccc6F)c6ccc3[nH]6)C=C5)C=C4)cc2)nnn1-c1ccccc1[N+](=O)[O-]
REMARK SMILES IDX 10 1 9 2 8 3 6 4 7 5 5 7 4 8 72 9 70 10 71 11 3 12 2 13 1 14
REMARK SMILES IDX 73 15 74 16 78 17 75 18 77 19 76 20 79 21 80 22 81 23 11 24
REMARK SMILES IDX 12 25 13 26 14 27 15 29 16 30 17 31 69 32 18 33 68 34 19 35
REMARK SMILES IDX 20 36 21 37 62 38 22 39 67 40 61 41 63 42 23 43 66 44 60 45
REMARK SMILES IDX 59 46 24 48 50 49 33 50 49 51 34 52 37 53 48 54 64 55 35 56
REMARK SMILES IDX 36 57 47 59 65 60 38 61 25 62 26 63 31 64 27 65 28 66 30 67
REMARK SMILES IDX 32 68 29 69 51 70 52 71 57 72 53 73 54 74 56 75 58 76 55 77
REMARK SMILES IDX 39 78 40 79 45 80 41 81 42 82 44 83 46 84 43 85
REMARK H PARENT 8 6 13 28 63 47 37 58
REMARK Flexibility Score: inf
ROOT
ATOM      1  C   UNL A   1      33.339  29.156  25.690  1.00  0.00     0.023 C 
ENDROOT
BRANCH   1   2
ATOM      2  C   UNL A   1      33.817  28.581  24.353  1.00  0.00     0.116 C 
BRANCH   2   3
ATOM      3  N   UNL A   1      32.717  28.179  23.524  1.00  0.00    -0.351 N 
ATOM      4  C   UNL A   1      32.354  26.992  22.947  1.00  0.00     0.273 C 
ATOM      5  O   UNL A   1      31.287  27.062  22.326  1.00  0.00    -0.267 OA
ATOM      6  H   UNL A   1      32.090  28.914  23.330  1.00  0.00     0.163 HD
BRANCH   4   7
ATOM      7  C   UNL A   1      33.075  25.710  23.040  1.00  0.00     0.174 A 
ATOM      8  C   UNL A   1      33.680  24.918  24.028  1.00  0.00     0.078 A 
ATOM      9  N   UNL A   1      34.085  23.789  23.316  1.00  0.00    -0.210 N 
ATOM     10  N   UNL A   1      33.329  25.102  21.814  1.00  0.00    -0.124 NA
ATOM     11  N   UNL A   1      34.017  23.997  21.999  1.00  0.00    -0.061 NA
BRANCH   8  12
ATOM     12  C   UNL A   1      34.031  25.063  25.483  1.00  0.00     0.059 C 
BRANCH  12  13
ATOM     13  C   UNL A   1      32.892  24.761  26.467  1.00  0.00     0.003 C 
ATOM     14  C   UNL A   1      31.750  25.767  26.439  1.00  0.00     0.004 C 
ENDBRANCH  12  13
ENDBRANCH   8  12
BRANCH   9  15
ATOM     15  C   UNL A   1      34.762  22.659  23.801  1.00  0.00     0.144 A 
ATOM     16  C   UNL A   1      36.162  22.738  23.893  1.00  0.00     0.036 A 
ATOM     17  C   UNL A   1      34.080  21.520  24.256  1.00  0.00     0.294 A 
ATOM     18  C   UNL A   1      36.873  21.708  24.508  1.00  0.00     0.003 A 
ATOM     19  C   UNL A   1      34.812  20.489  24.871  1.00  0.00     0.088 A 
ATOM     20  C   UNL A   1      36.198  20.596  25.012  1.00  0.00     0.007 A 
BRANCH  17  21
ATOM     21  N   UNL A   1      32.616  21.371  24.167  1.00  0.00     0.065 N 
ATOM     22  O   UNL A   1      31.948  21.723  25.150  1.00  0.00    -0.258 OA
ATOM     23  O   UNL A   1      32.125  20.938  23.120  1.00  0.00    -0.258 OA
ENDBRANCH  17  21
ENDBRANCH   9  15
ENDBRANCH   4   7
ENDBRANCH   2   3
ENDBRANCH   1   2
BRANCH   1  24
ATOM     24  C   UNL A   1      34.066  28.632  26.937  1.00  0.00     0.023 C 
BRANCH  24  25
ATOM     25  C   UNL A   1      35.384  29.329  27.256  1.00  0.00     0.116 C 
BRANCH  25  26
ATOM     26  N   UNL A   1      35.458  29.843  28.629  1.00  0.00    -0.352 N 
ATOM     27  C   UNL A   1      36.399  29.547  29.606  1.00  0.00     0.251 C 
ATOM     28  H   UNL A   1      34.750  30.476  28.890  1.00  0.00     0.163 HD
ATOM     29  O   UNL A   1      36.161  29.692  30.791  1.00  0.00    -0.269 OA
BRANCH  27  30
ATOM     30  C   UNL A   1      37.726  29.091  29.159  1.00  0.00     0.039 A 
ATOM     31  C   UNL A   1      38.401  29.651  28.071  1.00  0.00     0.014 A 
ATOM     32  C   UNL A   1      38.315  28.102  29.936  1.00  0.00     0.014 A 
ATOM     33  C   UNL A   1      39.713  29.246  27.827  1.00  0.00     0.010 A 
ATOM     34  C   UNL A   1      39.658  27.893  29.843  1.00  0.00     0.010 A 
ATOM     35  C   UNL A   1      40.336  28.372  28.733  1.00  0.00    -0.014 A 
BRANCH  35  36
ATOM     36  C   UNL A   1      41.739  28.003  28.629  1.00  0.00     0.031 A 
ATOM     37  C   UNL A   1      41.971  26.759  27.856  1.00  0.00     0.074 A 
ATOM     38  C   UNL A   1      42.733  28.856  28.969  1.00  0.00     0.049 A 
ATOM     39  N   UNL A   1      42.320  25.604  28.314  1.00  0.00    -0.248 NA
ATOM     40  C   UNL A   1      41.592  26.742  26.432  1.00  0.00     0.031 C 
ATOM     41  C   UNL A   1      42.622  30.253  29.419  1.00  0.00     0.029 A 
ATOM     42  N   UNL A   1      44.080  28.685  28.889  1.00  0.00    -0.354 N 
ATOM     43  C   UNL A   1      42.461  24.787  27.197  1.00  0.00     0.074 A 
ATOM     44  C   UNL A   1      41.775  25.456  26.125  1.00  0.00     0.031 C 
ATOM     45  C   UNL A   1      43.827  30.858  29.348  1.00  0.00     0.029 A 
ATOM     46  C   UNL A   1      44.823  29.855  29.032  1.00  0.00     0.049 A 
ATOM     47  H   UNL A   1      44.497  27.806  28.741  1.00  0.00     0.167 HD
ATOM     48  C   UNL A   1      43.397  23.797  27.182  1.00  0.00     0.037 A 
ATOM     49  C   UNL A   1      46.167  29.986  28.897  1.00  0.00     0.037 A 
ATOM     50  C   UNL A   1      43.882  23.542  28.519  1.00  0.00     0.049 A 
ATOM     51  C   UNL A   1      46.749  28.631  29.038  1.00  0.00     0.074 A 
ATOM     52  C   UNL A   1      43.322  23.125  29.710  1.00  0.00     0.029 A 
ATOM     53  N   UNL A   1      45.084  24.118  28.847  1.00  0.00    -0.354 N 
ATOM     54  N   UNL A   1      46.715  27.940  30.144  1.00  0.00    -0.248 NA
ATOM     55  C   UNL A   1      46.949  27.856  27.826  1.00  0.00     0.031 C 
ATOM     56  C   UNL A   1      44.005  23.865  30.722  1.00  0.00     0.029 A 
ATOM     57  C   UNL A   1      44.998  24.634  30.112  1.00  0.00     0.049 A 
ATOM     58  H   UNL A   1      45.878  24.155  28.267  1.00  0.00     0.167 HD
ATOM     59  C   UNL A   1      46.439  26.641  29.741  1.00  0.00     0.074 A 
ATOM     60  C   UNL A   1      46.698  26.634  28.303  1.00  0.00     0.031 C 
ATOM     61  C   UNL A   1      45.746  25.791  30.557  1.00  0.00     0.037 A 
BRANCH  48  62
ATOM     62  C   UNL A   1      44.204  23.393  25.963  1.00  0.00     0.057 A 
ATOM     63  C   UNL A   1      44.284  22.025  25.634  1.00  0.00     0.134 A 
ATOM     64  C   UNL A   1      45.137  24.216  25.300  1.00  0.00     0.134 A 
ATOM     65  F   UNL A   1      43.455  21.133  26.195  1.00  0.00    -0.206 F 
ATOM     66  C   UNL A   1      45.276  21.509  24.791  1.00  0.00     0.040 A 
ATOM     67  C   UNL A   1      46.100  23.716  24.417  1.00  0.00     0.040 A 
ATOM     68  F   UNL A   1      45.246  25.528  25.532  1.00  0.00    -0.206 F 
ATOM     69  C   UNL A   1      46.197  22.355  24.188  1.00  0.00     0.006 A 
ENDBRANCH  48  62
BRANCH  49  70
ATOM     70  C   UNL A   1      46.929  31.123  28.333  1.00  0.00     0.057 A 
ATOM     71  C   UNL A   1      46.719  31.569  27.020  1.00  0.00     0.134 A 
ATOM     72  C   UNL A   1      47.674  31.981  29.163  1.00  0.00     0.134 A 
ATOM     73  F   UNL A   1      45.978  30.845  26.167  1.00  0.00    -0.206 F 
ATOM     74  C   UNL A   1      47.205  32.803  26.563  1.00  0.00     0.040 A 
ATOM     75  C   UNL A   1      48.167  33.213  28.719  1.00  0.00     0.040 A 
ATOM     76  F   UNL A   1      47.863  31.692  30.458  1.00  0.00    -0.206 F 
ATOM     77  C   UNL A   1      47.924  33.634  27.418  1.00  0.00     0.006 A 
ENDBRANCH  49  70
BRANCH  61  78
ATOM     78  C   UNL A   1      45.572  26.192  32.001  1.00  0.00     0.057 A 
ATOM     79  C   UNL A   1      44.427  26.809  32.528  1.00  0.00     0.134 A 
ATOM     80  C   UNL A   1      46.556  25.808  32.918  1.00  0.00     0.134 A 
ATOM     81  F   UNL A   1      43.391  27.136  31.748  1.00  0.00    -0.206 F 
ATOM     82  C   UNL A   1      44.287  27.062  33.898  1.00  0.00     0.040 A 
ATOM     83  C   UNL A   1      46.414  26.024  34.290  1.00  0.00     0.040 A 
ATOM     84  F   UNL A   1      47.657  25.167  32.495  1.00  0.00    -0.206 F 
ATOM     85  C   UNL A   1      45.281  26.661  34.785  1.00  0.00     0.006 A 
ENDBRANCH  61  78
ENDBRANCH  35  36
ENDBRANCH  27  30
ENDBRANCH  25  26
ENDBRANCH  24  25
ENDBRANCH   1  24
TORSDOF 15
ENDMDL
MODEL 2
REMARK VINA RESULT:     -11.4      2.579      7.406
REMARK SMILES CCCc1c(C(=O)NCCCCNC(=O)c2ccc(-c3c4nc(c(-c5c(F)cccc5F)c5ccc([nH]5)c(-c5c(F)cccc5F)c5nc(c(-c6c(F)cccc6F)c6ccc3[nH]6)C=C5)C=C4)cc2)nnn1-c1ccccc1[N+](=O)[O-]
REMARK SMILES IDX 10 1 9 2 8 3 6 4 7 5 5 7 4 8 72 9 70 10 71 11 3 12 2 13 1 14
REMARK SMILES IDX 73 15 74 16 78 17 75 18 77 19 76 20 79 21 80 22 81 23 11 24
REMARK SMILES IDX 12 25 13 26 14 27 15 29 16 30 17 31 69 32 18 33 68 34 19 35
REMARK SMILES IDX 20 36 21 37 62 38 22 39 67 40 61 41 63 42 23 43 66 44 60 45
REMARK SMILES IDX 59 46 24 48 50 49 33 50 49 51 34 52 37 53 48 54 64 55 35 56
REMARK SMILES IDX 36 57 47 59 65 60 38 61 25 62 26 63 31 64 27 65 28 66 30 67
REMARK SMILES IDX 32 68 29 69 51 70 52 71 57 72 53 73 54 74 56 75 58 76 55 77
REMARK SMILES IDX 39 78 40 79 45 80 41 81 42 82 44 83 46 84 43 85
REMARK H PARENT 8 6 13 28 63 47 37 58
REMARK Flexibility Score: inf
ROOT
ATOM      1  C   UNL A   1      36.394  21.141  24.812  1.00  0.00     0.023 C 
ENDROOT
BRANCH   1   2
ATOM      2  C   UNL A   1      35.482  21.348  26.025  1.00  0.00     0.116 C 
BRANCH   2   3
ATOM      3  N   UNL A   1      34.173  20.801  25.804  1.00  0.00    -0.351 N 
ATOM      4  C   UNL A   1      32.919  21.346  25.751  1.00  0.00     0.273 C 
ATOM      5  O   UNL A   1      32.040  20.515  25.493  1.00  0.00    -0.267 OA
ATOM      6  H   UNL A   1      34.180  19.827  25.660  1.00  0.00     0.163 HD
BRANCH   4   7
ATOM      7  C   UNL A   1      32.566  22.766  25.929  1.00  0.00     0.174 A 
ATOM      8  C   UNL A   1      32.982  24.016  25.445  1.00  0.00     0.078 A 
ATOM      9  N   UNL A   1      32.083  24.897  26.048  1.00  0.00    -0.210 N 
ATOM     10  N   UNL A   1      31.604  23.003  26.906  1.00  0.00    -0.124 NA
ATOM     11  N   UNL A   1      31.397  24.296  27.024  1.00  0.00    -0.061 NA
BRANCH   8  12
ATOM     12  C   UNL A   1      34.114  24.544  24.608  1.00  0.00     0.059 C 
BRANCH  12  13
ATOM     13  C   UNL A   1      33.871  24.532  23.092  1.00  0.00     0.003 C 
ATOM     14  C   UNL A   1      33.688  23.145  22.493  1.00  0.00     0.004 C 
ENDBRANCH  12  13
ENDBRANCH   8  12
BRANCH   9  15
ATOM     15  C   UNL A   1      32.032  26.295  25.930  1.00  0.00     0.144 A 
ATOM     16  C   UNL A   1      32.939  27.039  26.703  1.00  0.00     0.036 A 
ATOM     17  C   UNL A   1      31.174  26.935  25.023  1.00  0.00     0.294 A 
ATOM     18  C   UNL A   1      33.039  28.417  26.513  1.00  0.00     0.003 A 
ATOM     19  C   UNL A   1      31.285  28.325  24.846  1.00  0.00     0.088 A 
ATOM     20  C   UNL A   1      32.228  29.055  25.576  1.00  0.00     0.007 A 
BRANCH  17  21
ATOM     21  N   UNL A   1      30.187  26.210  24.201  1.00  0.00     0.065 N 
ATOM     22  O   UNL A   1      30.614  25.589  23.217  1.00  0.00    -0.258 OA
ATOM     23  O   UNL A   1      29.001  26.228  24.543  1.00  0.00    -0.258 OA
ENDBRANCH  17  21
ENDBRANCH   9  15
ENDBRANCH   4   7
ENDBRANCH   2   3
ENDBRANCH   1   2
BRANCH   1  24
ATOM     24  C   UNL A   1      37.452  20.036  24.957  1.00  0.00     0.023 C 
BRANCH  24  25
ATOM     25  C   UNL A   1      38.810  20.507  25.467  1.00  0.00     0.116 C 
BRANCH  25  26
ATOM     26  N   UNL A   1      39.762  19.413  25.695  1.00  0.00    -0.352 N 
ATOM     27  C   UNL A   1      41.125  19.500  25.940  1.00  0.00     0.251 C 
ATOM     28  H   UNL A   1      39.385  18.503  25.669  1.00  0.00     0.163 HD
ATOM     29  O   UNL A   1      41.878  18.569  25.717  1.00  0.00    -0.269 OA
BRANCH  27  30
ATOM     30  C   UNL A   1      41.634  20.751  26.527  1.00  0.00     0.039 A 
ATOM     31  C   UNL A   1      42.274  21.743  25.779  1.00  0.00     0.014 A 
ATOM     32  C   UNL A   1      41.376  20.928  27.880  1.00  0.00     0.014 A 
ATOM     33  C   UNL A   1      42.581  22.950  26.406  1.00  0.00     0.010 A 
ATOM     34  C   UNL A   1      41.456  22.179  28.415  1.00  0.00     0.010 A 
ATOM     35  C   UNL A   1      42.152  23.159  27.727  1.00  0.00    -0.014 A 
BRANCH  35  36
ATOM     36  C   UNL A   1      42.313  24.434  28.411  1.00  0.00     0.031 A 
ATOM     37  C   UNL A   1      41.181  25.368  28.201  1.00  0.00     0.074 A 
ATOM     38  C   UNL A   1      43.264  24.627  29.353  1.00  0.00     0.049 A 
ATOM     39  N   UNL A   1      41.170  26.438  27.479  1.00  0.00    -0.248 NA
ATOM     40  C   UNL A   1      39.851  24.974  28.697  1.00  0.00     0.031 C 
ATOM     41  C   UNL A   1      44.224  23.652  29.894  1.00  0.00     0.029 A 
ATOM     42  N   UNL A   1      43.517  25.730  30.109  1.00  0.00    -0.354 N 
ATOM     43  C   UNL A   1      39.904  26.990  27.650  1.00  0.00     0.074 A 
ATOM     44  C   UNL A   1      39.082  25.942  28.191  1.00  0.00     0.031 C 
ATOM     45  C   UNL A   1      44.779  24.131  31.028  1.00  0.00     0.029 A 
ATOM     46  C   UNL A   1      44.366  25.510  31.192  1.00  0.00     0.049 A 
ATOM     47  H   UNL A   1      43.130  26.613  29.908  1.00  0.00     0.167 HD
ATOM     48  C   UNL A   1      39.735  28.342  27.629  1.00  0.00     0.037 A 
ATOM     49  C   UNL A   1      44.701  26.403  32.156  1.00  0.00     0.037 A 
ATOM     50  C   UNL A   1      40.904  28.988  27.078  1.00  0.00     0.049 A 
ATOM     51  C   UNL A   1      44.401  27.751  31.620  1.00  0.00     0.074 A 
ATOM     52  C   UNL A   1      41.572  28.957  25.870  1.00  0.00     0.029 A 
ATOM     53  N   UNL A   1      41.785  29.520  27.986  1.00  0.00    -0.354 N 
ATOM     54  N   UNL A   1      45.032  28.284  30.610  1.00  0.00    -0.248 NA
ATOM     55  C   UNL A   1      43.090  28.309  31.901  1.00  0.00     0.031 C 
ATOM     56  C   UNL A   1      42.956  29.057  26.208  1.00  0.00     0.029 A 
ATOM     57  C   UNL A   1      43.062  29.223  27.590  1.00  0.00     0.049 A 
ATOM     58  H   UNL A   1      41.540  30.031  28.790  1.00  0.00     0.167 HD
ATOM     59  C   UNL A   1      44.042  28.913  29.868  1.00  0.00     0.074 A 
ATOM     60  C   UNL A   1      42.890  28.983  30.765  1.00  0.00     0.031 C 
ATOM     61  C   UNL A   1      44.164  29.041  28.512  1.00  0.00     0.037 A 
BRANCH  48  62
ATOM     62  C   UNL A   1      38.757  29.101  28.505  1.00  0.00     0.057 A 
ATOM     63  C   UNL A   1      38.800  28.891  29.898  1.00  0.00     0.134 A 
ATOM     64  C   UNL A   1      37.602  29.766  28.044  1.00  0.00     0.134 A 
ATOM     65  F   UNL A   1      39.843  28.268  30.467  1.00  0.00    -0.206 F 
ATOM     66  C   UNL A   1      37.736  29.225  30.745  1.00  0.00     0.040 A 
ATOM     67  C   UNL A   1      36.557  30.150  28.889  1.00  0.00     0.040 A 
ATOM     68  F   UNL A   1      37.364  29.998  26.749  1.00  0.00    -0.206 F 
ATOM     69  C   UNL A   1      36.603  29.847  30.238  1.00  0.00     0.006 A 
ENDBRANCH  48  62
BRANCH  49  70
ATOM     70  C   UNL A   1      44.939  26.156  33.597  1.00  0.00     0.057 A 
ATOM     71  C   UNL A   1      43.884  25.879  34.479  1.00  0.00     0.134 A 
ATOM     72  C   UNL A   1      46.233  25.902  34.085  1.00  0.00     0.134 A 
ATOM     73  F   UNL A   1      42.611  26.041  34.087  1.00  0.00    -0.206 F 
ATOM     74  C   UNL A   1      44.102  25.363  35.765  1.00  0.00     0.040 A 
ATOM     75  C   UNL A   1      46.464  25.390  35.366  1.00  0.00     0.040 A 
ATOM     76  F   UNL A   1      47.308  26.053  33.298  1.00  0.00    -0.206 F 
ATOM     77  C   UNL A   1      45.396  25.108  36.209  1.00  0.00     0.006 A 
ENDBRANCH  49  70
BRANCH  61  78
ATOM     78  C   UNL A   1      45.516  28.772  27.902  1.00  0.00     0.057 A 
ATOM     79  C   UNL A   1      46.588  29.679  27.896  1.00  0.00     0.134 A 
ATOM     80  C   UNL A   1      45.783  27.485  27.424  1.00  0.00     0.134 A 
ATOM     81  F   UNL A   1      46.462  30.906  28.412  1.00  0.00    -0.206 F 
ATOM     82  C   UNL A   1      47.852  29.330  27.406  1.00  0.00     0.040 A 
ATOM     83  C   UNL A   1      47.047  27.113  26.963  1.00  0.00     0.040 A 
ATOM     84  F   UNL A   1      44.823  26.547  27.443  1.00  0.00    -0.206 F 
ATOM     85  C   UNL A   1      48.086  28.039  26.943  1.00  0.00     0.006 A 
ENDBRANCH  61  78
ENDBRANCH  35  36
ENDBRANCH  27  30
ENDBRANCH  25  26
ENDBRANCH  24  25
ENDBRANCH   1  24
TORSDOF 15
ENDMDL
MODEL 3
REMARK VINA RESULT:     -11.3      3.913      5.394
REMARK SMILES CCCc1c(C(=O)NCCCCNC(=O)c2ccc(-c3c4nc(c(-c5c(F)cccc5F)c5ccc([nH]5)c(-c5c(F)cccc5F)c5nc(c(-c6c(F)cccc6F)c6ccc3[nH]6)C=C5)C=C4)cc2)nnn1-c1ccccc1[N+](=O)[O-]
REMARK SMILES IDX 10 1 9 2 8 3 6 4 7 5 5 7 4 8 72 9 70 10 71 11 3 12 2 13 1 14
REMARK SMILES IDX 73 15 74 16 78 17 75 18 77 19 76 20 79 21 80 22 81 23 11 24
REMARK SMILES IDX 12 25 13 26 14 27 15 29 16 30 17 31 69 32 18 33 68 34 19 35
REMARK SMILES IDX 20 36 21 37 62 38 22 39 67 40 61 41 63 42 23 43 66 44 60 45
REMARK SMILES IDX 59 46 24 48 50 49 33 50 49 51 34 52 37 53 48 54 64 55 35 56
REMARK SMILES IDX 36 57 47 59 65 60 38 61 25 62 26 63 31 64 27 65 28 66 30 67
REMARK SMILES IDX 32 68 29 69 51 70 52 71 57 72 53 73 54 74 56 75 58 76 55 77
REMARK SMILES IDX 39 78 40 79 45 80 41 81 42 82 44 83 46 84 43 85
REMARK H PARENT 8 6 13 28 63 47 37 58
REMARK Flexibility Score: inf
ROOT
ATOM      1  C   UNL A   1      31.521  30.316  26.223  1.00  0.00     0.023 C 
ENDROOT
BRANCH   1   2
ATOM      2  C   UNL A   1      32.938  29.758  26.059  1.00  0.00     0.116 C 
BRANCH   2   3
ATOM      3  N   UNL A   1      33.322  29.684  24.679  1.00  0.00    -0.351 N 
ATOM      4  C   UNL A   1      33.516  28.646  23.807  1.00  0.00     0.273 C 
ATOM      5  O   UNL A   1      33.813  29.020  22.666  1.00  0.00    -0.267 OA
ATOM      6  H   UNL A   1      33.480  30.567  24.273  1.00  0.00     0.163 HD
BRANCH   4   7
ATOM      7  C   UNL A   1      33.368  27.209  24.100  1.00  0.00     0.174 A 
ATOM      8  C   UNL A   1      32.507  26.155  23.759  1.00  0.00     0.078 A 
ATOM      9  N   UNL A   1      33.091  25.058  24.395  1.00  0.00    -0.210 N 
ATOM     10  N   UNL A   1      34.265  26.718  25.043  1.00  0.00    -0.124 NA
ATOM     11  N   UNL A   1      34.020  25.446  25.272  1.00  0.00    -0.061 NA
BRANCH   8  12
ATOM     12  C   UNL A   1      31.198  26.002  23.036  1.00  0.00     0.059 C 
BRANCH  12  13
ATOM     13  C   UNL A   1      30.317  27.259  22.998  1.00  0.00     0.003 C 
ATOM     14  C   UNL A   1      28.947  27.089  23.639  1.00  0.00     0.004 C 
ENDBRANCH  12  13
ENDBRANCH   8  12
BRANCH   9  15
ATOM     15  C   UNL A   1      32.645  23.728  24.408  1.00  0.00     0.144 A 
ATOM     16  C   UNL A   1      33.101  22.886  23.380  1.00  0.00     0.036 A 
ATOM     17  C   UNL A   1      31.843  23.221  25.441  1.00  0.00     0.294 A 
ATOM     18  C   UNL A   1      32.817  21.522  23.426  1.00  0.00     0.003 A 
ATOM     19  C   UNL A   1      31.563  21.844  25.473  1.00  0.00     0.088 A 
ATOM     20  C   UNL A   1      32.065  21.000  24.479  1.00  0.00     0.007 A 
BRANCH  17  21
ATOM     21  N   UNL A   1      31.318  24.059  26.535  1.00  0.00     0.065 N 
ATOM     22  O   UNL A   1      30.393  24.838  26.261  1.00  0.00    -0.258 OA
ATOM     23  O   UNL A   1      31.795  23.927  27.667  1.00  0.00    -0.258 OA
ENDBRANCH  17  21
ENDBRANCH   9  15
ENDBRANCH   4   7
ENDBRANCH   2   3
ENDBRANCH   1   2
BRANCH   1  24
ATOM     24  C   UNL A   1      31.428  31.825  26.492  1.00  0.00     0.023 C 
BRANCH  24  25
ATOM     25  C   UNL A   1      32.610  32.419  27.249  1.00  0.00     0.116 C 
BRANCH  25  26
ATOM     26  N   UNL A   1      32.427  33.831  27.608  1.00  0.00    -0.352 N 
ATOM     27  C   UNL A   1      33.045  34.544  28.627  1.00  0.00     0.251 C 
ATOM     28  H   UNL A   1      31.785  34.335  27.057  1.00  0.00     0.163 HD
ATOM     29  O   UNL A   1      32.551  35.555  29.093  1.00  0.00    -0.269 OA
BRANCH  27  30
ATOM     30  C   UNL A   1      34.352  34.061  29.101  1.00  0.00     0.039 A 
ATOM     31  C   UNL A   1      34.510  33.290  30.256  1.00  0.00     0.014 A 
ATOM     32  C   UNL A   1      35.436  34.360  28.285  1.00  0.00     0.014 A 
ATOM     33  C   UNL A   1      35.771  32.762  30.531  1.00  0.00     0.010 A 
ATOM     34  C   UNL A   1      36.590  33.650  28.425  1.00  0.00     0.010 A 
ATOM     35  C   UNL A   1      36.803  32.940  29.595  1.00  0.00    -0.014 A 
BRANCH  35  36
ATOM     36  C   UNL A   1      38.108  32.313  29.738  1.00  0.00     0.031 A 
ATOM     37  C   UNL A   1      38.143  30.902  29.282  1.00  0.00     0.074 A 
ATOM     38  C   UNL A   1      39.224  33.030  30.003  1.00  0.00     0.049 A 
ATOM     39  N   UNL A   1      38.218  29.842  30.015  1.00  0.00    -0.248 NA
ATOM     40  C   UNL A   1      37.876  30.623  27.860  1.00  0.00     0.031 C 
ATOM     41  C   UNL A   1      39.362  34.490  30.128  1.00  0.00     0.029 A 
ATOM     42  N   UNL A   1      40.512  32.607  30.122  1.00  0.00    -0.354 N 
ATOM     43  C   UNL A   1      38.277  28.776  29.122  1.00  0.00     0.074 A 
ATOM     44  C   UNL A   1      37.820  29.289  27.859  1.00  0.00     0.031 C 
ATOM     45  C   UNL A   1      40.666  34.837  30.072  1.00  0.00     0.029 A 
ATOM     46  C   UNL A   1      41.462  33.628  30.098  1.00  0.00     0.049 A 
ATOM     47  H   UNL A   1      40.754  31.658  30.215  1.00  0.00     0.167 HD
ATOM     48  C   UNL A   1      38.994  27.659  29.430  1.00  0.00     0.037 A 
ATOM     49  C   UNL A   1      42.810  33.482  30.098  1.00  0.00     0.037 A 
ATOM     50  C   UNL A   1      39.317  27.640  30.838  1.00  0.00     0.049 A 
ATOM     51  C   UNL A   1      43.098  32.115  30.593  1.00  0.00     0.074 A 
ATOM     52  C   UNL A   1      38.596  27.617  32.016  1.00  0.00     0.029 A 
ATOM     53  N   UNL A   1      40.582  28.052  31.175  1.00  0.00    -0.354 N 
ATOM     54  N   UNL A   1      42.843  31.718  31.809  1.00  0.00    -0.248 NA
ATOM     55  C   UNL A   1      43.228  31.057  29.606  1.00  0.00     0.031 C 
ATOM     56  C   UNL A   1      39.336  28.438  32.920  1.00  0.00     0.029 A 
ATOM     57  C   UNL A   1      40.506  28.855  32.281  1.00  0.00     0.049 A 
ATOM     58  H   UNL A   1      41.408  27.811  30.699  1.00  0.00     0.167 HD
ATOM     59  C   UNL A   1      42.343  30.432  31.663  1.00  0.00     0.074 A 
ATOM     60  C   UNL A   1      42.703  30.044  30.300  1.00  0.00     0.031 C 
ATOM     61  C   UNL A   1      41.435  29.931  32.554  1.00  0.00     0.037 A 
BRANCH  48  62
ATOM     62  C   UNL A   1      39.792  26.846  28.430  1.00  0.00     0.057 A 
ATOM     63  C   UNL A   1      40.700  27.518  27.589  1.00  0.00     0.134 A 
ATOM     64  C   UNL A   1      39.497  25.522  28.041  1.00  0.00     0.134 A 
ATOM     65  F   UNL A   1      41.065  28.784  27.843  1.00  0.00    -0.206 F 
ATOM     66  C   UNL A   1      41.194  26.954  26.406  1.00  0.00     0.040 A 
ATOM     67  C   UNL A   1      40.025  24.932  26.889  1.00  0.00     0.040 A 
ATOM     68  F   UNL A   1      38.613  24.754  28.686  1.00  0.00    -0.206 F 
ATOM     69  C   UNL A   1      40.846  25.659  26.046  1.00  0.00     0.006 A 
ENDBRANCH  48  62
BRANCH  49  70
ATOM     70  C   UNL A   1      43.825  34.302  29.398  1.00  0.00     0.057 A 
ATOM     71  C   UNL A   1      44.051  34.173  28.019  1.00  0.00     0.134 A 
ATOM     72  C   UNL A   1      44.392  35.434  30.011  1.00  0.00     0.134 A 
ATOM     73  F   UNL A   1      43.508  33.154  27.335  1.00  0.00    -0.206 F 
ATOM     74  C   UNL A   1      44.783  35.121  27.290  1.00  0.00     0.040 A 
ATOM     75  C   UNL A   1      45.127  36.386  29.296  1.00  0.00     0.040 A 
ATOM     76  F   UNL A   1      44.169  35.699  31.306  1.00  0.00    -0.206 F 
ATOM     77  C   UNL A   1      45.316  36.238  27.928  1.00  0.00     0.006 A 
ENDBRANCH  49  70
BRANCH  61  78
ATOM     78  C   UNL A   1      41.238  30.681  33.848  1.00  0.00     0.057 A 
ATOM     79  C   UNL A   1      40.261  31.666  34.062  1.00  0.00     0.134 A 
ATOM     80  C   UNL A   1      41.983  30.285  34.964  1.00  0.00     0.134 A 
ATOM     81  F   UNL A   1      39.436  32.052  33.082  1.00  0.00    -0.206 F 
ATOM     82  C   UNL A   1      40.061  32.251  35.318  1.00  0.00     0.040 A 
ATOM     83  C   UNL A   1      41.772  30.836  36.229  1.00  0.00     0.040 A 
ATOM     84  F   UNL A   1      42.902  29.313  34.849  1.00  0.00    -0.206 F 
ATOM     85  C   UNL A   1      40.815  31.830  36.409  1.00  0.00     0.006 A 
ENDBRANCH  61  78
ENDBRANCH  35  36
ENDBRANCH  27  30
ENDBRANCH  25  26
ENDBRANCH  24  25
ENDBRANCH   1  24
TORSDOF 15
ENDMDL
