MODEL 1
REMARK VINA RESULT:     -11.5      0.000      0.000
REMARK SMILES CC1(C)C[C@@H]([NH2+]C[C@@H]2CCCC[C@@H]2C(=O)NCCCCNC(=O)c2ccc(-c3c4nc(c(-c5c(F)cccc5F)c5ccc([nH]5)c(-c5c(F)cccc5F)c5nc(c(-c6c(F)cccc6F)c6ccc3[nH]6)C=C5)C=C4)cc2)C(C)(C)O1
REMARK SMILES IDX 18 1 17 2 16 3 14 4 15 5 13 7 8 8 9 9 10 10 12 11 11 12 7 13
REMARK SMILES IDX 6 14 5 17 1 18 2 19 3 20 4 21 81 22 78 23 79 24 80 25 19 26
REMARK SMILES IDX 20 27 21 28 22 29 23 31 24 32 25 33 77 34 26 35 76 36 27 37
REMARK SMILES IDX 28 38 29 39 70 40 30 41 75 42 69 43 71 44 31 45 74 46 68 47
REMARK SMILES IDX 67 48 32 50 58 51 41 52 57 53 42 54 45 55 56 56 72 57 43 58
REMARK SMILES IDX 44 59 55 61 73 62 46 63 33 64 34 65 39 66 35 67 36 68 38 69
REMARK SMILES IDX 40 70 37 71 59 72 60 73 65 74 61 75 62 76 64 77 66 78 63 79
REMARK SMILES IDX 47 80 48 81 53 82 49 83 50 84 52 85 54 86 51 87
REMARK H PARENT 16 6 6 15 6 16 21 30 71 49 45 60
REMARK Flexibility Score: inf
ROOT
ATOM      1  C   UNL A   1      37.377  21.124  24.400  1.00  0.00     0.023 C 
ENDROOT
BRANCH   1   2
ATOM      2  C   UNL A   1      37.119  22.248  25.404  1.00  0.00     0.116 C 
BRANCH   2   3
ATOM      3  N   UNL A   1      36.121  21.851  26.380  1.00  0.00    -0.356 N 
ATOM      4  C   UNL A   1      34.763  21.972  26.317  1.00  0.00     0.223 C 
ATOM      5  O   UNL A   1      34.111  21.774  27.340  1.00  0.00    -0.275 OA
ATOM      6  H   UNL A   1      36.473  21.435  27.202  1.00  0.00     0.163 HD
BRANCH   4   7
ATOM      7  C   UNL A   1      34.130  22.279  24.966  1.00  0.00     0.087 C 
ATOM      8  C   UNL A   1      33.401  23.630  24.873  1.00  0.00     0.056 C 
ATOM      9  C   UNL A   1      32.110  23.693  25.698  1.00  0.00     0.010 C 
ATOM     10  C   UNL A   1      31.164  22.569  25.290  1.00  0.00     0.001 C 
ATOM     11  C   UNL A   1      33.154  21.143  24.594  1.00  0.00     0.014 C 
ATOM     12  C   UNL A   1      31.837  21.203  25.376  1.00  0.00     0.001 C 
BRANCH   8  13
ATOM     13  C   UNL A   1      34.287  24.874  25.083  1.00  0.00     0.265 C 
BRANCH  13  14
ATOM     14  N   UNL A   1      34.030  25.956  24.116  1.00  0.00    -0.341 N 
ATOM     15  H   UNL A   1      34.891  26.127  23.597  1.00  0.00     0.346 HD
ATOM     16  H   UNL A   1      33.259  25.635  23.530  1.00  0.00     0.346 HD
BRANCH  14  17
ATOM     17  C   UNL A   1      33.591  27.235  24.707  1.00  0.00     0.217 C 
ATOM     18  C   UNL A   1      31.497  28.203  27.626  1.00  0.00     0.042 C 
ATOM     19  C   UNL A   1      32.419  28.420  26.428  1.00  0.00     0.069 C 
ATOM     20  C   UNL A   1      33.256  29.686  26.632  1.00  0.00     0.042 C 
ATOM     21  C   UNL A   1      33.287  27.197  26.196  1.00  0.00     0.103 C 
ATOM     22  O   UNL A   1      31.640  28.573  25.234  1.00  0.00    -0.363 OA
ATOM     23  C   UNL A   1      32.252  27.814  24.156  1.00  0.00     0.115 C 
ATOM     24  C   UNL A   1      31.229  26.745  23.755  1.00  0.00     0.048 C 
ATOM     25  C   UNL A   1      32.483  28.770  22.985  1.00  0.00     0.048 C 
ENDBRANCH  14  17
ENDBRANCH  13  14
ENDBRANCH   8  13
ENDBRANCH   4   7
ENDBRANCH   2   3
ENDBRANCH   1   2
BRANCH   1  26
ATOM     26  C   UNL A   1      38.058  19.890  25.001  1.00  0.00     0.023 C 
BRANCH  26  27
ATOM     27  C   UNL A   1      39.176  20.187  25.993  1.00  0.00     0.116 C 
BRANCH  27  28
ATOM     28  N   UNL A   1      40.268  19.229  25.923  1.00  0.00    -0.352 N 
ATOM     29  C   UNL A   1      41.608  19.457  26.127  1.00  0.00     0.251 C 
ATOM     30  H   UNL A   1      40.016  18.304  25.702  1.00  0.00     0.163 HD
ATOM     31  O   UNL A   1      42.432  18.572  25.919  1.00  0.00    -0.269 OA
BRANCH  29  32
ATOM     32  C   UNL A   1      42.048  20.796  26.566  1.00  0.00     0.039 A 
ATOM     33  C   UNL A   1      42.412  21.738  25.602  1.00  0.00     0.014 A 
ATOM     34  C   UNL A   1      42.056  21.129  27.923  1.00  0.00     0.014 A 
ATOM     35  C   UNL A   1      42.723  23.042  25.996  1.00  0.00     0.010 A 
ATOM     36  C   UNL A   1      42.298  22.444  28.306  1.00  0.00     0.010 A 
ATOM     37  C   UNL A   1      42.634  23.413  27.346  1.00  0.00    -0.014 A 
BRANCH  37  38
ATOM     38  C   UNL A   1      42.905  24.803  27.790  1.00  0.00     0.031 A 
ATOM     39  C   UNL A   1      44.317  25.232  28.071  1.00  0.00     0.074 A 
ATOM     40  C   UNL A   1      41.882  25.652  28.011  1.00  0.00     0.049 A 
ATOM     41  N   UNL A   1      44.758  26.354  28.583  1.00  0.00    -0.248 NA
ATOM     42  C   UNL A   1      45.376  24.259  27.759  1.00  0.00     0.031 C 
ATOM     43  C   UNL A   1      40.466  25.349  27.803  1.00  0.00     0.029 A 
ATOM     44  N   UNL A   1      41.881  26.945  28.474  1.00  0.00    -0.354 N 
ATOM     45  C   UNL A   1      46.137  26.215  28.666  1.00  0.00     0.074 A 
ATOM     46  C   UNL A   1      46.456  24.881  28.205  1.00  0.00     0.031 C 
ATOM     47  C   UNL A   1      39.734  26.430  28.120  1.00  0.00     0.029 A 
ATOM     48  C   UNL A   1      40.623  27.486  28.594  1.00  0.00     0.049 A 
ATOM     49  H   UNL A   1      42.702  27.437  28.700  1.00  0.00     0.167 HD
ATOM     50  C   UNL A   1      47.057  27.124  29.067  1.00  0.00     0.037 A 
ATOM     51  C   UNL A   1      40.233  28.693  29.044  1.00  0.00     0.037 A 
ATOM     52  C   UNL A   1      46.739  28.457  29.503  1.00  0.00     0.049 A 
ATOM     53  C   UNL A   1      41.274  29.675  29.511  1.00  0.00     0.074 A 
ATOM     54  C   UNL A   1      47.602  29.462  29.904  1.00  0.00     0.029 A 
ATOM     55  N   UNL A   1      45.455  28.972  29.591  1.00  0.00    -0.354 N 
ATOM     56  N   UNL A   1      42.578  29.543  29.549  1.00  0.00    -0.248 NA
ATOM     57  C   UNL A   1      40.788  30.975  29.996  1.00  0.00     0.031 C 
ATOM     58  C   UNL A   1      46.837  30.577  30.263  1.00  0.00     0.029 A 
ATOM     59  C   UNL A   1      45.502  30.279  30.045  1.00  0.00     0.049 A 
ATOM     60  H   UNL A   1      44.632  28.482  29.363  1.00  0.00     0.167 HD
ATOM     61  C   UNL A   1      43.068  30.754  30.020  1.00  0.00     0.074 A 
ATOM     62  C   UNL A   1      41.923  31.609  30.251  1.00  0.00     0.031 C 
ATOM     63  C   UNL A   1      44.353  31.126  30.241  1.00  0.00     0.037 A 
BRANCH  50  64
ATOM     64  C   UNL A   1      48.497  26.706  29.038  1.00  0.00     0.057 A 
ATOM     65  C   UNL A   1      49.318  26.973  27.933  1.00  0.00     0.134 A 
ATOM     66  C   UNL A   1      49.079  26.057  30.133  1.00  0.00     0.134 A 
ATOM     67  F   UNL A   1      48.817  27.578  26.846  1.00  0.00    -0.206 F 
ATOM     68  C   UNL A   1      50.658  26.588  27.909  1.00  0.00     0.040 A 
ATOM     69  C   UNL A   1      50.427  25.692  30.132  1.00  0.00     0.040 A 
ATOM     70  F   UNL A   1      48.353  25.776  31.225  1.00  0.00    -0.206 F 
ATOM     71  C   UNL A   1      51.219  25.951  29.014  1.00  0.00     0.006 A 
ENDBRANCH  50  64
BRANCH  51  72
ATOM     72  C   UNL A   1      38.794  29.059  29.063  1.00  0.00     0.057 A 
ATOM     73  C   UNL A   1      38.164  29.558  27.916  1.00  0.00     0.134 A 
ATOM     74  C   UNL A   1      38.023  28.952  30.226  1.00  0.00     0.134 A 
ATOM     75  F   UNL A   1      38.856  29.703  26.776  1.00  0.00    -0.206 F 
ATOM     76  C   UNL A   1      36.829  29.962  27.931  1.00  0.00     0.040 A 
ATOM     77  C   UNL A   1      36.679  29.328  30.249  1.00  0.00     0.040 A 
ATOM     78  F   UNL A   1      38.565  28.476  31.357  1.00  0.00    -0.206 F 
ATOM     79  C   UNL A   1      36.081  29.845  29.101  1.00  0.00     0.006 A 
ENDBRANCH  51  72
BRANCH  63  80
ATOM     80  C   UNL A   1      44.596  32.534  30.697  1.00  0.00     0.057 A 
ATOM     81  C   UNL A   1      44.673  32.873  32.053  1.00  0.00     0.134 A 
ATOM     82  C   UNL A   1      44.805  33.554  29.760  1.00  0.00     0.134 A 
ATOM     83  F   UNL A   1      44.469  31.944  32.999  1.00  0.00    -0.206 F 
ATOM     84  C   UNL A   1      44.931  34.182  32.462  1.00  0.00     0.040 A 
ATOM     85  C   UNL A   1      45.089  34.861  30.156  1.00  0.00     0.040 A 
ATOM     86  F   UNL A   1      44.752  33.293  28.445  1.00  0.00    -0.206 F 
ATOM     87  C   UNL A   1      45.148  35.179  31.511  1.00  0.00     0.006 A 
ENDBRANCH  63  80
ENDBRANCH  37  38
ENDBRANCH  29  32
ENDBRANCH  27  28
ENDBRANCH  26  27
ENDBRANCH   1  26
TORSDOF 14
ENDMDL
MODEL 2
REMARK VINA RESULT:     -11.4      0.274      1.327
REMARK SMILES CC1(C)C[C@@H]([NH2+]C[C@@H]2CCCC[C@@H]2C(=O)NCCCCNC(=O)c2ccc(-c3c4nc(c(-c5c(F)cccc5F)c5ccc([nH]5)c(-c5c(F)cccc5F)c5nc(c(-c6c(F)cccc6F)c6ccc3[nH]6)C=C5)C=C4)cc2)C(C)(C)O1
REMARK SMILES IDX 18 1 17 2 16 3 14 4 15 5 13 7 8 8 9 9 10 10 12 11 11 12 7 13
REMARK SMILES IDX 6 14 5 17 1 18 2 19 3 20 4 21 81 22 78 23 79 24 80 25 19 26
REMARK SMILES IDX 20 27 21 28 22 29 23 31 24 32 25 33 77 34 26 35 76 36 27 37
REMARK SMILES IDX 28 38 29 39 70 40 30 41 75 42 69 43 71 44 31 45 74 46 68 47
REMARK SMILES IDX 67 48 32 50 58 51 41 52 57 53 42 54 45 55 56 56 72 57 43 58
REMARK SMILES IDX 44 59 55 61 73 62 46 63 33 64 34 65 39 66 35 67 36 68 38 69
REMARK SMILES IDX 40 70 37 71 59 72 60 73 65 74 61 75 62 76 64 77 66 78 63 79
REMARK SMILES IDX 47 80 48 81 53 82 49 83 50 84 52 85 54 86 51 87
REMARK H PARENT 16 6 6 15 6 16 21 30 71 49 45 60
REMARK Flexibility Score: inf
ROOT
ATOM      1  C   UNL A   1      37.404  21.223  24.459  1.00  0.00     0.023 C 
ENDROOT
BRANCH   1   2
ATOM      2  C   UNL A   1      37.255  22.299  25.535  1.00  0.00     0.116 C 
BRANCH   2   3
ATOM      3  N   UNL A   1      36.196  21.956  26.466  1.00  0.00    -0.356 N 
ATOM      4  C   UNL A   1      34.844  22.053  26.301  1.00  0.00     0.223 C 
ATOM      5  O   UNL A   1      34.125  21.918  27.288  1.00  0.00    -0.275 OA
ATOM      6  H   UNL A   1      36.493  21.604  27.337  1.00  0.00     0.163 HD
BRANCH   4   7
ATOM      7  C   UNL A   1      34.305  22.257  24.891  1.00  0.00     0.087 C 
ATOM      8  C   UNL A   1      33.539  23.570  24.663  1.00  0.00     0.056 C 
ATOM      9  C   UNL A   1      32.188  23.631  25.387  1.00  0.00     0.010 C 
ATOM     10  C   UNL A   1      31.314  22.449  24.981  1.00  0.00     0.001 C 
ATOM     11  C   UNL A   1      33.399  21.064  24.519  1.00  0.00     0.014 C 
ATOM     12  C   UNL A   1      32.026  21.118  25.198  1.00  0.00     0.001 C 
BRANCH   8  13
ATOM     13  C   UNL A   1      34.362  24.858  24.862  1.00  0.00     0.265 C 
BRANCH  13  14
ATOM     14  N   UNL A   1      33.999  25.944  23.935  1.00  0.00    -0.341 N 
ATOM     15  H   UNL A   1      34.803  26.132  23.336  1.00  0.00     0.346 HD
ATOM     16  H   UNL A   1      33.178  25.618  23.424  1.00  0.00     0.346 HD
BRANCH  14  17
ATOM     17  C   UNL A   1      33.603  27.212  24.578  1.00  0.00     0.217 C 
ATOM     18  C   UNL A   1      31.543  28.132  27.537  1.00  0.00     0.042 C 
ATOM     19  C   UNL A   1      32.472  28.365  26.348  1.00  0.00     0.069 C 
ATOM     20  C   UNL A   1      33.352  29.592  26.602  1.00  0.00     0.042 C 
ATOM     21  C   UNL A   1      33.298  27.124  26.065  1.00  0.00     0.103 C 
ATOM     22  O   UNL A   1      31.699  28.593  25.162  1.00  0.00    -0.363 OA
ATOM     23  C   UNL A   1      32.285  27.859  24.053  1.00  0.00     0.115 C 
ATOM     24  C   UNL A   1      31.226  26.843  23.610  1.00  0.00     0.048 C 
ATOM     25  C   UNL A   1      32.548  28.853  22.922  1.00  0.00     0.048 C 
ENDBRANCH  14  17
ENDBRANCH  13  14
ENDBRANCH   8  13
ENDBRANCH   4   7
ENDBRANCH   2   3
ENDBRANCH   1   2
BRANCH   1  26
ATOM     26  C   UNL A   1      38.101  19.946  24.939  1.00  0.00     0.023 C 
BRANCH  26  27
ATOM     27  C   UNL A   1      39.174  20.156  26.001  1.00  0.00     0.116 C 
BRANCH  27  28
ATOM     28  N   UNL A   1      40.274  19.212  25.893  1.00  0.00    -0.352 N 
ATOM     29  C   UNL A   1      41.614  19.447  26.088  1.00  0.00     0.251 C 
ATOM     30  H   UNL A   1      40.029  18.290  25.649  1.00  0.00     0.163 HD
ATOM     31  O   UNL A   1      42.445  18.576  25.847  1.00  0.00    -0.269 OA
BRANCH  29  32
ATOM     32  C   UNL A   1      42.047  20.778  26.560  1.00  0.00     0.039 A 
ATOM     33  C   UNL A   1      42.374  21.755  25.617  1.00  0.00     0.014 A 
ATOM     34  C   UNL A   1      42.082  21.068  27.926  1.00  0.00     0.014 A 
ATOM     35  C   UNL A   1      42.676  23.050  26.046  1.00  0.00     0.010 A 
ATOM     36  C   UNL A   1      42.315  22.374  28.345  1.00  0.00     0.010 A 
ATOM     37  C   UNL A   1      42.614  23.377  27.409  1.00  0.00    -0.014 A 
BRANCH  37  38
ATOM     38  C   UNL A   1      42.877  24.756  27.891  1.00  0.00     0.031 A 
ATOM     39  C   UNL A   1      44.277  25.165  28.249  1.00  0.00     0.074 A 
ATOM     40  C   UNL A   1      41.853  25.612  28.076  1.00  0.00     0.049 A 
ATOM     41  N   UNL A   1      44.703  26.273  28.802  1.00  0.00    -0.248 NA
ATOM     42  C   UNL A   1      45.341  24.186  27.973  1.00  0.00     0.031 C 
ATOM     43  C   UNL A   1      40.445  25.328  27.791  1.00  0.00     0.029 A 
ATOM     44  N   UNL A   1      41.841  26.896  28.561  1.00  0.00    -0.354 N 
ATOM     45  C   UNL A   1      46.074  26.118  28.952  1.00  0.00     0.074 A 
ATOM     46  C   UNL A   1      46.403  24.788  28.484  1.00  0.00     0.031 C 
ATOM     47  C   UNL A   1      39.709  26.411  28.091  1.00  0.00     0.029 A 
ATOM     48  C   UNL A   1      40.584  27.449  28.627  1.00  0.00     0.049 A 
ATOM     49  H   UNL A   1      42.655  27.376  28.836  1.00  0.00     0.167 HD
ATOM     50  C   UNL A   1      46.982  27.009  29.414  1.00  0.00     0.037 A 
ATOM     51  C   UNL A   1      40.184  28.652  29.079  1.00  0.00     0.037 A 
ATOM     52  C   UNL A   1      46.656  28.338  29.858  1.00  0.00     0.049 A 
ATOM     53  C   UNL A   1      41.210  29.615  29.615  1.00  0.00     0.074 A 
ATOM     54  C   UNL A   1      47.508  29.327  30.319  1.00  0.00     0.029 A 
ATOM     55  N   UNL A   1      45.374  28.866  29.891  1.00  0.00    -0.354 N 
ATOM     56  N   UNL A   1      42.509  29.469  29.715  1.00  0.00    -0.248 NA
ATOM     57  C   UNL A   1      40.713  30.912  30.099  1.00  0.00     0.031 C 
ATOM     58  C   UNL A   1      46.738  30.443  30.660  1.00  0.00     0.029 A 
ATOM     59  C   UNL A   1      45.411  30.164  30.370  1.00  0.00     0.049 A 
ATOM     60  H   UNL A   1      44.560  28.388  29.613  1.00  0.00     0.167 HD
ATOM     61  C   UNL A   1      42.987  30.666  30.232  1.00  0.00     0.074 A 
ATOM     62  C   UNL A   1      41.841  31.529  30.421  1.00  0.00     0.031 C 
ATOM     63  C   UNL A   1      44.263  31.019  30.524  1.00  0.00     0.037 A 
BRANCH  50  64
ATOM     64  C   UNL A   1      48.418  26.576  29.450  1.00  0.00     0.057 A 
ATOM     65  C   UNL A   1      48.950  25.885  30.547  1.00  0.00     0.134 A 
ATOM     66  C   UNL A   1      49.270  26.825  28.367  1.00  0.00     0.134 A 
ATOM     67  F   UNL A   1      48.190  25.629  31.622  1.00  0.00    -0.206 F 
ATOM     68  C   UNL A   1      50.284  25.478  30.576  1.00  0.00     0.040 A 
ATOM     69  C   UNL A   1      50.600  26.398  28.374  1.00  0.00     0.040 A 
ATOM     70  F   UNL A   1      48.825  27.477  27.283  1.00  0.00    -0.206 F 
ATOM     71  C   UNL A   1      51.112  25.729  29.484  1.00  0.00     0.006 A 
ENDBRANCH  50  64
BRANCH  51  72
ATOM     72  C   UNL A   1      38.750  29.034  29.033  1.00  0.00     0.057 A 
ATOM     73  C   UNL A   1      38.182  29.556  27.864  1.00  0.00     0.134 A 
ATOM     74  C   UNL A   1      37.922  28.919  30.155  1.00  0.00     0.134 A 
ATOM     75  F   UNL A   1      38.931  29.710  26.761  1.00  0.00    -0.206 F 
ATOM     76  C   UNL A   1      36.852  29.974  27.819  1.00  0.00     0.040 A 
ATOM     77  C   UNL A   1      36.582  29.309  30.117  1.00  0.00     0.040 A 
ATOM     78  F   UNL A   1      38.402  28.420  31.304  1.00  0.00    -0.206 F 
ATOM     79  C   UNL A   1      36.046  29.848  28.949  1.00  0.00     0.006 A 
ENDBRANCH  51  72
BRANCH  63  80
ATOM     80  C   UNL A   1      44.497  32.416  31.016  1.00  0.00     0.057 A 
ATOM     81  C   UNL A   1      44.714  33.486  30.139  1.00  0.00     0.134 A 
ATOM     82  C   UNL A   1      44.454  32.701  32.387  1.00  0.00     0.134 A 
ATOM     83  F   UNL A   1      44.780  33.278  28.815  1.00  0.00    -0.206 F 
ATOM     84  C   UNL A   1      44.898  34.787  30.609  1.00  0.00     0.040 A 
ATOM     85  C   UNL A   1      44.611  34.000  32.868  1.00  0.00     0.040 A 
ATOM     86  F   UNL A   1      44.241  31.721  33.279  1.00  0.00    -0.206 F 
ATOM     87  C   UNL A   1      44.838  35.048  31.978  1.00  0.00     0.006 A 
ENDBRANCH  63  80
ENDBRANCH  37  38
ENDBRANCH  29  32
ENDBRANCH  27  28
ENDBRANCH  26  27
ENDBRANCH   1  26
TORSDOF 14
ENDMDL
MODEL 3
REMARK VINA RESULT:     -11.4      4.257      9.353
REMARK SMILES CC1(C)C[C@@H]([NH2+]C[C@@H]2CCCC[C@@H]2C(=O)NCCCCNC(=O)c2ccc(-c3c4nc(c(-c5c(F)cccc5F)c5ccc([nH]5)c(-c5c(F)cccc5F)c5nc(c(-c6c(F)cccc6F)c6ccc3[nH]6)C=C5)C=C4)cc2)C(C)(C)O1
REMARK SMILES IDX 18 1 17 2 16 3 14 4 15 5 13 7 8 8 9 9 10 10 12 11 11 12 7 13
REMARK SMILES IDX 6 14 5 17 1 18 2 19 3 20 4 21 81 22 78 23 79 24 80 25 19 26
REMARK SMILES IDX 20 27 21 28 22 29 23 31 24 32 25 33 77 34 26 35 76 36 27 37
REMARK SMILES IDX 28 38 29 39 70 40 30 41 75 42 69 43 71 44 31 45 74 46 68 47
REMARK SMILES IDX 67 48 32 50 58 51 41 52 57 53 42 54 45 55 56 56 72 57 43 58
REMARK SMILES IDX 44 59 55 61 73 62 46 63 33 64 34 65 39 66 35 67 36 68 38 69
REMARK SMILES IDX 40 70 37 71 59 72 60 73 65 74 61 75 62 76 64 77 66 78 63 79
REMARK SMILES IDX 47 80 48 81 53 82 49 83 50 84 52 85 54 86 51 87
REMARK H PARENT 16 6 6 15 6 16 21 30 71 49 45 60
REMARK Flexibility Score: inf
ROOT
ATOM      1  C   UNL A   1      31.788  30.386  26.850  1.00  0.00     0.023 C 
ENDROOT
BRANCH   1   2
ATOM      2  C   UNL A   1      33.187  29.858  26.531  1.00  0.00     0.116 C 
BRANCH   2   3
ATOM      3  N   UNL A   1      33.412  29.821  25.098  1.00  0.00    -0.356 N 
ATOM      4  C   UNL A   1      33.026  28.874  24.194  1.00  0.00     0.223 C 
ATOM      5  O   UNL A   1      33.504  28.919  23.062  1.00  0.00    -0.275 OA
ATOM      6  H   UNL A   1      33.912  30.585  24.727  1.00  0.00     0.163 HD
BRANCH   4   7
ATOM      7  C   UNL A   1      31.976  27.857  24.620  1.00  0.00     0.087 C 
ATOM      8  C   UNL A   1      32.449  26.394  24.648  1.00  0.00     0.056 C 
ATOM      9  C   UNL A   1      32.719  25.806  23.258  1.00  0.00     0.010 C 
ATOM     10  C   UNL A   1      31.478  25.928  22.380  1.00  0.00     0.001 C 
ATOM     11  C   UNL A   1      30.747  27.981  23.695  1.00  0.00     0.014 C 
ATOM     12  C   UNL A   1      30.974  27.366  22.310  1.00  0.00     0.001 C 
BRANCH   8  13
ATOM     13  C   UNL A   1      33.588  26.087  25.640  1.00  0.00     0.265 C 
BRANCH  13  14
ATOM     14  N   UNL A   1      33.457  24.781  26.310  1.00  0.00    -0.341 N 
ATOM     15  H   UNL A   1      33.347  24.948  27.310  1.00  0.00     0.346 HD
ATOM     16  H   UNL A   1      32.651  24.323  25.883  1.00  0.00     0.346 HD
BRANCH  14  17
ATOM     17  C   UNL A   1      34.597  23.863  26.122  1.00  0.00     0.217 C 
ATOM     18  C   UNL A   1      36.668  22.797  23.221  1.00  0.00     0.042 C 
ATOM     19  C   UNL A   1      36.247  22.885  24.686  1.00  0.00     0.069 C 
ATOM     20  C   UNL A   1      37.469  22.724  25.595  1.00  0.00     0.042 C 
ATOM     21  C   UNL A   1      35.512  24.186  24.951  1.00  0.00     0.103 C 
ATOM     22  O   UNL A   1      35.310  21.843  24.988  1.00  0.00    -0.363 OA
ATOM     23  C   UNL A   1      34.231  22.381  25.800  1.00  0.00     0.115 C 
ATOM     24  C   UNL A   1      32.953  22.223  24.968  1.00  0.00     0.048 C 
ATOM     25  C   UNL A   1      34.130  21.531  27.066  1.00  0.00     0.048 C 
ENDBRANCH  14  17
ENDBRANCH  13  14
ENDBRANCH   8  13
ENDBRANCH   4   7
ENDBRANCH   2   3
ENDBRANCH   1   2
BRANCH   1  26
ATOM     26  C   UNL A   1      31.645  31.905  26.718  1.00  0.00     0.023 C 
BRANCH  26  27
ATOM     27  C   UNL A   1      32.798  32.715  27.299  1.00  0.00     0.116 C 
BRANCH  27  28
ATOM     28  N   UNL A   1      32.429  34.086  27.613  1.00  0.00    -0.352 N 
ATOM     29  C   UNL A   1      33.002  34.927  28.537  1.00  0.00     0.251 C 
ATOM     30  H   UNL A   1      31.676  34.458  27.100  1.00  0.00     0.163 HD
ATOM     31  O   UNL A   1      32.508  36.024  28.776  1.00  0.00    -0.269 OA
BRANCH  29  32
ATOM     32  C   UNL A   1      34.203  34.476  29.268  1.00  0.00     0.039 A 
ATOM     33  C   UNL A   1      34.047  33.871  30.517  1.00  0.00     0.014 A 
ATOM     34  C   UNL A   1      35.472  34.610  28.697  1.00  0.00     0.014 A 
ATOM     35  C   UNL A   1      35.162  33.339  31.168  1.00  0.00     0.010 A 
ATOM     36  C   UNL A   1      36.569  34.019  29.315  1.00  0.00     0.010 A 
ATOM     37  C   UNL A   1      36.425  33.379  30.556  1.00  0.00    -0.014 A 
BRANCH  37  38
ATOM     38  C   UNL A   1      37.619  32.775  31.198  1.00  0.00     0.031 A 
ATOM     39  C   UNL A   1      38.267  31.568  30.580  1.00  0.00     0.074 A 
ATOM     40  C   UNL A   1      38.075  33.264  32.368  1.00  0.00     0.049 A 
ATOM     41  N   UNL A   1      39.235  30.818  31.042  1.00  0.00    -0.248 NA
ATOM     42  C   UNL A   1      37.736  31.129  29.279  1.00  0.00     0.031 C 
ATOM     43  C   UNL A   1      37.519  34.413  33.084  1.00  0.00     0.029 A 
ATOM     44  N   UNL A   1      39.107  32.842  33.169  1.00  0.00    -0.354 N 
ATOM     45  C   UNL A   1      39.419  29.816  30.099  1.00  0.00     0.074 A 
ATOM     46  C   UNL A   1      38.425  30.019  29.066  1.00  0.00     0.031 C 
ATOM     47  C   UNL A   1      38.226  34.615  34.208  1.00  0.00     0.029 A 
ATOM     48  C   UNL A   1      39.257  33.587  34.314  1.00  0.00     0.049 A 
ATOM     49  H   UNL A   1      39.686  32.078  32.944  1.00  0.00     0.167 HD
ATOM     50  C   UNL A   1      40.345  28.829  30.081  1.00  0.00     0.037 A 
ATOM     51  C   UNL A   1      40.120  33.448  35.338  1.00  0.00     0.037 A 
ATOM     52  C   UNL A   1      41.346  28.642  31.096  1.00  0.00     0.049 A 
ATOM     53  C   UNL A   1      41.122  32.325  35.308  1.00  0.00     0.074 A 
ATOM     54  C   UNL A   1      42.347  27.688  31.156  1.00  0.00     0.029 A 
ATOM     55  N   UNL A   1      41.475  29.429  32.230  1.00  0.00    -0.354 N 
ATOM     56  N   UNL A   1      41.308  31.407  34.390  1.00  0.00    -0.248 NA
ATOM     57  C   UNL A   1      42.036  32.221  36.455  1.00  0.00     0.031 C 
ATOM     58  C   UNL A   1      43.064  27.880  32.341  1.00  0.00     0.029 A 
ATOM     59  C   UNL A   1      42.535  28.980  32.998  1.00  0.00     0.049 A 
ATOM     60  H   UNL A   1      40.899  30.196  32.454  1.00  0.00     0.167 HD
ATOM     61  C   UNL A   1      42.383  30.645  34.829  1.00  0.00     0.074 A 
ATOM     62  C   UNL A   1      42.811  31.210  36.091  1.00  0.00     0.031 C 
ATOM     63  C   UNL A   1      42.966  29.572  34.238  1.00  0.00     0.037 A 
BRANCH  50  64
ATOM     64  C   UNL A   1      40.324  27.884  28.915  1.00  0.00     0.057 A 
ATOM     65  C   UNL A   1      39.546  26.718  28.929  1.00  0.00     0.134 A 
ATOM     66  C   UNL A   1      41.063  28.154  27.758  1.00  0.00     0.134 A 
ATOM     67  F   UNL A   1      38.826  26.394  30.014  1.00  0.00    -0.206 F 
ATOM     68  C   UNL A   1      39.524  25.843  27.843  1.00  0.00     0.040 A 
ATOM     69  C   UNL A   1      41.027  27.300  26.654  1.00  0.00     0.040 A 
ATOM     70  F   UNL A   1      41.825  29.255  27.676  1.00  0.00    -0.206 F 
ATOM     71  C   UNL A   1      40.260  26.136  26.698  1.00  0.00     0.006 A 
ENDBRANCH  50  64
BRANCH  51  72
ATOM     72  C   UNL A   1      40.097  34.403  36.475  1.00  0.00     0.057 A 
ATOM     73  C   UNL A   1      39.286  34.170  37.593  1.00  0.00     0.134 A 
ATOM     74  C   UNL A   1      40.856  35.578  36.464  1.00  0.00     0.134 A 
ATOM     75  F   UNL A   1      38.520  33.070  37.653  1.00  0.00    -0.206 F 
ATOM     76  C   UNL A   1      39.207  35.084  38.644  1.00  0.00     0.040 A 
ATOM     77  C   UNL A   1      40.807  36.489  37.520  1.00  0.00     0.040 A 
ATOM     78  F   UNL A   1      41.659  35.857  35.425  1.00  0.00    -0.206 F 
ATOM     79  C   UNL A   1      39.973  36.247  38.610  1.00  0.00     0.006 A 
ENDBRANCH  51  72
BRANCH  63  80
ATOM     80  C   UNL A   1      44.166  28.980  34.913  1.00  0.00     0.057 A 
ATOM     81  C   UNL A   1      44.054  27.960  35.867  1.00  0.00     0.134 A 
ATOM     82  C   UNL A   1      45.455  29.404  34.566  1.00  0.00     0.134 A 
ATOM     83  F   UNL A   1      42.847  27.519  36.252  1.00  0.00    -0.206 F 
ATOM     84  C   UNL A   1      45.182  27.395  36.464  1.00  0.00     0.040 A 
ATOM     85  C   UNL A   1      46.591  28.830  35.137  1.00  0.00     0.040 A 
ATOM     86  F   UNL A   1      45.631  30.372  33.653  1.00  0.00    -0.206 F 
ATOM     87  C   UNL A   1      46.456  27.825  36.092  1.00  0.00     0.006 A 
ENDBRANCH  63  80
ENDBRANCH  37  38
ENDBRANCH  29  32
ENDBRANCH  27  28
ENDBRANCH  26  27
ENDBRANCH   1  26
TORSDOF 14
ENDMDL
