MODEL 1
REMARK VINA RESULT:     -11.2      0.000      0.000
REMARK SMILES O=C(CC1CCN(S(=O)(=O)c2cc[nH]c2)CC1)NCCCCNC(=O)c1ccc(-c2c3nc(c(-c4c(F)cccc4F)c4ccc([nH]4)c(-c4c(F)cccc4F)c4nc(c(-c5c(F)cccc5F)c5ccc2[nH]5)C=C4)C=C3)cc1
REMARK SMILES IDX 20 1 19 2 18 3 1 4 2 5 3 7 4 8 5 9 17 10 6 11 16 12 7 13
REMARK SMILES IDX 8 14 9 15 10 16 11 17 12 18 15 19 13 20 14 21 21 23 22 24
REMARK SMILES IDX 23 25 24 26 25 28 26 29 27 30 79 31 28 32 78 33 29 34 30 35
REMARK SMILES IDX 31 36 72 37 32 38 77 39 71 40 73 41 33 42 76 43 70 44 69 45
REMARK SMILES IDX 34 47 60 48 43 49 59 50 44 51 47 52 58 53 74 54 45 55 46 56
REMARK SMILES IDX 57 58 75 59 48 60 35 61 36 62 41 63 37 64 38 65 40 66 42 67
REMARK SMILES IDX 39 68 61 69 62 70 67 71 63 72 64 73 66 74 68 75 65 76 49 77
REMARK SMILES IDX 50 78 55 79 51 80 52 81 54 82 56 83 53 84
REMARK H PARENT 18 6 14 22 23 27 73 46 47 57
REMARK Flexibility Score: inf
ROOT
ATOM      1  C   UNL A   1      31.902  29.386  26.829  1.00  0.00     0.023 C 
ENDROOT
BRANCH   1   2
ATOM      2  C   UNL A   1      31.448  29.640  25.391  1.00  0.00     0.116 C 
BRANCH   2   3
ATOM      3  N   UNL A   1      31.321  28.418  24.615  1.00  0.00    -0.356 N 
ATOM      4  O   UNL A   1      30.795  29.450  22.629  1.00  0.00    -0.275 OA
ATOM      5  C   UNL A   1      31.060  28.437  23.262  1.00  0.00     0.220 C 
ATOM      6  H   UNL A   1      31.425  27.552  25.069  1.00  0.00     0.163 HD
BRANCH   5   7
ATOM      7  C   UNL A   1      31.172  27.077  22.599  1.00  0.00     0.103 C 
BRANCH   7   8
ATOM      8  C   UNL A   1      32.549  26.689  22.019  1.00  0.00     0.001 C 
ATOM      9  C   UNL A   1      32.659  25.285  21.416  1.00  0.00     0.021 C 
ATOM     10  C   UNL A   1      33.724  26.916  22.977  1.00  0.00     0.021 C 
ATOM     11  C   UNL A   1      32.896  24.178  22.438  1.00  0.00     0.103 C 
ATOM     12  C   UNL A   1      33.917  25.804  24.002  1.00  0.00     0.103 C 
ATOM     13  N   UNL A   1      34.043  24.473  23.340  1.00  0.00    -0.198 NA
BRANCH  13  14
ATOM     14  S   UNL A   1      34.246  23.169  24.467  1.00  0.00     0.244 S 
ATOM     15  O   UNL A   1      33.604  23.529  25.706  1.00  0.00    -0.207 OA
ATOM     16  O   UNL A   1      33.892  21.943  23.767  1.00  0.00    -0.207 OA
BRANCH  14  17
ATOM     17  C   UNL A   1      35.912  22.960  24.879  1.00  0.00     0.100 A 
ATOM     18  C   UNL A   1      36.657  23.727  25.813  1.00  0.00     0.041 A 
ATOM     19  C   UNL A   1      36.748  21.957  24.422  1.00  0.00     0.104 A 
ATOM     20  C   UNL A   1      37.929  23.198  25.859  1.00  0.00     0.083 A 
ATOM     21  N   UNL A   1      37.968  22.111  25.024  1.00  0.00    -0.366 N 
ATOM     22  H   UNL A   1      38.751  21.532  24.880  1.00  0.00     0.165 HD
ENDBRANCH  14  17
ENDBRANCH  13  14
ENDBRANCH   7   8
ENDBRANCH   5   7
ENDBRANCH   2   3
ENDBRANCH   1   2
BRANCH   1  23
ATOM     23  C   UNL A   1      33.008  28.331  27.004  1.00  0.00     0.023 C 
BRANCH  23  24
ATOM     24  C   UNL A   1      34.416  28.830  26.683  1.00  0.00     0.116 C 
BRANCH  24  25
ATOM     25  N   UNL A   1      34.586  30.221  27.062  1.00  0.00    -0.352 N 
ATOM     26  C   UNL A   1      35.490  30.787  27.925  1.00  0.00     0.251 C 
ATOM     27  H   UNL A   1      33.960  30.852  26.637  1.00  0.00     0.163 HD
ATOM     28  O   UNL A   1      35.251  31.898  28.393  1.00  0.00    -0.269 OA
BRANCH  26  29
ATOM     29  C   UNL A   1      36.739  30.093  28.307  1.00  0.00     0.039 A 
ATOM     30  C   UNL A   1      37.827  30.158  27.423  1.00  0.00     0.014 A 
ATOM     31  C   UNL A   1      36.815  29.295  29.453  1.00  0.00     0.014 A 
ATOM     32  C   UNL A   1      38.997  29.463  27.708  1.00  0.00     0.010 A 
ATOM     33  C   UNL A   1      37.993  28.627  29.761  1.00  0.00     0.010 A 
ATOM     34  C   UNL A   1      39.082  28.716  28.889  1.00  0.00    -0.014 A 
BRANCH  34  35
ATOM     35  C   UNL A   1      40.387  28.145  29.289  1.00  0.00     0.031 A 
ATOM     36  C   UNL A   1      40.705  26.861  28.461  1.00  0.00     0.074 A 
ATOM     37  C   UNL A   1      41.042  28.826  30.281  1.00  0.00     0.049 A 
ATOM     38  N   UNL A   1      41.399  25.797  28.747  1.00  0.00    -0.248 NA
ATOM     39  C   UNL A   1      40.063  26.721  27.118  1.00  0.00     0.031 C 
ATOM     40  C   UNL A   1      40.565  30.067  30.943  1.00  0.00     0.029 A 
ATOM     41  N   UNL A   1      42.227  28.630  30.948  1.00  0.00    -0.354 N 
ATOM     42  C   UNL A   1      41.420  24.970  27.591  1.00  0.00     0.074 A 
ATOM     43  C   UNL A   1      40.489  25.539  26.668  1.00  0.00     0.031 C 
ATOM     44  C   UNL A   1      41.377  30.426  31.964  1.00  0.00     0.029 A 
ATOM     45  C   UNL A   1      42.458  29.472  32.074  1.00  0.00     0.049 A 
ATOM     46  H   UNL A   1      42.878  27.948  30.665  1.00  0.00     0.167 HD
ATOM     47  C   UNL A   1      42.317  23.956  27.394  1.00  0.00     0.037 A 
ATOM     48  C   UNL A   1      43.394  29.328  33.072  1.00  0.00     0.037 A 
ATOM     49  C   UNL A   1      43.208  23.861  28.497  1.00  0.00     0.049 A 
ATOM     50  C   UNL A   1      44.109  28.104  32.691  1.00  0.00     0.074 A 
ATOM     51  C   UNL A   1      43.306  23.138  29.657  1.00  0.00     0.029 A 
ATOM     52  N   UNL A   1      44.246  24.751  28.454  1.00  0.00    -0.354 N 
ATOM     53  N   UNL A   1      44.950  27.999  31.711  1.00  0.00    -0.248 NA
ATOM     54  C   UNL A   1      43.563  26.867  33.244  1.00  0.00     0.031 C 
ATOM     55  C   UNL A   1      44.351  23.750  30.395  1.00  0.00     0.029 A 
ATOM     56  C   UNL A   1      44.668  24.936  29.737  1.00  0.00     0.049 A 
ATOM     57  H   UNL A   1      44.619  25.177  27.648  1.00  0.00     0.167 HD
ATOM     58  C   UNL A   1      44.849  26.677  31.340  1.00  0.00     0.074 A 
ATOM     59  C   UNL A   1      44.023  26.014  32.341  1.00  0.00     0.031 C 
ATOM     60  C   UNL A   1      45.128  26.247  30.087  1.00  0.00     0.037 A 
BRANCH  47  61
ATOM     61  C   UNL A   1      42.770  23.193  26.157  1.00  0.00     0.057 A 
ATOM     62  C   UNL A   1      42.936  21.787  26.270  1.00  0.00     0.134 A 
ATOM     63  C   UNL A   1      43.441  23.784  25.080  1.00  0.00     0.134 A 
ATOM     64  F   UNL A   1      42.283  21.088  27.211  1.00  0.00    -0.206 F 
ATOM     65  C   UNL A   1      43.841  21.060  25.489  1.00  0.00     0.040 A 
ATOM     66  C   UNL A   1      44.307  23.049  24.249  1.00  0.00     0.040 A 
ATOM     67  F   UNL A   1      43.364  25.101  24.848  1.00  0.00    -0.206 F 
ATOM     68  C   UNL A   1      44.551  21.699  24.487  1.00  0.00     0.006 A 
ENDBRANCH  47  61
BRANCH  48  69
ATOM     69  C   UNL A   1      43.653  29.870  34.459  1.00  0.00     0.057 A 
ATOM     70  C   UNL A   1      44.816  30.516  34.884  1.00  0.00     0.134 A 
ATOM     71  C   UNL A   1      42.635  29.805  35.453  1.00  0.00     0.134 A 
ATOM     72  F   UNL A   1      45.912  30.539  34.120  1.00  0.00    -0.206 F 
ATOM     73  C   UNL A   1      44.907  31.154  36.143  1.00  0.00     0.040 A 
ATOM     74  C   UNL A   1      42.697  30.463  36.687  1.00  0.00     0.040 A 
ATOM     75  F   UNL A   1      41.512  29.097  35.270  1.00  0.00    -0.206 F 
ATOM     76  C   UNL A   1      43.835  31.165  37.030  1.00  0.00     0.006 A 
ENDBRANCH  48  69
BRANCH  60  77
ATOM     77  C   UNL A   1      45.498  27.337  29.100  1.00  0.00     0.057 A 
ATOM     78  C   UNL A   1      44.550  27.915  28.260  1.00  0.00     0.134 A 
ATOM     79  C   UNL A   1      46.826  27.772  28.909  1.00  0.00     0.134 A 
ATOM     80  F   UNL A   1      43.261  27.562  28.358  1.00  0.00    -0.206 F 
ATOM     81  C   UNL A   1      44.901  28.878  27.301  1.00  0.00     0.040 A 
ATOM     82  C   UNL A   1      47.196  28.734  27.963  1.00  0.00     0.040 A 
ATOM     83  F   UNL A   1      47.814  27.284  29.659  1.00  0.00    -0.206 F 
ATOM     84  C   UNL A   1      46.224  29.293  27.149  1.00  0.00     0.006 A 
ENDBRANCH  60  77
ENDBRANCH  34  35
ENDBRANCH  26  29
ENDBRANCH  24  25
ENDBRANCH  23  24
ENDBRANCH   1  23
TORSDOF 14
ENDMDL
MODEL 2
REMARK VINA RESULT:     -11.2      1.855      2.756
REMARK SMILES O=C(CC1CCN(S(=O)(=O)c2cc[nH]c2)CC1)NCCCCNC(=O)c1ccc(-c2c3nc(c(-c4c(F)cccc4F)c4ccc([nH]4)c(-c4c(F)cccc4F)c4nc(c(-c5c(F)cccc5F)c5ccc2[nH]5)C=C4)C=C3)cc1
REMARK SMILES IDX 20 1 19 2 18 3 1 4 2 5 3 7 4 8 5 9 17 10 6 11 16 12 7 13
REMARK SMILES IDX 8 14 9 15 10 16 11 17 12 18 15 19 13 20 14 21 21 23 22 24
REMARK SMILES IDX 23 25 24 26 25 28 26 29 27 30 79 31 28 32 78 33 29 34 30 35
REMARK SMILES IDX 31 36 72 37 32 38 77 39 71 40 73 41 33 42 76 43 70 44 69 45
REMARK SMILES IDX 34 47 60 48 43 49 59 50 44 51 47 52 58 53 74 54 45 55 46 56
REMARK SMILES IDX 57 58 75 59 48 60 35 61 36 62 41 63 37 64 38 65 40 66 42 67
REMARK SMILES IDX 39 68 61 69 62 70 67 71 63 72 64 73 66 74 68 75 65 76 49 77
REMARK SMILES IDX 50 78 55 79 51 80 52 81 54 82 56 83 53 84
REMARK H PARENT 18 6 14 22 23 27 73 46 47 57
REMARK Flexibility Score: inf
ROOT
ATOM      1  C   UNL A   1      33.252  28.383  24.569  1.00  0.00     0.023 C 
ENDROOT
BRANCH   1   2
ATOM      2  C   UNL A   1      33.140  26.914  24.156  1.00  0.00     0.116 C 
BRANCH   2   3
ATOM      3  N   UNL A   1      34.226  26.099  24.674  1.00  0.00    -0.356 N 
ATOM      4  O   UNL A   1      32.908  24.762  26.002  1.00  0.00    -0.275 OA
ATOM      5  C   UNL A   1      34.000  25.036  25.522  1.00  0.00     0.220 C 
ATOM      6  H   UNL A   1      35.150  26.312  24.411  1.00  0.00     0.163 HD
BRANCH   5   7
ATOM      7  C   UNL A   1      35.231  24.189  25.781  1.00  0.00     0.103 C 
BRANCH   7   8
ATOM      8  C   UNL A   1      35.702  23.264  24.638  1.00  0.00     0.001 C 
ATOM      9  C   UNL A   1      34.804  23.206  23.399  1.00  0.00     0.021 C 
ATOM     10  C   UNL A   1      36.039  21.835  25.080  1.00  0.00     0.021 C 
ATOM     11  C   UNL A   1      33.614  22.262  23.527  1.00  0.00     0.103 C 
ATOM     12  C   UNL A   1      34.824  20.925  25.225  1.00  0.00     0.103 C 
ATOM     13  N   UNL A   1      34.014  20.899  23.972  1.00  0.00    -0.198 NA
BRANCH  13  14
ATOM     14  S   UNL A   1      32.608  19.890  24.092  1.00  0.00     0.244 S 
ATOM     15  O   UNL A   1      31.737  20.435  25.103  1.00  0.00    -0.207 OA
ATOM     16  O   UNL A   1      32.132  19.661  22.736  1.00  0.00    -0.207 OA
BRANCH  14  17
ATOM     17  C   UNL A   1      33.023  18.314  24.671  1.00  0.00     0.100 A 
ATOM     18  C   UNL A   1      33.778  17.330  23.981  1.00  0.00     0.041 A 
ATOM     19  C   UNL A   1      32.754  17.809  25.930  1.00  0.00     0.104 A 
ATOM     20  C   UNL A   1      33.903  16.244  24.821  1.00  0.00     0.083 A 
ATOM     21  N   UNL A   1      33.293  16.553  26.010  1.00  0.00    -0.366 N 
ATOM     22  H   UNL A   1      33.249  15.964  26.797  1.00  0.00     0.165 HD
ENDBRANCH  14  17
ENDBRANCH  13  14
ENDBRANCH   7   8
ENDBRANCH   5   7
ENDBRANCH   2   3
ENDBRANCH   1   2
BRANCH   1  23
ATOM     23  C   UNL A   1      33.161  28.660  26.079  1.00  0.00     0.023 C 
BRANCH  23  24
ATOM     24  C   UNL A   1      34.508  28.867  26.769  1.00  0.00     0.116 C 
BRANCH  24  25
ATOM     25  N   UNL A   1      34.686  30.247  27.184  1.00  0.00    -0.352 N 
ATOM     26  C   UNL A   1      35.596  30.785  28.057  1.00  0.00     0.251 C 
ATOM     27  H   UNL A   1      34.062  30.891  26.778  1.00  0.00     0.163 HD
ATOM     28  O   UNL A   1      35.365  31.885  28.556  1.00  0.00    -0.269 OA
BRANCH  26  29
ATOM     29  C   UNL A   1      36.843  30.075  28.416  1.00  0.00     0.039 A 
ATOM     30  C   UNL A   1      37.917  30.130  27.514  1.00  0.00     0.014 A 
ATOM     31  C   UNL A   1      36.930  29.274  29.559  1.00  0.00     0.014 A 
ATOM     32  C   UNL A   1      39.084  29.421  27.777  1.00  0.00     0.010 A 
ATOM     33  C   UNL A   1      38.105  28.591  29.844  1.00  0.00     0.010 A 
ATOM     34  C   UNL A   1      39.180  28.669  28.954  1.00  0.00    -0.014 A 
BRANCH  34  35
ATOM     35  C   UNL A   1      40.485  28.082  29.330  1.00  0.00     0.031 A 
ATOM     36  C   UNL A   1      40.767  26.790  28.502  1.00  0.00     0.074 A 
ATOM     37  C   UNL A   1      41.169  28.759  30.305  1.00  0.00     0.049 A 
ATOM     38  N   UNL A   1      41.453  25.717  28.779  1.00  0.00    -0.248 NA
ATOM     39  C   UNL A   1      40.096  26.652  27.173  1.00  0.00     0.031 C 
ATOM     40  C   UNL A   1      40.724  30.009  30.971  1.00  0.00     0.029 A 
ATOM     41  N   UNL A   1      42.366  28.549  30.949  1.00  0.00    -0.354 N 
ATOM     42  C   UNL A   1      41.438  24.885  27.627  1.00  0.00     0.074 A 
ATOM     43  C   UNL A   1      40.496  25.462  26.720  1.00  0.00     0.031 C 
ATOM     44  C   UNL A   1      41.562  30.362  31.972  1.00  0.00     0.029 A 
ATOM     45  C   UNL A   1      42.631  29.393  32.065  1.00  0.00     0.049 A 
ATOM     46  H   UNL A   1      43.001  27.856  30.655  1.00  0.00     0.167 HD
ATOM     47  C   UNL A   1      42.317  23.857  27.417  1.00  0.00     0.037 A 
ATOM     48  C   UNL A   1      43.585  29.240  33.044  1.00  0.00     0.037 A 
ATOM     49  C   UNL A   1      43.229  23.754  28.502  1.00  0.00     0.049 A 
ATOM     50  C   UNL A   1      44.275  28.004  32.655  1.00  0.00     0.074 A 
ATOM     51  C   UNL A   1      43.340  23.036  29.663  1.00  0.00     0.029 A 
ATOM     52  N   UNL A   1      44.278  24.630  28.433  1.00  0.00    -0.354 N 
ATOM     53  N   UNL A   1      45.094  27.883  31.658  1.00  0.00    -0.248 NA
ATOM     54  C   UNL A   1      43.724  26.779  33.225  1.00  0.00     0.031 C 
ATOM     55  C   UNL A   1      44.408  23.637  30.376  1.00  0.00     0.029 A 
ATOM     56  C   UNL A   1      44.729  24.815  29.705  1.00  0.00     0.049 A 
ATOM     57  H   UNL A   1      44.640  25.047  27.618  1.00  0.00     0.167 HD
ATOM     58  C   UNL A   1      44.967  26.561  31.296  1.00  0.00     0.074 A 
ATOM     59  C   UNL A   1      44.152  25.915  32.317  1.00  0.00     0.031 C 
ATOM     60  C   UNL A   1      45.214  26.121  30.039  1.00  0.00     0.037 A 
BRANCH  47  61
ATOM     61  C   UNL A   1      42.733  23.082  26.174  1.00  0.00     0.057 A 
ATOM     62  C   UNL A   1      42.901  21.677  26.296  1.00  0.00     0.134 A 
ATOM     63  C   UNL A   1      43.373  23.662  25.073  1.00  0.00     0.134 A 
ATOM     64  F   UNL A   1      42.275  20.988  27.262  1.00  0.00    -0.206 F 
ATOM     65  C   UNL A   1      43.782  20.942  25.497  1.00  0.00     0.040 A 
ATOM     66  C   UNL A   1      44.214  22.918  24.225  1.00  0.00     0.040 A 
ATOM     67  F   UNL A   1      43.291  24.977  24.831  1.00  0.00    -0.206 F 
ATOM     68  C   UNL A   1      44.464  21.570  24.468  1.00  0.00     0.006 A 
ENDBRANCH  47  61
BRANCH  48  69
ATOM     69  C   UNL A   1      43.881  29.785  34.422  1.00  0.00     0.057 A 
ATOM     70  C   UNL A   1      43.029  29.731  35.527  1.00  0.00     0.134 A 
ATOM     71  C   UNL A   1      45.152  30.364  34.705  1.00  0.00     0.134 A 
ATOM     72  F   UNL A   1      41.755  29.346  35.399  1.00  0.00    -0.206 F 
ATOM     73  C   UNL A   1      43.451  30.100  36.825  1.00  0.00     0.040 A 
ATOM     74  C   UNL A   1      45.597  30.698  35.990  1.00  0.00     0.040 A 
ATOM     75  F   UNL A   1      46.039  30.629  33.736  1.00  0.00    -0.206 F 
ATOM     76  C   UNL A   1      44.748  30.544  37.067  1.00  0.00     0.006 A 
ENDBRANCH  48  69
BRANCH  60  77
ATOM     77  C   UNL A   1      45.579  27.201  29.040  1.00  0.00     0.057 A 
ATOM     78  C   UNL A   1      44.622  27.788  28.217  1.00  0.00     0.134 A 
ATOM     79  C   UNL A   1      46.909  27.616  28.819  1.00  0.00     0.134 A 
ATOM     80  F   UNL A   1      43.330  27.453  28.343  1.00  0.00    -0.206 F 
ATOM     81  C   UNL A   1      44.966  28.742  27.245  1.00  0.00     0.040 A 
ATOM     82  C   UNL A   1      47.272  28.568  27.861  1.00  0.00     0.040 A 
ATOM     83  F   UNL A   1      47.905  27.118  29.552  1.00  0.00    -0.206 F 
ATOM     84  C   UNL A   1      46.292  29.137  27.064  1.00  0.00     0.006 A 
ENDBRANCH  60  77
ENDBRANCH  34  35
ENDBRANCH  26  29
ENDBRANCH  24  25
ENDBRANCH  23  24
ENDBRANCH   1  23
TORSDOF 14
ENDMDL
MODEL 3
REMARK VINA RESULT:     -11.1      1.865      2.550
REMARK SMILES O=C(CC1CCN(S(=O)(=O)c2cc[nH]c2)CC1)NCCCCNC(=O)c1ccc(-c2c3nc(c(-c4c(F)cccc4F)c4ccc([nH]4)c(-c4c(F)cccc4F)c4nc(c(-c5c(F)cccc5F)c5ccc2[nH]5)C=C4)C=C3)cc1
REMARK SMILES IDX 20 1 19 2 18 3 1 4 2 5 3 7 4 8 5 9 17 10 6 11 16 12 7 13
REMARK SMILES IDX 8 14 9 15 10 16 11 17 12 18 15 19 13 20 14 21 21 23 22 24
REMARK SMILES IDX 23 25 24 26 25 28 26 29 27 30 79 31 28 32 78 33 29 34 30 35
REMARK SMILES IDX 31 36 72 37 32 38 77 39 71 40 73 41 33 42 76 43 70 44 69 45
REMARK SMILES IDX 34 47 60 48 43 49 59 50 44 51 47 52 58 53 74 54 45 55 46 56
REMARK SMILES IDX 57 58 75 59 48 60 35 61 36 62 41 63 37 64 38 65 40 66 42 67
REMARK SMILES IDX 39 68 61 69 62 70 67 71 63 72 64 73 66 74 68 75 65 76 49 77
REMARK SMILES IDX 50 78 55 79 51 80 52 81 54 82 56 83 53 84
REMARK H PARENT 18 6 14 22 23 27 73 46 47 57
REMARK Flexibility Score: inf
ROOT
ATOM      1  C   UNL A   1      32.055  29.468  26.746  1.00  0.00     0.023 C 
ENDROOT
BRANCH   1   2
ATOM      2  C   UNL A   1      31.594  29.481  25.288  1.00  0.00     0.116 C 
BRANCH   2   3
ATOM      3  N   UNL A   1      32.071  28.333  24.536  1.00  0.00    -0.356 N 
ATOM      4  O   UNL A   1      30.184  27.053  24.832  1.00  0.00    -0.275 OA
ATOM      5  C   UNL A   1      31.283  27.223  24.321  1.00  0.00     0.220 C 
ATOM      6  H   UNL A   1      32.984  28.349  24.169  1.00  0.00     0.163 HD
BRANCH   5   7
ATOM      7  C   UNL A   1      31.882  26.229  23.344  1.00  0.00     0.103 C 
BRANCH   7   8
ATOM      8  C   UNL A   1      33.212  25.559  23.748  1.00  0.00     0.001 C 
ATOM      9  C   UNL A   1      33.807  24.571  22.740  1.00  0.00     0.021 C 
ATOM     10  C   UNL A   1      33.196  24.909  25.136  1.00  0.00     0.021 C 
ATOM     11  C   UNL A   1      33.207  23.171  22.802  1.00  0.00     0.103 C 
ATOM     12  C   UNL A   1      32.565  23.521  25.168  1.00  0.00     0.103 C 
ATOM     13  N   UNL A   1      33.212  22.609  24.181  1.00  0.00    -0.198 NA
BRANCH  13  14
ATOM     14  S   UNL A   1      32.517  21.020  24.164  1.00  0.00     0.244 S 
ATOM     15  O   UNL A   1      31.616  20.901  25.283  1.00  0.00    -0.207 OA
ATOM     16  O   UNL A   1      32.061  20.769  22.805  1.00  0.00    -0.207 OA
BRANCH  14  17
ATOM     17  C   UNL A   1      33.724  19.812  24.440  1.00  0.00     0.100 A 
ATOM     18  C   UNL A   1      33.617  18.426  24.152  1.00  0.00     0.041 A 
ATOM     19  C   UNL A   1      35.008  20.031  24.904  1.00  0.00     0.104 A 
ATOM     20  C   UNL A   1      34.818  17.842  24.493  1.00  0.00     0.083 A 
ATOM     21  N   UNL A   1      35.663  18.829  24.931  1.00  0.00    -0.366 N 
ATOM     22  H   UNL A   1      36.594  18.694  25.220  1.00  0.00     0.165 HD
ENDBRANCH  14  17
ENDBRANCH  13  14
ENDBRANCH   7   8
ENDBRANCH   5   7
ENDBRANCH   2   3
ENDBRANCH   1   2
BRANCH   1  23
ATOM     23  C   UNL A   1      33.044  28.352  27.124  1.00  0.00     0.023 C 
BRANCH  23  24
ATOM     24  C   UNL A   1      34.513  28.700  26.892  1.00  0.00     0.116 C 
BRANCH  24  25
ATOM     25  N   UNL A   1      34.771  30.107  27.142  1.00  0.00    -0.352 N 
ATOM     26  C   UNL A   1      35.795  30.697  27.838  1.00  0.00     0.251 C 
ATOM     27  H   UNL A   1      34.114  30.729  26.754  1.00  0.00     0.163 HD
ATOM     28  O   UNL A   1      35.651  31.847  28.249  1.00  0.00    -0.269 OA
BRANCH  26  29
ATOM     29  C   UNL A   1      37.062  29.983  28.110  1.00  0.00     0.039 A 
ATOM     30  C   UNL A   1      38.047  29.983  27.111  1.00  0.00     0.014 A 
ATOM     31  C   UNL A   1      37.246  29.230  29.274  1.00  0.00     0.014 A 
ATOM     32  C   UNL A   1      39.225  29.268  27.295  1.00  0.00     0.010 A 
ATOM     33  C   UNL A   1      38.434  28.541  29.479  1.00  0.00     0.010 A 
ATOM     34  C   UNL A   1      39.422  28.565  28.490  1.00  0.00    -0.014 A 
BRANCH  34  35
ATOM     35  C   UNL A   1      40.749  27.975  28.768  1.00  0.00     0.031 A 
ATOM     36  C   UNL A   1      40.790  26.478  28.330  1.00  0.00     0.074 A 
ATOM     37  C   UNL A   1      41.657  28.825  29.344  1.00  0.00     0.049 A 
ATOM     38  N   UNL A   1      41.471  25.462  28.780  1.00  0.00    -0.248 NA
ATOM     39  C   UNL A   1      39.845  26.039  27.258  1.00  0.00     0.031 C 
ATOM     40  C   UNL A   1      41.420  30.252  29.675  1.00  0.00     0.029 A 
ATOM     41  N   UNL A   1      42.952  28.681  29.780  1.00  0.00    -0.354 N 
ATOM     42  C   UNL A   1      41.172  24.342  27.957  1.00  0.00     0.074 A 
ATOM     43  C   UNL A   1      40.084  24.734  27.117  1.00  0.00     0.031 C 
ATOM     44  C   UNL A   1      42.468  30.785  30.344  1.00  0.00     0.029 A 
ATOM     45  C   UNL A   1      43.488  29.775  30.518  1.00  0.00     0.049 A 
ATOM     46  H   UNL A   1      43.478  27.870  29.593  1.00  0.00     0.167 HD
ATOM     47  C   UNL A   1      41.939  23.210  27.902  1.00  0.00     0.037 A 
ATOM     48  C   UNL A   1      44.622  29.808  31.296  1.00  0.00     0.037 A 
ATOM     49  C   UNL A   1      43.057  23.325  28.772  1.00  0.00     0.049 A 
ATOM     50  C   UNL A   1      45.157  28.446  31.172  1.00  0.00     0.074 A 
ATOM     51  C   UNL A   1      43.382  22.960  30.051  1.00  0.00     0.029 A 
ATOM     52  N   UNL A   1      44.105  24.028  28.244  1.00  0.00    -0.354 N 
ATOM     53  N   UNL A   1      45.737  27.959  30.121  1.00  0.00    -0.248 NA
ATOM     54  C   UNL A   1      44.686  27.500  32.180  1.00  0.00     0.031 C 
ATOM     55  C   UNL A   1      44.604  23.621  30.333  1.00  0.00     0.029 A 
ATOM     56  C   UNL A   1      44.825  24.519  29.290  1.00  0.00     0.049 A 
ATOM     57  H   UNL A   1      44.302  24.154  27.287  1.00  0.00     0.167 HD
ATOM     58  C   UNL A   1      45.477  26.611  30.206  1.00  0.00     0.074 A 
ATOM     59  C   UNL A   1      44.871  26.372  31.510  1.00  0.00     0.031 C 
ATOM     60  C   UNL A   1      45.428  25.806  29.117  1.00  0.00     0.037 A 
BRANCH  47  61
ATOM     61  C   UNL A   1      42.044  22.073  26.895  1.00  0.00     0.057 A 
ATOM     62  C   UNL A   1      41.650  20.776  27.318  1.00  0.00     0.134 A 
ATOM     63  C   UNL A   1      42.880  22.102  25.773  1.00  0.00     0.134 A 
ATOM     64  F   UNL A   1      40.787  20.612  28.333  1.00  0.00    -0.206 F 
ATOM     65  C   UNL A   1      42.190  19.602  26.783  1.00  0.00     0.040 A 
ATOM     66  C   UNL A   1      43.381  20.924  25.188  1.00  0.00     0.040 A 
ATOM     67  F   UNL A   1      43.320  23.258  25.260  1.00  0.00    -0.206 F 
ATOM     68  C   UNL A   1      43.082  19.675  25.726  1.00  0.00     0.006 A 
ENDBRANCH  47  61
BRANCH  48  69
ATOM     69  C   UNL A   1      45.230  30.689  32.363  1.00  0.00     0.057 A 
ATOM     70  C   UNL A   1      44.763  30.836  33.671  1.00  0.00     0.134 A 
ATOM     71  C   UNL A   1      46.427  31.414  32.096  1.00  0.00     0.134 A 
ATOM     72  F   UNL A   1      43.581  30.335  34.043  1.00  0.00    -0.206 F 
ATOM     73  C   UNL A   1      45.493  31.537  34.659  1.00  0.00     0.040 A 
ATOM     74  C   UNL A   1      47.179  32.079  33.071  1.00  0.00     0.040 A 
ATOM     75  F   UNL A   1      46.936  31.505  30.859  1.00  0.00    -0.206 F 
ATOM     76  C   UNL A   1      46.722  32.124  34.372  1.00  0.00     0.006 A 
ENDBRANCH  48  69
BRANCH  60  77
ATOM     77  C   UNL A   1      45.619  26.511  27.788  1.00  0.00     0.057 A 
ATOM     78  C   UNL A   1      46.887  26.800  27.289  1.00  0.00     0.134 A 
ATOM     79  C   UNL A   1      44.539  26.993  27.019  1.00  0.00     0.134 A 
ATOM     80  F   UNL A   1      47.978  26.393  27.952  1.00  0.00    -0.206 F 
ATOM     81  C   UNL A   1      47.066  27.510  26.091  1.00  0.00     0.040 A 
ATOM     82  C   UNL A   1      44.696  27.696  25.821  1.00  0.00     0.040 A 
ATOM     83  F   UNL A   1      43.282  26.772  27.404  1.00  0.00    -0.206 F 
ATOM     84  C   UNL A   1      45.972  27.960  25.351  1.00  0.00     0.006 A 
ENDBRANCH  60  77
ENDBRANCH  34  35
ENDBRANCH  26  29
ENDBRANCH  24  25
ENDBRANCH  23  24
ENDBRANCH   1  23
TORSDOF 14
ENDMDL
