MODEL 1
REMARK VINA RESULT:     -11.0      0.000      0.000
REMARK SMILES CCc1cc(OCC(=O)NCCCCNC(=O)c2ccc(-c3c4nc(c(-c5c(F)cccc5F)c5ccc([nH]5)c(-c5c(F)cccc5F)c5nc(c(-c6c(F)cccc6F)c6ccc3[nH]6)C=C5)C=C4)cc2)nc(Nc2ccc(C)c(F)c2)n1
REMARK SMILES IDX 11 1 10 2 8 3 9 4 7 6 6 7 5 8 3 9 4 10 83 11 73 12 72 13
REMARK SMILES IDX 2 14 1 15 74 16 75 18 76 19 82 20 77 21 80 22 78 23 81 24
REMARK SMILES IDX 79 25 12 26 13 27 14 28 15 29 16 30 17 32 18 33 19 34 71 35
REMARK SMILES IDX 20 36 70 37 21 38 22 39 23 40 64 41 24 42 69 43 63 44 65 45
REMARK SMILES IDX 25 46 68 47 62 48 61 49 26 51 52 52 35 53 51 54 36 55 39 56
REMARK SMILES IDX 50 57 66 58 37 59 38 60 49 62 67 63 40 64 27 65 28 66 33 67
REMARK SMILES IDX 29 68 30 69 32 70 34 71 31 72 53 73 54 74 59 75 55 76 56 77
REMARK SMILES IDX 58 78 60 79 57 80 41 81 42 82 47 83 43 84 44 85 46 86 48 87
REMARK SMILES IDX 45 88
REMARK H PARENT 10 5 74 17 15 31 65 50 39 61
REMARK Flexibility Score: inf
ROOT
ATOM      1  C   UNL A   1      31.033  29.813  24.933  1.00  0.00     0.116 C 
ENDROOT
BRANCH   1   2
ATOM      2  N   UNL A   1      30.633  30.082  23.565  1.00  0.00    -0.353 N 
ATOM      3  C   UNL A   1      29.970  29.260  22.704  1.00  0.00     0.258 C 
ATOM      4  O   UNL A   1      29.698  29.675  21.576  1.00  0.00    -0.271 OA
ATOM      5  H   UNL A   1      30.872  30.970  23.214  1.00  0.00     0.163 HD
BRANCH   3   6
ATOM      6  C   UNL A   1      29.559  27.850  23.156  1.00  0.00     0.331 C 
BRANCH   6   7
ATOM      7  O   UNL A   1      30.277  26.754  22.612  1.00  0.00    -0.467 OA
BRANCH   7   8
ATOM      8  C   UNL A   1      30.979  25.960  23.476  1.00  0.00     0.218 A 
ATOM      9  C   UNL A   1      31.274  24.544  25.316  1.00  0.00     0.050 A 
ATOM     10  C   UNL A   1      30.470  25.429  24.640  1.00  0.00     0.092 A 
ATOM     11  N   UNL A   1      32.521  24.281  24.896  1.00  0.00    -0.218 NA
ATOM     12  C   UNL A   1      32.984  24.909  23.804  1.00  0.00     0.230 A 
ATOM     13  N   UNL A   1      32.241  25.741  23.066  1.00  0.00    -0.177 NA
BRANCH   9  14
ATOM     14  C   UNL A   1      30.858  23.861  26.592  1.00  0.00     0.053 C 
ATOM     15  C   UNL A   1      31.884  22.907  27.188  1.00  0.00     0.011 C 
ENDBRANCH   9  14
BRANCH  12  16
ATOM     16  N   UNL A   1      34.329  24.764  23.463  1.00  0.00    -0.324 N 
ATOM     17  H   UNL A   1      34.649  25.286  22.691  1.00  0.00     0.170 HD
BRANCH  16  18
ATOM     18  C   UNL A   1      35.271  23.950  24.104  1.00  0.00     0.044 A 
ATOM     19  C   UNL A   1      35.731  22.781  23.490  1.00  0.00     0.026 A 
ATOM     20  C   UNL A   1      35.887  24.365  25.291  1.00  0.00     0.065 A 
ATOM     21  C   UNL A   1      36.807  22.063  24.031  1.00  0.00     0.008 A 
ATOM     22  C   UNL A   1      36.940  23.641  25.836  1.00  0.00     0.128 A 
ATOM     23  C   UNL A   1      37.428  22.495  25.209  1.00  0.00    -0.015 A 
ATOM     24  F   UNL A   1      37.503  24.079  26.971  1.00  0.00    -0.207 F 
ATOM     25  C   UNL A   1      38.623  21.771  25.751  1.00  0.00     0.047 C 
ENDBRANCH  16  18
ENDBRANCH  12  16
ENDBRANCH   7   8
ENDBRANCH   6   7
ENDBRANCH   3   6
ENDBRANCH   1   2
BRANCH   1  26
ATOM     26  C   UNL A   1      32.424  29.190  25.018  1.00  0.00     0.023 C 
BRANCH  26  27
ATOM     27  C   UNL A   1      32.606  28.157  26.133  1.00  0.00     0.023 C 
BRANCH  27  28
ATOM     28  C   UNL A   1      33.665  28.491  27.179  1.00  0.00     0.116 C 
BRANCH  28  29
ATOM     29  N   UNL A   1      33.645  29.885  27.591  1.00  0.00    -0.352 N 
ATOM     30  C   UNL A   1      34.637  30.638  28.170  1.00  0.00     0.251 C 
ATOM     31  H   UNL A   1      32.795  30.357  27.433  1.00  0.00     0.163 HD
ATOM     32  O   UNL A   1      34.395  31.776  28.562  1.00  0.00    -0.269 OA
BRANCH  30  33
ATOM     33  C   UNL A   1      35.991  30.071  28.354  1.00  0.00     0.039 A 
ATOM     34  C   UNL A   1      36.902  30.152  27.298  1.00  0.00     0.014 A 
ATOM     35  C   UNL A   1      36.365  29.471  29.558  1.00  0.00     0.014 A 
ATOM     36  C   UNL A   1      38.210  29.695  27.474  1.00  0.00     0.010 A 
ATOM     37  C   UNL A   1      37.689  29.087  29.757  1.00  0.00     0.010 A 
ATOM     38  C   UNL A   1      38.626  29.195  28.719  1.00  0.00    -0.014 A 
BRANCH  38  39
ATOM     39  C   UNL A   1      40.040  28.800  28.955  1.00  0.00     0.031 A 
ATOM     40  C   UNL A   1      41.019  29.783  29.533  1.00  0.00     0.074 A 
ATOM     41  C   UNL A   1      40.461  27.577  28.577  1.00  0.00     0.049 A 
ATOM     42  N   UNL A   1      42.303  29.643  29.748  1.00  0.00    -0.248 NA
ATOM     43  C   UNL A   1      40.492  31.109  29.890  1.00  0.00     0.031 C 
ATOM     44  C   UNL A   1      39.625  26.551  27.950  1.00  0.00     0.029 A 
ATOM     45  N   UNL A   1      41.703  26.995  28.650  1.00  0.00    -0.354 N 
ATOM     46  C   UNL A   1      42.739  30.864  30.246  1.00  0.00     0.074 A 
ATOM     47  C   UNL A   1      41.594  31.749  30.251  1.00  0.00     0.031 C 
ATOM     48  C   UNL A   1      40.372  25.463  27.709  1.00  0.00     0.029 A 
ATOM     49  C   UNL A   1      41.747  25.725  28.125  1.00  0.00     0.049 A 
ATOM     50  H   UNL A   1      42.486  27.444  29.039  1.00  0.00     0.167 HD
ATOM     51  C   UNL A   1      43.975  31.211  30.676  1.00  0.00     0.037 A 
ATOM     52  C   UNL A   1      42.779  24.873  27.982  1.00  0.00     0.037 A 
ATOM     53  C   UNL A   1      45.108  30.322  30.687  1.00  0.00     0.049 A 
ATOM     54  C   UNL A   1      44.142  25.278  28.470  1.00  0.00     0.074 A 
ATOM     55  C   UNL A   1      46.381  30.554  31.178  1.00  0.00     0.029 A 
ATOM     56  N   UNL A   1      45.107  29.034  30.173  1.00  0.00    -0.354 N 
ATOM     57  N   UNL A   1      44.521  26.405  29.021  1.00  0.00    -0.248 NA
ATOM     58  C   UNL A   1      45.220  24.289  28.325  1.00  0.00     0.031 C 
ATOM     59  C   UNL A   1      47.167  29.429  30.905  1.00  0.00     0.029 A 
ATOM     60  C   UNL A   1      46.367  28.471  30.302  1.00  0.00     0.049 A 
ATOM     61  H   UNL A   1      44.327  28.585  29.774  1.00  0.00     0.167 HD
ATOM     62  C   UNL A   1      45.871  26.254  29.310  1.00  0.00     0.074 A 
ATOM     63  C   UNL A   1      46.241  24.919  28.887  1.00  0.00     0.031 C 
ATOM     64  C   UNL A   1      46.726  27.141  29.875  1.00  0.00     0.037 A 
BRANCH  51  65
ATOM     65  C   UNL A   1      44.169  32.620  31.162  1.00  0.00     0.057 A 
ATOM     66  C   UNL A   1      44.011  32.973  32.509  1.00  0.00     0.134 A 
ATOM     67  C   UNL A   1      44.543  33.636  30.271  1.00  0.00     0.134 A 
ATOM     68  F   UNL A   1      43.646  32.053  33.415  1.00  0.00    -0.206 F 
ATOM     69  C   UNL A   1      44.181  34.288  32.947  1.00  0.00     0.040 A 
ATOM     70  C   UNL A   1      44.747  34.948  30.702  1.00  0.00     0.040 A 
ATOM     71  F   UNL A   1      44.720  33.370  28.969  1.00  0.00    -0.206 F 
ATOM     72  C   UNL A   1      44.556  35.278  32.042  1.00  0.00     0.006 A 
ENDBRANCH  51  65
BRANCH  52  73
ATOM     73  C   UNL A   1      42.556  23.545  27.355  1.00  0.00     0.057 A 
ATOM     74  C   UNL A   1      42.659  23.368  25.971  1.00  0.00     0.134 A 
ATOM     75  C   UNL A   1      42.243  22.418  28.127  1.00  0.00     0.134 A 
ATOM     76  F   UNL A   1      42.937  24.412  25.176  1.00  0.00    -0.206 F 
ATOM     77  C   UNL A   1      42.445  22.124  25.375  1.00  0.00     0.040 A 
ATOM     78  C   UNL A   1      42.054  21.164  27.547  1.00  0.00     0.040 A 
ATOM     79  F   UNL A   1      42.138  22.520  29.460  1.00  0.00    -0.206 F 
ATOM     80  C   UNL A   1      42.148  21.016  26.165  1.00  0.00     0.006 A 
ENDBRANCH  52  73
BRANCH  64  81
ATOM     81  C   UNL A   1      48.141  26.690  30.098  1.00  0.00     0.057 A 
ATOM     82  C   UNL A   1      49.165  26.975  29.184  1.00  0.00     0.134 A 
ATOM     83  C   UNL A   1      48.492  25.996  31.263  1.00  0.00     0.134 A 
ATOM     84  F   UNL A   1      48.895  27.626  28.042  1.00  0.00    -0.206 F 
ATOM     85  C   UNL A   1      50.479  26.565  29.410  1.00  0.00     0.040 A 
ATOM     86  C   UNL A   1      49.808  25.607  31.515  1.00  0.00     0.040 A 
ATOM     87  F   UNL A   1      47.564  25.698  32.184  1.00  0.00    -0.206 F 
ATOM     88  C   UNL A   1      50.805  25.886  30.583  1.00  0.00     0.006 A 
ENDBRANCH  64  81
ENDBRANCH  38  39
ENDBRANCH  30  33
ENDBRANCH  28  29
ENDBRANCH  27  28
ENDBRANCH  26  27
ENDBRANCH   1  26
TORSDOF 16
ENDMDL
MODEL 2
REMARK VINA RESULT:     -10.8      1.924      2.701
REMARK SMILES CCc1cc(OCC(=O)NCCCCNC(=O)c2ccc(-c3c4nc(c(-c5c(F)cccc5F)c5ccc([nH]5)c(-c5c(F)cccc5F)c5nc(c(-c6c(F)cccc6F)c6ccc3[nH]6)C=C5)C=C4)cc2)nc(Nc2ccc(C)c(F)c2)n1
REMARK SMILES IDX 11 1 10 2 8 3 9 4 7 6 6 7 5 8 3 9 4 10 83 11 73 12 72 13
REMARK SMILES IDX 2 14 1 15 74 16 75 18 76 19 82 20 77 21 80 22 78 23 81 24
REMARK SMILES IDX 79 25 12 26 13 27 14 28 15 29 16 30 17 32 18 33 19 34 71 35
REMARK SMILES IDX 20 36 70 37 21 38 22 39 23 40 64 41 24 42 69 43 63 44 65 45
REMARK SMILES IDX 25 46 68 47 62 48 61 49 26 51 52 52 35 53 51 54 36 55 39 56
REMARK SMILES IDX 50 57 66 58 37 59 38 60 49 62 67 63 40 64 27 65 28 66 33 67
REMARK SMILES IDX 29 68 30 69 32 70 34 71 31 72 53 73 54 74 59 75 55 76 56 77
REMARK SMILES IDX 58 78 60 79 57 80 41 81 42 82 47 83 43 84 44 85 46 86 48 87
REMARK SMILES IDX 45 88
REMARK H PARENT 10 5 74 17 15 31 65 50 39 61
REMARK Flexibility Score: inf
ROOT
ATOM      1  C   UNL A   1      33.225  28.875  23.392  1.00  0.00     0.116 C 
ENDROOT
BRANCH   1   2
ATOM      2  N   UNL A   1      31.885  29.055  22.870  1.00  0.00    -0.353 N 
ATOM      3  C   UNL A   1      31.023  28.102  22.415  1.00  0.00     0.258 C 
ATOM      4  O   UNL A   1      29.906  28.449  22.023  1.00  0.00    -0.271 OA
ATOM      5  H   UNL A   1      31.556  29.983  22.840  1.00  0.00     0.163 HD
BRANCH   3   6
ATOM      6  C   UNL A   1      31.446  26.626  22.414  1.00  0.00     0.331 C 
BRANCH   6   7
ATOM      7  O   UNL A   1      31.040  25.828  23.514  1.00  0.00    -0.467 OA
BRANCH   7   8
ATOM      8  C   UNL A   1      31.957  24.967  24.050  1.00  0.00     0.218 A 
ATOM      9  C   UNL A   1      33.993  24.349  25.025  1.00  0.00     0.050 A 
ATOM     10  C   UNL A   1      33.253  25.303  24.372  1.00  0.00     0.092 A 
ATOM     11  N   UNL A   1      33.493  23.126  25.262  1.00  0.00    -0.218 NA
ATOM     12  C   UNL A   1      32.253  22.839  24.836  1.00  0.00     0.230 A 
ATOM     13  N   UNL A   1      31.457  23.732  24.240  1.00  0.00    -0.177 NA
BRANCH   9  14
ATOM     14  C   UNL A   1      35.417  24.567  25.464  1.00  0.00     0.053 C 
ATOM     15  C   UNL A   1      36.312  23.337  25.416  1.00  0.00     0.011 C 
ENDBRANCH   9  14
BRANCH  12  16
ATOM     16  N   UNL A   1      31.796  21.524  24.932  1.00  0.00    -0.324 N 
ATOM     17  H   UNL A   1      30.928  21.389  25.379  1.00  0.00     0.170 HD
BRANCH  16  18
ATOM     18  C   UNL A   1      32.445  20.377  24.460  1.00  0.00     0.044 A 
ATOM     19  C   UNL A   1      33.346  19.688  25.278  1.00  0.00     0.026 A 
ATOM     20  C   UNL A   1      32.091  19.807  23.232  1.00  0.00     0.065 A 
ATOM     21  C   UNL A   1      33.854  18.439  24.891  1.00  0.00     0.008 A 
ATOM     22  C   UNL A   1      32.612  18.579  22.842  1.00  0.00     0.128 A 
ATOM     23  C   UNL A   1      33.482  17.869  23.668  1.00  0.00    -0.015 A 
ATOM     24  F   UNL A   1      32.241  18.069  21.658  1.00  0.00    -0.207 F 
ATOM     25  C   UNL A   1      33.966  16.504  23.284  1.00  0.00     0.047 C 
ENDBRANCH  16  18
ENDBRANCH  12  16
ENDBRANCH   7   8
ENDBRANCH   6   7
ENDBRANCH   3   6
ENDBRANCH   1   2
BRANCH   1  26
ATOM     26  C   UNL A   1      33.354  29.358  24.834  1.00  0.00     0.023 C 
BRANCH  26  27
ATOM     27  C   UNL A   1      33.992  28.356  25.801  1.00  0.00     0.023 C 
BRANCH  27  28
ATOM     28  C   UNL A   1      33.649  28.547  27.275  1.00  0.00     0.116 C 
BRANCH  28  29
ATOM     29  N   UNL A   1      33.627  29.943  27.683  1.00  0.00    -0.352 N 
ATOM     30  C   UNL A   1      34.612  30.694  28.275  1.00  0.00     0.251 C 
ATOM     31  H   UNL A   1      32.782  30.417  27.510  1.00  0.00     0.163 HD
ATOM     32  O   UNL A   1      34.368  31.835  28.660  1.00  0.00    -0.269 OA
BRANCH  30  33
ATOM     33  C   UNL A   1      35.960  30.123  28.483  1.00  0.00     0.039 A 
ATOM     34  C   UNL A   1      36.883  30.179  27.434  1.00  0.00     0.014 A 
ATOM     35  C   UNL A   1      36.320  29.544  29.702  1.00  0.00     0.014 A 
ATOM     36  C   UNL A   1      38.186  29.718  27.632  1.00  0.00     0.010 A 
ATOM     37  C   UNL A   1      37.640  29.156  29.921  1.00  0.00     0.010 A 
ATOM     38  C   UNL A   1      38.587  29.240  28.890  1.00  0.00    -0.014 A 
BRANCH  38  39
ATOM     39  C   UNL A   1      39.996  28.841  29.146  1.00  0.00     0.031 A 
ATOM     40  C   UNL A   1      40.960  29.811  29.771  1.00  0.00     0.074 A 
ATOM     41  C   UNL A   1      40.428  27.628  28.748  1.00  0.00     0.049 A 
ATOM     42  N   UNL A   1      42.239  29.668  30.010  1.00  0.00    -0.248 NA
ATOM     43  C   UNL A   1      40.423  31.126  30.150  1.00  0.00     0.031 C 
ATOM     44  C   UNL A   1      39.609  26.617  28.077  1.00  0.00     0.029 A 
ATOM     45  N   UNL A   1      41.670  27.047  28.832  1.00  0.00    -0.354 N 
ATOM     46  C   UNL A   1      42.662  30.877  30.549  1.00  0.00     0.074 A 
ATOM     47  C   UNL A   1      41.515  31.759  30.551  1.00  0.00     0.031 C 
ATOM     48  C   UNL A   1      40.364  25.537  27.824  1.00  0.00     0.029 A 
ATOM     49  C   UNL A   1      41.728  25.791  28.278  1.00  0.00     0.049 A 
ATOM     50  H   UNL A   1      42.444  27.487  29.251  1.00  0.00     0.167 HD
ATOM     51  C   UNL A   1      43.888  31.215  31.015  1.00  0.00     0.037 A 
ATOM     52  C   UNL A   1      42.765  24.945  28.135  1.00  0.00     0.037 A 
ATOM     53  C   UNL A   1      45.022  30.328  31.028  1.00  0.00     0.049 A 
ATOM     54  C   UNL A   1      44.116  25.339  28.663  1.00  0.00     0.074 A 
ATOM     55  C   UNL A   1      46.283  30.549  31.552  1.00  0.00     0.029 A 
ATOM     56  N   UNL A   1      45.035  29.053  30.481  1.00  0.00    -0.354 N 
ATOM     57  N   UNL A   1      44.480  26.453  29.251  1.00  0.00    -0.248 NA
ATOM     58  C   UNL A   1      45.199  24.357  28.517  1.00  0.00     0.031 C 
ATOM     59  C   UNL A   1      47.078  29.433  31.268  1.00  0.00     0.029 A 
ATOM     60  C   UNL A   1      46.293  28.490  30.624  1.00  0.00     0.049 A 
ATOM     61  H   UNL A   1      44.265  28.613  30.054  1.00  0.00     0.167 HD
ATOM     62  C   UNL A   1      45.825  26.297  29.565  1.00  0.00     0.074 A 
ATOM     63  C   UNL A   1      46.207  24.975  29.117  1.00  0.00     0.031 C 
ATOM     64  C   UNL A   1      46.665  27.171  30.171  1.00  0.00     0.037 A 
BRANCH  51  65
ATOM     65  C   UNL A   1      44.068  32.612  31.540  1.00  0.00     0.057 A 
ATOM     66  C   UNL A   1      44.467  33.672  30.717  1.00  0.00     0.134 A 
ATOM     67  C   UNL A   1      43.814  32.904  32.888  1.00  0.00     0.134 A 
ATOM     68  F   UNL A   1      44.736  33.462  29.419  1.00  0.00    -0.206 F 
ATOM     69  C   UNL A   1      44.645  34.963  31.219  1.00  0.00     0.040 A 
ATOM     70  C   UNL A   1      43.956  34.197  33.394  1.00  0.00     0.040 A 
ATOM     71  F   UNL A   1      43.419  31.940  33.733  1.00  0.00    -0.206 F 
ATOM     72  C   UNL A   1      44.383  35.229  32.561  1.00  0.00     0.006 A 
ENDBRANCH  51  65
BRANCH  52  73
ATOM     73  C   UNL A   1      42.559  23.633  27.471  1.00  0.00     0.057 A 
ATOM     74  C   UNL A   1      42.671  23.496  26.082  1.00  0.00     0.134 A 
ATOM     75  C   UNL A   1      42.254  22.482  28.208  1.00  0.00     0.134 A 
ATOM     76  F   UNL A   1      42.943  24.565  25.319  1.00  0.00    -0.206 F 
ATOM     77  C   UNL A   1      42.473  22.267  25.450  1.00  0.00     0.040 A 
ATOM     78  C   UNL A   1      42.081  21.243  27.593  1.00  0.00     0.040 A 
ATOM     79  F   UNL A   1      42.141  22.545  29.544  1.00  0.00    -0.206 F 
ATOM     80  C   UNL A   1      42.184  21.134  26.207  1.00  0.00     0.006 A 
ENDBRANCH  52  73
BRANCH  64  81
ATOM     81  C   UNL A   1      48.076  26.717  30.414  1.00  0.00     0.057 A 
ATOM     82  C   UNL A   1      48.437  25.994  31.558  1.00  0.00     0.134 A 
ATOM     83  C   UNL A   1      49.078  26.973  29.469  1.00  0.00     0.134 A 
ATOM     84  F   UNL A   1      47.529  25.726  32.509  1.00  0.00    -0.206 F 
ATOM     85  C   UNL A   1      49.748  25.563  31.765  1.00  0.00     0.040 A 
ATOM     86  C   UNL A   1      50.386  26.521  29.649  1.00  0.00     0.040 A 
ATOM     87  F   UNL A   1      48.799  27.652  28.346  1.00  0.00    -0.206 F 
ATOM     88  C   UNL A   1      50.725  25.820  30.804  1.00  0.00     0.006 A 
ENDBRANCH  64  81
ENDBRANCH  38  39
ENDBRANCH  30  33
ENDBRANCH  28  29
ENDBRANCH  27  28
ENDBRANCH  26  27
ENDBRANCH   1  26
TORSDOF 16
ENDMDL
MODEL 3
REMARK VINA RESULT:     -10.8      4.365      8.115
REMARK SMILES CCc1cc(OCC(=O)NCCCCNC(=O)c2ccc(-c3c4nc(c(-c5c(F)cccc5F)c5ccc([nH]5)c(-c5c(F)cccc5F)c5nc(c(-c6c(F)cccc6F)c6ccc3[nH]6)C=C5)C=C4)cc2)nc(Nc2ccc(C)c(F)c2)n1
REMARK SMILES IDX 11 1 10 2 8 3 9 4 7 6 6 7 5 8 3 9 4 10 83 11 73 12 72 13
REMARK SMILES IDX 2 14 1 15 74 16 75 18 76 19 82 20 77 21 80 22 78 23 81 24
REMARK SMILES IDX 79 25 12 26 13 27 14 28 15 29 16 30 17 32 18 33 19 34 71 35
REMARK SMILES IDX 20 36 70 37 21 38 22 39 23 40 64 41 24 42 69 43 63 44 65 45
REMARK SMILES IDX 25 46 68 47 62 48 61 49 26 51 52 52 35 53 51 54 36 55 39 56
REMARK SMILES IDX 50 57 66 58 37 59 38 60 49 62 67 63 40 64 27 65 28 66 33 67
REMARK SMILES IDX 29 68 30 69 32 70 34 71 31 72 53 73 54 74 59 75 55 76 56 77
REMARK SMILES IDX 58 78 60 79 57 80 41 81 42 82 47 83 43 84 44 85 46 86 48 87
REMARK SMILES IDX 45 88
REMARK H PARENT 10 5 74 17 15 31 65 50 39 61
REMARK Flexibility Score: inf
ROOT
ATOM      1  C   UNL A   1      32.529  29.810  26.781  1.00  0.00     0.116 C 
ENDROOT
BRANCH   1   2
ATOM      2  N   UNL A   1      31.788  28.623  27.161  1.00  0.00    -0.353 N 
ATOM      3  C   UNL A   1      31.606  27.478  26.443  1.00  0.00     0.258 C 
ATOM      4  O   UNL A   1      30.955  26.559  26.945  1.00  0.00    -0.271 OA
ATOM      5  H   UNL A   1      31.364  28.647  28.049  1.00  0.00     0.163 HD
BRANCH   3   6
ATOM      6  C   UNL A   1      32.222  27.347  25.043  1.00  0.00     0.331 C 
BRANCH   6   7
ATOM      7  O   UNL A   1      31.882  26.199  24.283  1.00  0.00    -0.467 OA
BRANCH   7   8
ATOM      8  C   UNL A   1      32.677  25.094  24.406  1.00  0.00     0.218 A 
ATOM      9  C   UNL A   1      34.695  23.925  24.605  1.00  0.00     0.050 A 
ATOM     10  C   UNL A   1      34.052  25.104  24.322  1.00  0.00     0.092 A 
ATOM     11  N   UNL A   1      34.005  22.805  24.869  1.00  0.00    -0.218 NA
ATOM     12  C   UNL A   1      32.663  22.848  24.842  1.00  0.00     0.230 A 
ATOM     13  N   UNL A   1      31.970  23.970  24.626  1.00  0.00    -0.177 NA
BRANCH   9  14
ATOM     14  C   UNL A   1      36.194  23.776  24.578  1.00  0.00     0.053 C 
ATOM     15  C   UNL A   1      36.741  22.860  23.492  1.00  0.00     0.011 C 
ENDBRANCH   9  14
BRANCH  12  16
ATOM     16  N   UNL A   1      31.949  21.654  24.952  1.00  0.00    -0.324 N 
ATOM     17  H   UNL A   1      31.019  21.723  25.270  1.00  0.00     0.170 HD
BRANCH  16  18
ATOM     18  C   UNL A   1      32.419  20.369  24.657  1.00  0.00     0.044 A 
ATOM     19  C   UNL A   1      32.904  19.543  25.677  1.00  0.00     0.026 A 
ATOM     20  C   UNL A   1      32.269  19.826  23.376  1.00  0.00     0.065 A 
ATOM     21  C   UNL A   1      33.198  18.195  25.428  1.00  0.00     0.008 A 
ATOM     22  C   UNL A   1      32.579  18.495  23.128  1.00  0.00     0.128 A 
ATOM     23  C   UNL A   1      33.028  17.655  24.147  1.00  0.00    -0.015 A 
ATOM     24  F   UNL A   1      32.414  18.016  21.885  1.00  0.00    -0.207 F 
ATOM     25  C   UNL A   1      33.272  16.199  23.893  1.00  0.00     0.047 C 
ENDBRANCH  16  18
ENDBRANCH  12  16
ENDBRANCH   7   8
ENDBRANCH   6   7
ENDBRANCH   3   6
ENDBRANCH   1   2
BRANCH   1  26
ATOM     26  C   UNL A   1      31.688  30.775  25.950  1.00  0.00     0.023 C 
BRANCH  26  27
ATOM     27  C   UNL A   1      31.402  32.126  26.614  1.00  0.00     0.023 C 
BRANCH  27  28
ATOM     28  C   UNL A   1      32.591  32.791  27.300  1.00  0.00     0.116 C 
BRANCH  28  29
ATOM     29  N   UNL A   1      32.359  34.190  27.622  1.00  0.00    -0.352 N 
ATOM     30  C   UNL A   1      33.001  34.994  28.533  1.00  0.00     0.251 C 
ATOM     31  H   UNL A   1      31.635  34.623  27.114  1.00  0.00     0.163 HD
ATOM     32  O   UNL A   1      32.583  36.127  28.754  1.00  0.00    -0.269 OA
BRANCH  30  33
ATOM     33  C   UNL A   1      34.176  34.487  29.274  1.00  0.00     0.039 A 
ATOM     34  C   UNL A   1      33.977  33.887  30.520  1.00  0.00     0.014 A 
ATOM     35  C   UNL A   1      35.465  34.592  28.745  1.00  0.00     0.014 A 
ATOM     36  C   UNL A   1      35.060  33.330  31.203  1.00  0.00     0.010 A 
ATOM     37  C   UNL A   1      36.531  33.969  29.390  1.00  0.00     0.010 A 
ATOM     38  C   UNL A   1      36.340  33.330  30.625  1.00  0.00    -0.014 A 
BRANCH  38  39
ATOM     39  C   UNL A   1      37.484  32.653  31.290  1.00  0.00     0.031 A 
ATOM     40  C   UNL A   1      38.183  31.504  30.619  1.00  0.00     0.074 A 
ATOM     41  C   UNL A   1      37.846  33.024  32.534  1.00  0.00     0.049 A 
ATOM     42  N   UNL A   1      39.153  30.748  31.069  1.00  0.00    -0.248 NA
ATOM     43  C   UNL A   1      37.711  31.136  29.276  1.00  0.00     0.031 C 
ATOM     44  C   UNL A   1      37.210  34.084  33.320  1.00  0.00     0.029 A 
ATOM     45  N   UNL A   1      38.826  32.538  33.365  1.00  0.00    -0.354 N 
ATOM     46  C   UNL A   1      39.394  29.808  30.076  1.00  0.00     0.074 A 
ATOM     47  C   UNL A   1      38.433  30.055  29.022  1.00  0.00     0.031 C 
ATOM     48  C   UNL A   1      37.824  34.178  34.509  1.00  0.00     0.029 A 
ATOM     49  C   UNL A   1      38.869  33.162  34.589  1.00  0.00     0.049 A 
ATOM     50  H   UNL A   1      39.439  31.813  33.109  1.00  0.00     0.167 HD
ATOM     51  C   UNL A   1      40.340  28.840  30.036  1.00  0.00     0.037 A 
ATOM     52  C   UNL A   1      39.650  32.932  35.661  1.00  0.00     0.037 A 
ATOM     53  C   UNL A   1      41.306  28.609  31.078  1.00  0.00     0.049 A 
ATOM     54  C   UNL A   1      40.696  31.854  35.594  1.00  0.00     0.074 A 
ATOM     55  C   UNL A   1      42.355  27.707  31.097  1.00  0.00     0.029 A 
ATOM     56  N   UNL A   1      41.336  29.279  32.292  1.00  0.00    -0.354 N 
ATOM     57  N   UNL A   1      40.971  31.031  34.612  1.00  0.00    -0.248 NA
ATOM     58  C   UNL A   1      41.546  31.680  36.779  1.00  0.00     0.031 C 
ATOM     59  C   UNL A   1      42.981  27.787  32.345  1.00  0.00     0.029 A 
ATOM     60  C   UNL A   1      42.362  28.785  33.081  1.00  0.00     0.049 A 
ATOM     61  H   UNL A   1      40.718  30.000  32.555  1.00  0.00     0.167 HD
ATOM     62  C   UNL A   1      42.038  30.257  35.051  1.00  0.00     0.074 A 
ATOM     63  C   UNL A   1      42.371  30.722  36.380  1.00  0.00     0.031 C 
ATOM     64  C   UNL A   1      42.684  29.254  34.407  1.00  0.00     0.037 A 
BRANCH  51  65
ATOM     65  C   UNL A   1      40.367  27.947  28.827  1.00  0.00     0.057 A 
ATOM     66  C   UNL A   1      41.112  28.263  27.684  1.00  0.00     0.134 A 
ATOM     67  C   UNL A   1      39.653  26.740  28.817  1.00  0.00     0.134 A 
ATOM     68  F   UNL A   1      41.811  29.406  27.622  1.00  0.00    -0.206 F 
ATOM     69  C   UNL A   1      41.119  27.432  26.561  1.00  0.00     0.040 A 
ATOM     70  C   UNL A   1      39.678  25.886  27.713  1.00  0.00     0.040 A 
ATOM     71  F   UNL A   1      38.924  26.369  29.880  1.00  0.00    -0.206 F 
ATOM     72  C   UNL A   1      40.405  26.237  26.577  1.00  0.00     0.006 A 
ENDBRANCH  51  65
BRANCH  52  73
ATOM     73  C   UNL A   1      39.476  33.752  36.887  1.00  0.00     0.057 A 
ATOM     74  C   UNL A   1      38.704  33.297  37.962  1.00  0.00     0.134 A 
ATOM     75  C   UNL A   1      40.087  35.006  37.019  1.00  0.00     0.134 A 
ATOM     76  F   UNL A   1      38.079  32.112  37.890  1.00  0.00    -0.206 F 
ATOM     77  C   UNL A   1      38.531  34.064  39.115  1.00  0.00     0.040 A 
ATOM     78  C   UNL A   1      39.945  35.771  38.176  1.00  0.00     0.040 A 
ATOM     79  F   UNL A   1      40.847  35.495  36.027  1.00  0.00    -0.206 F 
ATOM     80  C   UNL A   1      39.160  35.303  39.227  1.00  0.00     0.006 A 
ENDBRANCH  52  73
BRANCH  64  81
ATOM     81  C   UNL A   1      43.837  28.607  35.120  1.00  0.00     0.057 A 
ATOM     82  C   UNL A   1      45.139  29.116  35.041  1.00  0.00     0.134 A 
ATOM     83  C   UNL A   1      43.632  27.481  35.929  1.00  0.00     0.134 A 
ATOM     84  F   UNL A   1      45.407  30.185  34.274  1.00  0.00    -0.206 F 
ATOM     85  C   UNL A   1      46.200  28.516  35.721  1.00  0.00     0.040 A 
ATOM     86  C   UNL A   1      44.679  26.890  36.638  1.00  0.00     0.040 A 
ATOM     87  F   UNL A   1      42.409  26.947  36.057  1.00  0.00    -0.206 F 
ATOM     88  C   UNL A   1      45.969  27.404  36.529  1.00  0.00     0.006 A 
ENDBRANCH  64  81
ENDBRANCH  38  39
ENDBRANCH  30  33
ENDBRANCH  28  29
ENDBRANCH  27  28
ENDBRANCH  26  27
ENDBRANCH   1  26
TORSDOF 16
ENDMDL
