MODEL 1
REMARK VINA RESULT:     -10.4      0.000      0.000
REMARK SMILES CCC[C@@H](C)C[C@H](C(=O)NCCCCNC(=O)c1ccc(-c2c3nc(c(-c4c(F)cccc4F)c4ccc([nH]4)c(-c4c(F)cccc4F)c4nc(c(-c5c(F)cccc5F)c5ccc2[nH]5)C=C4)C=C3)cc1)c1ccccc1C
REMARK SMILES IDX 11 1 10 2 8 3 9 4 7 6 6 7 4 8 5 9 3 10 2 11 1 12 72 13 73 14
REMARK SMILES IDX 77 15 74 16 76 17 78 18 75 19 12 20 13 21 14 22 15 23 16 24
REMARK SMILES IDX 17 26 18 27 19 28 71 29 20 30 70 31 21 32 22 33 23 34 64 35
REMARK SMILES IDX 24 36 69 37 63 38 65 39 25 40 68 41 62 42 61 43 26 45 52 46
REMARK SMILES IDX 35 47 51 48 36 49 39 50 50 51 66 52 37 53 38 54 49 56 67 57
REMARK SMILES IDX 40 58 27 59 28 60 33 61 29 62 30 63 32 64 34 65 31 66 53 67
REMARK SMILES IDX 54 68 59 69 55 70 56 71 58 72 60 73 57 74 41 75 42 76 47 77
REMARK SMILES IDX 43 78 44 79 46 80 48 81 45 82
REMARK H PARENT 10 5 15 25 65 44 39 55
REMARK Flexibility Score: inf
ROOT
ATOM      1  C   UNL A   1      36.097  21.673  25.896  1.00  0.00     0.116 C 
ENDROOT
BRANCH   1   2
ATOM      2  N   UNL A   1      35.087  21.604  26.936  1.00  0.00    -0.356 N 
ATOM      3  C   UNL A   1      33.771  21.994  26.936  1.00  0.00     0.227 C 
ATOM      4  O   UNL A   1      33.138  21.695  27.954  1.00  0.00    -0.274 OA
ATOM      5  H   UNL A   1      35.398  21.211  27.783  1.00  0.00     0.163 HD
BRANCH   3   6
ATOM      6  C   UNL A   1      33.165  22.850  25.794  1.00  0.00     0.109 C 
BRANCH   6   7
ATOM      7  C   UNL A   1      31.790  22.411  25.197  1.00  0.00     0.021 C 
BRANCH   7   8
ATOM      8  C   UNL A   1      31.554  22.578  23.674  1.00  0.00    -0.013 C 
ATOM      9  C   UNL A   1      32.902  22.504  22.941  1.00  0.00     0.007 C 
BRANCH   8  10
ATOM     10  C   UNL A   1      30.824  23.863  23.253  1.00  0.00     0.003 C 
BRANCH  10  11
ATOM     11  C   UNL A   1      31.761  24.969  22.737  1.00  0.00    -0.003 C 
ATOM     12  C   UNL A   1      31.132  26.358  22.700  1.00  0.00     0.004 C 
ENDBRANCH  10  11
ENDBRANCH   8  10
ENDBRANCH   7   8
ENDBRANCH   6   7
BRANCH   6  13
ATOM     13  C   UNL A   1      33.101  24.370  26.071  1.00  0.00    -0.033 A 
ATOM     14  C   UNL A   1      31.913  24.912  26.595  1.00  0.00     0.005 A 
ATOM     15  C   UNL A   1      34.100  25.276  25.638  1.00  0.00    -0.047 A 
ATOM     16  C   UNL A   1      31.633  26.279  26.533  1.00  0.00     0.000 A 
ATOM     17  C   UNL A   1      33.803  26.656  25.587  1.00  0.00     0.004 A 
ATOM     18  C   UNL A   1      35.513  24.897  25.283  1.00  0.00     0.044 C 
ATOM     19  C   UNL A   1      32.566  27.148  25.991  1.00  0.00     0.000 A 
ENDBRANCH   6  13
ENDBRANCH   3   6
ENDBRANCH   1   2
BRANCH   1  20
ATOM     20  C   UNL A   1      36.255  20.399  25.071  1.00  0.00     0.023 C 
BRANCH  20  21
ATOM     21  C   UNL A   1      37.688  20.001  24.702  1.00  0.00     0.023 C 
BRANCH  21  22
ATOM     22  C   UNL A   1      38.779  20.304  25.727  1.00  0.00     0.116 C 
BRANCH  22  23
ATOM     23  N   UNL A   1      39.873  19.343  25.725  1.00  0.00    -0.352 N 
ATOM     24  C   UNL A   1      41.195  19.500  26.071  1.00  0.00     0.251 C 
ATOM     25  H   UNL A   1      39.627  18.438  25.428  1.00  0.00     0.163 HD
ATOM     26  O   UNL A   1      41.985  18.574  25.898  1.00  0.00    -0.269 OA
BRANCH  24  27
ATOM     27  C   UNL A   1      41.689  20.787  26.613  1.00  0.00     0.039 A 
ATOM     28  C   UNL A   1      42.197  21.740  25.725  1.00  0.00     0.014 A 
ATOM     29  C   UNL A   1      41.657  21.061  27.981  1.00  0.00     0.014 A 
ATOM     30  C   UNL A   1      42.581  22.998  26.199  1.00  0.00     0.010 A 
ATOM     31  C   UNL A   1      41.961  22.341  28.441  1.00  0.00     0.010 A 
ATOM     32  C   UNL A   1      42.420  23.328  27.555  1.00  0.00    -0.014 A 
BRANCH  32  33
ATOM     33  C   UNL A   1      42.709  24.701  28.052  1.00  0.00     0.031 A 
ATOM     34  C   UNL A   1      44.110  25.099  28.435  1.00  0.00     0.074 A 
ATOM     35  C   UNL A   1      41.697  25.578  28.217  1.00  0.00     0.049 A 
ATOM     36  N   UNL A   1      44.542  26.234  28.924  1.00  0.00    -0.248 NA
ATOM     37  C   UNL A   1      45.156  24.079  28.271  1.00  0.00     0.031 C 
ATOM     38  C   UNL A   1      40.286  25.303  27.938  1.00  0.00     0.029 A 
ATOM     39  N   UNL A   1      41.699  26.875  28.666  1.00  0.00    -0.354 N 
ATOM     40  C   UNL A   1      45.904  26.060  29.135  1.00  0.00     0.074 A 
ATOM     41  C   UNL A   1      46.215  24.694  28.777  1.00  0.00     0.031 C 
ATOM     42  C   UNL A   1      39.564  26.406  28.192  1.00  0.00     0.029 A 
ATOM     43  C   UNL A   1      40.451  27.453  28.690  1.00  0.00     0.049 A 
ATOM     44  H   UNL A   1      42.516  27.348  28.944  1.00  0.00     0.167 HD
ATOM     45  C   UNL A   1      46.820  26.964  29.562  1.00  0.00     0.037 A 
ATOM     46  C   UNL A   1      40.063  28.684  29.074  1.00  0.00     0.037 A 
ATOM     47  C   UNL A   1      46.515  28.329  29.903  1.00  0.00     0.049 A 
ATOM     48  C   UNL A   1      41.097  29.665  29.554  1.00  0.00     0.074 A 
ATOM     49  C   UNL A   1      47.382  29.335  30.291  1.00  0.00     0.029 A 
ATOM     50  N   UNL A   1      45.240  28.878  29.903  1.00  0.00    -0.354 N 
ATOM     51  N   UNL A   1      42.392  29.510  29.675  1.00  0.00    -0.248 NA
ATOM     52  C   UNL A   1      40.613  30.997  29.946  1.00  0.00     0.031 C 
ATOM     53  C   UNL A   1      46.627  30.479  30.575  1.00  0.00     0.029 A 
ATOM     54  C   UNL A   1      45.297  30.202  30.308  1.00  0.00     0.049 A 
ATOM     55  H   UNL A   1      44.418  28.398  29.652  1.00  0.00     0.167 HD
ATOM     56  C   UNL A   1      42.883  30.730  30.124  1.00  0.00     0.074 A 
ATOM     57  C   UNL A   1      41.746  31.619  30.240  1.00  0.00     0.031 C 
ATOM     58  C   UNL A   1      44.159  31.081  30.414  1.00  0.00     0.037 A 
BRANCH  45  59
ATOM     59  C   UNL A   1      48.245  26.502  29.682  1.00  0.00     0.057 A 
ATOM     60  C   UNL A   1      49.168  26.666  28.639  1.00  0.00     0.134 A 
ATOM     61  C   UNL A   1      48.712  25.916  30.867  1.00  0.00     0.134 A 
ATOM     62  F   UNL A   1      48.785  27.211  27.474  1.00  0.00    -0.206 F 
ATOM     63  C   UNL A   1      50.491  26.240  28.759  1.00  0.00     0.040 A 
ATOM     64  C   UNL A   1      50.041  25.514  31.010  1.00  0.00     0.040 A 
ATOM     65  F   UNL A   1      47.886  25.736  31.909  1.00  0.00    -0.206 F 
ATOM     66  C   UNL A   1      50.932  25.667  29.951  1.00  0.00     0.006 A 
ENDBRANCH  45  59
BRANCH  46  67
ATOM     67  C   UNL A   1      38.630  29.072  28.997  1.00  0.00     0.057 A 
ATOM     68  C   UNL A   1      38.070  29.537  27.801  1.00  0.00     0.134 A 
ATOM     69  C   UNL A   1      37.793  29.007  30.117  1.00  0.00     0.134 A 
ATOM     70  F   UNL A   1      38.825  29.641  26.698  1.00  0.00    -0.206 F 
ATOM     71  C   UNL A   1      36.736  29.942  27.726  1.00  0.00     0.040 A 
ATOM     72  C   UNL A   1      36.450  29.383  30.050  1.00  0.00     0.040 A 
ATOM     73  F   UNL A   1      38.265  28.564  31.291  1.00  0.00    -0.206 F 
ATOM     74  C   UNL A   1      35.920  29.862  28.852  1.00  0.00     0.006 A 
ENDBRANCH  46  67
BRANCH  58  75
ATOM     75  C   UNL A   1      44.401  32.498  30.846  1.00  0.00     0.057 A 
ATOM     76  C   UNL A   1      44.648  33.525  29.926  1.00  0.00     0.134 A 
ATOM     77  C   UNL A   1      44.356  32.846  32.203  1.00  0.00     0.134 A 
ATOM     78  F   UNL A   1      44.718  33.260  28.612  1.00  0.00    -0.206 F 
ATOM     79  C   UNL A   1      44.870  34.840  30.340  1.00  0.00     0.040 A 
ATOM     80  C   UNL A   1      44.545  34.162  32.628  1.00  0.00     0.040 A 
ATOM     81  F   UNL A   1      44.113  31.915  33.138  1.00  0.00    -0.206 F 
ATOM     82  C   UNL A   1      44.811  35.162  31.695  1.00  0.00     0.006 A 
ENDBRANCH  58  75
ENDBRANCH  32  33
ENDBRANCH  24  27
ENDBRANCH  22  23
ENDBRANCH  21  22
ENDBRANCH  20  21
ENDBRANCH   1  20
TORSDOF 16
ENDMDL
MODEL 2
REMARK VINA RESULT:     -10.3      1.362      6.455
REMARK SMILES CCC[C@@H](C)C[C@H](C(=O)NCCCCNC(=O)c1ccc(-c2c3nc(c(-c4c(F)cccc4F)c4ccc([nH]4)c(-c4c(F)cccc4F)c4nc(c(-c5c(F)cccc5F)c5ccc2[nH]5)C=C4)C=C3)cc1)c1ccccc1C
REMARK SMILES IDX 11 1 10 2 8 3 9 4 7 6 6 7 4 8 5 9 3 10 2 11 1 12 72 13 73 14
REMARK SMILES IDX 77 15 74 16 76 17 78 18 75 19 12 20 13 21 14 22 15 23 16 24
REMARK SMILES IDX 17 26 18 27 19 28 71 29 20 30 70 31 21 32 22 33 23 34 64 35
REMARK SMILES IDX 24 36 69 37 63 38 65 39 25 40 68 41 62 42 61 43 26 45 52 46
REMARK SMILES IDX 35 47 51 48 36 49 39 50 50 51 66 52 37 53 38 54 49 56 67 57
REMARK SMILES IDX 40 58 27 59 28 60 33 61 29 62 30 63 32 64 34 65 31 66 53 67
REMARK SMILES IDX 54 68 59 69 55 70 56 71 58 72 60 73 57 74 41 75 42 76 47 77
REMARK SMILES IDX 43 78 44 79 46 80 48 81 45 82
REMARK H PARENT 10 5 15 25 65 44 39 55
REMARK Flexibility Score: inf
ROOT
ATOM      1  C   UNL A   1      36.474  21.910  25.761  1.00  0.00     0.116 C 
ENDROOT
BRANCH   1   2
ATOM      2  N   UNL A   1      35.527  21.996  26.858  1.00  0.00    -0.356 N 
ATOM      3  C   UNL A   1      34.215  22.395  26.882  1.00  0.00     0.227 C 
ATOM      4  O   UNL A   1      33.643  22.246  27.967  1.00  0.00    -0.274 OA
ATOM      5  H   UNL A   1      35.889  21.722  27.732  1.00  0.00     0.163 HD
BRANCH   3   6
ATOM      6  C   UNL A   1      33.543  23.089  25.669  1.00  0.00     0.109 C 
BRANCH   6   7
ATOM      7  C   UNL A   1      32.993  22.187  24.518  1.00  0.00     0.021 C 
BRANCH   7   8
ATOM      8  C   UNL A   1      33.163  22.665  23.054  1.00  0.00    -0.013 C 
ATOM      9  C   UNL A   1      34.558  23.286  22.882  1.00  0.00     0.007 C 
BRANCH   8  10
ATOM     10  C   UNL A   1      32.105  23.662  22.554  1.00  0.00     0.003 C 
BRANCH  10  11
ATOM     11  C   UNL A   1      32.684  25.026  22.142  1.00  0.00    -0.003 C 
ATOM     12  C   UNL A   1      31.662  26.158  22.106  1.00  0.00     0.004 C 
ENDBRANCH  10  11
ENDBRANCH   8  10
ENDBRANCH   7   8
ENDBRANCH   6   7
BRANCH   6  13
ATOM     13  C   UNL A   1      32.453  24.127  26.023  1.00  0.00    -0.033 A 
ATOM     14  C   UNL A   1      31.163  23.669  26.351  1.00  0.00     0.005 A 
ATOM     15  C   UNL A   1      32.626  25.521  25.839  1.00  0.00    -0.047 A 
ATOM     16  C   UNL A   1      30.050  24.511  26.323  1.00  0.00     0.000 A 
ATOM     17  C   UNL A   1      31.490  26.359  25.821  1.00  0.00     0.004 A 
ATOM     18  C   UNL A   1      33.956  26.218  25.729  1.00  0.00     0.044 C 
ATOM     19  C   UNL A   1      30.209  25.853  26.018  1.00  0.00     0.000 A 
ENDBRANCH   6  13
ENDBRANCH   3   6
ENDBRANCH   1   2
BRANCH   1  20
ATOM     20  C   UNL A   1      36.495  20.567  25.037  1.00  0.00     0.023 C 
BRANCH  20  21
ATOM     21  C   UNL A   1      37.877  19.984  24.725  1.00  0.00     0.023 C 
BRANCH  21  22
ATOM     22  C   UNL A   1      38.995  20.273  25.725  1.00  0.00     0.116 C 
BRANCH  22  23
ATOM     23  N   UNL A   1      39.986  19.210  25.824  1.00  0.00    -0.352 N 
ATOM     24  C   UNL A   1      41.324  19.269  26.137  1.00  0.00     0.251 C 
ATOM     25  H   UNL A   1      39.643  18.307  25.637  1.00  0.00     0.163 HD
ATOM     26  O   UNL A   1      42.012  18.252  26.065  1.00  0.00    -0.269 OA
BRANCH  24  27
ATOM     27  C   UNL A   1      41.957  20.551  26.521  1.00  0.00     0.039 A 
ATOM     28  C   UNL A   1      42.421  21.402  25.512  1.00  0.00     0.014 A 
ATOM     29  C   UNL A   1      42.097  20.922  27.859  1.00  0.00     0.014 A 
ATOM     30  C   UNL A   1      42.935  22.659  25.843  1.00  0.00     0.010 A 
ATOM     31  C   UNL A   1      42.532  22.206  28.183  1.00  0.00     0.010 A 
ATOM     32  C   UNL A   1      42.950  23.093  27.179  1.00  0.00    -0.014 A 
BRANCH  32  33
ATOM     33  C   UNL A   1      43.380  24.473  27.534  1.00  0.00     0.031 A 
ATOM     34  C   UNL A   1      42.367  25.514  27.930  1.00  0.00     0.074 A 
ATOM     35  C   UNL A   1      44.683  24.811  27.443  1.00  0.00     0.049 A 
ATOM     36  N   UNL A   1      42.552  26.775  28.231  1.00  0.00    -0.248 NA
ATOM     37  C   UNL A   1      40.960  25.089  27.966  1.00  0.00     0.031 C 
ATOM     38  C   UNL A   1      45.762  23.915  27.019  1.00  0.00     0.029 A 
ATOM     39  N   UNL A   1      45.322  26.000  27.695  1.00  0.00    -0.354 N 
ATOM     40  C   UNL A   1      41.287  27.293  28.481  1.00  0.00     0.074 A 
ATOM     41  C   UNL A   1      40.340  26.227  28.239  1.00  0.00     0.031 C 
ATOM     42  C   UNL A   1      46.929  24.576  27.069  1.00  0.00     0.029 A 
ATOM     43  C   UNL A   1      46.680  25.952  27.489  1.00  0.00     0.049 A 
ATOM     44  H   UNL A   1      44.852  26.811  27.995  1.00  0.00     0.167 HD
ATOM     45  C   UNL A   1      40.945  28.536  28.901  1.00  0.00     0.037 A 
ATOM     46  C   UNL A   1      47.621  26.907  27.618  1.00  0.00     0.037 A 
ATOM     47  C   UNL A   1      41.889  29.593  29.159  1.00  0.00     0.049 A 
ATOM     48  C   UNL A   1      47.215  28.282  28.075  1.00  0.00     0.074 A 
ATOM     49  C   UNL A   1      41.645  30.867  29.640  1.00  0.00     0.029 A 
ATOM     50  N   UNL A   1      43.257  29.500  28.948  1.00  0.00    -0.354 N 
ATOM     51  N   UNL A   1      46.024  28.734  28.382  1.00  0.00    -0.248 NA
ATOM     52  C   UNL A   1      48.288  29.278  28.211  1.00  0.00     0.031 C 
ATOM     53  C   UNL A   1      42.859  31.563  29.673  1.00  0.00     0.029 A 
ATOM     54  C   UNL A   1      43.866  30.703  29.268  1.00  0.00     0.049 A 
ATOM     55  H   UNL A   1      43.725  28.698  28.621  1.00  0.00     0.167 HD
ATOM     56  C   UNL A   1      46.207  30.053  28.777  1.00  0.00     0.074 A 
ATOM     57  C   UNL A   1      47.626  30.323  28.685  1.00  0.00     0.031 C 
ATOM     58  C   UNL A   1      45.282  30.959  29.179  1.00  0.00     0.037 A 
BRANCH  45  59
ATOM     59  C   UNL A   1      39.484  28.819  29.110  1.00  0.00     0.057 A 
ATOM     60  C   UNL A   1      38.869  28.650  30.359  1.00  0.00     0.134 A 
ATOM     61  C   UNL A   1      38.689  29.299  28.062  1.00  0.00     0.134 A 
ATOM     62  F   UNL A   1      39.570  28.184  31.404  1.00  0.00    -0.206 F 
ATOM     63  C   UNL A   1      37.513  28.919  30.549  1.00  0.00     0.040 A 
ATOM     64  C   UNL A   1      37.339  29.601  28.247  1.00  0.00     0.040 A 
ATOM     65  F   UNL A   1      39.214  29.493  26.842  1.00  0.00    -0.206 F 
ATOM     66  C   UNL A   1      36.745  29.403  29.491  1.00  0.00     0.006 A 
ENDBRANCH  45  59
BRANCH  46  67
ATOM     67  C   UNL A   1      49.047  26.595  27.336  1.00  0.00     0.057 A 
ATOM     68  C   UNL A   1      49.604  26.839  26.074  1.00  0.00     0.134 A 
ATOM     69  C   UNL A   1      49.879  26.030  28.309  1.00  0.00     0.134 A 
ATOM     70  F   UNL A   1      48.852  27.361  25.094  1.00  0.00    -0.206 F 
ATOM     71  C   UNL A   1      50.930  26.513  25.785  1.00  0.00     0.040 A 
ATOM     72  C   UNL A   1      51.215  25.724  28.041  1.00  0.00     0.040 A 
ATOM     73  F   UNL A   1      49.409  25.778  29.539  1.00  0.00    -0.206 F 
ATOM     74  C   UNL A   1      51.741  25.958  26.772  1.00  0.00     0.006 A 
ENDBRANCH  46  67
BRANCH  58  75
ATOM     75  C   UNL A   1      45.780  32.315  29.589  1.00  0.00     0.057 A 
ATOM     76  C   UNL A   1      46.183  32.594  30.901  1.00  0.00     0.134 A 
ATOM     77  C   UNL A   1      45.888  33.348  28.647  1.00  0.00     0.134 A 
ATOM     78  F   UNL A   1      46.094  31.654  31.855  1.00  0.00    -0.206 F 
ATOM     79  C   UNL A   1      46.646  33.859  31.270  1.00  0.00     0.040 A 
ATOM     80  C   UNL A   1      46.379  34.607  28.997  1.00  0.00     0.040 A 
ATOM     81  F   UNL A   1      45.530  33.147  27.370  1.00  0.00    -0.206 F 
ATOM     82  C   UNL A   1      46.752  34.868  30.314  1.00  0.00     0.006 A 
ENDBRANCH  58  75
ENDBRANCH  32  33
ENDBRANCH  24  27
ENDBRANCH  22  23
ENDBRANCH  21  22
ENDBRANCH  20  21
ENDBRANCH   1  20
TORSDOF 16
ENDMDL
MODEL 3
REMARK VINA RESULT:     -10.2      2.526      7.474
REMARK SMILES CCC[C@@H](C)C[C@H](C(=O)NCCCCNC(=O)c1ccc(-c2c3nc(c(-c4c(F)cccc4F)c4ccc([nH]4)c(-c4c(F)cccc4F)c4nc(c(-c5c(F)cccc5F)c5ccc2[nH]5)C=C4)C=C3)cc1)c1ccccc1C
REMARK SMILES IDX 11 1 10 2 8 3 9 4 7 6 6 7 4 8 5 9 3 10 2 11 1 12 72 13 73 14
REMARK SMILES IDX 77 15 74 16 76 17 78 18 75 19 12 20 13 21 14 22 15 23 16 24
REMARK SMILES IDX 17 26 18 27 19 28 71 29 20 30 70 31 21 32 22 33 23 34 64 35
REMARK SMILES IDX 24 36 69 37 63 38 65 39 25 40 68 41 62 42 61 43 26 45 52 46
REMARK SMILES IDX 35 47 51 48 36 49 39 50 50 51 66 52 37 53 38 54 49 56 67 57
REMARK SMILES IDX 40 58 27 59 28 60 33 61 29 62 30 63 32 64 34 65 31 66 53 67
REMARK SMILES IDX 54 68 59 69 55 70 56 71 58 72 60 73 57 74 41 75 42 76 47 77
REMARK SMILES IDX 43 78 44 79 46 80 48 81 45 82
REMARK H PARENT 10 5 15 25 65 44 39 55
REMARK Flexibility Score: inf
ROOT
ATOM      1  C   UNL A   1      32.095  27.484  23.793  1.00  0.00     0.116 C 
ENDROOT
BRANCH   1   2
ATOM      2  N   UNL A   1      32.691  26.921  22.595  1.00  0.00    -0.356 N 
ATOM      3  C   UNL A   1      33.062  25.634  22.296  1.00  0.00     0.227 C 
ATOM      4  O   UNL A   1      33.442  25.457  21.134  1.00  0.00    -0.274 OA
ATOM      5  H   UNL A   1      32.855  27.573  21.876  1.00  0.00     0.163 HD
BRANCH   3   6
ATOM      6  C   UNL A   1      33.111  24.520  23.373  1.00  0.00     0.109 C 
BRANCH   6   7
ATOM      7  C   UNL A   1      32.313  23.203  23.105  1.00  0.00     0.021 C 
BRANCH   7   8
ATOM      8  C   UNL A   1      31.507  22.574  24.269  1.00  0.00    -0.013 C 
ATOM      9  C   UNL A   1      31.024  23.687  25.212  1.00  0.00     0.007 C 
BRANCH   8  10
ATOM     10  C   UNL A   1      32.250  21.508  25.091  1.00  0.00     0.003 C 
BRANCH  10  11
ATOM     11  C   UNL A   1      33.147  20.588  24.246  1.00  0.00    -0.003 C 
ATOM     12  C   UNL A   1      32.575  19.193  24.014  1.00  0.00     0.004 C 
ENDBRANCH  10  11
ENDBRANCH   8  10
ENDBRANCH   7   8
ENDBRANCH   6   7
BRANCH   6  13
ATOM     13  C   UNL A   1      34.527  24.129  23.855  1.00  0.00    -0.033 A 
ATOM     14  C   UNL A   1      35.329  23.329  23.019  1.00  0.00     0.005 A 
ATOM     15  C   UNL A   1      34.986  24.364  25.174  1.00  0.00    -0.047 A 
ATOM     16  C   UNL A   1      36.440  22.636  23.504  1.00  0.00     0.000 A 
ATOM     17  C   UNL A   1      36.115  23.660  25.646  1.00  0.00     0.004 A 
ATOM     18  C   UNL A   1      34.403  25.378  26.122  1.00  0.00     0.044 C 
ATOM     19  C   UNL A   1      36.810  22.771  24.832  1.00  0.00     0.000 A 
ENDBRANCH   6  13
ENDBRANCH   3   6
ENDBRANCH   1   2
BRANCH   1  20
ATOM     20  C   UNL A   1      33.007  28.418  24.583  1.00  0.00     0.023 C 
BRANCH  20  21
ATOM     21  C   UNL A   1      32.593  28.709  26.029  1.00  0.00     0.023 C 
BRANCH  21  22
ATOM     22  C   UNL A   1      33.714  28.875  27.054  1.00  0.00     0.116 C 
BRANCH  22  23
ATOM     23  N   UNL A   1      33.736  30.180  27.698  1.00  0.00    -0.352 N 
ATOM     24  C   UNL A   1      34.739  30.810  28.397  1.00  0.00     0.251 C 
ATOM     25  H   UNL A   1      32.899  30.693  27.621  1.00  0.00     0.163 HD
ATOM     26  O   UNL A   1      34.513  31.883  28.954  1.00  0.00    -0.269 OA
BRANCH  24  27
ATOM     27  C   UNL A   1      36.079  30.192  28.523  1.00  0.00     0.039 A 
ATOM     28  C   UNL A   1      36.928  30.194  27.411  1.00  0.00     0.014 A 
ATOM     29  C   UNL A   1      36.504  29.614  29.719  1.00  0.00     0.014 A 
ATOM     30  C   UNL A   1      38.231  29.703  27.530  1.00  0.00     0.010 A 
ATOM     31  C   UNL A   1      37.829  29.202  29.860  1.00  0.00     0.010 A 
ATOM     32  C   UNL A   1      38.710  29.247  28.770  1.00  0.00    -0.014 A 
BRANCH  32  33
ATOM     33  C   UNL A   1      40.131  28.837  28.941  1.00  0.00     0.031 A 
ATOM     34  C   UNL A   1      41.143  29.796  29.508  1.00  0.00     0.074 A 
ATOM     35  C   UNL A   1      40.527  27.614  28.529  1.00  0.00     0.049 A 
ATOM     36  N   UNL A   1      42.429  29.628  29.691  1.00  0.00    -0.248 NA
ATOM     37  C   UNL A   1      40.651  31.126  29.895  1.00  0.00     0.031 C 
ATOM     38  C   UNL A   1      39.660  26.608  27.911  1.00  0.00     0.029 A 
ATOM     39  N   UNL A   1      41.761  27.013  28.561  1.00  0.00    -0.354 N 
ATOM     40  C   UNL A   1      42.898  30.831  30.203  1.00  0.00     0.074 A 
ATOM     41  C   UNL A   1      41.772  31.738  30.246  1.00  0.00     0.031 C 
ATOM     42  C   UNL A   1      40.381  25.505  27.651  1.00  0.00     0.029 A 
ATOM     43  C   UNL A   1      41.768  25.738  28.045  1.00  0.00     0.049 A 
ATOM     44  H   UNL A   1      42.565  27.452  28.921  1.00  0.00     0.167 HD
ATOM     45  C   UNL A   1      44.147  31.146  30.626  1.00  0.00     0.037 A 
ATOM     46  C   UNL A   1      42.776  24.857  27.900  1.00  0.00     0.037 A 
ATOM     47  C   UNL A   1      45.265  30.238  30.599  1.00  0.00     0.049 A 
ATOM     48  C   UNL A   1      44.155  25.234  28.366  1.00  0.00     0.074 A 
ATOM     49  C   UNL A   1      46.554  30.446  31.057  1.00  0.00     0.029 A 
ATOM     50  N   UNL A   1      45.228  28.953  30.078  1.00  0.00    -0.354 N 
ATOM     51  N   UNL A   1      44.566  26.348  28.920  1.00  0.00    -0.248 NA
ATOM     52  C   UNL A   1      45.211  24.225  28.194  1.00  0.00     0.031 C 
ATOM     53  C   UNL A   1      47.311  29.305  30.767  1.00  0.00     0.029 A 
ATOM     54  C   UNL A   1      46.478  28.365  30.183  1.00  0.00     0.049 A 
ATOM     55  H   UNL A   1      44.431  28.522  29.693  1.00  0.00     0.167 HD
ATOM     56  C   UNL A   1      45.916  26.165  29.191  1.00  0.00     0.074 A 
ATOM     57  C   UNL A   1      46.251  24.825  28.754  1.00  0.00     0.031 C 
ATOM     58  C   UNL A   1      46.799  27.028  29.751  1.00  0.00     0.037 A 
BRANCH  45  59
ATOM     59  C   UNL A   1      44.369  32.534  31.157  1.00  0.00     0.057 A 
ATOM     60  C   UNL A   1      44.751  33.594  30.322  1.00  0.00     0.134 A 
ATOM     61  C   UNL A   1      44.165  32.825  32.512  1.00  0.00     0.134 A 
ATOM     62  F   UNL A   1      44.973  33.383  29.016  1.00  0.00    -0.206 F 
ATOM     63  C   UNL A   1      44.951  34.882  30.820  1.00  0.00     0.040 A 
ATOM     64  C   UNL A   1      44.332  34.116  33.017  1.00  0.00     0.040 A 
ATOM     65  F   UNL A   1      43.790  31.861  33.367  1.00  0.00    -0.206 F 
ATOM     66  C   UNL A   1      44.734  35.147  32.171  1.00  0.00     0.006 A 
ENDBRANCH  45  59
BRANCH  46  67
ATOM     67  C   UNL A   1      42.518  23.518  27.308  1.00  0.00     0.057 A 
ATOM     68  C   UNL A   1      42.159  22.429  28.112  1.00  0.00     0.134 A 
ATOM     69  C   UNL A   1      42.640  23.290  25.932  1.00  0.00     0.134 A 
ATOM     70  F   UNL A   1      42.045  22.579  29.439  1.00  0.00    -0.206 F 
ATOM     71  C   UNL A   1      41.953  21.158  27.572  1.00  0.00     0.040 A 
ATOM     72  C   UNL A   1      42.410  22.031  25.376  1.00  0.00     0.040 A 
ATOM     73  F   UNL A   1      42.973  24.293  25.106  1.00  0.00    -0.206 F 
ATOM     74  C   UNL A   1      42.074  20.957  26.199  1.00  0.00     0.006 A 
ENDBRANCH  46  67
BRANCH  58  75
ATOM     75  C   UNL A   1      48.202  26.537  29.960  1.00  0.00     0.057 A 
ATOM     76  C   UNL A   1      49.209  26.728  29.005  1.00  0.00     0.134 A 
ATOM     77  C   UNL A   1      48.558  25.889  31.151  1.00  0.00     0.134 A 
ATOM     78  F   UNL A   1      48.933  27.330  27.837  1.00  0.00    -0.206 F 
ATOM     79  C   UNL A   1      50.510  26.268  29.212  1.00  0.00     0.040 A 
ATOM     80  C   UNL A   1      49.864  25.452  31.384  1.00  0.00     0.040 A 
ATOM     81  F   UNL A   1      47.648  25.682  32.114  1.00  0.00    -0.206 F 
ATOM     82  C   UNL A   1      50.842  25.634  30.408  1.00  0.00     0.006 A 
ENDBRANCH  58  75
ENDBRANCH  32  33
ENDBRANCH  24  27
ENDBRANCH  22  23
ENDBRANCH  21  22
ENDBRANCH  20  21
ENDBRANCH   1  20
TORSDOF 16
ENDMDL
