MODEL 1
REMARK VINA RESULT:     -12.3      0.000      0.000
REMARK SMILES O=C(NCCCCNC(=O)[C@H](c1c[nH]c2cc(F)ccc12)[NH+]1CCN(c2ccccc2)CC1)c1ccc(-c2c3nc(c(-c4c(F)cccc4F)c4ccc([nH]4)c(-c4c(F)cccc4F)c4nc(c(-c5c(F)cccc5F)c5ccc2[nH]5)C=C4)C=C3)cc1
REMARK SMILES IDX 5 1 4 2 3 3 1 4 2 5 34 7 35 8 87 9 36 10 86 11 37 12 38 13
REMARK SMILES IDX 39 14 80 15 40 16 85 17 79 18 81 19 41 20 84 21 78 22 77 23
REMARK SMILES IDX 42 25 68 26 51 27 67 28 52 29 55 30 66 31 82 32 53 33 54 34
REMARK SMILES IDX 65 36 83 37 56 38 43 39 44 40 49 41 45 42 46 43 48 44 50 45
REMARK SMILES IDX 47 46 69 47 70 48 75 49 71 50 72 51 74 52 76 53 73 54 57 55
REMARK SMILES IDX 58 56 63 57 59 58 60 59 62 60 64 61 61 62 6 63 7 64 8 65
REMARK SMILES IDX 9 66 10 68 11 69 22 70 23 71 33 72 24 74 32 75 25 76 26 77
REMARK SMILES IDX 27 78 31 79 28 80 30 81 29 82 12 83 13 84 21 85 14 86 15 87
REMARK SMILES IDX 20 88 16 90 19 91 17 92 18 93
REMARK H PARENT 3 6 81 24 55 35 8 67 22 73 14 89
REMARK Flexibility Score: inf
ROOT
ATOM      1  C   UNL A   1      38.748  21.464  25.395  1.00  0.00     0.023 C 
ENDROOT
BRANCH   1   2
ATOM      2  C   UNL A   1      38.963  20.240  26.278  1.00  0.00     0.116 C 
BRANCH   2   3
ATOM      3  N   UNL A   1      40.097  19.417  25.881  1.00  0.00    -0.352 N 
ATOM      4  O   UNL A   1      42.246  18.870  25.467  1.00  0.00    -0.269 OA
ATOM      5  C   UNL A   1      41.451  19.674  25.938  1.00  0.00     0.251 C 
ATOM      6  H   UNL A   1      39.858  18.536  25.513  1.00  0.00     0.163 HD
BRANCH   5   7
ATOM      7  C   UNL A   1      41.948  20.938  26.528  1.00  0.00     0.039 A 
ATOM      8  C   UNL A   1      42.035  21.096  27.909  1.00  0.00     0.014 A 
ATOM      9  C   UNL A   1      42.315  21.991  25.684  1.00  0.00     0.014 A 
ATOM     10  C   UNL A   1      42.277  22.355  28.443  1.00  0.00     0.010 A 
ATOM     11  C   UNL A   1      42.671  23.233  26.227  1.00  0.00     0.010 A 
ATOM     12  C   UNL A   1      42.603  23.441  27.612  1.00  0.00    -0.014 A 
BRANCH  12  13
ATOM     13  C   UNL A   1      42.901  24.755  28.241  1.00  0.00     0.031 A 
ATOM     14  C   UNL A   1      44.313  25.182  28.543  1.00  0.00     0.074 A 
ATOM     15  C   UNL A   1      41.880  25.608  28.457  1.00  0.00     0.049 A 
ATOM     16  N   UNL A   1      44.742  26.331  29.007  1.00  0.00    -0.248 NA
ATOM     17  C   UNL A   1      45.382  24.200  28.304  1.00  0.00     0.031 C 
ATOM     18  C   UNL A   1      40.467  25.300  28.224  1.00  0.00     0.029 A 
ATOM     19  N   UNL A   1      41.870  26.913  28.875  1.00  0.00    -0.354 N 
ATOM     20  C   UNL A   1      46.120  26.205  29.132  1.00  0.00     0.074 A 
ATOM     21  C   UNL A   1      46.458  24.860  28.716  1.00  0.00     0.031 C 
ATOM     22  C   UNL A   1      39.736  26.406  28.426  1.00  0.00     0.029 A 
ATOM     23  C   UNL A   1      40.619  27.481  28.864  1.00  0.00     0.049 A 
ATOM     24  H   UNL A   1      42.680  27.397  29.155  1.00  0.00     0.167 HD
ATOM     25  C   UNL A   1      47.020  27.128  29.548  1.00  0.00     0.037 A 
ATOM     26  C   UNL A   1      40.220  28.727  29.175  1.00  0.00     0.037 A 
ATOM     27  C   UNL A   1      46.686  28.474  29.942  1.00  0.00     0.049 A 
ATOM     28  C   UNL A   1      41.242  29.732  29.611  1.00  0.00     0.074 A 
ATOM     29  C   UNL A   1      47.532  29.483  30.372  1.00  0.00     0.029 A 
ATOM     30  N   UNL A   1      45.404  29.001  29.945  1.00  0.00    -0.354 N 
ATOM     31  N   UNL A   1      42.541  29.593  29.721  1.00  0.00    -0.248 NA
ATOM     32  C   UNL A   1      40.744  31.066  29.973  1.00  0.00     0.031 C 
ATOM     33  C   UNL A   1      46.757  30.612  30.661  1.00  0.00     0.029 A 
ATOM     34  C   UNL A   1      45.434  30.318  30.377  1.00  0.00     0.049 A 
ATOM     35  H   UNL A   1      44.591  28.513  29.679  1.00  0.00     0.167 HD
ATOM     36  C   UNL A   1      43.014  30.815  30.172  1.00  0.00     0.074 A 
ATOM     37  C   UNL A   1      41.869  31.697  30.277  1.00  0.00     0.031 C 
ATOM     38  C   UNL A   1      44.282  31.173  30.488  1.00  0.00     0.037 A 
BRANCH  25  39
ATOM     39  C   UNL A   1      48.463  26.720  29.608  1.00  0.00     0.057 A 
ATOM     40  C   UNL A   1      49.358  27.018  28.572  1.00  0.00     0.134 A 
ATOM     41  C   UNL A   1      48.981  26.086  30.745  1.00  0.00     0.134 A 
ATOM     42  F   UNL A   1      48.924  27.615  27.451  1.00  0.00    -0.206 F 
ATOM     43  C   UNL A   1      50.713  26.693  28.661  1.00  0.00     0.040 A 
ATOM     44  C   UNL A   1      50.337  25.773  30.854  1.00  0.00     0.040 A 
ATOM     45  F   UNL A   1      48.180  25.779  31.777  1.00  0.00    -0.206 F 
ATOM     46  C   UNL A   1      51.208  26.076  29.809  1.00  0.00     0.006 A 
ENDBRANCH  25  39
BRANCH  26  47
ATOM     47  C   UNL A   1      38.782  29.081  29.093  1.00  0.00     0.057 A 
ATOM     48  C   UNL A   1      37.951  29.012  30.215  1.00  0.00     0.134 A 
ATOM     49  C   UNL A   1      38.211  29.512  27.889  1.00  0.00     0.134 A 
ATOM     50  F   UNL A   1      38.437  28.590  31.391  1.00  0.00    -0.206 F 
ATOM     51  C   UNL A   1      36.597  29.348  30.142  1.00  0.00     0.040 A 
ATOM     52  C   UNL A   1      36.867  29.878  27.808  1.00  0.00     0.040 A 
ATOM     53  F   UNL A   1      38.959  29.608  26.780  1.00  0.00    -0.206 F 
ATOM     54  C   UNL A   1      36.055  29.790  28.937  1.00  0.00     0.006 A 
ENDBRANCH  26  47
BRANCH  38  55
ATOM     55  C   UNL A   1      44.480  32.575  30.979  1.00  0.00     0.057 A 
ATOM     56  C   UNL A   1      44.473  32.877  32.347  1.00  0.00     0.134 A 
ATOM     57  C   UNL A   1      44.675  33.629  30.080  1.00  0.00     0.134 A 
ATOM     58  F   UNL A   1      44.275  31.910  33.256  1.00  0.00    -0.206 F 
ATOM     59  C   UNL A   1      44.625  34.186  32.803  1.00  0.00     0.040 A 
ATOM     60  C   UNL A   1      44.849  34.940  30.526  1.00  0.00     0.040 A 
ATOM     61  F   UNL A   1      44.696  33.404  28.758  1.00  0.00    -0.206 F 
ATOM     62  C   UNL A   1      44.816  35.221  31.890  1.00  0.00     0.006 A 
ENDBRANCH  38  55
ENDBRANCH  12  13
ENDBRANCH   5   7
ENDBRANCH   2   3
ENDBRANCH   1   2
BRANCH   1  63
ATOM     63  C   UNL A   1      38.621  22.805  26.115  1.00  0.00     0.023 C 
BRANCH  63  64
ATOM     64  C   UNL A   1      37.548  23.760  25.601  1.00  0.00     0.116 C 
BRANCH  64  65
ATOM     65  N   UNL A   1      36.922  23.375  24.355  1.00  0.00    -0.351 N 
ATOM     66  C   UNL A   1      35.615  23.548  23.956  1.00  0.00     0.283 C 
ATOM     67  H   UNL A   1      37.510  22.931  23.703  1.00  0.00     0.163 HD
ATOM     68  O   UNL A   1      35.419  23.451  22.739  1.00  0.00    -0.268 OA
BRANCH  66  69
ATOM     69  C   UNL A   1      34.480  23.836  25.008  1.00  0.00     0.307 C 
BRANCH  69  70
ATOM     70  N   UNL A   1      33.288  24.474  24.368  1.00  0.00    -0.318 N 
ATOM     71  C   UNL A   1      32.210  24.817  25.340  1.00  0.00     0.284 C 
ATOM     72  C   UNL A   1      33.599  25.709  23.613  1.00  0.00     0.284 C 
ATOM     73  H   UNL A   1      32.966  23.752  23.723  1.00  0.00     0.349 HD
ATOM     74  C   UNL A   1      32.494  26.020  26.273  1.00  0.00     0.178 C 
ATOM     75  C   UNL A   1      33.911  26.960  24.471  1.00  0.00     0.178 C 
ATOM     76  N   UNL A   1      32.859  27.187  25.463  1.00  0.00    -0.360 N 
BRANCH  76  77
ATOM     77  C   UNL A   1      32.473  28.469  25.797  1.00  0.00     0.037 A 
ATOM     78  C   UNL A   1      31.542  29.197  25.043  1.00  0.00     0.026 A 
ATOM     79  C   UNL A   1      33.036  29.118  26.908  1.00  0.00     0.026 A 
ATOM     80  C   UNL A   1      31.187  30.508  25.386  1.00  0.00     0.002 A 
ATOM     81  C   UNL A   1      32.692  30.427  27.254  1.00  0.00     0.002 A 
ATOM     82  C   UNL A   1      31.763  31.124  26.492  1.00  0.00     0.000 A 
ENDBRANCH  76  77
ENDBRANCH  69  70
BRANCH  69  83
ATOM     83  C   UNL A   1      34.046  22.510  25.627  1.00  0.00     0.044 A 
ATOM     84  C   UNL A   1      34.242  22.109  26.941  1.00  0.00     0.094 A 
ATOM     85  C   UNL A   1      33.429  21.400  24.957  1.00  0.00     0.009 A 
ATOM     86  N   UNL A   1      33.802  20.826  27.084  1.00  0.00    -0.361 N 
ATOM     87  C   UNL A   1      33.319  20.358  25.886  1.00  0.00     0.049 A 
ATOM     88  C   UNL A   1      32.985  21.168  23.637  1.00  0.00     0.014 A 
ATOM     89  H   UNL A   1      33.828  20.310  27.922  1.00  0.00     0.166 HD
ATOM     90  C   UNL A   1      32.805  19.098  25.558  1.00  0.00     0.065 A 
ATOM     91  C   UNL A   1      32.460  19.915  23.295  1.00  0.00     0.040 A 
ATOM     92  C   UNL A   1      32.383  18.906  24.245  1.00  0.00     0.125 A 
ATOM     93  F   UNL A   1      31.891  17.711  23.890  1.00  0.00    -0.207 F 
ENDBRANCH  69  83
ENDBRANCH  66  69
ENDBRANCH  64  65
ENDBRANCH  63  64
ENDBRANCH   1  63
TORSDOF 14
ENDMDL
MODEL 2
REMARK VINA RESULT:     -12.1      0.449      5.965
REMARK SMILES O=C(NCCCCNC(=O)[C@H](c1c[nH]c2cc(F)ccc12)[NH+]1CCN(c2ccccc2)CC1)c1ccc(-c2c3nc(c(-c4c(F)cccc4F)c4ccc([nH]4)c(-c4c(F)cccc4F)c4nc(c(-c5c(F)cccc5F)c5ccc2[nH]5)C=C4)C=C3)cc1
REMARK SMILES IDX 5 1 4 2 3 3 1 4 2 5 34 7 35 8 87 9 36 10 86 11 37 12 38 13
REMARK SMILES IDX 39 14 80 15 40 16 85 17 79 18 81 19 41 20 84 21 78 22 77 23
REMARK SMILES IDX 42 25 68 26 51 27 67 28 52 29 55 30 66 31 82 32 53 33 54 34
REMARK SMILES IDX 65 36 83 37 56 38 43 39 44 40 49 41 45 42 46 43 48 44 50 45
REMARK SMILES IDX 47 46 69 47 70 48 75 49 71 50 72 51 74 52 76 53 73 54 57 55
REMARK SMILES IDX 58 56 63 57 59 58 60 59 62 60 64 61 61 62 6 63 7 64 8 65
REMARK SMILES IDX 9 66 10 68 11 69 22 70 23 71 33 72 24 74 32 75 25 76 26 77
REMARK SMILES IDX 27 78 31 79 28 80 30 81 29 82 12 83 13 84 21 85 14 86 15 87
REMARK SMILES IDX 20 88 16 90 19 91 17 92 18 93
REMARK H PARENT 3 6 81 24 55 35 8 67 22 73 14 89
REMARK Flexibility Score: inf
ROOT
ATOM      1  C   UNL A   1      38.865  21.444  25.387  1.00  0.00     0.023 C 
ENDROOT
BRANCH   1   2
ATOM      2  C   UNL A   1      39.014  20.213  26.274  1.00  0.00     0.116 C 
BRANCH   2   3
ATOM      3  N   UNL A   1      40.150  19.371  25.931  1.00  0.00    -0.352 N 
ATOM      4  O   UNL A   1      42.303  18.805  25.561  1.00  0.00    -0.269 OA
ATOM      5  C   UNL A   1      41.504  19.633  25.981  1.00  0.00     0.251 C 
ATOM      6  H   UNL A   1      39.915  18.470  25.612  1.00  0.00     0.163 HD
BRANCH   5   7
ATOM      7  C   UNL A   1      41.995  20.929  26.501  1.00  0.00     0.039 A 
ATOM      8  C   UNL A   1      42.013  21.189  27.869  1.00  0.00     0.014 A 
ATOM      9  C   UNL A   1      42.429  21.910  25.602  1.00  0.00     0.014 A 
ATOM     10  C   UNL A   1      42.254  22.481  28.320  1.00  0.00     0.010 A 
ATOM     11  C   UNL A   1      42.781  23.182  26.069  1.00  0.00     0.010 A 
ATOM     12  C   UNL A   1      42.645  23.495  27.429  1.00  0.00    -0.014 A 
BRANCH  12  13
ATOM     13  C   UNL A   1      42.937  24.848  27.974  1.00  0.00     0.031 A 
ATOM     14  C   UNL A   1      41.840  25.844  28.243  1.00  0.00     0.074 A 
ATOM     15  C   UNL A   1      44.208  25.141  28.313  1.00  0.00     0.049 A 
ATOM     16  N   UNL A   1      41.925  27.029  28.799  1.00  0.00    -0.248 NA
ATOM     17  C   UNL A   1      40.477  25.474  27.832  1.00  0.00     0.031 C 
ATOM     18  C   UNL A   1      45.361  24.265  28.083  1.00  0.00     0.029 A 
ATOM     19  N   UNL A   1      44.741  26.226  28.959  1.00  0.00    -0.354 N 
ATOM     20  C   UNL A   1      40.637  27.550  28.788  1.00  0.00     0.074 A 
ATOM     21  C   UNL A   1      39.790  26.564  28.152  1.00  0.00     0.031 C 
ATOM     22  C   UNL A   1      46.448  24.810  28.648  1.00  0.00     0.029 A 
ATOM     23  C   UNL A   1      46.083  26.100  29.223  1.00  0.00     0.049 A 
ATOM     24  H   UNL A   1      44.213  27.017  29.211  1.00  0.00     0.167 HD
ATOM     25  C   UNL A   1      40.201  28.738  29.272  1.00  0.00     0.037 A 
ATOM     26  C   UNL A   1      46.934  26.929  29.854  1.00  0.00     0.037 A 
ATOM     27  C   UNL A   1      41.042  29.711  29.925  1.00  0.00     0.049 A 
ATOM     28  C   UNL A   1      46.418  28.227  30.397  1.00  0.00     0.074 A 
ATOM     29  C   UNL A   1      40.688  30.941  30.454  1.00  0.00     0.029 A 
ATOM     30  N   UNL A   1      42.401  29.559  30.145  1.00  0.00    -0.354 N 
ATOM     31  N   UNL A   1      45.196  28.701  30.379  1.00  0.00    -0.248 NA
ATOM     32  C   UNL A   1      47.399  29.109  31.043  1.00  0.00     0.031 C 
ATOM     33  C   UNL A   1      41.840  31.545  30.970  1.00  0.00     0.029 A 
ATOM     34  C   UNL A   1      42.903  30.676  30.795  1.00  0.00     0.049 A 
ATOM     35  H   UNL A   1      42.933  28.773  29.881  1.00  0.00     0.167 HD
ATOM     36  C   UNL A   1      45.261  29.938  31.001  1.00  0.00     0.074 A 
ATOM     37  C   UNL A   1      46.636  30.124  31.422  1.00  0.00     0.031 C 
ATOM     38  C   UNL A   1      44.276  30.848  31.192  1.00  0.00     0.037 A 
BRANCH  25  39
ATOM     39  C   UNL A   1      38.745  29.067  29.113  1.00  0.00     0.057 A 
ATOM     40  C   UNL A   1      37.848  28.982  30.185  1.00  0.00     0.134 A 
ATOM     41  C   UNL A   1      38.249  29.542  27.892  1.00  0.00     0.134 A 
ATOM     42  F   UNL A   1      38.258  28.524  31.378  1.00  0.00    -0.206 F 
ATOM     43  C   UNL A   1      36.508  29.350  30.047  1.00  0.00     0.040 A 
ATOM     44  C   UNL A   1      36.916  29.932  27.746  1.00  0.00     0.040 A 
ATOM     45  F   UNL A   1      39.057  29.656  26.826  1.00  0.00    -0.206 F 
ATOM     46  C   UNL A   1      36.041  29.835  28.826  1.00  0.00     0.006 A 
ENDBRANCH  25  39
BRANCH  26  47
ATOM     47  C   UNL A   1      48.362  26.554  29.990  1.00  0.00     0.057 A 
ATOM     48  C   UNL A   1      48.818  25.814  31.085  1.00  0.00     0.134 A 
ATOM     49  C   UNL A   1      49.302  26.918  29.017  1.00  0.00     0.134 A 
ATOM     50  F   UNL A   1      47.968  25.453  32.058  1.00  0.00    -0.206 F 
ATOM     51  C   UNL A   1      50.161  25.456  31.216  1.00  0.00     0.040 A 
ATOM     52  C   UNL A   1      50.641  26.544  29.121  1.00  0.00     0.040 A 
ATOM     53  F   UNL A   1      48.924  27.621  27.940  1.00  0.00    -0.206 F 
ATOM     54  C   UNL A   1      51.075  25.815  30.227  1.00  0.00     0.006 A 
ENDBRANCH  26  47
BRANCH  38  55
ATOM     55  C   UNL A   1      44.664  32.120  31.883  1.00  0.00     0.057 A 
ATOM     56  C   UNL A   1      44.601  32.243  33.276  1.00  0.00     0.134 A 
ATOM     57  C   UNL A   1      45.099  33.230  31.150  1.00  0.00     0.134 A 
ATOM     58  F   UNL A   1      44.176  31.218  34.031  1.00  0.00    -0.206 F 
ATOM     59  C   UNL A   1      44.932  33.437  33.916  1.00  0.00     0.040 A 
ATOM     60  C   UNL A   1      45.453  34.423  31.781  1.00  0.00     0.040 A 
ATOM     61  F   UNL A   1      45.185  33.174  29.813  1.00  0.00    -0.206 F 
ATOM     62  C   UNL A   1      45.361  34.531  33.168  1.00  0.00     0.006 A 
ENDBRANCH  38  55
ENDBRANCH  12  13
ENDBRANCH   5   7
ENDBRANCH   2   3
ENDBRANCH   1   2
BRANCH   1  63
ATOM     63  C   UNL A   1      38.716  22.783  26.106  1.00  0.00     0.023 C 
BRANCH  63  64
ATOM     64  C   UNL A   1      37.562  23.676  25.659  1.00  0.00     0.116 C 
BRANCH  64  65
ATOM     65  N   UNL A   1      36.957  23.319  24.394  1.00  0.00    -0.351 N 
ATOM     66  C   UNL A   1      35.663  23.522  23.970  1.00  0.00     0.283 C 
ATOM     67  H   UNL A   1      37.551  22.872  23.750  1.00  0.00     0.163 HD
ATOM     68  O   UNL A   1      35.492  23.444  22.748  1.00  0.00    -0.268 OA
BRANCH  66  69
ATOM     69  C   UNL A   1      34.511  23.818  25.000  1.00  0.00     0.307 C 
BRANCH  69  70
ATOM     70  N   UNL A   1      33.328  24.449  24.335  1.00  0.00    -0.318 N 
ATOM     71  C   UNL A   1      32.226  24.781  25.283  1.00  0.00     0.284 C 
ATOM     72  C   UNL A   1      33.646  25.687  23.589  1.00  0.00     0.284 C 
ATOM     73  H   UNL A   1      33.027  23.726  23.682  1.00  0.00     0.349 HD
ATOM     74  C   UNL A   1      32.480  25.986  26.224  1.00  0.00     0.178 C 
ATOM     75  C   UNL A   1      33.930  26.939  24.455  1.00  0.00     0.178 C 
ATOM     76  N   UNL A   1      32.854  27.157  25.424  1.00  0.00    -0.360 N 
BRANCH  76  77
ATOM     77  C   UNL A   1      32.451  28.435  25.751  1.00  0.00     0.037 A 
ATOM     78  C   UNL A   1      31.526  29.154  24.983  1.00  0.00     0.026 A 
ATOM     79  C   UNL A   1      32.990  29.089  26.871  1.00  0.00     0.026 A 
ATOM     80  C   UNL A   1      31.153  30.462  25.319  1.00  0.00     0.002 A 
ATOM     81  C   UNL A   1      32.629  30.395  27.211  1.00  0.00     0.002 A 
ATOM     82  C   UNL A   1      31.706  31.083  26.434  1.00  0.00     0.000 A 
ENDBRANCH  76  77
ENDBRANCH  69  70
BRANCH  69  83
ATOM     83  C   UNL A   1      34.069  22.498  25.625  1.00  0.00     0.044 A 
ATOM     84  C   UNL A   1      34.256  22.105  26.942  1.00  0.00     0.094 A 
ATOM     85  C   UNL A   1      33.451  21.386  24.958  1.00  0.00     0.009 A 
ATOM     86  N   UNL A   1      33.810  20.824  27.091  1.00  0.00    -0.361 N 
ATOM     87  C   UNL A   1      33.333  20.351  25.893  1.00  0.00     0.049 A 
ATOM     88  C   UNL A   1      33.014  21.148  23.637  1.00  0.00     0.014 A 
ATOM     89  H   UNL A   1      33.830  20.314  27.932  1.00  0.00     0.166 HD
ATOM     90  C   UNL A   1      32.816  19.090  25.570  1.00  0.00     0.065 A 
ATOM     91  C   UNL A   1      32.486  19.894  23.300  1.00  0.00     0.040 A 
ATOM     92  C   UNL A   1      32.401  18.891  24.256  1.00  0.00     0.125 A 
ATOM     93  F   UNL A   1      31.906  17.696  23.906  1.00  0.00    -0.207 F 
ENDBRANCH  69  83
ENDBRANCH  66  69
ENDBRANCH  64  65
ENDBRANCH  63  64
ENDBRANCH   1  63
TORSDOF 14
ENDMDL
MODEL 3
REMARK VINA RESULT:     -12.1      3.780      8.163
REMARK SMILES O=C(NCCCCNC(=O)[C@H](c1c[nH]c2cc(F)ccc12)[NH+]1CCN(c2ccccc2)CC1)c1ccc(-c2c3nc(c(-c4c(F)cccc4F)c4ccc([nH]4)c(-c4c(F)cccc4F)c4nc(c(-c5c(F)cccc5F)c5ccc2[nH]5)C=C4)C=C3)cc1
REMARK SMILES IDX 5 1 4 2 3 3 1 4 2 5 34 7 35 8 87 9 36 10 86 11 37 12 38 13
REMARK SMILES IDX 39 14 80 15 40 16 85 17 79 18 81 19 41 20 84 21 78 22 77 23
REMARK SMILES IDX 42 25 68 26 51 27 67 28 52 29 55 30 66 31 82 32 53 33 54 34
REMARK SMILES IDX 65 36 83 37 56 38 43 39 44 40 49 41 45 42 46 43 48 44 50 45
REMARK SMILES IDX 47 46 69 47 70 48 75 49 71 50 72 51 74 52 76 53 73 54 57 55
REMARK SMILES IDX 58 56 63 57 59 58 60 59 62 60 64 61 61 62 6 63 7 64 8 65
REMARK SMILES IDX 9 66 10 68 11 69 22 70 23 71 33 72 24 74 32 75 25 76 26 77
REMARK SMILES IDX 27 78 31 79 28 80 30 81 29 82 12 83 13 84 21 85 14 86 15 87
REMARK SMILES IDX 20 88 16 90 19 91 17 92 18 93
REMARK H PARENT 3 6 81 24 55 35 8 67 22 73 14 89
REMARK Flexibility Score: inf
ROOT
ATOM      1  C   UNL A   1      32.691  29.620  25.018  1.00  0.00     0.023 C 
ENDROOT
BRANCH   1   2
ATOM      2  C   UNL A   1      32.133  29.948  26.398  1.00  0.00     0.116 C 
BRANCH   2   3
ATOM      3  N   UNL A   1      31.921  31.370  26.626  1.00  0.00    -0.352 N 
ATOM      4  O   UNL A   1      32.309  33.446  27.418  1.00  0.00    -0.269 OA
ATOM      5  C   UNL A   1      32.718  32.303  27.256  1.00  0.00     0.251 C 
ATOM      6  H   UNL A   1      31.072  31.722  26.273  1.00  0.00     0.163 HD
BRANCH   5   7
ATOM      7  C   UNL A   1      34.049  31.918  27.777  1.00  0.00     0.039 A 
ATOM      8  C   UNL A   1      34.344  30.589  28.071  1.00  0.00     0.014 A 
ATOM      9  C   UNL A   1      35.015  32.908  27.993  1.00  0.00     0.014 A 
ATOM     10  C   UNL A   1      35.503  30.282  28.772  1.00  0.00     0.010 A 
ATOM     11  C   UNL A   1      36.234  32.578  28.598  1.00  0.00     0.010 A 
ATOM     12  C   UNL A   1      36.467  31.269  29.042  1.00  0.00    -0.014 A 
BRANCH  12  13
ATOM     13  C   UNL A   1      37.712  30.873  29.753  1.00  0.00     0.031 A 
ATOM     14  C   UNL A   1      37.944  31.230  31.197  1.00  0.00     0.074 A 
ATOM     15  C   UNL A   1      38.603  30.101  29.100  1.00  0.00     0.049 A 
ATOM     16  N   UNL A   1      38.936  30.882  31.980  1.00  0.00    -0.248 NA
ATOM     17  C   UNL A   1      36.946  32.092  31.848  1.00  0.00     0.031 C 
ATOM     18  C   UNL A   1      38.499  29.705  27.693  1.00  0.00     0.029 A 
ATOM     19  N   UNL A   1      39.742  29.474  29.536  1.00  0.00    -0.354 N 
ATOM     20  C   UNL A   1      38.693  31.493  33.204  1.00  0.00     0.074 A 
ATOM     21  C   UNL A   1      37.470  32.254  33.057  1.00  0.00     0.031 C 
ATOM     22  C   UNL A   1      39.484  28.843  27.404  1.00  0.00     0.029 A 
ATOM     23  C   UNL A   1      40.325  28.675  28.584  1.00  0.00     0.049 A 
ATOM     24  H   UNL A   1      40.105  29.585  30.445  1.00  0.00     0.167 HD
ATOM     25  C   UNL A   1      39.418  31.420  34.346  1.00  0.00     0.037 A 
ATOM     26  C   UNL A   1      41.419  27.894  28.645  1.00  0.00     0.037 A 
ATOM     27  C   UNL A   1      40.625  30.646  34.498  1.00  0.00     0.049 A 
ATOM     28  C   UNL A   1      42.188  27.817  29.928  1.00  0.00     0.074 A 
ATOM     29  C   UNL A   1      41.425  30.506  35.620  1.00  0.00     0.029 A 
ATOM     30  N   UNL A   1      41.199  29.875  33.500  1.00  0.00    -0.354 N 
ATOM     31  N   UNL A   1      41.939  28.401  31.075  1.00  0.00    -0.248 NA
ATOM     32  C   UNL A   1      43.394  26.978  29.926  1.00  0.00     0.031 C 
ATOM     33  C   UNL A   1      42.499  29.671  35.291  1.00  0.00     0.029 A 
ATOM     34  C   UNL A   1      42.348  29.262  33.977  1.00  0.00     0.049 A 
ATOM     35  H   UNL A   1      40.843  29.775  32.587  1.00  0.00     0.167 HD
ATOM     36  C   UNL A   1      42.960  28.009  31.928  1.00  0.00     0.074 A 
ATOM     37  C   UNL A   1      43.808  27.104  31.178  1.00  0.00     0.031 C 
ATOM     38  C   UNL A   1      43.185  28.377  33.212  1.00  0.00     0.037 A 
BRANCH  25  39
ATOM     39  C   UNL A   1      38.936  32.203  35.532  1.00  0.00     0.057 A 
ATOM     40  C   UNL A   1      38.192  31.606  36.557  1.00  0.00     0.134 A 
ATOM     41  C   UNL A   1      39.280  33.553  35.686  1.00  0.00     0.134 A 
ATOM     42  F   UNL A   1      37.820  30.320  36.465  1.00  0.00    -0.206 F 
ATOM     43  C   UNL A   1      37.800  32.324  37.689  1.00  0.00     0.040 A 
ATOM     44  C   UNL A   1      38.911  34.276  36.822  1.00  0.00     0.040 A 
ATOM     45  F   UNL A   1      39.998  34.184  34.745  1.00  0.00    -0.206 F 
ATOM     46  C   UNL A   1      38.168  33.662  37.828  1.00  0.00     0.006 A 
ENDBRANCH  25  39
BRANCH  26  47
ATOM     47  C   UNL A   1      41.849  27.135  27.446  1.00  0.00     0.057 A 
ATOM     48  C   UNL A   1      42.643  27.725  26.458  1.00  0.00     0.134 A 
ATOM     49  C   UNL A   1      41.487  25.793  27.270  1.00  0.00     0.134 A 
ATOM     50  F   UNL A   1      43.006  29.012  26.562  1.00  0.00    -0.206 F 
ATOM     51  C   UNL A   1      43.053  27.013  25.329  1.00  0.00     0.040 A 
ATOM     52  C   UNL A   1      41.913  25.061  26.162  1.00  0.00     0.040 A 
ATOM     53  F   UNL A   1      40.735  25.169  28.188  1.00  0.00    -0.206 F 
ATOM     54  C   UNL A   1      42.694  25.674  25.184  1.00  0.00     0.006 A 
ENDBRANCH  26  47
BRANCH  38  55
ATOM     55  C   UNL A   1      44.401  27.799  33.871  1.00  0.00     0.057 A 
ATOM     56  C   UNL A   1      44.353  26.570  34.540  1.00  0.00     0.134 A 
ATOM     57  C   UNL A   1      45.625  28.477  33.840  1.00  0.00     0.134 A 
ATOM     58  F   UNL A   1      43.203  25.881  34.617  1.00  0.00    -0.206 F 
ATOM     59  C   UNL A   1      45.476  26.047  35.181  1.00  0.00     0.040 A 
ATOM     60  C   UNL A   1      46.760  27.952  34.459  1.00  0.00     0.040 A 
ATOM     61  F   UNL A   1      45.736  29.656  33.211  1.00  0.00    -0.206 F 
ATOM     62  C   UNL A   1      46.684  26.739  35.139  1.00  0.00     0.006 A 
ENDBRANCH  38  55
ENDBRANCH  12  13
ENDBRANCH   5   7
ENDBRANCH   2   3
ENDBRANCH   1   2
BRANCH   1  63
ATOM     63  C   UNL A   1      33.873  28.652  24.978  1.00  0.00     0.023 C 
BRANCH  63  64
ATOM     64  C   UNL A   1      33.623  27.244  25.508  1.00  0.00     0.116 C 
BRANCH  64  65
ATOM     65  N   UNL A   1      34.262  26.180  24.764  1.00  0.00    -0.351 N 
ATOM     66  C   UNL A   1      33.683  25.113  24.115  1.00  0.00     0.283 C 
ATOM     67  H   UNL A   1      35.243  26.225  24.715  1.00  0.00     0.163 HD
ATOM     68  O   UNL A   1      34.401  24.552  23.279  1.00  0.00    -0.268 OA
BRANCH  66  69
ATOM     69  C   UNL A   1      32.211  24.664  24.450  1.00  0.00     0.307 C 
BRANCH  69  70
ATOM     70  N   UNL A   1      31.329  24.734  23.244  1.00  0.00    -0.318 N 
ATOM     71  C   UNL A   1      29.899  25.006  23.574  1.00  0.00     0.284 C 
ATOM     72  C   UNL A   1      31.745  25.749  22.251  1.00  0.00     0.284 C 
ATOM     73  H   UNL A   1      31.427  23.802  22.840  1.00  0.00     0.349 HD
ATOM     74  C   UNL A   1      29.573  26.448  24.035  1.00  0.00     0.178 C 
ATOM     75  C   UNL A   1      31.467  27.223  22.640  1.00  0.00     0.178 C 
ATOM     76  N   UNL A   1      30.070  27.402  23.038  1.00  0.00    -0.360 N 
BRANCH  76  77
ATOM     77  C   UNL A   1      29.391  28.560  22.720  1.00  0.00     0.037 A 
ATOM     78  C   UNL A   1      29.999  29.630  22.050  1.00  0.00     0.026 A 
ATOM     79  C   UNL A   1      28.048  28.726  23.094  1.00  0.00     0.026 A 
ATOM     80  C   UNL A   1      29.298  30.808  21.762  1.00  0.00     0.002 A 
ATOM     81  C   UNL A   1      27.342  29.899  22.816  1.00  0.00     0.002 A 
ATOM     82  C   UNL A   1      27.968  30.943  22.146  1.00  0.00     0.000 A 
ENDBRANCH  76  77
ENDBRANCH  69  70
BRANCH  69  83
ATOM     83  C   UNL A   1      32.246  23.220  24.943  1.00  0.00     0.044 A 
ATOM     84  C   UNL A   1      32.404  22.800  26.255  1.00  0.00     0.094 A 
ATOM     85  C   UNL A   1      32.202  22.028  24.142  1.00  0.00     0.009 A 
ATOM     86  N   UNL A   1      32.480  21.439  26.279  1.00  0.00    -0.361 N 
ATOM     87  C   UNL A   1      32.381  20.939  25.003  1.00  0.00     0.049 A 
ATOM     88  C   UNL A   1      32.063  21.773  22.761  1.00  0.00     0.014 A 
ATOM     89  H   UNL A   1      32.591  20.893  27.091  1.00  0.00     0.166 HD
ATOM     90  C   UNL A   1      32.444  19.615  24.552  1.00  0.00     0.065 A 
ATOM     91  C   UNL A   1      32.115  20.453  22.294  1.00  0.00     0.040 A 
ATOM     92  C   UNL A   1      32.309  19.404  23.182  1.00  0.00     0.125 A 
ATOM     93  F   UNL A   1      32.370  18.152  22.710  1.00  0.00    -0.207 F 
ENDBRANCH  69  83
ENDBRANCH  66  69
ENDBRANCH  64  65
ENDBRANCH  63  64
ENDBRANCH   1  63
TORSDOF 14
ENDMDL
