MODEL 1
REMARK VINA RESULT:     -11.7      0.000      0.000
REMARK SMILES Cc1cc(C[N@@H+]2C[C@@H](C(=O)NCCCCNC(=O)c3ccc(-c4c5nc(c(-c6c(F)cccc6F)c6ccc([nH]6)c(-c6c(F)cccc6F)c6nc(c(-c7c(F)cccc7F)c7ccc4[nH]7)C=C6)C=C5)cc3)[C@H](C3CC3)C2)on1
REMARK SMILES IDX 13 1 12 2 11 3 9 4 10 5 8 7 6 8 7 9 77 10 73 12 5 13 4 14
REMARK SMILES IDX 1 15 2 16 3 17 79 18 78 19 74 20 75 21 76 22 14 23 15 24
REMARK SMILES IDX 16 25 17 26 18 28 19 29 20 30 72 31 21 32 71 33 22 34 23 35
REMARK SMILES IDX 24 36 65 37 25 38 70 39 64 40 66 41 26 42 69 43 63 44 62 45
REMARK SMILES IDX 27 47 53 48 36 49 52 50 37 51 40 52 51 53 67 54 38 55 39 56
REMARK SMILES IDX 50 58 68 59 41 60 28 61 29 62 34 63 30 64 31 65 33 66 35 67
REMARK SMILES IDX 32 68 54 69 55 70 60 71 56 72 57 73 59 74 61 75 58 76 42 77
REMARK SMILES IDX 43 78 48 79 44 80 45 81 47 82 49 83 46 84
REMARK H PARENT 11 6 6 11 16 27 66 46 40 57
REMARK Flexibility Score: inf
ROOT
ATOM      1  C   UNL A   1      37.369  21.451  24.512  1.00  0.00     0.023 C 
ENDROOT
BRANCH   1   2
ATOM      2  C   UNL A   1      36.954  22.418  25.626  1.00  0.00     0.116 C 
BRANCH   2   3
ATOM      3  N   UNL A   1      35.995  21.780  26.501  1.00  0.00    -0.356 N 
ATOM      4  C   UNL A   1      34.633  21.802  26.483  1.00  0.00     0.229 C 
ATOM      5  O   UNL A   1      34.088  21.453  27.534  1.00  0.00    -0.275 OA
ATOM      6  H   UNL A   1      36.389  21.242  27.224  1.00  0.00     0.163 HD
BRANCH   4   7
ATOM      7  C   UNL A   1      33.834  22.130  25.214  1.00  0.00     0.142 C 
ATOM      8  N   UNL A   1      32.092  23.511  24.276  1.00  0.00    -0.328 N 
ATOM      9  C   UNL A   1      33.245  23.536  25.174  1.00  0.00     0.276 C 
ATOM     10  C   UNL A   1      31.515  22.176  24.409  1.00  0.00     0.267 C 
ATOM     11  H   UNL A   1      31.409  24.217  24.548  1.00  0.00     0.348 HD
ATOM     12  C   UNL A   1      32.568  21.256  25.074  1.00  0.00     0.065 C 
BRANCH   8  13
ATOM     13  C   UNL A   1      32.370  23.945  22.898  1.00  0.00     0.341 C 
BRANCH  13  14
ATOM     14  C   UNL A   1      32.824  25.347  22.714  1.00  0.00     0.191 A 
ATOM     15  C   UNL A   1      33.402  28.945  22.930  1.00  0.00     0.070 C 
ATOM     16  C   UNL A   1      33.327  27.489  22.675  1.00  0.00     0.081 A 
ATOM     17  C   UNL A   1      32.614  26.515  23.406  1.00  0.00     0.078 A 
ATOM     18  N   UNL A   1      33.957  26.946  21.626  1.00  0.00    -0.085 NA
ATOM     19  O   UNL A   1      33.653  25.595  21.663  1.00  0.00    -0.355 OA
ENDBRANCH  13  14
ENDBRANCH   8  13
BRANCH  12  20
ATOM     20  C   UNL A   1      32.663  19.943  24.326  1.00  0.00    -0.001 C 
ATOM     21  C   UNL A   1      33.826  18.982  24.382  1.00  0.00     0.004 C 
ATOM     22  C   UNL A   1      32.529  18.619  25.041  1.00  0.00     0.004 C 
ENDBRANCH  12  20
ENDBRANCH   4   7
ENDBRANCH   2   3
ENDBRANCH   1   2
BRANCH   1  23
ATOM     23  C   UNL A   1      38.030  20.163  25.006  1.00  0.00     0.023 C 
BRANCH  23  24
ATOM     24  C   UNL A   1      39.276  20.383  25.848  1.00  0.00     0.116 C 
BRANCH  24  25
ATOM     25  N   UNL A   1      40.156  19.223  25.882  1.00  0.00    -0.352 N 
ATOM     26  C   UNL A   1      41.511  19.197  26.118  1.00  0.00     0.251 C 
ATOM     27  H   UNL A   1      39.729  18.352  25.716  1.00  0.00     0.163 HD
ATOM     28  O   UNL A   1      42.145  18.158  26.027  1.00  0.00    -0.269 OA
BRANCH  26  29
ATOM     29  C   UNL A   1      42.190  20.468  26.431  1.00  0.00     0.039 A 
ATOM     30  C   UNL A   1      42.675  21.246  25.377  1.00  0.00     0.014 A 
ATOM     31  C   UNL A   1      42.274  20.917  27.751  1.00  0.00     0.014 A 
ATOM     32  C   UNL A   1      43.186  22.515  25.645  1.00  0.00     0.010 A 
ATOM     33  C   UNL A   1      42.715  22.208  28.007  1.00  0.00     0.010 A 
ATOM     34  C   UNL A   1      43.175  23.017  26.956  1.00  0.00    -0.014 A 
BRANCH  34  35
ATOM     35  C   UNL A   1      43.648  24.388  27.256  1.00  0.00     0.031 A 
ATOM     36  C   UNL A   1      42.668  25.436  27.694  1.00  0.00     0.074 A 
ATOM     37  C   UNL A   1      44.943  24.703  27.065  1.00  0.00     0.049 A 
ATOM     38  N   UNL A   1      42.867  26.706  27.932  1.00  0.00    -0.248 NA
ATOM     39  C   UNL A   1      41.270  25.005  27.855  1.00  0.00     0.031 C 
ATOM     40  C   UNL A   1      45.979  23.781  26.591  1.00  0.00     0.029 A 
ATOM     41  N   UNL A   1      45.607  25.890  27.237  1.00  0.00    -0.354 N 
ATOM     42  C   UNL A   1      41.621  27.229  28.251  1.00  0.00     0.074 A 
ATOM     43  C   UNL A   1      40.663  26.151  28.124  1.00  0.00     0.031 C 
ATOM     44  C   UNL A   1      47.152  24.433  26.535  1.00  0.00     0.029 A 
ATOM     45  C   UNL A   1      46.945  25.821  26.937  1.00  0.00     0.049 A 
ATOM     46  H   UNL A   1      45.166  26.714  27.545  1.00  0.00     0.167 HD
ATOM     47  C   UNL A   1      41.306  28.486  28.639  1.00  0.00     0.037 A 
ATOM     48  C   UNL A   1      47.896  26.771  26.984  1.00  0.00     0.037 A 
ATOM     49  C   UNL A   1      42.265  29.546  28.795  1.00  0.00     0.049 A 
ATOM     50  C   UNL A   1      47.525  28.157  27.430  1.00  0.00     0.074 A 
ATOM     51  C   UNL A   1      42.061  30.838  29.244  1.00  0.00     0.029 A 
ATOM     52  N   UNL A   1      43.617  29.431  28.507  1.00  0.00    -0.354 N 
ATOM     53  N   UNL A   1      46.355  28.623  27.792  1.00  0.00    -0.248 NA
ATOM     54  C   UNL A   1      48.609  29.150  27.479  1.00  0.00     0.031 C 
ATOM     55  C   UNL A   1      43.284  31.514  29.198  1.00  0.00     0.029 A 
ATOM     56  C   UNL A   1      44.257  30.632  28.755  1.00  0.00     0.049 A 
ATOM     57  H   UNL A   1      44.057  28.614  28.174  1.00  0.00     0.167 HD
ATOM     58  C   UNL A   1      46.563  29.951  28.135  1.00  0.00     0.074 A 
ATOM     59  C   UNL A   1      47.975  30.215  27.948  1.00  0.00     0.031 C 
ATOM     60  C   UNL A   1      45.666  30.871  28.569  1.00  0.00     0.037 A 
BRANCH  47  61
ATOM     61  C   UNL A   1      39.862  28.772  28.927  1.00  0.00     0.057 A 
ATOM     62  C   UNL A   1      38.975  29.174  27.920  1.00  0.00     0.134 A 
ATOM     63  C   UNL A   1      39.351  28.640  30.224  1.00  0.00     0.134 A 
ATOM     64  F   UNL A   1      39.405  29.335  26.659  1.00  0.00    -0.206 F 
ATOM     65  C   UNL A   1      37.638  29.465  28.197  1.00  0.00     0.040 A 
ATOM     66  C   UNL A   1      38.010  28.903  30.508  1.00  0.00     0.040 A 
ATOM     67  F   UNL A   1      40.145  28.257  31.235  1.00  0.00    -0.206 F 
ATOM     68  C   UNL A   1      37.151  29.325  29.494  1.00  0.00     0.006 A 
ENDBRANCH  47  61
BRANCH  48  69
ATOM     69  C   UNL A   1      49.298  26.435  26.635  1.00  0.00     0.057 A 
ATOM     70  C   UNL A   1      49.787  26.648  25.342  1.00  0.00     0.134 A 
ATOM     71  C   UNL A   1      50.182  25.900  27.580  1.00  0.00     0.134 A 
ATOM     72  F   UNL A   1      48.981  27.141  24.389  1.00  0.00    -0.206 F 
ATOM     73  C   UNL A   1      51.100  26.328  24.994  1.00  0.00     0.040 A 
ATOM     74  C   UNL A   1      51.504  25.594  27.252  1.00  0.00     0.040 A 
ATOM     75  F   UNL A   1      49.775  25.680  28.839  1.00  0.00    -0.206 F 
ATOM     76  C   UNL A   1      51.964  25.804  25.952  1.00  0.00     0.006 A 
ENDBRANCH  48  69
BRANCH  60  77
ATOM     77  C   UNL A   1      46.191  32.235  28.898  1.00  0.00     0.057 A 
ATOM     78  C   UNL A   1      46.674  32.550  30.174  1.00  0.00     0.134 A 
ATOM     79  C   UNL A   1      46.252  33.231  27.916  1.00  0.00     0.134 A 
ATOM     80  F   UNL A   1      46.629  31.643  31.161  1.00  0.00    -0.206 F 
ATOM     81  C   UNL A   1      47.185  33.816  30.465  1.00  0.00     0.040 A 
ATOM     82  C   UNL A   1      46.783  34.492  28.188  1.00  0.00     0.040 A 
ATOM     83  F   UNL A   1      45.811  32.989  26.671  1.00  0.00    -0.206 F 
ATOM     84  C   UNL A   1      47.247  34.788  29.468  1.00  0.00     0.006 A 
ENDBRANCH  60  77
ENDBRANCH  34  35
ENDBRANCH  26  29
ENDBRANCH  24  25
ENDBRANCH  23  24
ENDBRANCH   1  23
TORSDOF 14
ENDMDL
MODEL 2
REMARK VINA RESULT:     -11.5      4.969     10.348
REMARK SMILES Cc1cc(C[N@@H+]2C[C@@H](C(=O)NCCCCNC(=O)c3ccc(-c4c5nc(c(-c6c(F)cccc6F)c6ccc([nH]6)c(-c6c(F)cccc6F)c6nc(c(-c7c(F)cccc7F)c7ccc4[nH]7)C=C6)C=C5)cc3)[C@H](C3CC3)C2)on1
REMARK SMILES IDX 13 1 12 2 11 3 9 4 10 5 8 7 6 8 7 9 77 10 73 12 5 13 4 14
REMARK SMILES IDX 1 15 2 16 3 17 79 18 78 19 74 20 75 21 76 22 14 23 15 24
REMARK SMILES IDX 16 25 17 26 18 28 19 29 20 30 72 31 21 32 71 33 22 34 23 35
REMARK SMILES IDX 24 36 65 37 25 38 70 39 64 40 66 41 26 42 69 43 63 44 62 45
REMARK SMILES IDX 27 47 53 48 36 49 52 50 37 51 40 52 51 53 67 54 38 55 39 56
REMARK SMILES IDX 50 58 68 59 41 60 28 61 29 62 34 63 30 64 31 65 33 66 35 67
REMARK SMILES IDX 32 68 54 69 55 70 60 71 56 72 57 73 59 74 61 75 58 76 42 77
REMARK SMILES IDX 43 78 48 79 44 80 45 81 47 82 49 83 46 84
REMARK H PARENT 11 6 6 11 16 27 66 46 40 57
REMARK Flexibility Score: inf
ROOT
ATOM      1  C   UNL A   1      31.260  30.422  25.485  1.00  0.00     0.023 C 
ENDROOT
BRANCH   1   2
ATOM      2  C   UNL A   1      32.639  29.774  25.655  1.00  0.00     0.116 C 
BRANCH   2   3
ATOM      3  N   UNL A   1      33.298  29.672  24.371  1.00  0.00    -0.356 N 
ATOM      4  C   UNL A   1      33.607  28.577  23.623  1.00  0.00     0.229 C 
ATOM      5  O   UNL A   1      34.457  28.762  22.748  1.00  0.00    -0.275 OA
ATOM      6  H   UNL A   1      33.564  30.532  23.974  1.00  0.00     0.163 HD
BRANCH   4   7
ATOM      7  C   UNL A   1      32.870  27.240  23.782  1.00  0.00     0.142 C 
ATOM      8  N   UNL A   1      33.039  24.847  23.524  1.00  0.00    -0.328 N 
ATOM      9  C   UNL A   1      33.778  26.027  23.967  1.00  0.00     0.276 C 
ATOM     10  C   UNL A   1      32.171  25.305  22.442  1.00  0.00     0.267 C 
ATOM     11  H   UNL A   1      33.679  24.131  23.181  1.00  0.00     0.348 HD
ATOM     12  C   UNL A   1      32.080  26.849  22.514  1.00  0.00     0.065 C 
BRANCH   8  13
ATOM     13  C   UNL A   1      32.370  24.095  24.596  1.00  0.00     0.341 C 
BRANCH  13  14
ATOM     14  C   UNL A   1      32.334  22.617  24.460  1.00  0.00     0.191 A 
ATOM     15  C   UNL A   1      32.494  19.157  23.305  1.00  0.00     0.070 C 
ATOM     16  C   UNL A   1      32.376  20.469  23.980  1.00  0.00     0.081 A 
ATOM     17  C   UNL A   1      32.685  21.744  23.459  1.00  0.00     0.078 A 
ATOM     18  N   UNL A   1      31.899  20.556  25.227  1.00  0.00    -0.085 NA
ATOM     19  O   UNL A   1      31.889  21.907  25.533  1.00  0.00    -0.355 OA
ENDBRANCH  13  14
ENDBRANCH   8  13
BRANCH  12  20
ATOM     20  C   UNL A   1      30.640  27.295  22.381  1.00  0.00    -0.001 C 
ATOM     21  C   UNL A   1      29.799  27.891  23.485  1.00  0.00     0.004 C 
ATOM     22  C   UNL A   1      30.268  28.759  22.355  1.00  0.00     0.004 C 
ENDBRANCH  12  20
ENDBRANCH   4   7
ENDBRANCH   2   3
ENDBRANCH   1   2
BRANCH   1  23
ATOM     23  C   UNL A   1      31.116  31.789  26.155  1.00  0.00     0.023 C 
BRANCH  23  24
ATOM     24  C   UNL A   1      32.367  32.268  26.872  1.00  0.00     0.116 C 
BRANCH  24  25
ATOM     25  N   UNL A   1      32.265  33.640  27.347  1.00  0.00    -0.352 N 
ATOM     26  C   UNL A   1      33.109  34.302  28.209  1.00  0.00     0.251 C 
ATOM     27  H   UNL A   1      31.498  34.158  27.011  1.00  0.00     0.163 HD
ATOM     28  O   UNL A   1      32.854  35.430  28.597  1.00  0.00    -0.269 OA
BRANCH  26  29
ATOM     29  C   UNL A   1      34.306  33.592  28.696  1.00  0.00     0.039 A 
ATOM     30  C   UNL A   1      35.548  34.220  28.587  1.00  0.00     0.014 A 
ATOM     31  C   UNL A   1      34.183  32.350  29.325  1.00  0.00     0.014 A 
ATOM     32  C   UNL A   1      36.666  33.629  29.174  1.00  0.00     0.010 A 
ATOM     33  C   UNL A   1      35.282  31.800  29.972  1.00  0.00     0.010 A 
ATOM     34  C   UNL A   1      36.532  32.435  29.901  1.00  0.00    -0.014 A 
BRANCH  34  35
ATOM     35  C   UNL A   1      37.690  31.823  30.592  1.00  0.00     0.031 A 
ATOM     36  C   UNL A   1      38.505  30.773  29.896  1.00  0.00     0.074 A 
ATOM     37  C   UNL A   1      37.960  32.162  31.867  1.00  0.00     0.049 A 
ATOM     38  N   UNL A   1      39.505  30.066  30.352  1.00  0.00    -0.248 NA
ATOM     39  C   UNL A   1      38.121  30.452  28.512  1.00  0.00     0.031 C 
ATOM     40  C   UNL A   1      37.206  33.131  32.666  1.00  0.00     0.029 A 
ATOM     41  N   UNL A   1      38.939  31.719  32.719  1.00  0.00    -0.354 N 
ATOM     42  C   UNL A   1      39.858  29.206  29.320  1.00  0.00     0.074 A 
ATOM     43  C   UNL A   1      38.931  29.441  28.235  1.00  0.00     0.031 C 
ATOM     44  C   UNL A   1      37.767  33.228  33.882  1.00  0.00     0.029 A 
ATOM     45  C   UNL A   1      38.897  32.307  33.960  1.00  0.00     0.049 A 
ATOM     46  H   UNL A   1      39.609  31.044  32.466  1.00  0.00     0.167 HD
ATOM     47  C   UNL A   1      40.878  28.318  29.272  1.00  0.00     0.037 A 
ATOM     48  C   UNL A   1      39.683  32.122  35.035  1.00  0.00     0.037 A 
ATOM     49  C   UNL A   1      41.817  28.110  30.342  1.00  0.00     0.049 A 
ATOM     50  C   UNL A   1      40.817  31.140  34.954  1.00  0.00     0.074 A 
ATOM     51  C   UNL A   1      42.925  27.282  30.370  1.00  0.00     0.029 A 
ATOM     52  N   UNL A   1      41.758  28.743  31.574  1.00  0.00    -0.354 N 
ATOM     53  N   UNL A   1      41.181  30.379  33.950  1.00  0.00    -0.248 NA
ATOM     54  C   UNL A   1      41.654  30.993  36.154  1.00  0.00     0.031 C 
ATOM     55  C   UNL A   1      43.517  27.390  31.633  1.00  0.00     0.029 A 
ATOM     56  C   UNL A   1      42.800  28.314  32.377  1.00  0.00     0.049 A 
ATOM     57  H   UNL A   1      41.074  29.401  31.839  1.00  0.00     0.167 HD
ATOM     58  C   UNL A   1      42.301  29.684  34.385  1.00  0.00     0.074 A 
ATOM     59  C   UNL A   1      42.563  30.121  35.741  1.00  0.00     0.031 C 
ATOM     60  C   UNL A   1      43.047  28.767  33.722  1.00  0.00     0.037 A 
BRANCH  47  61
ATOM     61  C   UNL A   1      41.028  27.515  28.014  1.00  0.00     0.057 A 
ATOM     62  C   UNL A   1      41.837  27.947  26.956  1.00  0.00     0.134 A 
ATOM     63  C   UNL A   1      40.359  26.294  27.861  1.00  0.00     0.134 A 
ATOM     64  F   UNL A   1      42.491  29.116  27.033  1.00  0.00    -0.206 F 
ATOM     65  C   UNL A   1      41.953  27.211  25.776  1.00  0.00     0.040 A 
ATOM     66  C   UNL A   1      40.488  25.535  26.696  1.00  0.00     0.040 A 
ATOM     67  F   UNL A   1      39.571  25.820  28.836  1.00  0.00    -0.206 F 
ATOM     68  C   UNL A   1      41.280  25.997  25.646  1.00  0.00     0.006 A 
ENDBRANCH  47  61
BRANCH  48  69
ATOM     69  C   UNL A   1      39.449  32.913  36.269  1.00  0.00     0.057 A 
ATOM     70  C   UNL A   1      38.577  32.452  37.261  1.00  0.00     0.134 A 
ATOM     71  C   UNL A   1      40.089  34.138  36.488  1.00  0.00     0.134 A 
ATOM     72  F   UNL A   1      37.921  31.294  37.098  1.00  0.00    -0.206 F 
ATOM     73  C   UNL A   1      38.338  33.187  38.423  1.00  0.00     0.040 A 
ATOM     74  C   UNL A   1      39.876  34.875  37.655  1.00  0.00     0.040 A 
ATOM     75  F   UNL A   1      40.943  34.628  35.577  1.00  0.00    -0.206 F 
ATOM     76  C   UNL A   1      38.992  34.400  38.624  1.00  0.00     0.006 A 
ENDBRANCH  48  69
BRANCH  60  77
ATOM     77  C   UNL A   1      44.232  28.200  34.442  1.00  0.00     0.057 A 
ATOM     78  C   UNL A   1      45.500  28.786  34.349  1.00  0.00     0.134 A 
ATOM     79  C   UNL A   1      44.093  27.080  35.270  1.00  0.00     0.134 A 
ATOM     80  F   UNL A   1      45.700  29.853  33.561  1.00  0.00    -0.206 F 
ATOM     81  C   UNL A   1      46.593  28.267  35.044  1.00  0.00     0.040 A 
ATOM     82  C   UNL A   1      45.173  26.566  35.988  1.00  0.00     0.040 A 
ATOM     83  F   UNL A   1      42.901  26.477  35.406  1.00  0.00    -0.206 F 
ATOM     84  C   UNL A   1      46.429  27.157  35.871  1.00  0.00     0.006 A 
ENDBRANCH  60  77
ENDBRANCH  34  35
ENDBRANCH  26  29
ENDBRANCH  24  25
ENDBRANCH  23  24
ENDBRANCH   1  23
TORSDOF 14
ENDMDL
MODEL 3
REMARK VINA RESULT:     -11.5      2.788      7.629
REMARK SMILES Cc1cc(C[N@@H+]2C[C@@H](C(=O)NCCCCNC(=O)c3ccc(-c4c5nc(c(-c6c(F)cccc6F)c6ccc([nH]6)c(-c6c(F)cccc6F)c6nc(c(-c7c(F)cccc7F)c7ccc4[nH]7)C=C6)C=C5)cc3)[C@H](C3CC3)C2)on1
REMARK SMILES IDX 13 1 12 2 11 3 9 4 10 5 8 7 6 8 7 9 77 10 73 12 5 13 4 14
REMARK SMILES IDX 1 15 2 16 3 17 79 18 78 19 74 20 75 21 76 22 14 23 15 24
REMARK SMILES IDX 16 25 17 26 18 28 19 29 20 30 72 31 21 32 71 33 22 34 23 35
REMARK SMILES IDX 24 36 65 37 25 38 70 39 64 40 66 41 26 42 69 43 63 44 62 45
REMARK SMILES IDX 27 47 53 48 36 49 52 50 37 51 40 52 51 53 67 54 38 55 39 56
REMARK SMILES IDX 50 58 68 59 41 60 28 61 29 62 34 63 30 64 31 65 33 66 35 67
REMARK SMILES IDX 32 68 54 69 55 70 60 71 56 72 57 73 59 74 61 75 58 76 42 77
REMARK SMILES IDX 43 78 48 79 44 80 45 81 47 82 49 83 46 84
REMARK H PARENT 11 6 6 11 16 27 66 46 40 57
REMARK Flexibility Score: inf
ROOT
ATOM      1  C   UNL A   1      32.852  28.375  25.029  1.00  0.00     0.023 C 
ENDROOT
BRANCH   1   2
ATOM      2  C   UNL A   1      33.814  27.274  24.567  1.00  0.00     0.116 C 
BRANCH   2   3
ATOM      3  N   UNL A   1      33.557  26.944  23.183  1.00  0.00    -0.356 N 
ATOM      4  C   UNL A   1      33.464  25.732  22.568  1.00  0.00     0.229 C 
ATOM      5  O   UNL A   1      33.576  25.756  21.340  1.00  0.00    -0.275 OA
ATOM      6  H   UNL A   1      33.428  27.718  22.591  1.00  0.00     0.163 HD
BRANCH   4   7
ATOM      7  C   UNL A   1      33.135  24.445  23.337  1.00  0.00     0.142 C 
ATOM      8  N   UNL A   1      33.193  22.034  23.273  1.00  0.00    -0.328 N 
ATOM      9  C   UNL A   1      33.963  23.228  22.935  1.00  0.00     0.276 C 
ATOM     10  C   UNL A   1      31.790  22.404  23.100  1.00  0.00     0.267 C 
ATOM     11  H   UNL A   1      33.431  21.264  22.648  1.00  0.00     0.348 HD
ATOM     12  C   UNL A   1      31.697  23.949  23.064  1.00  0.00     0.065 C 
BRANCH   8  13
ATOM     13  C   UNL A   1      33.531  21.423  24.567  1.00  0.00     0.341 C 
BRANCH  13  14
ATOM     14  C   UNL A   1      33.347  19.954  24.687  1.00  0.00     0.191 A 
ATOM     15  C   UNL A   1      33.707  16.321  24.664  1.00  0.00     0.070 C 
ATOM     16  C   UNL A   1      33.354  17.755  24.768  1.00  0.00     0.081 A 
ATOM     17  C   UNL A   1      34.175  18.873  24.507  1.00  0.00     0.078 A 
ATOM     18  N   UNL A   1      32.116  18.130  25.114  1.00  0.00    -0.085 NA
ATOM     19  O   UNL A   1      32.120  19.515  25.079  1.00  0.00    -0.355 OA
ENDBRANCH  13  14
ENDBRANCH   8  13
BRANCH  12  20
ATOM     20  C   UNL A   1      30.574  24.428  23.958  1.00  0.00    -0.001 C 
ATOM     21  C   UNL A   1      30.721  25.386  25.115  1.00  0.00     0.004 C 
ATOM     22  C   UNL A   1      30.034  25.835  23.860  1.00  0.00     0.004 C 
ENDBRANCH  12  20
ENDBRANCH   4   7
ENDBRANCH   2   3
ENDBRANCH   1   2
BRANCH   1  23
ATOM     23  C   UNL A   1      32.648  28.442  26.543  1.00  0.00     0.023 C 
BRANCH  23  24
ATOM     24  C   UNL A   1      33.897  28.810  27.326  1.00  0.00     0.116 C 
BRANCH  24  25
ATOM     25  N   UNL A   1      33.836  30.142  27.911  1.00  0.00    -0.352 N 
ATOM     26  C   UNL A   1      34.834  30.825  28.566  1.00  0.00     0.251 C 
ATOM     27  H   UNL A   1      32.975  30.611  27.827  1.00  0.00     0.163 HD
ATOM     28  O   UNL A   1      34.618  31.906  29.089  1.00  0.00    -0.269 OA
BRANCH  26  29
ATOM     29  C   UNL A   1      36.162  30.192  28.668  1.00  0.00     0.039 A 
ATOM     30  C   UNL A   1      37.034  30.284  27.581  1.00  0.00     0.014 A 
ATOM     31  C   UNL A   1      36.564  29.582  29.860  1.00  0.00     0.014 A 
ATOM     32  C   UNL A   1      38.342  29.822  27.714  1.00  0.00     0.010 A 
ATOM     33  C   UNL A   1      37.887  29.190  30.014  1.00  0.00     0.010 A 
ATOM     34  C   UNL A   1      38.786  29.306  28.942  1.00  0.00    -0.014 A 
BRANCH  34  35
ATOM     35  C   UNL A   1      40.189  28.873  29.130  1.00  0.00     0.031 A 
ATOM     36  C   UNL A   1      41.188  29.816  29.734  1.00  0.00     0.074 A 
ATOM     37  C   UNL A   1      40.577  27.660  28.691  1.00  0.00     0.049 A 
ATOM     38  N   UNL A   1      42.473  29.657  29.913  1.00  0.00    -0.248 NA
ATOM     39  C   UNL A   1      40.677  31.128  30.164  1.00  0.00     0.031 C 
ATOM     40  C   UNL A   1      39.708  26.676  28.040  1.00  0.00     0.029 A 
ATOM     41  N   UNL A   1      41.806  27.053  28.719  1.00  0.00    -0.354 N 
ATOM     42  C   UNL A   1      42.927  30.851  30.458  1.00  0.00     0.074 A 
ATOM     43  C   UNL A   1      41.791  31.745  30.529  1.00  0.00     0.031 C 
ATOM     44  C   UNL A   1      40.427  25.579  27.753  1.00  0.00     0.029 A 
ATOM     45  C   UNL A   1      41.810  25.793  28.170  1.00  0.00     0.049 A 
ATOM     46  H   UNL A   1      42.609  27.478  29.095  1.00  0.00     0.167 HD
ATOM     47  C   UNL A   1      44.173  31.166  30.883  1.00  0.00     0.037 A 
ATOM     48  C   UNL A   1      42.816  24.914  28.022  1.00  0.00     0.037 A 
ATOM     49  C   UNL A   1      45.291  30.263  30.840  1.00  0.00     0.049 A 
ATOM     50  C   UNL A   1      44.188  25.280  28.514  1.00  0.00     0.074 A 
ATOM     51  C   UNL A   1      46.579  30.461  31.305  1.00  0.00     0.029 A 
ATOM     52  N   UNL A   1      45.250  28.986  30.301  1.00  0.00    -0.354 N 
ATOM     53  N   UNL A   1      44.592  26.388  29.087  1.00  0.00    -0.248 NA
ATOM     54  C   UNL A   1      45.245  24.272  28.344  1.00  0.00     0.031 C 
ATOM     55  C   UNL A   1      47.326  29.314  31.017  1.00  0.00     0.029 A 
ATOM     56  C   UNL A   1      46.494  28.388  30.407  1.00  0.00     0.049 A 
ATOM     57  H   UNL A   1      44.454  28.566  29.900  1.00  0.00     0.167 HD
ATOM     58  C   UNL A   1      45.938  26.204  29.368  1.00  0.00     0.074 A 
ATOM     59  C   UNL A   1      46.281  24.873  28.912  1.00  0.00     0.031 C 
ATOM     60  C   UNL A   1      46.812  27.059  29.953  1.00  0.00     0.037 A 
BRANCH  47  61
ATOM     61  C   UNL A   1      44.378  32.544  31.438  1.00  0.00     0.057 A 
ATOM     62  C   UNL A   1      44.195  32.825  32.799  1.00  0.00     0.134 A 
ATOM     63  C   UNL A   1      44.767  33.600  30.606  1.00  0.00     0.134 A 
ATOM     64  F   UNL A   1      43.806  31.861  33.646  1.00  0.00    -0.206 F 
ATOM     65  C   UNL A   1      44.361  34.114  33.307  1.00  0.00     0.040 A 
ATOM     66  C   UNL A   1      44.962  34.889  31.108  1.00  0.00     0.040 A 
ATOM     67  F   UNL A   1      44.962  33.400  29.294  1.00  0.00    -0.206 F 
ATOM     68  C   UNL A   1      44.751  35.150  32.460  1.00  0.00     0.006 A 
ENDBRANCH  47  61
BRANCH  48  69
ATOM     69  C   UNL A   1      42.556  23.584  27.417  1.00  0.00     0.057 A 
ATOM     70  C   UNL A   1      42.650  23.396  26.034  1.00  0.00     0.134 A 
ATOM     71  C   UNL A   1      42.215  22.475  28.199  1.00  0.00     0.134 A 
ATOM     72  F   UNL A   1      42.956  24.426  25.232  1.00  0.00    -0.206 F 
ATOM     73  C   UNL A   1      42.399  22.155  25.447  1.00  0.00     0.040 A 
ATOM     74  C   UNL A   1      41.981  21.223  27.628  1.00  0.00     0.040 A 
ATOM     75  F   UNL A   1      42.117  22.591  29.532  1.00  0.00    -0.206 F 
ATOM     76  C   UNL A   1      42.068  21.063  26.246  1.00  0.00     0.006 A 
ENDBRANCH  48  69
BRANCH  60  77
ATOM     77  C   UNL A   1      48.213  26.568  30.159  1.00  0.00     0.057 A 
ATOM     78  C   UNL A   1      48.584  25.859  31.308  1.00  0.00     0.134 A 
ATOM     79  C   UNL A   1      49.190  26.772  29.178  1.00  0.00     0.134 A 
ATOM     80  F   UNL A   1      47.696  25.645  32.291  1.00  0.00    -0.206 F 
ATOM     81  C   UNL A   1      49.884  25.384  31.481  1.00  0.00     0.040 A 
ATOM     82  C   UNL A   1      50.487  26.281  29.328  1.00  0.00     0.040 A 
ATOM     83  F   UNL A   1      48.896  27.438  28.051  1.00  0.00    -0.206 F 
ATOM     84  C   UNL A   1      50.838  25.589  30.485  1.00  0.00     0.006 A 
ENDBRANCH  60  77
ENDBRANCH  34  35
ENDBRANCH  26  29
ENDBRANCH  24  25
ENDBRANCH  23  24
ENDBRANCH   1  23
TORSDOF 14
ENDMDL
