MODEL 1
REMARK VINA RESULT:      -9.9      0.000      0.000
REMARK SMILES COc1ccc2c(C)cc(SCC(=O)NCCCCNC(=O)c3ccc(-c4c5nc(c(-c6c(F)cccc6F)c6ccc([nH]6)c(-c6c(F)cccc6F)c6nc(c(-c7c(F)cccc7F)c7ccc4[nH]7)C=C6)C=C5)cc3)nc2c1
REMARK SMILES IDX 17 1 16 2 15 3 13 4 14 5 12 7 11 8 10 9 3 10 4 11 79 12 5 13
REMARK SMILES IDX 78 14 6 15 77 16 7 17 8 18 9 19 2 20 1 21 18 22 19 23 20 24
REMARK SMILES IDX 21 25 22 27 23 28 24 29 76 30 25 31 75 32 26 33 27 34 28 35
REMARK SMILES IDX 69 36 29 37 74 38 68 39 70 40 30 41 73 42 67 43 66 44 31 46
REMARK SMILES IDX 57 47 40 48 56 49 41 50 44 51 55 52 71 53 42 54 43 55 54 57
REMARK SMILES IDX 72 58 45 59 32 60 33 61 38 62 34 63 35 64 37 65 39 66 36 67
REMARK SMILES IDX 58 68 59 69 64 70 60 71 61 72 63 73 65 74 62 75 46 76 47 77
REMARK SMILES IDX 52 78 48 79 49 80 51 81 53 82 50 83
REMARK H PARENT 15 6 20 26 70 45 44 56
REMARK Flexibility Score: inf
ROOT
ATOM      1  C   UNL A   1      33.500  37.523  32.117  1.00  0.00     0.023 C 
ENDROOT
BRANCH   1   2
ATOM      2  C   UNL A   1      34.146  36.743  33.263  1.00  0.00     0.116 C 
BRANCH   2   3
ATOM      3  N   UNL A   1      33.669  35.376  33.312  1.00  0.00    -0.355 N 
ATOM      4  C   UNL A   1      34.364  34.208  33.234  1.00  0.00     0.230 C 
ATOM      5  O   UNL A   1      33.716  33.157  33.250  1.00  0.00    -0.274 OA
ATOM      6  H   UNL A   1      32.695  35.276  33.418  1.00  0.00     0.163 HD
BRANCH   4   7
ATOM      7  C   UNL A   1      35.880  34.185  33.223  1.00  0.00     0.176 C 
BRANCH   7   8
ATOM      8  S   UNL A   1      36.651  33.470  34.701  1.00  0.00    -0.096 SA
BRANCH   8   9
ATOM      9  C   UNL A   1      37.495  32.008  34.144  1.00  0.00     0.097 A 
ATOM     10  C   UNL A   1      41.547  29.579  34.772  1.00  0.00     0.121 A 
ATOM     11  C   UNL A   1      41.157  28.612  33.855  1.00  0.00     0.047 A 
ATOM     12  C   UNL A   1      40.692  30.650  35.038  1.00  0.00     0.075 A 
ATOM     13  C   UNL A   1      39.922  28.730  33.211  1.00  0.00     0.014 A 
ATOM     14  C   UNL A   1      39.465  30.795  34.405  1.00  0.00     0.075 A 
ATOM     15  C   UNL A   1      39.057  29.816  33.478  1.00  0.00     0.003 A 
ATOM     16  N   UNL A   1      38.712  31.864  34.711  1.00  0.00    -0.241 NA
ATOM     17  C   UNL A   1      37.789  29.981  32.879  1.00  0.00    -0.039 A 
ATOM     18  C   UNL A   1      37.248  29.009  31.866  1.00  0.00     0.045 C 
ATOM     19  C   UNL A   1      36.997  31.077  33.251  1.00  0.00     0.039 A 
BRANCH  10  20
ATOM     20  O   UNL A   1      42.709  29.571  35.493  1.00  0.00    -0.497 OA
ATOM     21  C   UNL A   1      42.883  30.634  36.422  1.00  0.00     0.278 C 
ENDBRANCH  10  20
ENDBRANCH   8   9
ENDBRANCH   7   8
ENDBRANCH   4   7
ENDBRANCH   2   3
ENDBRANCH   1   2
BRANCH   1  22
ATOM     22  C   UNL A   1      32.720  36.669  31.110  1.00  0.00     0.023 C 
BRANCH  22  23
ATOM     23  C   UNL A   1      33.354  36.530  29.730  1.00  0.00     0.116 C 
BRANCH  23  24
ATOM     24  N   UNL A   1      32.645  35.602  28.869  1.00  0.00    -0.352 N 
ATOM     25  C   UNL A   1      33.048  34.390  28.369  1.00  0.00     0.251 C 
ATOM     26  H   UNL A   1      31.738  35.883  28.605  1.00  0.00     0.163 HD
ATOM     27  O   UNL A   1      32.333  33.802  27.556  1.00  0.00    -0.269 OA
BRANCH  25  28
ATOM     28  C   UNL A   1      34.341  33.790  28.769  1.00  0.00     0.039 A 
ATOM     29  C   UNL A   1      35.485  34.132  28.041  1.00  0.00     0.014 A 
ATOM     30  C   UNL A   1      34.434  32.864  29.811  1.00  0.00     0.014 A 
ATOM     31  C   UNL A   1      36.720  33.572  28.376  1.00  0.00     0.010 A 
ATOM     32  C   UNL A   1      35.678  32.355  30.187  1.00  0.00     0.010 A 
ATOM     33  C   UNL A   1      36.831  32.690  29.462  1.00  0.00    -0.014 A 
BRANCH  33  34
ATOM     34  C   UNL A   1      38.135  32.069  29.809  1.00  0.00     0.031 A 
ATOM     35  C   UNL A   1      39.090  32.787  30.727  1.00  0.00     0.074 A 
ATOM     36  C   UNL A   1      38.472  30.873  29.290  1.00  0.00     0.049 A 
ATOM     37  N   UNL A   1      40.284  32.428  31.125  1.00  0.00    -0.248 NA
ATOM     38  C   UNL A   1      38.652  34.092  31.250  1.00  0.00     0.031 C 
ATOM     39  C   UNL A   1      37.655  30.089  28.362  1.00  0.00     0.029 A 
ATOM     40  N   UNL A   1      39.595  30.105  29.473  1.00  0.00    -0.354 N 
ATOM     41  C   UNL A   1      40.739  33.459  31.938  1.00  0.00     0.074 A 
ATOM     42  C   UNL A   1      39.719  34.485  31.929  1.00  0.00     0.031 C 
ATOM     43  C   UNL A   1      38.293  28.941  28.076  1.00  0.00     0.029 A 
ATOM     44  C   UNL A   1      39.572  28.920  28.779  1.00  0.00     0.049 A 
ATOM     45  H   UNL A   1      40.348  30.379  30.046  1.00  0.00     0.167 HD
ATOM     46  C   UNL A   1      41.886  33.534  32.654  1.00  0.00     0.037 A 
ATOM     47  C   UNL A   1      40.480  27.927  28.722  1.00  0.00     0.037 A 
ATOM     48  C   UNL A   1      42.893  32.506  32.686  1.00  0.00     0.049 A 
ATOM     49  C   UNL A   1      41.743  28.036  29.530  1.00  0.00     0.074 A 
ATOM     50  C   UNL A   1      44.085  32.486  33.390  1.00  0.00     0.029 A 
ATOM     51  N   UNL A   1      42.817  31.310  31.992  1.00  0.00    -0.354 N 
ATOM     52  N   UNL A   1      42.140  29.001  30.324  1.00  0.00    -0.248 NA
ATOM     53  C   UNL A   1      42.683  26.908  29.443  1.00  0.00     0.031 C 
ATOM     54  C   UNL A   1      44.739  31.282  33.107  1.00  0.00     0.029 A 
ATOM     55  C   UNL A   1      43.938  30.541  32.255  1.00  0.00     0.049 A 
ATOM     56  H   UNL A   1      42.075  31.044  31.401  1.00  0.00     0.167 HD
ATOM     57  C   UNL A   1      43.352  28.581  30.857  1.00  0.00     0.074 A 
ATOM     58  C   UNL A   1      43.618  27.268  30.309  1.00  0.00     0.031 C 
ATOM     59  C   UNL A   1      44.175  29.225  31.719  1.00  0.00     0.037 A 
BRANCH  46  60
ATOM     60  C   UNL A   1      42.101  34.765  33.484  1.00  0.00     0.057 A 
ATOM     61  C   UNL A   1      42.815  35.864  32.990  1.00  0.00     0.134 A 
ATOM     62  C   UNL A   1      41.562  34.870  34.773  1.00  0.00     0.134 A 
ATOM     63  F   UNL A   1      43.369  35.821  31.770  1.00  0.00    -0.206 F 
ATOM     64  C   UNL A   1      43.002  37.017  33.754  1.00  0.00     0.040 A 
ATOM     65  C   UNL A   1      41.722  36.028  35.536  1.00  0.00     0.040 A 
ATOM     66  F   UNL A   1      40.864  33.855  35.304  1.00  0.00    -0.206 F 
ATOM     67  C   UNL A   1      42.448  37.103  35.030  1.00  0.00     0.006 A 
ENDBRANCH  46  60
BRANCH  47  68
ATOM     68  C   UNL A   1      40.225  26.720  27.895  1.00  0.00     0.057 A 
ATOM     69  C   UNL A   1      39.452  25.660  28.386  1.00  0.00     0.134 A 
ATOM     70  C   UNL A   1      40.788  26.573  26.623  1.00  0.00     0.134 A 
ATOM     71  F   UNL A   1      38.904  25.734  29.608  1.00  0.00    -0.206 F 
ATOM     72  C   UNL A   1      39.277  24.483  27.658  1.00  0.00     0.040 A 
ATOM     73  C   UNL A   1      40.600  25.411  25.872  1.00  0.00     0.040 A 
ATOM     74  F   UNL A   1      41.533  27.553  26.094  1.00  0.00    -0.206 F 
ATOM     75  C   UNL A   1      39.853  24.357  26.395  1.00  0.00     0.006 A 
ENDBRANCH  47  68
BRANCH  59  76
ATOM     76  C   UNL A   1      45.407  28.494  32.160  1.00  0.00     0.057 A 
ATOM     77  C   UNL A   1      45.399  27.621  33.256  1.00  0.00     0.134 A 
ATOM     78  C   UNL A   1      46.616  28.660  31.472  1.00  0.00     0.134 A 
ATOM     79  F   UNL A   1      44.276  27.431  33.964  1.00  0.00    -0.206 F 
ATOM     80  C   UNL A   1      46.558  26.964  33.671  1.00  0.00     0.040 A 
ATOM     81  C   UNL A   1      47.775  27.987  31.862  1.00  0.00     0.040 A 
ATOM     82  F   UNL A   1      46.690  29.475  30.409  1.00  0.00    -0.206 F 
ATOM     83  C   UNL A   1      47.750  27.143  32.971  1.00  0.00     0.006 A 
ENDBRANCH  59  76
ENDBRANCH  33  34
ENDBRANCH  25  28
ENDBRANCH  23  24
ENDBRANCH  22  23
ENDBRANCH   1  22
TORSDOF 14
ENDMDL
MODEL 2
REMARK VINA RESULT:      -9.1      0.607      6.355
REMARK SMILES COc1ccc2c(C)cc(SCC(=O)NCCCCNC(=O)c3ccc(-c4c5nc(c(-c6c(F)cccc6F)c6ccc([nH]6)c(-c6c(F)cccc6F)c6nc(c(-c7c(F)cccc7F)c7ccc4[nH]7)C=C6)C=C5)cc3)nc2c1
REMARK SMILES IDX 17 1 16 2 15 3 13 4 14 5 12 7 11 8 10 9 3 10 4 11 79 12 5 13
REMARK SMILES IDX 78 14 6 15 77 16 7 17 8 18 9 19 2 20 1 21 18 22 19 23 20 24
REMARK SMILES IDX 21 25 22 27 23 28 24 29 76 30 25 31 75 32 26 33 27 34 28 35
REMARK SMILES IDX 69 36 29 37 74 38 68 39 70 40 30 41 73 42 67 43 66 44 31 46
REMARK SMILES IDX 57 47 40 48 56 49 41 50 44 51 55 52 71 53 42 54 43 55 54 57
REMARK SMILES IDX 72 58 45 59 32 60 33 61 38 62 34 63 35 64 37 65 39 66 36 67
REMARK SMILES IDX 58 68 59 69 64 70 60 71 61 72 63 73 65 74 62 75 46 76 47 77
REMARK SMILES IDX 52 78 48 79 49 80 51 81 53 82 50 83
REMARK H PARENT 15 6 20 26 70 45 44 56
REMARK Flexibility Score: inf
ROOT
ATOM      1  C   UNL A   1      33.172  37.183  32.497  1.00  0.00     0.023 C 
ENDROOT
BRANCH   1   2
ATOM      2  C   UNL A   1      34.424  36.459  32.998  1.00  0.00     0.116 C 
BRANCH   2   3
ATOM      3  N   UNL A   1      34.125  35.101  33.405  1.00  0.00    -0.355 N 
ATOM      4  C   UNL A   1      34.968  34.097  33.770  1.00  0.00     0.230 C 
ATOM      5  O   UNL A   1      34.469  32.999  34.030  1.00  0.00    -0.274 OA
ATOM      6  H   UNL A   1      33.168  34.869  33.421  1.00  0.00     0.163 HD
BRANCH   4   7
ATOM      7  C   UNL A   1      36.456  34.332  33.945  1.00  0.00     0.176 C 
BRANCH   7   8
ATOM      8  S   UNL A   1      37.229  33.408  35.300  1.00  0.00    -0.096 SA
BRANCH   8   9
ATOM      9  C   UNL A   1      37.931  31.956  34.553  1.00  0.00     0.097 A 
ATOM     10  C   UNL A   1      41.875  29.280  34.599  1.00  0.00     0.121 A 
ATOM     11  C   UNL A   1      41.346  28.413  33.652  1.00  0.00     0.047 A 
ATOM     12  C   UNL A   1      41.113  30.368  35.028  1.00  0.00     0.075 A 
ATOM     13  C   UNL A   1      40.066  28.646  33.142  1.00  0.00     0.014 A 
ATOM     14  C   UNL A   1      39.843  30.627  34.529  1.00  0.00     0.075 A 
ATOM     15  C   UNL A   1      39.295  29.750  33.573  1.00  0.00     0.003 A 
ATOM     16  N   UNL A   1      39.185  31.704  34.987  1.00  0.00    -0.241 NA
ATOM     17  C   UNL A   1      37.988  30.028  33.114  1.00  0.00    -0.039 A 
ATOM     18  C   UNL A   1      37.301  29.172  32.086  1.00  0.00     0.045 C 
ATOM     19  C   UNL A   1      37.300  31.128  33.643  1.00  0.00     0.039 A 
BRANCH  10  20
ATOM     20  O   UNL A   1      43.096  29.154  35.202  1.00  0.00    -0.497 OA
ATOM     21  C   UNL A   1      43.329  27.941  35.907  1.00  0.00     0.278 C 
ENDBRANCH  10  20
ENDBRANCH   8   9
ENDBRANCH   7   8
ENDBRANCH   4   7
ENDBRANCH   2   3
ENDBRANCH   1   2
BRANCH   1  22
ATOM     22  C   UNL A   1      32.452  36.500  31.329  1.00  0.00     0.023 C 
BRANCH  22  23
ATOM     23  C   UNL A   1      33.295  36.263  30.080  1.00  0.00     0.116 C 
BRANCH  23  24
ATOM     24  N   UNL A   1      32.653  35.384  29.119  1.00  0.00    -0.352 N 
ATOM     25  C   UNL A   1      33.139  34.260  28.502  1.00  0.00     0.251 C 
ATOM     26  H   UNL A   1      31.732  35.632  28.874  1.00  0.00     0.163 HD
ATOM     27  O   UNL A   1      32.469  33.714  27.624  1.00  0.00    -0.269 OA
BRANCH  25  28
ATOM     28  C   UNL A   1      34.466  33.708  28.855  1.00  0.00     0.039 A 
ATOM     29  C   UNL A   1      34.571  32.916  30.004  1.00  0.00     0.014 A 
ATOM     30  C   UNL A   1      35.610  33.998  28.107  1.00  0.00     0.014 A 
ATOM     31  C   UNL A   1      35.809  32.392  30.382  1.00  0.00     0.010 A 
ATOM     32  C   UNL A   1      36.834  33.422  28.448  1.00  0.00     0.010 A 
ATOM     33  C   UNL A   1      36.950  32.628  29.599  1.00  0.00    -0.014 A 
BRANCH  33  34
ATOM     34  C   UNL A   1      38.276  32.097  30.008  1.00  0.00     0.031 A 
ATOM     35  C   UNL A   1      38.745  30.762  29.491  1.00  0.00     0.074 A 
ATOM     36  C   UNL A   1      39.053  32.801  30.853  1.00  0.00     0.049 A 
ATOM     37  N   UNL A   1      39.852  30.114  29.752  1.00  0.00    -0.248 NA
ATOM     38  C   UNL A   1      37.838  30.051  28.575  1.00  0.00     0.031 C 
ATOM     39  C   UNL A   1      38.704  34.090  31.453  1.00  0.00     0.029 A 
ATOM     40  N   UNL A   1      40.303  32.530  31.352  1.00  0.00    -0.354 N 
ATOM     41  C   UNL A   1      39.773  28.924  29.040  1.00  0.00     0.074 A 
ATOM     42  C   UNL A   1      38.484  28.911  28.383  1.00  0.00     0.031 C 
ATOM     43  C   UNL A   1      39.725  34.509  32.221  1.00  0.00     0.029 A 
ATOM     44  C   UNL A   1      40.788  33.509  32.186  1.00  0.00     0.049 A 
ATOM     45  H   UNL A   1      40.804  31.711  31.135  1.00  0.00     0.167 HD
ATOM     46  C   UNL A   1      40.699  27.944  28.915  1.00  0.00     0.037 A 
ATOM     47  C   UNL A   1      41.960  33.589  32.845  1.00  0.00     0.037 A 
ATOM     48  C   UNL A   1      41.993  27.964  29.547  1.00  0.00     0.049 A 
ATOM     49  C   UNL A   1      42.971  32.487  32.685  1.00  0.00     0.074 A 
ATOM     50  C   UNL A   1      43.005  27.023  29.473  1.00  0.00     0.029 A 
ATOM     51  N   UNL A   1      42.455  28.986  30.360  1.00  0.00    -0.354 N 
ATOM     52  N   UNL A   1      42.895  31.387  31.976  1.00  0.00    -0.248 NA
ATOM     53  C   UNL A   1      44.241  32.646  33.410  1.00  0.00     0.031 C 
ATOM     54  C   UNL A   1      44.075  27.468  30.256  1.00  0.00     0.029 A 
ATOM     55  C   UNL A   1      43.740  28.702  30.789  1.00  0.00     0.049 A 
ATOM     56  H   UNL A   1      41.947  29.796  30.596  1.00  0.00     0.167 HD
ATOM     57  C   UNL A   1      44.116  30.744  32.141  1.00  0.00     0.074 A 
ATOM     58  C   UNL A   1      44.920  31.585  33.002  1.00  0.00     0.031 C 
ATOM     59  C   UNL A   1      44.534  29.562  31.628  1.00  0.00     0.037 A 
BRANCH  46  60
ATOM     60  C   UNL A   1      40.355  26.777  28.039  1.00  0.00     0.057 A 
ATOM     61  C   UNL A   1      40.868  26.661  26.741  1.00  0.00     0.134 A 
ATOM     62  C   UNL A   1      39.533  25.742  28.505  1.00  0.00     0.134 A 
ATOM     63  F   UNL A   1      41.648  27.625  26.231  1.00  0.00    -0.206 F 
ATOM     64  C   UNL A   1      40.563  25.568  25.930  1.00  0.00     0.040 A 
ATOM     65  C   UNL A   1      39.241  24.632  27.710  1.00  0.00     0.040 A 
ATOM     66  F   UNL A   1      39.012  25.789  29.740  1.00  0.00    -0.206 F 
ATOM     67  C   UNL A   1      39.752  24.545  26.417  1.00  0.00     0.006 A 
ENDBRANCH  46  60
BRANCH  47  68
ATOM     68  C   UNL A   1      42.267  34.767  33.695  1.00  0.00     0.057 A 
ATOM     69  C   UNL A   1      42.826  35.927  33.143  1.00  0.00     0.134 A 
ATOM     70  C   UNL A   1      42.062  34.744  35.078  1.00  0.00     0.134 A 
ATOM     71  F   UNL A   1      43.066  36.001  31.826  1.00  0.00    -0.206 F 
ATOM     72  C   UNL A   1      43.203  37.008  33.941  1.00  0.00     0.040 A 
ATOM     73  C   UNL A   1      42.410  35.829  35.885  1.00  0.00     0.040 A 
ATOM     74  F   UNL A   1      41.525  33.666  35.666  1.00  0.00    -0.206 F 
ATOM     75  C   UNL A   1      42.994  36.960  35.318  1.00  0.00     0.006 A 
ENDBRANCH  47  68
BRANCH  59  76
ATOM     76  C   UNL A   1      45.938  29.140  31.945  1.00  0.00     0.057 A 
ATOM     77  C   UNL A   1      47.048  29.750  31.346  1.00  0.00     0.134 A 
ATOM     78  C   UNL A   1      46.180  28.116  32.869  1.00  0.00     0.134 A 
ATOM     79  F   UNL A   1      46.881  30.726  30.442  1.00  0.00    -0.206 F 
ATOM     80  C   UNL A   1      48.349  29.332  31.632  1.00  0.00     0.040 A 
ATOM     81  C   UNL A   1      47.478  27.709  33.183  1.00  0.00     0.040 A 
ATOM     82  F   UNL A   1      45.161  27.497  33.485  1.00  0.00    -0.206 F 
ATOM     83  C   UNL A   1      48.567  28.312  32.556  1.00  0.00     0.006 A 
ENDBRANCH  59  76
ENDBRANCH  33  34
ENDBRANCH  25  28
ENDBRANCH  23  24
ENDBRANCH  22  23
ENDBRANCH   1  22
TORSDOF 14
ENDMDL
MODEL 3
REMARK VINA RESULT:      -8.7      6.045     11.618
REMARK SMILES COc1ccc2c(C)cc(SCC(=O)NCCCCNC(=O)c3ccc(-c4c5nc(c(-c6c(F)cccc6F)c6ccc([nH]6)c(-c6c(F)cccc6F)c6nc(c(-c7c(F)cccc7F)c7ccc4[nH]7)C=C6)C=C5)cc3)nc2c1
REMARK SMILES IDX 17 1 16 2 15 3 13 4 14 5 12 7 11 8 10 9 3 10 4 11 79 12 5 13
REMARK SMILES IDX 78 14 6 15 77 16 7 17 8 18 9 19 2 20 1 21 18 22 19 23 20 24
REMARK SMILES IDX 21 25 22 27 23 28 24 29 76 30 25 31 75 32 26 33 27 34 28 35
REMARK SMILES IDX 69 36 29 37 74 38 68 39 70 40 30 41 73 42 67 43 66 44 31 46
REMARK SMILES IDX 57 47 40 48 56 49 41 50 44 51 55 52 71 53 42 54 43 55 54 57
REMARK SMILES IDX 72 58 45 59 32 60 33 61 38 62 34 63 35 64 37 65 39 66 36 67
REMARK SMILES IDX 58 68 59 69 64 70 60 71 61 72 63 73 65 74 62 75 46 76 47 77
REMARK SMILES IDX 52 78 48 79 49 80 51 81 53 82 50 83
REMARK H PARENT 15 6 20 26 70 45 44 56
REMARK Flexibility Score: inf
ROOT
ATOM      1  C   UNL A   1      36.204  20.449  24.939  1.00  0.00     0.023 C 
ENDROOT
BRANCH   1   2
ATOM      2  C   UNL A   1      36.210  21.764  25.720  1.00  0.00     0.116 C 
BRANCH   2   3
ATOM      3  N   UNL A   1      35.343  21.698  26.879  1.00  0.00    -0.355 N 
ATOM      4  C   UNL A   1      34.321  22.516  27.248  1.00  0.00     0.230 C 
ATOM      5  O   UNL A   1      33.757  22.278  28.320  1.00  0.00    -0.274 OA
ATOM      6  H   UNL A   1      35.520  20.948  27.492  1.00  0.00     0.163 HD
BRANCH   4   7
ATOM      7  C   UNL A   1      33.822  23.624  26.341  1.00  0.00     0.176 C 
BRANCH   7   8
ATOM      8  S   UNL A   1      32.141  23.397  25.698  1.00  0.00    -0.096 SA
BRANCH   8   9
ATOM      9  C   UNL A   1      32.213  21.954  24.664  1.00  0.00     0.097 A 
ATOM     10  C   UNL A   1      33.000  17.258  24.874  1.00  0.00     0.121 A 
ATOM     11  C   UNL A   1      32.804  17.123  23.506  1.00  0.00     0.047 A 
ATOM     12  C   UNL A   1      32.891  18.521  25.457  1.00  0.00     0.075 A 
ATOM     13  C   UNL A   1      32.506  18.251  22.737  1.00  0.00     0.014 A 
ATOM     14  C   UNL A   1      32.606  19.658  24.714  1.00  0.00     0.075 A 
ATOM     15  C   UNL A   1      32.398  19.532  23.326  1.00  0.00     0.003 A 
ATOM     16  N   UNL A   1      32.532  20.837  25.354  1.00  0.00    -0.241 NA
ATOM     17  C   UNL A   1      32.078  20.706  22.610  1.00  0.00    -0.039 A 
ATOM     18  C   UNL A   1      31.845  20.700  21.124  1.00  0.00     0.045 C 
ATOM     19  C   UNL A   1      31.956  21.917  23.306  1.00  0.00     0.039 A 
BRANCH  10  20
ATOM     20  O   UNL A   1      33.266  16.238  25.745  1.00  0.00    -0.497 OA
ATOM     21  C   UNL A   1      32.347  15.152  25.746  1.00  0.00     0.278 C 
ENDBRANCH  10  20
ENDBRANCH   8   9
ENDBRANCH   7   8
ENDBRANCH   4   7
ENDBRANCH   2   3
ENDBRANCH   1   2
BRANCH   1  22
ATOM     22  C   UNL A   1      37.584  19.821  24.714  1.00  0.00     0.023 C 
BRANCH  22  23
ATOM     23  C   UNL A   1      38.681  20.272  25.673  1.00  0.00     0.116 C 
BRANCH  23  24
ATOM     24  N   UNL A   1      39.784  19.333  25.759  1.00  0.00    -0.352 N 
ATOM     25  C   UNL A   1      41.091  19.550  26.114  1.00  0.00     0.251 C 
ATOM     26  H   UNL A   1      39.561  18.402  25.528  1.00  0.00     0.163 HD
ATOM     27  O   UNL A   1      41.906  18.631  26.014  1.00  0.00    -0.269 OA
BRANCH  25  28
ATOM     28  C   UNL A   1      41.543  20.876  26.590  1.00  0.00     0.039 A 
ATOM     29  C   UNL A   1      41.475  21.148  27.960  1.00  0.00     0.014 A 
ATOM     30  C   UNL A   1      41.982  21.867  25.708  1.00  0.00     0.014 A 
ATOM     31  C   UNL A   1      41.873  22.395  28.447  1.00  0.00     0.010 A 
ATOM     32  C   UNL A   1      42.442  23.089  26.201  1.00  0.00     0.010 A 
ATOM     33  C   UNL A   1      42.375  23.373  27.573  1.00  0.00    -0.014 A 
BRANCH  33  34
ATOM     34  C   UNL A   1      42.777  24.710  28.078  1.00  0.00     0.031 A 
ATOM     35  C   UNL A   1      41.736  25.778  28.294  1.00  0.00     0.074 A 
ATOM     36  C   UNL A   1      44.074  24.975  28.328  1.00  0.00     0.049 A 
ATOM     37  N   UNL A   1      41.888  27.014  28.698  1.00  0.00    -0.248 NA
ATOM     38  C   UNL A   1      40.342  25.414  27.994  1.00  0.00     0.031 C 
ATOM     39  C   UNL A   1      45.184  24.043  28.129  1.00  0.00     0.029 A 
ATOM     40  N   UNL A   1      44.676  26.112  28.808  1.00  0.00    -0.354 N 
ATOM     41  C   UNL A   1      40.616  27.572  28.698  1.00  0.00     0.074 A 
ATOM     42  C   UNL A   1      39.711  26.561  28.196  1.00  0.00     0.031 C 
ATOM     43  C   UNL A   1      46.330  24.636  28.506  1.00  0.00     0.029 A 
ATOM     44  C   UNL A   1      46.038  25.996  28.949  1.00  0.00     0.049 A 
ATOM     45  H   UNL A   1      44.180  26.933  29.028  1.00  0.00     0.167 HD
ATOM     46  C   UNL A   1      40.227  28.803  29.108  1.00  0.00     0.037 A 
ATOM     47  C   UNL A   1      46.946  26.888  29.390  1.00  0.00     0.037 A 
ATOM     48  C   UNL A   1      41.120  29.804  29.631  1.00  0.00     0.049 A 
ATOM     49  C   UNL A   1      46.485  28.246  29.841  1.00  0.00     0.074 A 
ATOM     50  C   UNL A   1      40.820  31.078  30.082  1.00  0.00     0.029 A 
ATOM     51  N   UNL A   1      42.486  29.637  29.784  1.00  0.00    -0.354 N 
ATOM     52  N   UNL A   1      45.273  28.744  29.870  1.00  0.00    -0.248 NA
ATOM     53  C   UNL A   1      47.522  29.165  30.335  1.00  0.00     0.031 C 
ATOM     54  C   UNL A   1      42.010  31.689  30.493  1.00  0.00     0.029 A 
ATOM     55  C   UNL A   1      43.044  30.782  30.328  1.00  0.00     0.049 A 
ATOM     56  H   UNL A   1      42.988  28.824  29.543  1.00  0.00     0.167 HD
ATOM     57  C   UNL A   1      45.398  30.016  30.417  1.00  0.00     0.074 A 
ATOM     58  C   UNL A   1      46.800  30.206  30.721  1.00  0.00     0.031 C 
ATOM     59  C   UNL A   1      44.439  30.945  30.645  1.00  0.00     0.037 A 
BRANCH  46  60
ATOM     60  C   UNL A   1      38.765  29.126  29.030  1.00  0.00     0.057 A 
ATOM     61  C   UNL A   1      37.933  29.019  30.152  1.00  0.00     0.134 A 
ATOM     62  C   UNL A   1      38.188  29.581  27.837  1.00  0.00     0.134 A 
ATOM     63  F   UNL A   1      38.420  28.575  31.319  1.00  0.00    -0.206 F 
ATOM     64  C   UNL A   1      36.575  29.335  30.086  1.00  0.00     0.040 A 
ATOM     65  C   UNL A   1      36.836  29.923  27.767  1.00  0.00     0.040 A 
ATOM     66  F   UNL A   1      38.930  29.710  26.727  1.00  0.00    -0.206 F 
ATOM     67  C   UNL A   1      36.024  29.795  28.892  1.00  0.00     0.006 A 
ENDBRANCH  46  60
BRANCH  47  68
ATOM     68  C   UNL A   1      48.384  26.526  29.461  1.00  0.00     0.057 A 
ATOM     69  C   UNL A   1      48.910  25.882  30.589  1.00  0.00     0.134 A 
ATOM     70  C   UNL A   1      49.274  26.859  28.434  1.00  0.00     0.134 A 
ATOM     71  F   UNL A   1      48.110  25.556  31.615  1.00  0.00    -0.206 F 
ATOM     72  C   UNL A   1      50.274  25.615  30.709  1.00  0.00     0.040 A 
ATOM     73  C   UNL A   1      50.637  26.574  28.530  1.00  0.00     0.040 A 
ATOM     74  F   UNL A   1      48.832  27.470  27.327  1.00  0.00    -0.206 F 
ATOM     75  C   UNL A   1      51.143  25.962  29.676  1.00  0.00     0.006 A 
ENDBRANCH  47  68
BRANCH  59  76
ATOM     76  C   UNL A   1      44.869  32.224  31.298  1.00  0.00     0.057 A 
ATOM     77  C   UNL A   1      45.280  33.336  30.552  1.00  0.00     0.134 A 
ATOM     78  C   UNL A   1      44.862  32.346  32.694  1.00  0.00     0.134 A 
ATOM     79  F   UNL A   1      45.323  33.276  29.213  1.00  0.00    -0.206 F 
ATOM     80  C   UNL A   1      45.701  34.513  31.172  1.00  0.00     0.040 A 
ATOM     81  C   UNL A   1      45.255  33.528  33.324  1.00  0.00     0.040 A 
ATOM     82  F   UNL A   1      44.471  31.321  33.467  1.00  0.00    -0.206 F 
ATOM     83  C   UNL A   1      45.685  34.613  32.562  1.00  0.00     0.006 A 
ENDBRANCH  59  76
ENDBRANCH  33  34
ENDBRANCH  25  28
ENDBRANCH  23  24
ENDBRANCH  22  23
ENDBRANCH   1  22
TORSDOF 14
ENDMDL
