MODEL 1
REMARK VINA RESULT:     -12.9      0.000      0.000
REMARK SMILES Cc1ccnc(C(=O)c2[nH]c3ccc(OC(F)(F)F)cc3c2CC(=O)NCCCCNC(=O)c2ccc(-c3c4nc(c(-c5c(F)cccc5F)c5ccc([nH]5)c(-c5c(F)cccc5F)c5nc(c(-c6c(F)cccc6F)c6ccc3[nH]6)C=C5)C=C4)cc2)c1
REMARK SMILES IDX 28 1 27 2 26 3 24 4 25 5 23 7 22 8 9 9 10 10 11 11 21 13
REMARK SMILES IDX 12 14 20 15 13 16 14 17 7 18 8 19 6 20 1 21 2 22 3 23 88 24
REMARK SMILES IDX 4 25 5 26 15 27 16 28 17 29 18 30 19 31 29 32 30 33 31 34
REMARK SMILES IDX 32 35 33 37 34 38 35 39 87 40 36 41 86 42 37 43 38 44 39 45
REMARK SMILES IDX 80 46 40 47 85 48 79 49 81 50 41 51 84 52 78 53 77 54 42 56
REMARK SMILES IDX 68 57 51 58 67 59 52 60 55 61 66 62 82 63 53 64 54 65 65 67
REMARK SMILES IDX 83 68 56 69 43 70 44 71 49 72 45 73 46 74 48 75 50 76 47 77
REMARK SMILES IDX 69 78 70 79 75 80 71 81 72 82 74 83 76 84 73 85 57 86 58 87
REMARK SMILES IDX 63 88 59 89 60 90 62 91 64 92 61 93
REMARK H PARENT 26 6 10 12 31 36 81 55 55 66
REMARK Flexibility Score: inf
ROOT
ATOM      1  C   UNL A   1      31.803  28.051  27.080  1.00  0.00     0.023 C 
ENDROOT
BRANCH   1   2
ATOM      2  C   UNL A   1      32.285  26.720  26.503  1.00  0.00     0.116 C 
BRANCH   2   3
ATOM      3  N   UNL A   1      31.462  25.597  26.898  1.00  0.00    -0.356 N 
ATOM      4  C   UNL A   1      31.684  24.261  26.722  1.00  0.00     0.224 C 
ATOM      5  O   UNL A   1      30.921  23.466  27.279  1.00  0.00    -0.275 OA
ATOM      6  H   UNL A   1      30.623  25.829  27.359  1.00  0.00     0.163 HD
BRANCH   4   7
ATOM      7  C   UNL A   1      32.903  23.765  25.962  1.00  0.00     0.138 C 
BRANCH   7   8
ATOM      8  C   UNL A   1      32.623  23.228  24.586  1.00  0.00    -0.002 A 
ATOM      9  C   UNL A   1      32.469  23.954  23.408  1.00  0.00     0.093 A 
ATOM     10  N   UNL A   1      32.280  23.051  22.388  1.00  0.00    -0.352 N 
ATOM     11  C   UNL A   1      32.247  21.767  22.872  1.00  0.00     0.046 A 
ATOM     12  H   UNL A   1      32.180  23.293  21.439  1.00  0.00     0.167 HD
ATOM     13  C   UNL A   1      32.437  21.843  24.248  1.00  0.00     0.008 A 
ATOM     14  C   UNL A   1      32.083  20.556  22.196  1.00  0.00     0.030 A 
ATOM     15  C   UNL A   1      32.450  20.639  24.983  1.00  0.00     0.057 A 
ATOM     16  C   UNL A   1      32.117  19.375  22.949  1.00  0.00     0.049 A 
ATOM     17  C   UNL A   1      32.301  19.407  24.330  1.00  0.00     0.130 A 
BRANCH   9  18
ATOM     18  C   UNL A   1      32.573  25.384  23.176  1.00  0.00     0.227 C 
ATOM     19  O   UNL A   1      33.653  25.901  22.910  1.00  0.00    -0.285 OA
BRANCH  18  20
ATOM     20  C   UNL A   1      31.306  26.206  23.198  1.00  0.00     0.113 A 
ATOM     21  C   UNL A   1      29.947  29.595  22.169  1.00  0.00     0.044 C 
ATOM     22  C   UNL A   1      30.058  28.215  22.743  1.00  0.00    -0.047 A 
ATOM     23  C   UNL A   1      28.956  27.615  23.353  1.00  0.00     0.023 A 
ATOM     24  C   UNL A   1      31.246  27.485  22.643  1.00  0.00     0.036 A 
ATOM     25  C   UNL A   1      29.095  26.335  23.864  1.00  0.00     0.112 A 
ATOM     26  N   UNL A   1      30.242  25.629  23.815  1.00  0.00    -0.253 NA
ENDBRANCH  18  20
ENDBRANCH   9  18
BRANCH  17  27
ATOM     27  O   UNL A   1      32.361  18.325  25.164  1.00  0.00    -0.406 OA
BRANCH  27  28
ATOM     28  C   UNL A   1      33.344  17.338  24.902  1.00  0.00     0.573 C 
ATOM     29  F   UNL A   1      32.934  16.492  23.933  1.00  0.00    -0.132 F 
ATOM     30  F   UNL A   1      34.517  17.901  24.542  1.00  0.00    -0.132 F 
ATOM     31  F   UNL A   1      33.549  16.621  26.027  1.00  0.00    -0.132 F 
ENDBRANCH  27  28
ENDBRANCH  17  27
ENDBRANCH   7   8
ENDBRANCH   4   7
ENDBRANCH   2   3
ENDBRANCH   1   2
BRANCH   1  32
ATOM     32  C   UNL A   1      31.430  29.123  26.052  1.00  0.00     0.023 C 
BRANCH  32  33
ATOM     33  C   UNL A   1      32.501  30.171  25.760  1.00  0.00     0.116 C 
BRANCH  33  34
ATOM     34  N   UNL A   1      32.132  31.505  26.203  1.00  0.00    -0.352 N 
ATOM     35  C   UNL A   1      32.738  32.318  27.127  1.00  0.00     0.251 C 
ATOM     36  H   UNL A   1      31.328  31.881  25.777  1.00  0.00     0.163 HD
ATOM     37  O   UNL A   1      32.217  33.389  27.428  1.00  0.00    -0.269 OA
BRANCH  35  38
ATOM     38  C   UNL A   1      33.992  31.906  27.795  1.00  0.00     0.039 A 
ATOM     39  C   UNL A   1      34.985  32.875  27.987  1.00  0.00     0.014 A 
ATOM     40  C   UNL A   1      34.222  30.584  28.188  1.00  0.00     0.014 A 
ATOM     41  C   UNL A   1      36.180  32.536  28.625  1.00  0.00     0.010 A 
ATOM     42  C   UNL A   1      35.406  30.250  28.848  1.00  0.00     0.010 A 
ATOM     43  C   UNL A   1      36.388  31.226  29.077  1.00  0.00    -0.014 A 
BRANCH  43  44
ATOM     44  C   UNL A   1      37.624  30.862  29.804  1.00  0.00     0.031 A 
ATOM     45  C   UNL A   1      38.667  30.007  29.149  1.00  0.00     0.074 A 
ATOM     46  C   UNL A   1      37.786  31.264  31.077  1.00  0.00     0.049 A 
ATOM     47  N   UNL A   1      39.752  29.490  29.666  1.00  0.00    -0.248 NA
ATOM     48  C   UNL A   1      38.457  29.681  27.730  1.00  0.00     0.031 C 
ATOM     49  C   UNL A   1      36.841  32.088  31.832  1.00  0.00     0.029 A 
ATOM     50  N   UNL A   1      38.803  31.021  31.963  1.00  0.00    -0.354 N 
ATOM     51  C   UNL A   1      40.335  28.747  28.651  1.00  0.00     0.074 A 
ATOM     52  C   UNL A   1      39.495  28.894  27.480  1.00  0.00     0.031 C 
ATOM     53  C   UNL A   1      37.327  32.288  33.069  1.00  0.00     0.029 A 
ATOM     54  C   UNL A   1      38.604  31.590  33.195  1.00  0.00     0.049 A 
ATOM     55  H   UNL A   1      39.600  30.489  31.737  1.00  0.00     0.167 HD
ATOM     56  C   UNL A   1      41.464  28.002  28.693  1.00  0.00     0.037 A 
ATOM     57  C   UNL A   1      39.358  31.542  34.307  1.00  0.00     0.037 A 
ATOM     58  C   UNL A   1      42.328  27.880  29.836  1.00  0.00     0.049 A 
ATOM     59  C   UNL A   1      40.631  30.751  34.313  1.00  0.00     0.074 A 
ATOM     60  C   UNL A   1      43.507  27.164  29.958  1.00  0.00     0.029 A 
ATOM     61  N   UNL A   1      42.110  28.504  31.053  1.00  0.00    -0.354 N 
ATOM     62  N   UNL A   1      41.160  30.037  33.351  1.00  0.00    -0.248 NA
ATOM     63  C   UNL A   1      41.404  30.751  35.563  1.00  0.00     0.031 C 
ATOM     64  C   UNL A   1      44.004  27.359  31.253  1.00  0.00     0.029 A 
ATOM     65  C   UNL A   1      43.134  28.194  31.933  1.00  0.00     0.049 A 
ATOM     66  H   UNL A   1      41.340  29.082  31.262  1.00  0.00     0.167 HD
ATOM     67  C   UNL A   1      42.325  29.498  33.878  1.00  0.00     0.074 A 
ATOM     68  C   UNL A   1      42.430  29.972  35.243  1.00  0.00     0.031 C 
ATOM     69  C   UNL A   1      43.222  28.677  33.284  1.00  0.00     0.037 A 
BRANCH  56  70
ATOM     70  C   UNL A   1      41.817  27.245  27.455  1.00  0.00     0.057 A 
ATOM     71  C   UNL A   1      42.585  27.825  26.440  1.00  0.00     0.134 A 
ATOM     72  C   UNL A   1      41.395  25.922  27.283  1.00  0.00     0.134 A 
ATOM     73  F   UNL A   1      43.006  29.094  26.548  1.00  0.00    -0.206 F 
ATOM     74  C   UNL A   1      42.919  27.113  25.288  1.00  0.00     0.040 A 
ATOM     75  C   UNL A   1      41.724  25.199  26.137  1.00  0.00     0.040 A 
ATOM     76  F   UNL A   1      40.648  25.320  28.220  1.00  0.00    -0.206 F 
ATOM     77  C   UNL A   1      42.490  25.795  25.135  1.00  0.00     0.006 A 
ENDBRANCH  56  70
BRANCH  57  78
ATOM     78  C   UNL A   1      38.917  32.264  35.518  1.00  0.00     0.057 A 
ATOM     79  C   UNL A   1      38.202  31.605  36.522  1.00  0.00     0.134 A 
ATOM     80  C   UNL A   1      39.213  33.618  35.700  1.00  0.00     0.134 A 
ATOM     81  F   UNL A   1      37.885  30.309  36.389  1.00  0.00    -0.206 F 
ATOM     82  C   UNL A   1      37.793  32.274  37.676  1.00  0.00     0.040 A 
ATOM     83  C   UNL A   1      38.811  34.297  36.850  1.00  0.00     0.040 A 
ATOM     84  F   UNL A   1      39.891  34.293  34.763  1.00  0.00    -0.206 F 
ATOM     85  C   UNL A   1      38.099  33.624  37.843  1.00  0.00     0.006 A 
ENDBRANCH  57  78
BRANCH  69  86
ATOM     86  C   UNL A   1      44.391  28.247  34.110  1.00  0.00     0.057 A 
ATOM     87  C   UNL A   1      44.348  27.065  34.857  1.00  0.00     0.134 A 
ATOM     88  C   UNL A   1      45.565  29.006  34.149  1.00  0.00     0.134 A 
ATOM     89  F   UNL A   1      43.243  26.305  34.864  1.00  0.00    -0.206 F 
ATOM     90  C   UNL A   1      45.439  26.650  35.620  1.00  0.00     0.040 A 
ATOM     91  C   UNL A   1      46.664  28.601  34.908  1.00  0.00     0.040 A 
ATOM     92  F   UNL A   1      45.657  30.153  33.460  1.00  0.00    -0.206 F 
ATOM     93  C   UNL A   1      46.601  27.420  35.646  1.00  0.00     0.006 A 
ENDBRANCH  69  86
ENDBRANCH  43  44
ENDBRANCH  35  38
ENDBRANCH  33  34
ENDBRANCH  32  33
ENDBRANCH   1  32
TORSDOF 16
ENDMDL
MODEL 2
REMARK VINA RESULT:     -12.7      4.280      8.817
REMARK SMILES Cc1ccnc(C(=O)c2[nH]c3ccc(OC(F)(F)F)cc3c2CC(=O)NCCCCNC(=O)c2ccc(-c3c4nc(c(-c5c(F)cccc5F)c5ccc([nH]5)c(-c5c(F)cccc5F)c5nc(c(-c6c(F)cccc6F)c6ccc3[nH]6)C=C5)C=C4)cc2)c1
REMARK SMILES IDX 28 1 27 2 26 3 24 4 25 5 23 7 22 8 9 9 10 10 11 11 21 13
REMARK SMILES IDX 12 14 20 15 13 16 14 17 7 18 8 19 6 20 1 21 2 22 3 23 88 24
REMARK SMILES IDX 4 25 5 26 15 27 16 28 17 29 18 30 19 31 29 32 30 33 31 34
REMARK SMILES IDX 32 35 33 37 34 38 35 39 87 40 36 41 86 42 37 43 38 44 39 45
REMARK SMILES IDX 80 46 40 47 85 48 79 49 81 50 41 51 84 52 78 53 77 54 42 56
REMARK SMILES IDX 68 57 51 58 67 59 52 60 55 61 66 62 82 63 53 64 54 65 65 67
REMARK SMILES IDX 83 68 56 69 43 70 44 71 49 72 45 73 46 74 48 75 50 76 47 77
REMARK SMILES IDX 69 78 70 79 75 80 71 81 72 82 74 83 76 84 73 85 57 86 58 87
REMARK SMILES IDX 63 88 59 89 60 90 62 91 64 92 61 93
REMARK H PARENT 26 6 10 12 31 36 81 55 55 66
REMARK Flexibility Score: inf
ROOT
ATOM      1  C   UNL A   1      36.775  20.673  24.598  1.00  0.00     0.023 C 
ENDROOT
BRANCH   1   2
ATOM      2  C   UNL A   1      36.165  21.473  25.749  1.00  0.00     0.116 C 
BRANCH   2   3
ATOM      3  N   UNL A   1      36.169  22.901  25.514  1.00  0.00    -0.356 N 
ATOM      4  C   UNL A   1      35.114  23.764  25.425  1.00  0.00     0.224 C 
ATOM      5  O   UNL A   1      35.355  24.973  25.375  1.00  0.00    -0.275 OA
ATOM      6  H   UNL A   1      37.059  23.308  25.401  1.00  0.00     0.163 HD
BRANCH   4   7
ATOM      7  C   UNL A   1      33.683  23.259  25.506  1.00  0.00     0.138 C 
BRANCH   7   8
ATOM      8  C   UNL A   1      33.119  22.728  24.218  1.00  0.00    -0.002 A 
ATOM      9  C   UNL A   1      32.768  23.454  23.083  1.00  0.00     0.093 A 
ATOM     10  N   UNL A   1      32.348  22.555  22.131  1.00  0.00    -0.352 N 
ATOM     11  C   UNL A   1      32.359  21.276  22.628  1.00  0.00     0.046 A 
ATOM     12  H   UNL A   1      32.075  22.796  21.216  1.00  0.00     0.167 HD
ATOM     13  C   UNL A   1      32.817  21.350  23.940  1.00  0.00     0.008 A 
ATOM     14  C   UNL A   1      32.019  20.069  22.013  1.00  0.00     0.030 A 
ATOM     15  C   UNL A   1      32.925  20.150  24.674  1.00  0.00     0.057 A 
ATOM     16  C   UNL A   1      32.152  18.891  22.759  1.00  0.00     0.049 A 
ATOM     17  C   UNL A   1      32.603  18.922  24.077  1.00  0.00     0.130 A 
BRANCH   9  18
ATOM     18  C   UNL A   1      32.881  24.878  22.817  1.00  0.00     0.227 C 
ATOM     19  O   UNL A   1      33.924  25.355  22.382  1.00  0.00    -0.285 OA
BRANCH  18  20
ATOM     20  C   UNL A   1      31.659  25.742  23.019  1.00  0.00     0.113 A 
ATOM     21  C   UNL A   1      30.363  29.249  22.374  1.00  0.00     0.044 C 
ATOM     22  C   UNL A   1      30.465  27.825  22.832  1.00  0.00    -0.047 A 
ATOM     23  C   UNL A   1      29.399  27.221  23.500  1.00  0.00     0.023 A 
ATOM     24  C   UNL A   1      31.606  27.061  22.566  1.00  0.00     0.036 A 
ATOM     25  C   UNL A   1      29.527  25.902  23.900  1.00  0.00     0.112 A 
ATOM     26  N   UNL A   1      30.633  25.160  23.691  1.00  0.00    -0.253 NA
ENDBRANCH  18  20
ENDBRANCH   9  18
BRANCH  17  27
ATOM     27  O   UNL A   1      32.782  17.843  24.898  1.00  0.00    -0.406 OA
BRANCH  27  28
ATOM     28  C   UNL A   1      33.876  16.982  24.634  1.00  0.00     0.573 C 
ATOM     29  F   UNL A   1      34.964  17.685  24.251  1.00  0.00    -0.132 F 
ATOM     30  F   UNL A   1      34.181  16.233  25.715  1.00  0.00    -0.132 F 
ATOM     31  F   UNL A   1      33.539  16.149  23.626  1.00  0.00    -0.132 F 
ENDBRANCH  27  28
ENDBRANCH  17  27
ENDBRANCH   7   8
ENDBRANCH   4   7
ENDBRANCH   2   3
ENDBRANCH   1   2
BRANCH   1  32
ATOM     32  C   UNL A   1      37.771  19.582  25.003  1.00  0.00     0.023 C 
BRANCH  32  33
ATOM     33  C   UNL A   1      39.017  20.057  25.745  1.00  0.00     0.116 C 
BRANCH  33  34
ATOM     34  N   UNL A   1      40.081  19.068  25.771  1.00  0.00    -0.352 N 
ATOM     35  C   UNL A   1      41.418  19.229  26.028  1.00  0.00     0.251 C 
ATOM     36  H   UNL A   1      39.800  18.145  25.575  1.00  0.00     0.163 HD
ATOM     37  O   UNL A   1      42.179  18.270  25.915  1.00  0.00    -0.269 OA
BRANCH  35  38
ATOM     38  C   UNL A   1      41.967  20.551  26.404  1.00  0.00     0.039 A 
ATOM     39  C   UNL A   1      42.351  21.421  25.377  1.00  0.00     0.014 A 
ATOM     40  C   UNL A   1      42.148  20.924  27.739  1.00  0.00     0.014 A 
ATOM     41  C   UNL A   1      42.860  22.684  25.683  1.00  0.00     0.010 A 
ATOM     42  C   UNL A   1      42.634  22.196  28.046  1.00  0.00     0.010 A 
ATOM     43  C   UNL A   1      42.986  23.086  27.020  1.00  0.00    -0.014 A 
BRANCH  43  44
ATOM     44  C   UNL A   1      43.472  24.441  27.362  1.00  0.00     0.031 A 
ATOM     45  C   UNL A   1      42.520  25.485  27.863  1.00  0.00     0.074 A 
ATOM     46  C   UNL A   1      44.768  24.746  27.176  1.00  0.00     0.049 A 
ATOM     47  N   UNL A   1      42.738  26.753  28.099  1.00  0.00    -0.248 NA
ATOM     48  C   UNL A   1      41.139  25.049  28.121  1.00  0.00     0.031 C 
ATOM     49  C   UNL A   1      45.793  23.825  26.683  1.00  0.00     0.029 A 
ATOM     50  N   UNL A   1      45.440  25.925  27.370  1.00  0.00    -0.354 N 
ATOM     51  C   UNL A   1      41.517  27.278  28.496  1.00  0.00     0.074 A 
ATOM     52  C   UNL A   1      40.564  26.187  28.489  1.00  0.00     0.031 C 
ATOM     53  C   UNL A   1      46.969  24.473  26.620  1.00  0.00     0.029 A 
ATOM     54  C   UNL A   1      46.771  25.856  27.047  1.00  0.00     0.049 A 
ATOM     55  H   UNL A   1      45.009  26.742  27.708  1.00  0.00     0.167 HD
ATOM     56  C   UNL A   1      41.216  28.555  28.829  1.00  0.00     0.037 A 
ATOM     57  C   UNL A   1      47.724  26.804  27.078  1.00  0.00     0.037 A 
ATOM     58  C   UNL A   1      42.161  29.637  28.879  1.00  0.00     0.049 A 
ATOM     59  C   UNL A   1      47.375  28.199  27.499  1.00  0.00     0.074 A 
ATOM     60  C   UNL A   1      41.945  30.959  29.230  1.00  0.00     0.029 A 
ATOM     61  N   UNL A   1      43.508  29.516  28.582  1.00  0.00    -0.354 N 
ATOM     62  N   UNL A   1      46.212  28.685  27.854  1.00  0.00    -0.248 NA
ATOM     63  C   UNL A   1      48.471  29.180  27.513  1.00  0.00     0.031 C 
ATOM     64  C   UNL A   1      43.167  31.638  29.147  1.00  0.00     0.029 A 
ATOM     65  C   UNL A   1      44.140  30.738  28.744  1.00  0.00     0.049 A 
ATOM     66  H   UNL A   1      43.952  28.684  28.297  1.00  0.00     0.167 HD
ATOM     67  C   UNL A   1      46.431  30.028  28.128  1.00  0.00     0.074 A 
ATOM     68  C   UNL A   1      47.841  30.279  27.905  1.00  0.00     0.031 C 
ATOM     69  C   UNL A   1      45.541  30.967  28.522  1.00  0.00     0.037 A 
BRANCH  56  70
ATOM     70  C   UNL A   1      39.787  28.846  29.152  1.00  0.00     0.057 A 
ATOM     71  C   UNL A   1      39.302  28.754  30.460  1.00  0.00     0.134 A 
ATOM     72  C   UNL A   1      38.893  29.233  28.146  1.00  0.00     0.134 A 
ATOM     73  F   UNL A   1      40.112  28.375  31.460  1.00  0.00    -0.206 F 
ATOM     74  C   UNL A   1      37.968  29.034  30.759  1.00  0.00     0.040 A 
ATOM     75  C   UNL A   1      37.559  29.517  28.433  1.00  0.00     0.040 A 
ATOM     76  F   UNL A   1      39.303  29.328  26.873  1.00  0.00    -0.206 F 
ATOM     77  C   UNL A   1      37.093  29.419  29.744  1.00  0.00     0.006 A 
ENDBRANCH  56  70
BRANCH  57  78
ATOM     78  C   UNL A   1      49.106  26.462  26.685  1.00  0.00     0.057 A 
ATOM     79  C   UNL A   1      49.998  25.912  27.610  1.00  0.00     0.134 A 
ATOM     80  C   UNL A   1      49.556  26.665  25.378  1.00  0.00     0.134 A 
ATOM     81  F   UNL A   1      49.616  25.709  28.880  1.00  0.00    -0.206 F 
ATOM     82  C   UNL A   1      51.301  25.573  27.246  1.00  0.00     0.040 A 
ATOM     83  C   UNL A   1      50.856  26.327  25.000  1.00  0.00     0.040 A 
ATOM     84  F   UNL A   1      48.741  27.194  24.456  1.00  0.00    -0.206 F 
ATOM     85  C   UNL A   1      51.732  25.778  25.936  1.00  0.00     0.006 A 
ENDBRANCH  57  78
BRANCH  69  86
ATOM     86  C   UNL A   1      46.070  32.348  28.737  1.00  0.00     0.057 A 
ATOM     87  C   UNL A   1      46.556  32.746  29.987  1.00  0.00     0.134 A 
ATOM     88  C   UNL A   1      46.109  33.277  27.692  1.00  0.00     0.134 A 
ATOM     89  F   UNL A   1      46.533  31.898  31.027  1.00  0.00    -0.206 F 
ATOM     90  C   UNL A   1      47.064  34.028  30.192  1.00  0.00     0.040 A 
ATOM     91  C   UNL A   1      46.615  34.562  27.884  1.00  0.00     0.040 A 
ATOM     92  F   UNL A   1      45.647  32.952  26.475  1.00  0.00    -0.206 F 
ATOM     93  C   UNL A   1      47.095  34.940  29.138  1.00  0.00     0.006 A 
ENDBRANCH  69  86
ENDBRANCH  43  44
ENDBRANCH  35  38
ENDBRANCH  33  34
ENDBRANCH  32  33
ENDBRANCH   1  32
TORSDOF 16
ENDMDL
MODEL 3
REMARK VINA RESULT:     -12.6      3.370      5.454
REMARK SMILES Cc1ccnc(C(=O)c2[nH]c3ccc(OC(F)(F)F)cc3c2CC(=O)NCCCCNC(=O)c2ccc(-c3c4nc(c(-c5c(F)cccc5F)c5ccc([nH]5)c(-c5c(F)cccc5F)c5nc(c(-c6c(F)cccc6F)c6ccc3[nH]6)C=C5)C=C4)cc2)c1
REMARK SMILES IDX 28 1 27 2 26 3 24 4 25 5 23 7 22 8 9 9 10 10 11 11 21 13
REMARK SMILES IDX 12 14 20 15 13 16 14 17 7 18 8 19 6 20 1 21 2 22 3 23 88 24
REMARK SMILES IDX 4 25 5 26 15 27 16 28 17 29 18 30 19 31 29 32 30 33 31 34
REMARK SMILES IDX 32 35 33 37 34 38 35 39 87 40 36 41 86 42 37 43 38 44 39 45
REMARK SMILES IDX 80 46 40 47 85 48 79 49 81 50 41 51 84 52 78 53 77 54 42 56
REMARK SMILES IDX 68 57 51 58 67 59 52 60 55 61 66 62 82 63 53 64 54 65 65 67
REMARK SMILES IDX 83 68 56 69 43 70 44 71 49 72 45 73 46 74 48 75 50 76 47 77
REMARK SMILES IDX 69 78 70 79 75 80 71 81 72 82 74 83 76 84 73 85 57 86 58 87
REMARK SMILES IDX 63 88 59 89 60 90 62 91 64 92 61 93
REMARK H PARENT 26 6 10 12 31 36 81 55 55 66
REMARK Flexibility Score: inf
ROOT
ATOM      1  C   UNL A   1      31.380  30.768  26.335  1.00  0.00     0.023 C 
ENDROOT
BRANCH   1   2
ATOM      2  C   UNL A   1      32.703  30.200  25.822  1.00  0.00     0.116 C 
BRANCH   2   3
ATOM      3  N   UNL A   1      33.058  28.938  26.437  1.00  0.00    -0.356 N 
ATOM      4  C   UNL A   1      33.047  27.683  25.899  1.00  0.00     0.224 C 
ATOM      5  O   UNL A   1      33.540  26.764  26.559  1.00  0.00    -0.275 OA
ATOM      6  H   UNL A   1      33.346  28.993  27.377  1.00  0.00     0.163 HD
BRANCH   4   7
ATOM      7  C   UNL A   1      32.554  27.445  24.482  1.00  0.00     0.138 C 
BRANCH   7   8
ATOM      8  C   UNL A   1      31.100  27.081  24.365  1.00  0.00    -0.002 A 
ATOM      9  C   UNL A   1      30.483  25.907  24.788  1.00  0.00     0.093 A 
ATOM     10  N   UNL A   1      29.138  26.029  24.527  1.00  0.00    -0.352 N 
ATOM     11  C   UNL A   1      28.869  27.218  23.896  1.00  0.00     0.046 A 
ATOM     12  H   UNL A   1      28.460  25.355  24.761  1.00  0.00     0.167 HD
ATOM     13  C   UNL A   1      30.079  27.892  23.759  1.00  0.00     0.008 A 
ATOM     14  C   UNL A   1      27.653  27.748  23.458  1.00  0.00     0.030 A 
ATOM     15  C   UNL A   1      30.065  29.158  23.137  1.00  0.00     0.057 A 
ATOM     16  C   UNL A   1      27.667  29.014  22.859  1.00  0.00     0.049 A 
ATOM     17  C   UNL A   1      28.858  29.721  22.699  1.00  0.00     0.130 A 
BRANCH   9  18
ATOM     18  C   UNL A   1      31.044  24.757  25.477  1.00  0.00     0.227 C 
ATOM     19  O   UNL A   1      30.734  24.506  26.636  1.00  0.00    -0.285 OA
BRANCH  18  20
ATOM     20  C   UNL A   1      31.960  23.838  24.704  1.00  0.00     0.113 A 
ATOM     21  C   UNL A   1      31.899  21.141  22.035  1.00  0.00     0.044 C 
ATOM     22  C   UNL A   1      32.370  22.102  23.086  1.00  0.00    -0.047 A 
ATOM     23  C   UNL A   1      33.724  22.180  23.412  1.00  0.00     0.023 A 
ATOM     24  C   UNL A   1      31.477  22.966  23.728  1.00  0.00     0.036 A 
ATOM     25  C   UNL A   1      34.123  23.085  24.381  1.00  0.00     0.112 A 
ATOM     26  N   UNL A   1      33.274  23.898  25.042  1.00  0.00    -0.253 NA
ENDBRANCH  18  20
ENDBRANCH   9  18
BRANCH  17  27
ATOM     27  O   UNL A   1      28.994  30.962  22.142  1.00  0.00    -0.406 OA
BRANCH  27  28
ATOM     28  C   UNL A   1      28.512  32.075  22.874  1.00  0.00     0.573 C 
ATOM     29  F   UNL A   1      29.274  32.305  23.965  1.00  0.00    -0.132 F 
ATOM     30  F   UNL A   1      28.475  33.186  22.107  1.00  0.00    -0.132 F 
ATOM     31  F   UNL A   1      27.254  31.809  23.290  1.00  0.00    -0.132 F 
ENDBRANCH  27  28
ENDBRANCH  17  27
ENDBRANCH   7   8
ENDBRANCH   4   7
ENDBRANCH   2   3
ENDBRANCH   1   2
BRANCH   1  32
ATOM     32  C   UNL A   1      31.342  32.287  26.531  1.00  0.00     0.023 C 
BRANCH  32  33
ATOM     33  C   UNL A   1      32.538  32.898  27.256  1.00  0.00     0.116 C 
BRANCH  33  34
ATOM     34  N   UNL A   1      32.301  34.261  27.701  1.00  0.00    -0.352 N 
ATOM     35  C   UNL A   1      32.987  35.010  28.624  1.00  0.00     0.251 C 
ATOM     36  H   UNL A   1      31.536  34.714  27.279  1.00  0.00     0.163 HD
ATOM     37  O   UNL A   1      32.573  36.126  28.928  1.00  0.00    -0.269 OA
BRANCH  35  38
ATOM     38  C   UNL A   1      34.198  34.478  29.286  1.00  0.00     0.039 A 
ATOM     39  C   UNL A   1      34.052  33.874  30.541  1.00  0.00     0.014 A 
ATOM     40  C   UNL A   1      35.469  34.605  28.717  1.00  0.00     0.014 A 
ATOM     41  C   UNL A   1      35.164  33.345  31.198  1.00  0.00     0.010 A 
ATOM     42  C   UNL A   1      36.578  34.055  29.361  1.00  0.00     0.010 A 
ATOM     43  C   UNL A   1      36.431  33.416  30.602  1.00  0.00    -0.014 A 
BRANCH  43  44
ATOM     44  C   UNL A   1      37.612  32.812  31.257  1.00  0.00     0.031 A 
ATOM     45  C   UNL A   1      38.308  31.638  30.637  1.00  0.00     0.074 A 
ATOM     46  C   UNL A   1      38.030  33.294  32.441  1.00  0.00     0.049 A 
ATOM     47  N   UNL A   1      39.279  30.907  31.121  1.00  0.00    -0.248 NA
ATOM     48  C   UNL A   1      37.845  31.226  29.303  1.00  0.00     0.031 C 
ATOM     49  C   UNL A   1      37.432  34.423  33.155  1.00  0.00     0.029 A 
ATOM     50  N   UNL A   1      39.053  32.883  33.256  1.00  0.00    -0.354 N 
ATOM     51  C   UNL A   1      39.519  29.924  30.172  1.00  0.00     0.074 A 
ATOM     52  C   UNL A   1      38.605  30.164  29.073  1.00  0.00     0.031 C 
ATOM     53  C   UNL A   1      38.105  34.619  34.302  1.00  0.00     0.029 A 
ATOM     54  C   UNL A   1      39.163  33.618  34.409  1.00  0.00     0.049 A 
ATOM     55  H   UNL A   1      39.650  32.133  33.036  1.00  0.00     0.167 HD
ATOM     56  C   UNL A   1      40.413  28.910  30.216  1.00  0.00     0.037 A 
ATOM     57  C   UNL A   1      40.013  33.491  35.443  1.00  0.00     0.037 A 
ATOM     58  C   UNL A   1      41.352  28.685  31.281  1.00  0.00     0.049 A 
ATOM     59  C   UNL A   1      41.029  32.390  35.445  1.00  0.00     0.074 A 
ATOM     60  C   UNL A   1      42.312  27.694  31.394  1.00  0.00     0.029 A 
ATOM     61  N   UNL A   1      41.457  29.477  32.413  1.00  0.00    -0.354 N 
ATOM     62  N   UNL A   1      41.231  31.456  34.548  1.00  0.00    -0.248 NA
ATOM     63  C   UNL A   1      41.926  32.318  36.607  1.00  0.00     0.031 C 
ATOM     64  C   UNL A   1      43.001  27.889  32.599  1.00  0.00     0.029 A 
ATOM     65  C   UNL A   1      42.468  29.000  33.231  1.00  0.00     0.049 A 
ATOM     66  H   UNL A   1      40.895  30.262  32.608  1.00  0.00     0.167 HD
ATOM     67  C   UNL A   1      42.273  30.682  35.038  1.00  0.00     0.074 A 
ATOM     68  C   UNL A   1      42.667  31.259  36.308  1.00  0.00     0.031 C 
ATOM     69  C   UNL A   1      42.846  29.588  34.486  1.00  0.00     0.037 A 
BRANCH  56  70
ATOM     70  C   UNL A   1      40.401  27.952  29.069  1.00  0.00     0.057 A 
ATOM     71  C   UNL A   1      39.595  26.809  29.083  1.00  0.00     0.134 A 
ATOM     72  C   UNL A   1      41.193  28.183  27.939  1.00  0.00     0.134 A 
ATOM     73  F   UNL A   1      38.826  26.533  30.146  1.00  0.00    -0.206 F 
ATOM     74  C   UNL A   1      39.581  25.921  28.007  1.00  0.00     0.040 A 
ATOM     75  C   UNL A   1      41.186  27.304  26.857  1.00  0.00     0.040 A 
ATOM     76  F   UNL A   1      41.992  29.258  27.877  1.00  0.00    -0.206 F 
ATOM     77  C   UNL A   1      40.376  26.168  26.889  1.00  0.00     0.006 A 
ENDBRANCH  56  70
BRANCH  57  78
ATOM     78  C   UNL A   1      39.928  34.436  36.576  1.00  0.00     0.057 A 
ATOM     79  C   UNL A   1      40.624  35.648  36.550  1.00  0.00     0.134 A 
ATOM     80  C   UNL A   1      39.142  34.152  37.696  1.00  0.00     0.134 A 
ATOM     81  F   UNL A   1      41.401  35.960  35.503  1.00  0.00    -0.206 F 
ATOM     82  C   UNL A   1      40.541  36.552  37.609  1.00  0.00     0.040 A 
ATOM     83  C   UNL A   1      39.048  35.049  38.760  1.00  0.00     0.040 A 
ATOM     84  F   UNL A   1      38.461  33.000  37.769  1.00  0.00    -0.206 F 
ATOM     85  C   UNL A   1      39.748  36.254  38.717  1.00  0.00     0.006 A 
ENDBRANCH  57  78
BRANCH  69  86
ATOM     86  C   UNL A   1      43.958  28.950  35.255  1.00  0.00     0.057 A 
ATOM     87  C   UNL A   1      43.696  27.980  36.229  1.00  0.00     0.134 A 
ATOM     88  C   UNL A   1      45.292  29.294  35.013  1.00  0.00     0.134 A 
ATOM     89  F   UNL A   1      42.434  27.621  36.508  1.00  0.00    -0.206 F 
ATOM     90  C   UNL A   1      44.729  27.372  36.941  1.00  0.00     0.040 A 
ATOM     91  C   UNL A   1      46.334  28.692  35.718  1.00  0.00     0.040 A 
ATOM     92  F   UNL A   1      45.600  30.225  34.098  1.00  0.00    -0.206 F 
ATOM     93  C   UNL A   1      46.053  27.727  36.685  1.00  0.00     0.006 A 
ENDBRANCH  69  86
ENDBRANCH  43  44
ENDBRANCH  35  38
ENDBRANCH  33  34
ENDBRANCH  32  33
ENDBRANCH   1  32
TORSDOF 16
ENDMDL
