MODEL 1
REMARK VINA RESULT:     -12.2      0.000      0.000
REMARK SMILES CC(C)[C@@H](NC(=O)/C(=C\c1ccccc1F)NC(=O)c1ccccc1)C(=O)NCCCCNC(=O)c1ccc(-c2c3nc(c(-c4c(F)cccc4F)c4ccc([nH]4)c(-c4c(F)cccc4F)c4nc(c(-c5c(F)cccc5F)c5ccc2[nH]5)C=C4)C=C3)cc1
REMARK SMILES IDX 29 1 28 2 26 3 27 4 4 6 2 7 1 8 3 9 5 10 6 11 7 13 8 14 9 15
REMARK SMILES IDX 17 16 18 17 19 19 20 20 21 21 25 22 22 23 24 24 23 25 10 26
REMARK SMILES IDX 11 27 15 28 12 29 14 30 16 31 13 32 30 33 31 34 32 35 33 36
REMARK SMILES IDX 34 37 35 39 36 40 37 41 89 42 38 43 88 44 39 45 40 46 41 47
REMARK SMILES IDX 82 48 42 49 87 50 81 51 83 52 43 53 86 54 80 55 79 56 44 58
REMARK SMILES IDX 70 59 53 60 69 61 54 62 57 63 68 64 84 65 55 66 56 67 67 69
REMARK SMILES IDX 85 70 58 71 45 72 46 73 51 74 47 75 48 76 50 77 52 78 49 79
REMARK SMILES IDX 71 80 72 81 77 82 73 83 74 84 76 85 78 86 75 87 59 88 60 89
REMARK SMILES IDX 65 90 61 91 62 92 64 93 66 94 63 95
REMARK H PARENT 28 5 5 12 17 18 33 38 83 57 57 68
REMARK Flexibility Score: inf
ROOT
ATOM      1  C   UNL A   1      32.593  27.189  26.609  1.00  0.00     0.116 C 
ENDROOT
BRANCH   1   2
ATOM      2  N   UNL A   1      31.259  26.655  26.504  1.00  0.00    -0.354 N 
ATOM      3  C   UNL A   1      30.905  25.626  25.692  1.00  0.00     0.242 C 
ATOM      4  O   UNL A   1      29.930  25.795  24.958  1.00  0.00    -0.273 OA
ATOM      5  H   UNL A   1      30.557  27.064  27.058  1.00  0.00     0.163 HD
BRANCH   3   6
ATOM      6  C   UNL A   1      31.803  24.393  25.573  1.00  0.00     0.174 C 
BRANCH   6   7
ATOM      7  C   UNL A   1      31.759  23.584  26.918  1.00  0.00     0.015 C 
ATOM      8  C   UNL A   1      30.464  22.780  27.070  1.00  0.00     0.010 C 
ATOM      9  C   UNL A   1      32.938  22.605  27.081  1.00  0.00     0.010 C 
ENDBRANCH   6   7
BRANCH   6  10
ATOM     10  N   UNL A   1      31.498  23.554  24.387  1.00  0.00    -0.339 N 
ATOM     11  C   UNL A   1      32.402  22.919  23.558  1.00  0.00     0.268 C 
ATOM     12  H   UNL A   1      30.545  23.435  24.167  1.00  0.00     0.164 HD
ATOM     13  O   UNL A   1      32.281  21.705  23.389  1.00  0.00    -0.268 OA
BRANCH  11  14
ATOM     14  C   UNL A   1      33.336  23.700  22.657  1.00  0.00     0.107 C 
ATOM     15  C   UNL A   1      34.667  23.834  22.862  1.00  0.00     0.043 C 
BRANCH  14  16
ATOM     16  N   UNL A   1      32.873  24.263  21.471  1.00  0.00    -0.317 N 
ATOM     17  C   UNL A   1      32.438  25.498  21.063  1.00  0.00     0.255 C 
ATOM     18  H   UNL A   1      32.856  23.608  20.737  1.00  0.00     0.170 HD
ATOM     19  O   UNL A   1      32.067  25.636  19.896  1.00  0.00    -0.269 OA
BRANCH  17  20
ATOM     20  C   UNL A   1      32.382  26.667  21.941  1.00  0.00     0.040 A 
ATOM     21  C   UNL A   1      31.141  27.253  22.198  1.00  0.00     0.014 A 
ATOM     22  C   UNL A   1      33.560  27.260  22.396  1.00  0.00     0.014 A 
ATOM     23  C   UNL A   1      31.077  28.404  22.984  1.00  0.00     0.001 A 
ATOM     24  C   UNL A   1      33.491  28.404  23.188  1.00  0.00     0.001 A 
ATOM     25  C   UNL A   1      32.250  28.969  23.488  1.00  0.00     0.000 A 
ENDBRANCH  17  20
ENDBRANCH  14  16
BRANCH  15  26
ATOM     26  C   UNL A   1      35.528  23.442  23.982  1.00  0.00     0.012 A 
ATOM     27  C   UNL A   1      36.279  22.262  23.825  1.00  0.00     0.011 A 
ATOM     28  C   UNL A   1      35.683  24.175  25.156  1.00  0.00     0.130 A 
ATOM     29  C   UNL A   1      37.263  21.917  24.753  1.00  0.00     0.001 A 
ATOM     30  C   UNL A   1      36.653  23.826  26.094  1.00  0.00     0.040 A 
ATOM     31  F   UNL A   1      34.923  25.252  25.391  1.00  0.00    -0.206 F 
ATOM     32  C   UNL A   1      37.469  22.716  25.874  1.00  0.00     0.003 A 
ENDBRANCH  15  26
ENDBRANCH  11  14
ENDBRANCH   6  10
ENDBRANCH   3   6
ENDBRANCH   1   2
BRANCH   1  33
ATOM     33  C   UNL A   1      32.491  28.594  27.193  1.00  0.00     0.023 C 
BRANCH  33  34
ATOM     34  C   UNL A   1      33.657  29.483  26.759  1.00  0.00     0.023 C 
BRANCH  34  35
ATOM     35  C   UNL A   1      34.914  29.274  27.591  1.00  0.00     0.116 C 
BRANCH  35  36
ATOM     36  N   UNL A   1      34.975  30.207  28.707  1.00  0.00    -0.352 N 
ATOM     37  C   UNL A   1      36.000  30.394  29.599  1.00  0.00     0.251 C 
ATOM     38  H   UNL A   1      34.181  30.774  28.837  1.00  0.00     0.163 HD
ATOM     39  O   UNL A   1      35.833  31.020  30.633  1.00  0.00    -0.269 OA
BRANCH  37  40
ATOM     40  C   UNL A   1      37.304  29.798  29.271  1.00  0.00     0.039 A 
ATOM     41  C   UNL A   1      37.823  29.954  27.987  1.00  0.00     0.014 A 
ATOM     42  C   UNL A   1      38.032  29.154  30.275  1.00  0.00     0.014 A 
ATOM     43  C   UNL A   1      39.113  29.500  27.719  1.00  0.00     0.010 A 
ATOM     44  C   UNL A   1      39.343  28.781  30.030  1.00  0.00     0.010 A 
ATOM     45  C   UNL A   1      39.890  28.939  28.747  1.00  0.00    -0.014 A 
BRANCH  45  46
ATOM     46  C   UNL A   1      41.270  28.463  28.505  1.00  0.00     0.031 A 
ATOM     47  C   UNL A   1      42.403  29.449  28.556  1.00  0.00     0.074 A 
ATOM     48  C   UNL A   1      41.494  27.177  28.174  1.00  0.00     0.049 A 
ATOM     49  N   UNL A   1      43.660  29.278  28.246  1.00  0.00    -0.248 NA
ATOM     50  C   UNL A   1      42.070  30.820  28.986  1.00  0.00     0.031 C 
ATOM     51  C   UNL A   1      40.470  26.136  28.074  1.00  0.00     0.029 A 
ATOM     52  N   UNL A   1      42.659  26.530  27.852  1.00  0.00    -0.354 N 
ATOM     53  C   UNL A   1      44.263  30.516  28.430  1.00  0.00     0.074 A 
ATOM     54  C   UNL A   1      43.225  31.443  28.819  1.00  0.00     0.031 C 
ATOM     55  C   UNL A   1      41.057  24.973  27.744  1.00  0.00     0.029 A 
ATOM     56  C   UNL A   1      42.488  25.197  27.561  1.00  0.00     0.049 A 
ATOM     57  H   UNL A   1      43.536  26.976  27.832  1.00  0.00     0.167 HD
ATOM     58  C   UNL A   1      45.570  30.841  28.311  1.00  0.00     0.037 A 
ATOM     59  C   UNL A   1      43.384  24.267  27.181  1.00  0.00     0.037 A 
ATOM     60  C   UNL A   1      46.600  29.905  27.957  1.00  0.00     0.049 A 
ATOM     61  C   UNL A   1      44.828  24.664  27.026  1.00  0.00     0.074 A 
ATOM     62  C   UNL A   1      47.960  30.129  27.838  1.00  0.00     0.029 A 
ATOM     63  N   UNL A   1      46.385  28.565  27.677  1.00  0.00    -0.354 N 
ATOM     64  N   UNL A   1      45.388  25.832  27.225  1.00  0.00    -0.248 NA
ATOM     65  C   UNL A   1      45.764  23.617  26.594  1.00  0.00     0.031 C 
ATOM     66  C   UNL A   1      48.565  28.932  27.450  1.00  0.00     0.029 A 
ATOM     67  C   UNL A   1      47.588  27.951  27.377  1.00  0.00     0.049 A 
ATOM     68  H   UNL A   1      45.509  28.117  27.689  1.00  0.00     0.167 HD
ATOM     69  C   UNL A   1      46.744  25.652  26.981  1.00  0.00     0.074 A 
ATOM     70  C   UNL A   1      46.922  24.261  26.620  1.00  0.00     0.031 C 
ATOM     71  C   UNL A   1      47.748  26.557  27.053  1.00  0.00     0.037 A 
BRANCH  58  72
ATOM     72  C   UNL A   1      45.967  32.258  28.596  1.00  0.00     0.057 A 
ATOM     73  C   UNL A   1      46.275  32.668  29.900  1.00  0.00     0.134 A 
ATOM     74  C   UNL A   1      45.972  33.234  27.591  1.00  0.00     0.134 A 
ATOM     75  F   UNL A   1      46.284  31.785  30.908  1.00  0.00    -0.206 F 
ATOM     76  C   UNL A   1      46.555  34.003  30.196  1.00  0.00     0.040 A 
ATOM     77  C   UNL A   1      46.276  34.566  27.870  1.00  0.00     0.040 A 
ATOM     78  F   UNL A   1      45.701  32.901  26.320  1.00  0.00    -0.206 F 
ATOM     79  C   UNL A   1      46.557  34.955  29.179  1.00  0.00     0.006 A 
ENDBRANCH  58  72
BRANCH  59  80
ATOM     80  C   UNL A   1      42.952  22.866  26.952  1.00  0.00     0.057 A 
ATOM     81  C   UNL A   1      42.870  22.318  25.666  1.00  0.00     0.134 A 
ATOM     82  C   UNL A   1      42.607  22.038  28.027  1.00  0.00     0.134 A 
ATOM     83  F   UNL A   1      43.179  23.061  24.592  1.00  0.00    -0.206 F 
ATOM     84  C   UNL A   1      42.452  21.003  25.457  1.00  0.00     0.040 A 
ATOM     85  C   UNL A   1      42.211  20.713  27.834  1.00  0.00     0.040 A 
ATOM     86  F   UNL A   1      42.681  22.499  29.284  1.00  0.00    -0.206 F 
ATOM     87  C   UNL A   1      42.128  20.194  26.544  1.00  0.00     0.006 A 
ENDBRANCH  59  80
BRANCH  71  88
ATOM     88  C   UNL A   1      49.145  26.078  26.793  1.00  0.00     0.057 A 
ATOM     89  C   UNL A   1      49.910  25.532  27.833  1.00  0.00     0.134 A 
ATOM     90  C   UNL A   1      49.769  26.261  25.554  1.00  0.00     0.134 A 
ATOM     91  F   UNL A   1      49.372  25.344  29.048  1.00  0.00    -0.206 F 
ATOM     92  C   UNL A   1      51.255  25.208  27.656  1.00  0.00     0.040 A 
ATOM     93  C   UNL A   1      51.107  25.917  25.358  1.00  0.00     0.040 A 
ATOM     94  F   UNL A   1      49.088  26.771  24.517  1.00  0.00    -0.206 F 
ATOM     95  C   UNL A   1      51.857  25.401  26.415  1.00  0.00     0.006 A 
ENDBRANCH  71  88
ENDBRANCH  45  46
ENDBRANCH  37  40
ENDBRANCH  35  36
ENDBRANCH  34  35
ENDBRANCH  33  34
ENDBRANCH   1  33
TORSDOF 17
ENDMDL
MODEL 2
REMARK VINA RESULT:     -12.2      3.021      7.819
REMARK SMILES CC(C)[C@@H](NC(=O)/C(=C\c1ccccc1F)NC(=O)c1ccccc1)C(=O)NCCCCNC(=O)c1ccc(-c2c3nc(c(-c4c(F)cccc4F)c4ccc([nH]4)c(-c4c(F)cccc4F)c4nc(c(-c5c(F)cccc5F)c5ccc2[nH]5)C=C4)C=C3)cc1
REMARK SMILES IDX 29 1 28 2 26 3 27 4 4 6 2 7 1 8 3 9 5 10 6 11 7 13 8 14 9 15
REMARK SMILES IDX 17 16 18 17 19 19 20 20 21 21 25 22 22 23 24 24 23 25 10 26
REMARK SMILES IDX 11 27 15 28 12 29 14 30 16 31 13 32 30 33 31 34 32 35 33 36
REMARK SMILES IDX 34 37 35 39 36 40 37 41 89 42 38 43 88 44 39 45 40 46 41 47
REMARK SMILES IDX 82 48 42 49 87 50 81 51 83 52 43 53 86 54 80 55 79 56 44 58
REMARK SMILES IDX 70 59 53 60 69 61 54 62 57 63 68 64 84 65 55 66 56 67 67 69
REMARK SMILES IDX 85 70 58 71 45 72 46 73 51 74 47 75 48 76 50 77 52 78 49 79
REMARK SMILES IDX 71 80 72 81 77 82 73 83 74 84 76 85 78 86 75 87 59 88 60 89
REMARK SMILES IDX 65 90 61 91 62 92 64 93 66 94 63 95
REMARK H PARENT 28 5 5 12 17 18 33 38 83 57 57 68
REMARK Flexibility Score: inf
ROOT
ATOM      1  C   UNL A   1      36.888  21.858  25.521  1.00  0.00     0.116 C 
ENDROOT
BRANCH   1   2
ATOM      2  N   UNL A   1      37.109  22.737  24.401  1.00  0.00    -0.354 N 
ATOM      3  C   UNL A   1      36.201  22.980  23.422  1.00  0.00     0.242 C 
ATOM      4  O   UNL A   1      36.580  22.862  22.256  1.00  0.00    -0.273 OA
ATOM      5  H   UNL A   1      37.980  23.192  24.341  1.00  0.00     0.163 HD
BRANCH   3   6
ATOM      6  C   UNL A   1      34.728  23.202  23.775  1.00  0.00     0.174 C 
BRANCH   6   7
ATOM      7  C   UNL A   1      34.530  24.676  24.279  1.00  0.00     0.015 C 
ATOM      8  C   UNL A   1      33.080  25.150  24.135  1.00  0.00     0.010 C 
ATOM      9  C   UNL A   1      34.944  24.879  25.750  1.00  0.00     0.010 C 
ENDBRANCH   6   7
BRANCH   6  10
ATOM     10  N   UNL A   1      33.798  22.840  22.676  1.00  0.00    -0.339 N 
ATOM     11  C   UNL A   1      32.538  22.288  22.798  1.00  0.00     0.268 C 
ATOM     12  H   UNL A   1      34.113  23.013  21.760  1.00  0.00     0.164 HD
ATOM     13  O   UNL A   1      31.595  22.871  22.261  1.00  0.00    -0.268 OA
BRANCH  11  14
ATOM     14  C   UNL A   1      32.335  20.879  23.316  1.00  0.00     0.107 C 
ATOM     15  C   UNL A   1      32.259  20.547  24.625  1.00  0.00     0.043 C 
BRANCH  14  16
ATOM     16  N   UNL A   1      32.112  19.823  22.437  1.00  0.00    -0.317 N 
ATOM     17  C   UNL A   1      32.339  18.471  22.434  1.00  0.00     0.255 C 
ATOM     18  H   UNL A   1      31.679  20.124  21.606  1.00  0.00     0.170 HD
ATOM     19  O   UNL A   1      32.019  17.822  21.436  1.00  0.00    -0.269 OA
BRANCH  17  20
ATOM     20  C   UNL A   1      32.947  17.750  23.552  1.00  0.00     0.040 A 
ATOM     21  C   UNL A   1      34.291  17.380  23.459  1.00  0.00     0.014 A 
ATOM     22  C   UNL A   1      32.162  17.323  24.622  1.00  0.00     0.014 A 
ATOM     23  C   UNL A   1      34.870  16.640  24.489  1.00  0.00     0.001 A 
ATOM     24  C   UNL A   1      32.747  16.591  25.654  1.00  0.00     0.001 A 
ATOM     25  C   UNL A   1      34.101  16.259  25.590  1.00  0.00     0.000 A 
ENDBRANCH  17  20
ENDBRANCH  14  16
BRANCH  15  26
ATOM     26  C   UNL A   1      32.477  21.329  25.847  1.00  0.00     0.012 A 
ATOM     27  C   UNL A   1      33.576  20.966  26.647  1.00  0.00     0.011 A 
ATOM     28  C   UNL A   1      31.703  22.419  26.238  1.00  0.00     0.130 A 
ATOM     29  C   UNL A   1      33.971  21.769  27.719  1.00  0.00     0.001 A 
ATOM     30  C   UNL A   1      32.083  23.215  27.317  1.00  0.00     0.040 A 
ATOM     31  F   UNL A   1      30.594  22.744  25.562  1.00  0.00    -0.206 F 
ATOM     32  C   UNL A   1      33.239  22.910  28.036  1.00  0.00     0.003 A 
ENDBRANCH  15  26
ENDBRANCH  11  14
ENDBRANCH   6  10
ENDBRANCH   3   6
ENDBRANCH   1   2
BRANCH   1  33
ATOM     33  C   UNL A   1      36.721  20.442  24.982  1.00  0.00     0.023 C 
BRANCH  33  34
ATOM     34  C   UNL A   1      38.067  19.749  24.761  1.00  0.00     0.023 C 
BRANCH  34  35
ATOM     35  C   UNL A   1      39.143  20.201  25.738  1.00  0.00     0.116 C 
BRANCH  35  36
ATOM     36  N   UNL A   1      40.177  19.188  25.895  1.00  0.00    -0.352 N 
ATOM     37  C   UNL A   1      41.515  19.373  26.135  1.00  0.00     0.251 C 
ATOM     38  H   UNL A   1      39.878  18.253  25.821  1.00  0.00     0.163 HD
ATOM     39  O   UNL A   1      42.316  18.464  25.997  1.00  0.00    -0.269 OA
BRANCH  37  40
ATOM     40  C   UNL A   1      41.950  20.716  26.552  1.00  0.00     0.039 A 
ATOM     41  C   UNL A   1      42.339  21.639  25.583  1.00  0.00     0.014 A 
ATOM     42  C   UNL A   1      41.892  21.063  27.904  1.00  0.00     0.014 A 
ATOM     43  C   UNL A   1      42.627  22.945  25.972  1.00  0.00     0.010 A 
ATOM     44  C   UNL A   1      42.096  22.382  28.275  1.00  0.00     0.010 A 
ATOM     45  C   UNL A   1      42.477  23.331  27.315  1.00  0.00    -0.014 A 
BRANCH  45  46
ATOM     46  C   UNL A   1      42.755  24.714  27.761  1.00  0.00     0.031 A 
ATOM     47  C   UNL A   1      44.173  25.120  28.044  1.00  0.00     0.074 A 
ATOM     48  C   UNL A   1      41.740  25.572  27.975  1.00  0.00     0.049 A 
ATOM     49  N   UNL A   1      44.626  26.228  28.569  1.00  0.00    -0.248 NA
ATOM     50  C   UNL A   1      45.223  24.136  27.722  1.00  0.00     0.031 C 
ATOM     51  C   UNL A   1      40.322  25.282  27.753  1.00  0.00     0.029 A 
ATOM     52  N   UNL A   1      41.746  26.863  28.438  1.00  0.00    -0.354 N 
ATOM     53  C   UNL A   1      46.003  26.069  28.651  1.00  0.00     0.074 A 
ATOM     54  C   UNL A   1      46.309  24.737  28.180  1.00  0.00     0.031 C 
ATOM     55  C   UNL A   1      39.599  26.374  28.052  1.00  0.00     0.029 A 
ATOM     56  C   UNL A   1      40.494  27.422  28.533  1.00  0.00     0.049 A 
ATOM     57  H   UNL A   1      42.570  27.345  28.679  1.00  0.00     0.167 HD
ATOM     58  C   UNL A   1      46.930  26.965  29.056  1.00  0.00     0.037 A 
ATOM     59  C   UNL A   1      40.115  28.638  28.967  1.00  0.00     0.037 A 
ATOM     60  C   UNL A   1      46.621  28.299  29.490  1.00  0.00     0.049 A 
ATOM     61  C   UNL A   1      41.166  29.606  29.443  1.00  0.00     0.074 A 
ATOM     62  C   UNL A   1      47.493  29.294  29.895  1.00  0.00     0.029 A 
ATOM     63  N   UNL A   1      45.342  28.827  29.565  1.00  0.00    -0.354 N 
ATOM     64  N   UNL A   1      42.466  29.450  29.494  1.00  0.00    -0.248 NA
ATOM     65  C   UNL A   1      40.699  30.914  29.922  1.00  0.00     0.031 C 
ATOM     66  C   UNL A   1      46.738  30.414  30.249  1.00  0.00     0.029 A 
ATOM     67  C   UNL A   1      45.401  30.132  30.017  1.00  0.00     0.049 A 
ATOM     68  H   UNL A   1      44.516  28.345  29.332  1.00  0.00     0.167 HD
ATOM     69  C   UNL A   1      42.976  30.651  29.971  1.00  0.00     0.074 A 
ATOM     70  C   UNL A   1      41.843  31.525  30.195  1.00  0.00     0.031 C 
ATOM     71  C   UNL A   1      44.264  30.997  30.201  1.00  0.00     0.037 A 
BRANCH  58  72
ATOM     72  C   UNL A   1      48.369  26.547  29.021  1.00  0.00     0.057 A 
ATOM     73  C   UNL A   1      49.159  26.789  27.890  1.00  0.00     0.134 A 
ATOM     74  C   UNL A   1      48.953  25.837  30.078  1.00  0.00     0.134 A 
ATOM     75  F   UNL A   1      48.661  27.460  26.841  1.00  0.00    -0.206 F 
ATOM     76  C   UNL A   1      50.472  26.323  27.805  1.00  0.00     0.040 A 
ATOM     77  C   UNL A   1      50.272  25.390  30.017  1.00  0.00     0.040 A 
ATOM     78  F   UNL A   1      48.253  25.586  31.196  1.00  0.00    -0.206 F 
ATOM     79  C   UNL A   1      51.032  25.623  28.871  1.00  0.00     0.006 A 
ENDBRANCH  58  72
BRANCH  59  80
ATOM     80  C   UNL A   1      38.682  29.025  28.943  1.00  0.00     0.057 A 
ATOM     81  C   UNL A   1      38.074  29.539  27.791  1.00  0.00     0.134 A 
ATOM     82  C   UNL A   1      37.883  28.889  30.085  1.00  0.00     0.134 A 
ATOM     83  F   UNL A   1      38.785  29.703  26.665  1.00  0.00    -0.206 F 
ATOM     84  C   UNL A   1      36.729  29.912  27.778  1.00  0.00     0.040 A 
ATOM     85  C   UNL A   1      36.531  29.234  30.079  1.00  0.00     0.040 A 
ATOM     86  F   UNL A   1      38.403  28.387  31.215  1.00  0.00    -0.206 F 
ATOM     87  C   UNL A   1      35.951  29.752  28.923  1.00  0.00     0.006 A 
ENDBRANCH  59  80
BRANCH  71  88
ATOM     88  C   UNL A   1      44.544  32.395  30.668  1.00  0.00     0.057 A 
ATOM     89  C   UNL A   1      44.537  32.697  32.036  1.00  0.00     0.134 A 
ATOM     90  C   UNL A   1      44.703  33.455  29.768  1.00  0.00     0.134 A 
ATOM     91  F   UNL A   1      44.374  31.726  32.948  1.00  0.00    -0.206 F 
ATOM     92  C   UNL A   1      44.654  34.010  32.493  1.00  0.00     0.040 A 
ATOM     93  C   UNL A   1      44.847  34.769  30.215  1.00  0.00     0.040 A 
ATOM     94  F   UNL A   1      44.726  33.228  28.446  1.00  0.00    -0.206 F 
ATOM     95  C   UNL A   1      44.809  35.050  31.579  1.00  0.00     0.006 A 
ENDBRANCH  71  88
ENDBRANCH  45  46
ENDBRANCH  37  40
ENDBRANCH  35  36
ENDBRANCH  34  35
ENDBRANCH  33  34
ENDBRANCH   1  33
TORSDOF 17
ENDMDL
MODEL 3
REMARK VINA RESULT:     -12.0      3.710      7.530
REMARK SMILES CC(C)[C@@H](NC(=O)/C(=C\c1ccccc1F)NC(=O)c1ccccc1)C(=O)NCCCCNC(=O)c1ccc(-c2c3nc(c(-c4c(F)cccc4F)c4ccc([nH]4)c(-c4c(F)cccc4F)c4nc(c(-c5c(F)cccc5F)c5ccc2[nH]5)C=C4)C=C3)cc1
REMARK SMILES IDX 29 1 28 2 26 3 27 4 4 6 2 7 1 8 3 9 5 10 6 11 7 13 8 14 9 15
REMARK SMILES IDX 17 16 18 17 19 19 20 20 21 21 25 22 22 23 24 24 23 25 10 26
REMARK SMILES IDX 11 27 15 28 12 29 14 30 16 31 13 32 30 33 31 34 32 35 33 36
REMARK SMILES IDX 34 37 35 39 36 40 37 41 89 42 38 43 88 44 39 45 40 46 41 47
REMARK SMILES IDX 82 48 42 49 87 50 81 51 83 52 43 53 86 54 80 55 79 56 44 58
REMARK SMILES IDX 70 59 53 60 69 61 54 62 57 63 68 64 84 65 55 66 56 67 67 69
REMARK SMILES IDX 85 70 58 71 45 72 46 73 51 74 47 75 48 76 50 77 52 78 49 79
REMARK SMILES IDX 71 80 72 81 77 82 73 83 74 84 76 85 78 86 75 87 59 88 60 89
REMARK SMILES IDX 65 90 61 91 62 92 64 93 66 94 63 95
REMARK H PARENT 28 5 5 12 17 18 33 38 83 57 57 68
REMARK Flexibility Score: inf
ROOT
ATOM      1  C   UNL A   1      32.010  27.407  26.635  1.00  0.00     0.116 C 
ENDROOT
BRANCH   1   2
ATOM      2  N   UNL A   1      30.729  26.773  26.456  1.00  0.00    -0.354 N 
ATOM      3  C   UNL A   1      30.498  25.726  25.623  1.00  0.00     0.242 C 
ATOM      4  O   UNL A   1      29.552  25.826  24.839  1.00  0.00    -0.273 OA
ATOM      5  H   UNL A   1      29.969  27.122  26.975  1.00  0.00     0.163 HD
BRANCH   3   6
ATOM      6  C   UNL A   1      31.493  24.566  25.547  1.00  0.00     0.174 C 
BRANCH   6   7
ATOM      7  C   UNL A   1      31.515  23.808  26.921  1.00  0.00     0.015 C 
ATOM      8  C   UNL A   1      30.319  22.864  27.084  1.00  0.00     0.010 C 
ATOM      9  C   UNL A   1      32.797  22.980  27.141  1.00  0.00     0.010 C 
ENDBRANCH   6   7
BRANCH   6  10
ATOM     10  N   UNL A   1      31.255  23.661  24.394  1.00  0.00    -0.339 N 
ATOM     11  C   UNL A   1      32.208  23.048  23.605  1.00  0.00     0.268 C 
ATOM     12  H   UNL A   1      30.315  23.477  24.167  1.00  0.00     0.164 HD
ATOM     13  O   UNL A   1      32.162  21.822  23.487  1.00  0.00    -0.268 OA
BRANCH  11  14
ATOM     14  C   UNL A   1      33.108  23.844  22.682  1.00  0.00     0.107 C 
ATOM     15  C   UNL A   1      34.449  23.949  22.822  1.00  0.00     0.043 C 
BRANCH  14  16
ATOM     16  N   UNL A   1      32.594  24.455  21.542  1.00  0.00    -0.317 N 
ATOM     17  C   UNL A   1      32.287  25.734  21.155  1.00  0.00     0.255 C 
ATOM     18  H   UNL A   1      32.404  23.802  20.830  1.00  0.00     0.170 HD
ATOM     19  O   UNL A   1      31.808  25.912  20.033  1.00  0.00    -0.269 OA
BRANCH  17  20
ATOM     20  C   UNL A   1      32.491  26.907  22.005  1.00  0.00     0.040 A 
ATOM     21  C   UNL A   1      31.370  27.573  22.507  1.00  0.00     0.014 A 
ATOM     22  C   UNL A   1      33.772  27.425  22.191  1.00  0.00     0.014 A 
ATOM     23  C   UNL A   1      31.546  28.728  23.269  1.00  0.00     0.001 A 
ATOM     24  C   UNL A   1      33.944  28.574  22.961  1.00  0.00     0.001 A 
ATOM     25  C   UNL A   1      32.831  29.218  23.505  1.00  0.00     0.000 A 
ENDBRANCH  17  20
ENDBRANCH  14  16
BRANCH  15  26
ATOM     26  C   UNL A   1      35.360  23.506  23.881  1.00  0.00     0.012 A 
ATOM     27  C   UNL A   1      36.110  22.341  23.630  1.00  0.00     0.011 A 
ATOM     28  C   UNL A   1      35.562  24.176  25.085  1.00  0.00     0.130 A 
ATOM     29  C   UNL A   1      37.135  21.955  24.496  1.00  0.00     0.001 A 
ATOM     30  C   UNL A   1      36.573  23.786  25.961  1.00  0.00     0.040 A 
ATOM     31  F   UNL A   1      34.807  25.234  25.410  1.00  0.00    -0.206 F 
ATOM     32  C   UNL A   1      37.385  22.695  25.647  1.00  0.00     0.003 A 
ENDBRANCH  15  26
ENDBRANCH  11  14
ENDBRANCH   6  10
ENDBRANCH   3   6
ENDBRANCH   1   2
BRANCH   1  33
ATOM     33  C   UNL A   1      31.825  28.578  27.593  1.00  0.00     0.023 C 
BRANCH  33  34
ATOM     34  C   UNL A   1      31.754  29.917  26.857  1.00  0.00     0.023 C 
BRANCH  34  35
ATOM     35  C   UNL A   1      32.952  30.816  27.128  1.00  0.00     0.116 C 
BRANCH  35  36
ATOM     36  N   UNL A   1      32.560  32.216  27.208  1.00  0.00    -0.352 N 
ATOM     37  C   UNL A   1      33.123  33.211  27.966  1.00  0.00     0.251 C 
ATOM     38  H   UNL A   1      31.795  32.481  26.648  1.00  0.00     0.163 HD
ATOM     39  O   UNL A   1      32.552  34.275  28.139  1.00  0.00    -0.269 OA
BRANCH  37  40
ATOM     40  C   UNL A   1      34.434  32.941  28.576  1.00  0.00     0.039 A 
ATOM     41  C   UNL A   1      34.493  32.337  29.830  1.00  0.00     0.014 A 
ATOM     42  C   UNL A   1      35.595  33.226  27.852  1.00  0.00     0.014 A 
ATOM     43  C   UNL A   1      35.734  31.968  30.345  1.00  0.00     0.010 A 
ATOM     44  C   UNL A   1      36.817  32.782  28.328  1.00  0.00     0.010 A 
ATOM     45  C   UNL A   1      36.899  32.161  29.584  1.00  0.00    -0.014 A 
BRANCH  45  46
ATOM     46  C   UNL A   1      38.232  31.763  30.089  1.00  0.00     0.031 A 
ATOM     47  C   UNL A   1      38.876  30.517  29.552  1.00  0.00     0.074 A 
ATOM     48  C   UNL A   1      38.823  32.475  31.067  1.00  0.00     0.049 A 
ATOM     49  N   UNL A   1      39.967  29.916  29.947  1.00  0.00    -0.248 NA
ATOM     50  C   UNL A   1      38.184  29.838  28.441  1.00  0.00     0.031 C 
ATOM     51  C   UNL A   1      38.283  33.691  31.679  1.00  0.00     0.029 A 
ATOM     52  N   UNL A   1      40.009  32.271  31.726  1.00  0.00    -0.354 N 
ATOM     53  C   UNL A   1      40.083  28.787  29.145  1.00  0.00     0.074 A 
ATOM     54  C   UNL A   1      38.924  28.753  28.283  1.00  0.00     0.031 C 
ATOM     55  C   UNL A   1      39.149  34.139  32.602  1.00  0.00     0.029 A 
ATOM     56  C   UNL A   1      40.279  33.219  32.683  1.00  0.00     0.049 A 
ATOM     57  H   UNL A   1      40.610  31.516  31.531  1.00  0.00     0.167 HD
ATOM     58  C   UNL A   1      41.083  27.879  29.113  1.00  0.00     0.037 A 
ATOM     59  C   UNL A   1      41.317  33.325  33.534  1.00  0.00     0.037 A 
ATOM     60  C   UNL A   1      42.250  27.940  29.950  1.00  0.00     0.049 A 
ATOM     61  C   UNL A   1      42.402  32.282  33.498  1.00  0.00     0.074 A 
ATOM     62  C   UNL A   1      43.334  27.082  29.974  1.00  0.00     0.029 A 
ATOM     63  N   UNL A   1      42.488  28.919  30.901  1.00  0.00    -0.354 N 
ATOM     64  N   UNL A   1      42.511  31.233  32.720  1.00  0.00    -0.248 NA
ATOM     65  C   UNL A   1      43.505  32.434  34.457  1.00  0.00     0.031 C 
ATOM     66  C   UNL A   1      44.213  27.522  30.966  1.00  0.00     0.029 A 
ATOM     67  C   UNL A   1      43.700  28.682  31.523  1.00  0.00     0.049 A 
ATOM     68  H   UNL A   1      41.885  29.671  31.102  1.00  0.00     0.167 HD
ATOM     69  C   UNL A   1      43.711  30.624  33.067  1.00  0.00     0.074 A 
ATOM     70  C   UNL A   1      44.293  31.421  34.126  1.00  0.00     0.031 C 
ATOM     71  C   UNL A   1      44.277  29.507  32.553  1.00  0.00     0.037 A 
BRANCH  58  72
ATOM     72  C   UNL A   1      40.979  26.758  28.123  1.00  0.00     0.057 A 
ATOM     73  C   UNL A   1      41.730  26.773  26.941  1.00  0.00     0.134 A 
ATOM     74  C   UNL A   1      40.079  25.701  28.305  1.00  0.00     0.134 A 
ATOM     75  F   UNL A   1      42.608  27.759  26.703  1.00  0.00    -0.206 F 
ATOM     76  C   UNL A   1      41.575  25.786  25.967  1.00  0.00     0.040 A 
ATOM     77  C   UNL A   1      39.934  24.694  27.352  1.00  0.00     0.040 A 
ATOM     78  F   UNL A   1      39.341  25.621  29.424  1.00  0.00    -0.206 F 
ATOM     79  C   UNL A   1      40.676  24.742  26.172  1.00  0.00     0.006 A 
ENDBRANCH  58  72
BRANCH  59  80
ATOM     80  C   UNL A   1      41.401  34.477  34.467  1.00  0.00     0.057 A 
ATOM     81  C   UNL A   1      40.895  34.409  35.771  1.00  0.00     0.134 A 
ATOM     82  C   UNL A   1      41.992  35.681  34.069  1.00  0.00     0.134 A 
ATOM     83  F   UNL A   1      40.307  33.287  36.213  1.00  0.00    -0.206 F 
ATOM     84  C   UNL A   1      40.966  35.499  36.640  1.00  0.00     0.040 A 
ATOM     85  C   UNL A   1      42.093  36.770  34.935  1.00  0.00     0.040 A 
ATOM     86  F   UNL A   1      42.510  35.802  32.837  1.00  0.00    -0.206 F 
ATOM     87  C   UNL A   1      41.573  36.682  36.225  1.00  0.00     0.006 A 
ENDBRANCH  59  80
BRANCH  71  88
ATOM     88  C   UNL A   1      45.622  29.097  33.076  1.00  0.00     0.057 A 
ATOM     89  C   UNL A   1      46.791  29.517  32.427  1.00  0.00     0.134 A 
ATOM     90  C   UNL A   1      45.756  28.199  34.140  1.00  0.00     0.134 A 
ATOM     91  F   UNL A   1      46.726  30.367  31.390  1.00  0.00    -0.206 F 
ATOM     92  C   UNL A   1      48.045  29.040  32.805  1.00  0.00     0.040 A 
ATOM     93  C   UNL A   1      47.008  27.734  34.543  1.00  0.00     0.040 A 
ATOM     94  F   UNL A   1      44.674  27.766  34.806  1.00  0.00    -0.206 F 
ATOM     95  C   UNL A   1      48.155  28.144  33.866  1.00  0.00     0.006 A 
ENDBRANCH  71  88
ENDBRANCH  45  46
ENDBRANCH  37  40
ENDBRANCH  35  36
ENDBRANCH  34  35
ENDBRANCH  33  34
ENDBRANCH   1  33
TORSDOF 17
ENDMDL
