MODEL 1
REMARK VINA RESULT:     -11.0      0.000      0.000
REMARK SMILES CCCCCCNC(=O)Oc1cccc(-c2ccc([C@@H](C)C(=O)NCCCCNC(=O)c3ccc(-c4c5nc(c(-c6c(F)cccc6F)c6ccc([nH]6)c(-c6c(F)cccc6F)c6nc(c(-c7c(F)cccc7F)c7ccc4[nH]7)C=C6)C=C5)cc3)cc2C)c1
REMARK SMILES IDX 20 1 21 2 19 3 16 4 17 5 87 6 18 7 86 8 88 9 15 10 11 11
REMARK SMILES IDX 12 12 89 13 13 14 14 15 10 16 8 17 7 18 9 20 6 21 5 22 4 23
REMARK SMILES IDX 3 24 2 25 1 26 22 27 23 28 24 29 25 31 26 32 27 33 28 34
REMARK SMILES IDX 29 35 30 36 31 38 32 39 33 40 85 41 34 42 84 43 35 44 36 45
REMARK SMILES IDX 37 46 78 47 38 48 83 49 77 50 79 51 39 52 82 53 76 54 75 55
REMARK SMILES IDX 40 57 66 58 49 59 65 60 50 61 53 62 64 63 80 64 51 65 52 66
REMARK SMILES IDX 63 68 81 69 54 70 41 71 42 72 47 73 43 74 44 75 46 76 48 77
REMARK SMILES IDX 45 78 67 79 68 80 73 81 69 82 70 83 72 84 74 85 71 86 55 87
REMARK SMILES IDX 56 88 61 89 57 90 58 91 60 92 62 93 59 94
REMARK H PARENT 7 19 24 30 29 37 79 56 53 67
REMARK Flexibility Score: inf
ROOT
ATOM      1  C   UNL A   1      34.869  24.035  24.420  1.00  0.00     0.105 C 
ATOM      2  C   UNL A   1      34.253  23.305  23.227  1.00  0.00     0.023 C 
ENDROOT
BRANCH   1   3
ATOM      3  C   UNL A   1      36.120  23.392  25.001  1.00  0.00    -0.036 A 
ATOM      4  C   UNL A   1      38.545  22.153  25.902  1.00  0.00    -0.015 A 
ATOM      5  C   UNL A   1      38.228  23.492  26.198  1.00  0.00     0.009 A 
ATOM      6  C   UNL A   1      37.565  21.403  25.215  1.00  0.00    -0.043 A 
ATOM      7  C   UNL A   1      37.018  24.077  25.812  1.00  0.00     0.005 A 
ATOM      8  C   UNL A   1      36.403  22.047  24.725  1.00  0.00     0.008 A 
ATOM      9  C   UNL A   1      37.641  19.915  24.988  1.00  0.00     0.045 C 
BRANCH   4  10
ATOM     10  C   UNL A   1      39.860  21.622  26.344  1.00  0.00    -0.014 A 
ATOM     11  C   UNL A   1      41.824  20.224  26.019  1.00  0.00     0.133 A 
ATOM     12  C   UNL A   1      42.347  20.611  27.250  1.00  0.00     0.047 A 
ATOM     13  C   UNL A   1      40.612  20.739  25.550  1.00  0.00     0.056 A 
ATOM     14  C   UNL A   1      41.646  21.523  28.026  1.00  0.00     0.004 A 
ATOM     15  C   UNL A   1      40.409  22.006  27.585  1.00  0.00     0.009 A 
BRANCH  11  16
ATOM     16  O   UNL A   1      42.477  19.158  25.375  1.00  0.00    -0.410 OA
BRANCH  16  17
ATOM     17  C   UNL A   1      43.481  18.452  26.015  1.00  0.00     0.412 C 
ATOM     18  N   UNL A   1      44.728  18.765  25.543  1.00  0.00    -0.321 N 
ATOM     19  H   UNL A   1      45.484  18.260  25.921  1.00  0.00     0.167 HD
ATOM     20  O   UNL A   1      43.325  17.623  26.901  1.00  0.00    -0.224 OA
BRANCH  18  21
ATOM     21  C   UNL A   1      45.048  19.766  24.543  1.00  0.00     0.119 C 
BRANCH  21  22
ATOM     22  C   UNL A   1      45.908  20.893  25.115  1.00  0.00     0.021 C 
BRANCH  22  23
ATOM     23  C   UNL A   1      45.179  22.230  25.300  1.00  0.00     0.002 C 
BRANCH  23  24
ATOM     24  C   UNL A   1      45.304  22.862  26.691  1.00  0.00    -0.000 C 
BRANCH  24  25
ATOM     25  C   UNL A   1      46.296  24.022  26.799  1.00  0.00    -0.003 C 
ATOM     26  C   UNL A   1      45.754  25.204  27.589  1.00  0.00     0.004 C 
ENDBRANCH  24  25
ENDBRANCH  23  24
ENDBRANCH  22  23
ENDBRANCH  21  22
ENDBRANCH  18  21
ENDBRANCH  16  17
ENDBRANCH  11  16
ENDBRANCH   4  10
ENDBRANCH   1   3
BRANCH   1  27
ATOM     27  C   UNL A   1      33.847  24.494  25.473  1.00  0.00     0.227 C 
ATOM     28  O   UNL A   1      33.399  23.681  26.291  1.00  0.00    -0.274 OA
ATOM     29  N   UNL A   1      33.402  25.775  25.599  1.00  0.00    -0.356 N 
ATOM     30  H   UNL A   1      32.822  25.925  26.381  1.00  0.00     0.163 HD
BRANCH  29  31
ATOM     31  C   UNL A   1      33.628  26.954  24.792  1.00  0.00     0.116 C 
BRANCH  31  32
ATOM     32  C   UNL A   1      32.348  27.426  24.101  1.00  0.00     0.023 C 
BRANCH  32  33
ATOM     33  C   UNL A   1      31.814  28.773  24.578  1.00  0.00     0.023 C 
BRANCH  33  34
ATOM     34  C   UNL A   1      32.793  29.598  25.403  1.00  0.00     0.116 C 
BRANCH  34  35
ATOM     35  N   UNL A   1      32.211  30.789  26.009  1.00  0.00    -0.352 N 
ATOM     36  C   UNL A   1      32.754  31.593  26.985  1.00  0.00     0.251 C 
ATOM     37  H   UNL A   1      31.321  31.050  25.680  1.00  0.00     0.163 HD
ATOM     38  O   UNL A   1      32.120  32.529  27.455  1.00  0.00    -0.269 OA
BRANCH  36  39
ATOM     39  C   UNL A   1      34.101  31.272  27.496  1.00  0.00     0.039 A 
ATOM     40  C   UNL A   1      35.028  32.305  27.655  1.00  0.00     0.014 A 
ATOM     41  C   UNL A   1      34.412  29.971  27.899  1.00  0.00     0.014 A 
ATOM     42  C   UNL A   1      36.240  32.047  28.297  1.00  0.00     0.010 A 
ATOM     43  C   UNL A   1      35.580  29.735  28.612  1.00  0.00     0.010 A 
ATOM     44  C   UNL A   1      36.504  30.770  28.820  1.00  0.00    -0.014 A 
BRANCH  44  45
ATOM     45  C   UNL A   1      37.738  30.493  29.595  1.00  0.00     0.031 A 
ATOM     46  C   UNL A   1      38.820  29.635  29.004  1.00  0.00     0.074 A 
ATOM     47  C   UNL A   1      37.842  30.932  30.864  1.00  0.00     0.049 A 
ATOM     48  N   UNL A   1      39.928  29.207  29.550  1.00  0.00    -0.248 NA
ATOM     49  C   UNL A   1      38.606  29.161  27.627  1.00  0.00     0.031 C 
ATOM     50  C   UNL A   1      36.827  31.709  31.579  1.00  0.00     0.029 A 
ATOM     51  N   UNL A   1      38.846  30.771  31.786  1.00  0.00    -0.354 N 
ATOM     52  C   UNL A   1      40.527  28.394  28.598  1.00  0.00     0.074 A 
ATOM     53  C   UNL A   1      39.636  28.344  27.460  1.00  0.00     0.031 C 
ATOM     54  C   UNL A   1      37.266  31.970  32.821  1.00  0.00     0.029 A 
ATOM     55  C   UNL A   1      38.577  31.354  33.000  1.00  0.00     0.049 A 
ATOM     56  H   UNL A   1      39.679  30.283  31.596  1.00  0.00     0.167 HD
ATOM     57  C   UNL A   1      41.724  27.762  28.656  1.00  0.00     0.037 A 
ATOM     58  C   UNL A   1      39.304  31.386  34.133  1.00  0.00     0.037 A 
ATOM     59  C   UNL A   1      42.626  27.849  29.772  1.00  0.00     0.049 A 
ATOM     60  C   UNL A   1      40.650  30.718  34.160  1.00  0.00     0.074 A 
ATOM     61  C   UNL A   1      43.904  27.330  29.892  1.00  0.00     0.029 A 
ATOM     62  N   UNL A   1      42.343  28.496  30.967  1.00  0.00    -0.354 N 
ATOM     63  N   UNL A   1      41.249  30.030  33.218  1.00  0.00    -0.248 NA
ATOM     64  C   UNL A   1      41.426  30.838  35.402  1.00  0.00     0.031 C 
ATOM     65  C   UNL A   1      44.378  27.627  31.174  1.00  0.00     0.029 A 
ATOM     66  C   UNL A   1      43.413  28.369  31.837  1.00  0.00     0.049 A 
ATOM     67  H   UNL A   1      41.506  28.973  31.166  1.00  0.00     0.167 HD
ATOM     68  C   UNL A   1      42.478  29.654  33.744  1.00  0.00     0.074 A 
ATOM     69  C   UNL A   1      42.545  30.202  35.082  1.00  0.00     0.031 C 
ATOM     70  C   UNL A   1      43.462  28.921  33.167  1.00  0.00     0.037 A 
BRANCH  57  71
ATOM     71  C   UNL A   1      42.120  26.927  27.474  1.00  0.00     0.057 A 
ATOM     72  C   UNL A   1      41.799  25.566  27.385  1.00  0.00     0.134 A 
ATOM     73  C   UNL A   1      42.825  27.494  26.405  1.00  0.00     0.134 A 
ATOM     74  F   UNL A   1      41.137  24.958  28.381  1.00  0.00    -0.206 F 
ATOM     75  C   UNL A   1      42.196  24.790  26.294  1.00  0.00     0.040 A 
ATOM     76  C   UNL A   1      43.201  26.737  25.295  1.00  0.00     0.040 A 
ATOM     77  F   UNL A   1      43.160  28.793  26.422  1.00  0.00    -0.206 F 
ATOM     78  C   UNL A   1      42.895  25.378  25.242  1.00  0.00     0.006 A 
ENDBRANCH  57  71
BRANCH  58  79
ATOM     79  C   UNL A   1      38.782  32.102  35.323  1.00  0.00     0.057 A 
ATOM     80  C   UNL A   1      38.158  31.410  36.366  1.00  0.00     0.134 A 
ATOM     81  C   UNL A   1      38.915  33.489  35.456  1.00  0.00     0.134 A 
ATOM     82  F   UNL A   1      37.988  30.081  36.288  1.00  0.00    -0.206 F 
ATOM     83  C   UNL A   1      37.672  32.071  37.495  1.00  0.00     0.040 A 
ATOM     84  C   UNL A   1      38.453  34.161  36.588  1.00  0.00     0.040 A 
ATOM     85  F   UNL A   1      39.513  34.207  34.495  1.00  0.00    -0.206 F 
ATOM     86  C   UNL A   1      37.825  33.452  37.611  1.00  0.00     0.006 A 
ENDBRANCH  58  79
BRANCH  70  87
ATOM     87  C   UNL A   1      44.705  28.687  33.974  1.00  0.00     0.057 A 
ATOM     88  C   UNL A   1      45.768  29.599  33.972  1.00  0.00     0.134 A 
ATOM     89  C   UNL A   1      44.819  27.560  34.797  1.00  0.00     0.134 A 
ATOM     90  F   UNL A   1      45.725  30.692  33.195  1.00  0.00    -0.206 F 
ATOM     91  C   UNL A   1      46.909  29.387  34.747  1.00  0.00     0.040 A 
ATOM     92  C   UNL A   1      45.944  27.351  35.595  1.00  0.00     0.040 A 
ATOM     93  F   UNL A   1      43.832  26.653  34.851  1.00  0.00    -0.206 F 
ATOM     94  C   UNL A   1      46.995  28.265  35.568  1.00  0.00     0.006 A 
ENDBRANCH  70  87
ENDBRANCH  44  45
ENDBRANCH  36  39
ENDBRANCH  34  35
ENDBRANCH  33  34
ENDBRANCH  32  33
ENDBRANCH  31  32
ENDBRANCH  29  31
ENDBRANCH   1  27
TORSDOF 20
ENDMDL
MODEL 2
REMARK VINA RESULT:     -10.8      3.316      5.929
REMARK SMILES CCCCCCNC(=O)Oc1cccc(-c2ccc([C@@H](C)C(=O)NCCCCNC(=O)c3ccc(-c4c5nc(c(-c6c(F)cccc6F)c6ccc([nH]6)c(-c6c(F)cccc6F)c6nc(c(-c7c(F)cccc7F)c7ccc4[nH]7)C=C6)C=C5)cc3)cc2C)c1
REMARK SMILES IDX 20 1 21 2 19 3 16 4 17 5 87 6 18 7 86 8 88 9 15 10 11 11
REMARK SMILES IDX 12 12 89 13 13 14 14 15 10 16 8 17 7 18 9 20 6 21 5 22 4 23
REMARK SMILES IDX 3 24 2 25 1 26 22 27 23 28 24 29 25 31 26 32 27 33 28 34
REMARK SMILES IDX 29 35 30 36 31 38 32 39 33 40 85 41 34 42 84 43 35 44 36 45
REMARK SMILES IDX 37 46 78 47 38 48 83 49 77 50 79 51 39 52 82 53 76 54 75 55
REMARK SMILES IDX 40 57 66 58 49 59 65 60 50 61 53 62 64 63 80 64 51 65 52 66
REMARK SMILES IDX 63 68 81 69 54 70 41 71 42 72 47 73 43 74 44 75 46 76 48 77
REMARK SMILES IDX 45 78 67 79 68 80 73 81 69 82 70 83 72 84 74 85 71 86 55 87
REMARK SMILES IDX 56 88 61 89 57 90 58 91 60 92 62 93 59 94
REMARK H PARENT 7 19 24 30 29 37 79 56 53 67
REMARK Flexibility Score: inf
ROOT
ATOM      1  C   UNL A   1      29.277  29.787  22.387  1.00  0.00     0.105 C 
ATOM      2  C   UNL A   1      28.081  29.893  21.441  1.00  0.00     0.023 C 
ENDROOT
BRANCH   1   3
ATOM      3  C   UNL A   1      29.598  28.383  22.874  1.00  0.00    -0.036 A 
ATOM      4  C   UNL A   1      30.367  25.814  23.895  1.00  0.00    -0.015 A 
ATOM      5  C   UNL A   1      29.148  26.427  24.238  1.00  0.00     0.009 A 
ATOM      6  C   UNL A   1      31.168  26.480  22.940  1.00  0.00    -0.043 A 
ATOM      7  C   UNL A   1      28.746  27.650  23.693  1.00  0.00     0.005 A 
ATOM      8  C   UNL A   1      30.803  27.773  22.495  1.00  0.00     0.008 A 
ATOM      9  C   UNL A   1      32.400  25.886  22.305  1.00  0.00     0.045 C 
BRANCH   4  10
ATOM     10  C   UNL A   1      30.716  24.520  24.534  1.00  0.00    -0.014 A 
ATOM     11  C   UNL A   1      31.671  22.285  24.465  1.00  0.00     0.133 A 
ATOM     12  C   UNL A   1      31.325  22.056  25.794  1.00  0.00     0.047 A 
ATOM     13  C   UNL A   1      31.401  23.507  23.843  1.00  0.00     0.056 A 
ATOM     14  C   UNL A   1      30.694  23.063  26.511  1.00  0.00     0.004 A 
ATOM     15  C   UNL A   1      30.377  24.271  25.881  1.00  0.00     0.009 A 
BRANCH  11  16
ATOM     16  O   UNL A   1      32.125  21.167  23.741  1.00  0.00    -0.410 OA
BRANCH  16  17
ATOM     17  C   UNL A   1      32.685  20.081  24.391  1.00  0.00     0.412 C 
ATOM     18  N   UNL A   1      34.002  20.279  24.709  1.00  0.00    -0.321 N 
ATOM     19  H   UNL A   1      34.475  19.524  25.128  1.00  0.00     0.167 HD
ATOM     20  O   UNL A   1      32.114  19.034  24.666  1.00  0.00    -0.224 OA
BRANCH  18  21
ATOM     21  C   UNL A   1      34.771  21.489  24.492  1.00  0.00     0.119 C 
BRANCH  21  22
ATOM     22  C   UNL A   1      35.557  21.901  25.737  1.00  0.00     0.021 C 
BRANCH  22  23
ATOM     23  C   UNL A   1      35.289  23.330  26.226  1.00  0.00     0.002 C 
BRANCH  23  24
ATOM     24  C   UNL A   1      34.460  24.206  25.280  1.00  0.00    -0.000 C 
BRANCH  24  25
ATOM     25  C   UNL A   1      34.653  25.715  25.445  1.00  0.00    -0.003 C 
ATOM     26  C   UNL A   1      33.405  26.430  25.940  1.00  0.00     0.004 C 
ENDBRANCH  24  25
ENDBRANCH  23  24
ENDBRANCH  22  23
ENDBRANCH  21  22
ENDBRANCH  18  21
ENDBRANCH  16  17
ENDBRANCH  11  16
ENDBRANCH   4  10
ENDBRANCH   1   3
BRANCH   1  27
ATOM     27  C   UNL A   1      29.304  30.860  23.488  1.00  0.00     0.227 C 
ATOM     28  O   UNL A   1      28.487  31.790  23.461  1.00  0.00    -0.274 OA
ATOM     29  N   UNL A   1      30.166  30.853  24.541  1.00  0.00    -0.356 N 
ATOM     30  H   UNL A   1      29.995  31.557  25.209  1.00  0.00     0.163 HD
BRANCH  29  31
ATOM     31  C   UNL A   1      31.290  29.998  24.858  1.00  0.00     0.116 C 
BRANCH  31  32
ATOM     32  C   UNL A   1      31.838  30.271  26.259  1.00  0.00     0.023 C 
BRANCH  32  33
ATOM     33  C   UNL A   1      31.480  31.635  26.840  1.00  0.00     0.023 C 
BRANCH  33  34
ATOM     34  C   UNL A   1      32.487  32.741  26.555  1.00  0.00     0.116 C 
BRANCH  34  35
ATOM     35  N   UNL A   1      32.267  33.963  27.317  1.00  0.00    -0.352 N 
ATOM     36  C   UNL A   1      33.008  34.449  28.370  1.00  0.00     0.251 C 
ATOM     37  H   UNL A   1      31.493  34.509  27.045  1.00  0.00     0.163 HD
ATOM     38  O   UNL A   1      32.666  35.462  28.967  1.00  0.00    -0.269 OA
BRANCH  36  39
ATOM     39  C   UNL A   1      34.200  33.693  28.803  1.00  0.00     0.039 A 
ATOM     40  C   UNL A   1      35.467  34.221  28.543  1.00  0.00     0.014 A 
ATOM     41  C   UNL A   1      34.059  32.515  29.540  1.00  0.00     0.014 A 
ATOM     42  C   UNL A   1      36.592  33.608  29.096  1.00  0.00     0.010 A 
ATOM     43  C   UNL A   1      35.169  31.956  30.159  1.00  0.00     0.010 A 
ATOM     44  C   UNL A   1      36.447  32.498  29.946  1.00  0.00    -0.014 A 
BRANCH  44  45
ATOM     45  C   UNL A   1      37.614  31.890  30.628  1.00  0.00     0.031 A 
ATOM     46  C   UNL A   1      38.428  30.837  29.930  1.00  0.00     0.074 A 
ATOM     47  C   UNL A   1      37.882  32.212  31.908  1.00  0.00     0.049 A 
ATOM     48  N   UNL A   1      39.426  30.126  30.385  1.00  0.00    -0.248 NA
ATOM     49  C   UNL A   1      38.040  30.513  28.548  1.00  0.00     0.031 C 
ATOM     50  C   UNL A   1      37.120  33.162  32.721  1.00  0.00     0.029 A 
ATOM     51  N   UNL A   1      38.862  31.761  32.756  1.00  0.00    -0.354 N 
ATOM     52  C   UNL A   1      39.765  29.254  29.359  1.00  0.00     0.074 A 
ATOM     53  C   UNL A   1      38.834  29.488  28.278  1.00  0.00     0.031 C 
ATOM     54  C   UNL A   1      37.668  33.234  33.945  1.00  0.00     0.029 A 
ATOM     55  C   UNL A   1      38.801  32.315  34.012  1.00  0.00     0.049 A 
ATOM     56  H   UNL A   1      39.543  31.102  32.492  1.00  0.00     0.167 HD
ATOM     57  C   UNL A   1      40.777  28.355  29.313  1.00  0.00     0.037 A 
ATOM     58  C   UNL A   1      39.568  32.104  35.098  1.00  0.00     0.037 A 
ATOM     59  C   UNL A   1      41.727  28.156  30.373  1.00  0.00     0.049 A 
ATOM     60  C   UNL A   1      40.714  31.135  35.008  1.00  0.00     0.074 A 
ATOM     61  C   UNL A   1      42.847  27.343  30.388  1.00  0.00     0.029 A 
ATOM     62  N   UNL A   1      41.666  28.777  31.613  1.00  0.00    -0.354 N 
ATOM     63  N   UNL A   1      41.084  30.385  33.999  1.00  0.00    -0.248 NA
ATOM     64  C   UNL A   1      41.556  30.991  36.204  1.00  0.00     0.031 C 
ATOM     65  C   UNL A   1      43.440  27.439  31.651  1.00  0.00     0.029 A 
ATOM     66  C   UNL A   1      42.715  28.346  32.407  1.00  0.00     0.049 A 
ATOM     67  H   UNL A   1      40.978  29.426  31.887  1.00  0.00     0.167 HD
ATOM     68  C   UNL A   1      42.210  29.696  34.429  1.00  0.00     0.074 A 
ATOM     69  C   UNL A   1      42.473  30.129  35.786  1.00  0.00     0.031 C 
ATOM     70  C   UNL A   1      42.960  28.788  33.758  1.00  0.00     0.037 A 
BRANCH  57  71
ATOM     71  C   UNL A   1      40.903  27.524  28.068  1.00  0.00     0.057 A 
ATOM     72  C   UNL A   1      41.652  27.951  26.964  1.00  0.00     0.134 A 
ATOM     73  C   UNL A   1      40.273  26.277  27.978  1.00  0.00     0.134 A 
ATOM     74  F   UNL A   1      42.269  29.143  26.980  1.00  0.00    -0.206 F 
ATOM     75  C   UNL A   1      41.740  27.185  25.800  1.00  0.00     0.040 A 
ATOM     76  C   UNL A   1      40.379  25.488  26.831  1.00  0.00     0.040 A 
ATOM     77  F   UNL A   1      39.545  25.805  29.001  1.00  0.00    -0.206 F 
ATOM     78  C   UNL A   1      41.106  25.946  25.734  1.00  0.00     0.006 A 
ENDBRANCH  57  71
BRANCH  58  79
ATOM     79  C   UNL A   1      39.293  32.848  36.351  1.00  0.00     0.057 A 
ATOM     80  C   UNL A   1      39.873  34.099  36.590  1.00  0.00     0.134 A 
ATOM     81  C   UNL A   1      38.428  32.339  37.327  1.00  0.00     0.134 A 
ATOM     82  F   UNL A   1      40.722  34.631  35.698  1.00  0.00    -0.206 F 
ATOM     83  C   UNL A   1      39.613  34.813  37.761  1.00  0.00     0.040 A 
ATOM     84  C   UNL A   1      38.143  33.052  38.493  1.00  0.00     0.040 A 
ATOM     85  F   UNL A   1      37.834  31.150  37.152  1.00  0.00    -0.206 F 
ATOM     86  C   UNL A   1      38.740  34.292  38.714  1.00  0.00     0.006 A 
ENDBRANCH  58  79
BRANCH  70  87
ATOM     87  C   UNL A   1      44.149  28.217  34.473  1.00  0.00     0.057 A 
ATOM     88  C   UNL A   1      45.398  28.850  34.450  1.00  0.00     0.134 A 
ATOM     89  C   UNL A   1      44.029  27.046  35.231  1.00  0.00     0.134 A 
ATOM     90  F   UNL A   1      45.581  29.967  33.732  1.00  0.00    -0.206 F 
ATOM     91  C   UNL A   1      46.491  28.326  35.141  1.00  0.00     0.040 A 
ATOM     92  C   UNL A   1      45.108  26.527  35.947  1.00  0.00     0.040 A 
ATOM     93  F   UNL A   1      42.857  26.396  35.302  1.00  0.00    -0.206 F 
ATOM     94  C   UNL A   1      46.345  27.166  35.900  1.00  0.00     0.006 A 
ENDBRANCH  70  87
ENDBRANCH  44  45
ENDBRANCH  36  39
ENDBRANCH  34  35
ENDBRANCH  33  34
ENDBRANCH  32  33
ENDBRANCH  31  32
ENDBRANCH  29  31
ENDBRANCH   1  27
TORSDOF 20
ENDMDL
MODEL 3
REMARK VINA RESULT:     -10.6      0.616      5.846
REMARK SMILES CCCCCCNC(=O)Oc1cccc(-c2ccc([C@@H](C)C(=O)NCCCCNC(=O)c3ccc(-c4c5nc(c(-c6c(F)cccc6F)c6ccc([nH]6)c(-c6c(F)cccc6F)c6nc(c(-c7c(F)cccc7F)c7ccc4[nH]7)C=C6)C=C5)cc3)cc2C)c1
REMARK SMILES IDX 20 1 21 2 19 3 16 4 17 5 87 6 18 7 86 8 88 9 15 10 11 11
REMARK SMILES IDX 12 12 89 13 13 14 14 15 10 16 8 17 7 18 9 20 6 21 5 22 4 23
REMARK SMILES IDX 3 24 2 25 1 26 22 27 23 28 24 29 25 31 26 32 27 33 28 34
REMARK SMILES IDX 29 35 30 36 31 38 32 39 33 40 85 41 34 42 84 43 35 44 36 45
REMARK SMILES IDX 37 46 78 47 38 48 83 49 77 50 79 51 39 52 82 53 76 54 75 55
REMARK SMILES IDX 40 57 66 58 49 59 65 60 50 61 53 62 64 63 80 64 51 65 52 66
REMARK SMILES IDX 63 68 81 69 54 70 41 71 42 72 47 73 43 74 44 75 46 76 48 77
REMARK SMILES IDX 45 78 67 79 68 80 73 81 69 82 70 83 72 84 74 85 71 86 55 87
REMARK SMILES IDX 56 88 61 89 57 90 58 91 60 92 62 93 59 94
REMARK H PARENT 7 19 24 30 29 37 79 56 53 67
REMARK Flexibility Score: inf
ROOT
ATOM      1  C   UNL A   1      34.742  24.005  24.349  1.00  0.00     0.105 C 
ATOM      2  C   UNL A   1      34.286  23.415  23.014  1.00  0.00     0.023 C 
ENDROOT
BRANCH   1   3
ATOM      3  C   UNL A   1      35.997  23.382  24.941  1.00  0.00    -0.036 A 
ATOM      4  C   UNL A   1      38.433  22.181  25.864  1.00  0.00    -0.015 A 
ATOM      5  C   UNL A   1      38.091  23.514  26.158  1.00  0.00     0.009 A 
ATOM      6  C   UNL A   1      37.472  21.416  25.167  1.00  0.00    -0.043 A 
ATOM      7  C   UNL A   1      36.876  24.080  25.761  1.00  0.00     0.005 A 
ATOM      8  C   UNL A   1      36.305  22.042  24.666  1.00  0.00     0.008 A 
ATOM      9  C   UNL A   1      37.574  19.930  24.939  1.00  0.00     0.045 C 
BRANCH   4  10
ATOM     10  C   UNL A   1      39.752  21.670  26.318  1.00  0.00    -0.014 A 
ATOM     11  C   UNL A   1      41.761  20.340  25.991  1.00  0.00     0.133 A 
ATOM     12  C   UNL A   1      42.246  20.697  27.247  1.00  0.00     0.047 A 
ATOM     13  C   UNL A   1      40.547  20.838  25.512  1.00  0.00     0.056 A 
ATOM     14  C   UNL A   1      41.501  21.561  28.038  1.00  0.00     0.004 A 
ATOM     15  C   UNL A   1      40.262  22.025  27.585  1.00  0.00     0.009 A 
BRANCH  11  16
ATOM     16  O   UNL A   1      42.459  19.316  25.326  1.00  0.00    -0.410 OA
BRANCH  16  17
ATOM     17  C   UNL A   1      43.543  18.694  25.922  1.00  0.00     0.412 C 
ATOM     18  N   UNL A   1      44.742  19.168  25.460  1.00  0.00    -0.321 N 
ATOM     19  H   UNL A   1      45.553  18.732  25.806  1.00  0.00     0.167 HD
ATOM     20  O   UNL A   1      43.490  17.808  26.764  1.00  0.00    -0.224 OA
BRANCH  18  21
ATOM     21  C   UNL A   1      44.937  20.250  24.513  1.00  0.00     0.119 C 
BRANCH  21  22
ATOM     22  C   UNL A   1      45.810  21.365  25.089  1.00  0.00     0.021 C 
BRANCH  22  23
ATOM     23  C   UNL A   1      45.111  22.268  26.114  1.00  0.00     0.002 C 
BRANCH  23  24
ATOM     24  C   UNL A   1      46.042  23.102  27.000  1.00  0.00    -0.000 C 
BRANCH  24  25
ATOM     25  C   UNL A   1      45.342  24.056  27.972  1.00  0.00    -0.003 C 
ATOM     26  C   UNL A   1      44.555  23.336  29.057  1.00  0.00     0.004 C 
ENDBRANCH  24  25
ENDBRANCH  23  24
ENDBRANCH  22  23
ENDBRANCH  21  22
ENDBRANCH  18  21
ENDBRANCH  16  17
ENDBRANCH  11  16
ENDBRANCH   4  10
ENDBRANCH   1   3
BRANCH   1  27
ATOM     27  C   UNL A   1      33.605  24.221  25.361  1.00  0.00     0.227 C 
ATOM     28  O   UNL A   1      33.498  23.466  26.336  1.00  0.00    -0.274 OA
ATOM     29  N   UNL A   1      32.694  25.230  25.283  1.00  0.00    -0.356 N 
ATOM     30  H   UNL A   1      32.088  25.288  26.058  1.00  0.00     0.163 HD
BRANCH  29  31
ATOM     31  C   UNL A   1      32.454  26.232  24.267  1.00  0.00     0.116 C 
BRANCH  31  32
ATOM     32  C   UNL A   1      31.634  27.405  24.805  1.00  0.00     0.023 C 
BRANCH  32  33
ATOM     33  C   UNL A   1      32.336  28.256  25.858  1.00  0.00     0.023 C 
BRANCH  33  34
ATOM     34  C   UNL A   1      32.921  29.564  25.343  1.00  0.00     0.116 C 
BRANCH  34  35
ATOM     35  N   UNL A   1      32.408  30.754  26.009  1.00  0.00    -0.352 N 
ATOM     36  C   UNL A   1      32.998  31.480  27.018  1.00  0.00     0.251 C 
ATOM     37  H   UNL A   1      31.531  31.079  25.699  1.00  0.00     0.163 HD
ATOM     38  O   UNL A   1      32.418  32.426  27.536  1.00  0.00    -0.269 OA
BRANCH  36  39
ATOM     39  C   UNL A   1      34.329  31.063  27.503  1.00  0.00     0.039 A 
ATOM     40  C   UNL A   1      35.311  32.036  27.702  1.00  0.00     0.014 A 
ATOM     41  C   UNL A   1      34.569  29.730  27.843  1.00  0.00     0.014 A 
ATOM     42  C   UNL A   1      36.511  31.682  28.323  1.00  0.00     0.010 A 
ATOM     43  C   UNL A   1      35.726  29.398  28.536  1.00  0.00     0.010 A 
ATOM     44  C   UNL A   1      36.707  30.370  28.785  1.00  0.00    -0.014 A 
BRANCH  44  45
ATOM     45  C   UNL A   1      37.927  29.991  29.537  1.00  0.00     0.031 A 
ATOM     46  C   UNL A   1      38.138  30.502  30.934  1.00  0.00     0.074 A 
ATOM     47  C   UNL A   1      38.889  29.269  28.929  1.00  0.00     0.049 A 
ATOM     48  N   UNL A   1      39.172  30.356  31.721  1.00  0.00    -0.248 NA
ATOM     49  C   UNL A   1      37.057  31.320  31.507  1.00  0.00     0.031 C 
ATOM     50  C   UNL A   1      38.838  28.780  27.550  1.00  0.00     0.029 A 
ATOM     51  N   UNL A   1      40.107  28.837  29.390  1.00  0.00    -0.354 N 
ATOM     52  C   UNL A   1      38.879  31.086  32.865  1.00  0.00     0.074 A 
ATOM     53  C   UNL A   1      37.596  31.716  32.650  1.00  0.00     0.031 C 
ATOM     54  C   UNL A   1      39.965  28.102  27.281  1.00  0.00     0.029 A 
ATOM     55  C   UNL A   1      40.830  28.134  28.457  1.00  0.00     0.049 A 
ATOM     56  H   UNL A   1      40.432  29.014  30.302  1.00  0.00     0.167 HD
ATOM     57  C   UNL A   1      39.605  31.202  34.003  1.00  0.00     0.037 A 
ATOM     58  C   UNL A   1      42.056  27.582  28.538  1.00  0.00     0.037 A 
ATOM     59  C   UNL A   1      40.860  30.539  34.229  1.00  0.00     0.049 A 
ATOM     60  C   UNL A   1      42.822  27.684  29.827  1.00  0.00     0.074 A 
ATOM     61  C   UNL A   1      41.626  30.510  35.381  1.00  0.00     0.029 A 
ATOM     62  N   UNL A   1      41.538  29.789  33.279  1.00  0.00    -0.354 N 
ATOM     63  N   UNL A   1      42.492  28.297  30.937  1.00  0.00    -0.248 NA
ATOM     64  C   UNL A   1      44.127  27.009  29.878  1.00  0.00     0.031 C 
ATOM     65  C   UNL A   1      42.788  29.778  35.116  1.00  0.00     0.029 A 
ATOM     66  C   UNL A   1      42.724  29.313  33.812  1.00  0.00     0.049 A 
ATOM     67  H   UNL A   1      41.223  29.622  32.361  1.00  0.00     0.167 HD
ATOM     68  C   UNL A   1      43.535  28.066  31.824  1.00  0.00     0.074 A 
ATOM     69  C   UNL A   1      44.502  27.243  31.128  1.00  0.00     0.031 C 
ATOM     70  C   UNL A   1      43.676  28.496  33.102  1.00  0.00     0.037 A 
BRANCH  57  71
ATOM     71  C   UNL A   1      39.047  32.078  35.088  1.00  0.00     0.057 A 
ATOM     72  C   UNL A   1      38.321  31.553  36.165  1.00  0.00     0.134 A 
ATOM     73  C   UNL A   1      39.248  33.463  35.058  1.00  0.00     0.134 A 
ATOM     74  F   UNL A   1      38.081  30.235  36.246  1.00  0.00    -0.206 F 
ATOM     75  C   UNL A   1      37.782  32.379  37.155  1.00  0.00     0.040 A 
ATOM     76  C   UNL A   1      38.741  34.295  36.058  1.00  0.00     0.040 A 
ATOM     77  F   UNL A   1      39.940  34.031  34.059  1.00  0.00    -0.206 F 
ATOM     78  C   UNL A   1      37.997  33.754  37.104  1.00  0.00     0.006 A 
ENDBRANCH  57  71
BRANCH  58  79
ATOM     79  C   UNL A   1      42.616  26.858  27.370  1.00  0.00     0.057 A 
ATOM     80  C   UNL A   1      42.131  25.599  27.001  1.00  0.00     0.134 A 
ATOM     81  C   UNL A   1      43.631  27.416  26.585  1.00  0.00     0.134 A 
ATOM     82  F   UNL A   1      41.169  25.007  27.726  1.00  0.00    -0.206 F 
ATOM     83  C   UNL A   1      42.643  24.912  25.899  1.00  0.00     0.040 A 
ATOM     84  C   UNL A   1      44.138  26.750  25.467  1.00  0.00     0.040 A 
ATOM     85  F   UNL A   1      44.131  28.624  26.881  1.00  0.00    -0.206 F 
ATOM     86  C   UNL A   1      43.646  25.492  25.124  1.00  0.00     0.006 A 
ENDBRANCH  58  79
BRANCH  70  87
ATOM     87  C   UNL A   1      44.911  28.067  33.838  1.00  0.00     0.057 A 
ATOM     88  C   UNL A   1      46.061  28.865  33.875  1.00  0.00     0.134 A 
ATOM     89  C   UNL A   1      44.933  26.864  34.554  1.00  0.00     0.134 A 
ATOM     90  F   UNL A   1      46.108  30.023  33.199  1.00  0.00    -0.206 F 
ATOM     91  C   UNL A   1      47.197  28.472  34.585  1.00  0.00     0.040 A 
ATOM     92  C   UNL A   1      46.054  26.472  35.287  1.00  0.00     0.040 A 
ATOM     93  F   UNL A   1      43.861  26.058  34.566  1.00  0.00    -0.206 F 
ATOM     94  C   UNL A   1      47.192  27.277  35.301  1.00  0.00     0.006 A 
ENDBRANCH  70  87
ENDBRANCH  44  45
ENDBRANCH  36  39
ENDBRANCH  34  35
ENDBRANCH  33  34
ENDBRANCH  32  33
ENDBRANCH  31  32
ENDBRANCH  29  31
ENDBRANCH   1  27
TORSDOF 20
ENDMDL
