MODEL 1
REMARK VINA RESULT:     -13.2      0.000      0.000
REMARK SMILES O=C(NCCCCNC(=O)[C@H]1[C@H](C(=O)NC2CC[NH+](Cc3ccccc3)CC2)[C@H]2C=C[C@@H]1C2)c1ccc(-c2c3nc(c(-c4c(F)cccc4F)c4ccc([nH]4)c(-c4c(F)cccc4F)c4nc(c(-c5c(F)cccc5F)c5ccc2[nH]5)C=C4)C=C3)cc1
REMARK SMILES IDX 6 1 5 2 4 3 3 4 1 5 2 6 34 8 35 9 87 10 36 11 86 12 37 13
REMARK SMILES IDX 38 14 39 15 80 16 40 17 85 18 79 19 81 20 41 21 84 22 78 23
REMARK SMILES IDX 77 24 42 26 68 27 51 28 67 29 52 30 55 31 66 32 82 33 53 34
REMARK SMILES IDX 54 35 65 37 83 38 56 39 43 40 44 41 49 42 45 43 46 44 48 45
REMARK SMILES IDX 50 46 47 47 69 48 70 49 75 50 71 51 72 52 74 53 76 54 73 55
REMARK SMILES IDX 57 56 58 57 63 58 59 59 60 60 62 61 64 62 61 63 7 64 8 65
REMARK SMILES IDX 9 66 10 68 11 69 12 70 32 71 29 72 31 73 33 74 30 75 13 76
REMARK SMILES IDX 14 77 15 78 16 80 17 81 28 82 18 83 27 84 19 85 20 87 21 88
REMARK SMILES IDX 22 89 26 90 23 91 25 92 24 93
REMARK H PARENT 3 7 81 25 55 36 8 67 15 79 19 86
REMARK Flexibility Score: inf
ROOT
ATOM      1  C   UNL A   1      31.139  30.813  25.500  1.00  0.00     0.023 C 
ENDROOT
BRANCH   1   2
ATOM      2  C   UNL A   1      31.074  32.029  26.423  1.00  0.00     0.023 C 
BRANCH   2   3
ATOM      3  C   UNL A   1      32.413  32.560  26.919  1.00  0.00     0.116 C 
BRANCH   3   4
ATOM      4  N   UNL A   1      32.341  33.924  27.422  1.00  0.00    -0.352 N 
ATOM      5  O   UNL A   1      32.794  35.684  28.760  1.00  0.00    -0.269 OA
ATOM      6  C   UNL A   1      33.095  34.555  28.381  1.00  0.00     0.251 C 
ATOM      7  H   UNL A   1      31.642  34.481  27.009  1.00  0.00     0.163 HD
BRANCH   6   8
ATOM      8  C   UNL A   1      34.258  33.869  28.984  1.00  0.00     0.039 A 
ATOM      9  C   UNL A   1      35.556  34.316  28.738  1.00  0.00     0.014 A 
ATOM     10  C   UNL A   1      34.042  32.774  29.827  1.00  0.00     0.014 A 
ATOM     11  C   UNL A   1      36.641  33.578  29.199  1.00  0.00     0.010 A 
ATOM     12  C   UNL A   1      35.133  32.090  30.371  1.00  0.00     0.010 A 
ATOM     13  C   UNL A   1      36.441  32.472  30.040  1.00  0.00    -0.014 A 
BRANCH  13  14
ATOM     14  C   UNL A   1      37.618  31.803  30.647  1.00  0.00     0.031 A 
ATOM     15  C   UNL A   1      38.411  30.775  29.892  1.00  0.00     0.074 A 
ATOM     16  C   UNL A   1      37.962  32.142  31.904  1.00  0.00     0.049 A 
ATOM     17  N   UNL A   1      39.444  30.079  30.296  1.00  0.00    -0.248 NA
ATOM     18  C   UNL A   1      37.994  30.481  28.512  1.00  0.00     0.031 C 
ATOM     19  C   UNL A   1      37.248  33.115  32.737  1.00  0.00     0.029 A 
ATOM     20  N   UNL A   1      38.991  31.716  32.703  1.00  0.00    -0.354 N 
ATOM     21  C   UNL A   1      39.783  29.248  29.236  1.00  0.00     0.074 A 
ATOM     22  C   UNL A   1      38.842  29.520  28.169  1.00  0.00     0.031 C 
ATOM     23  C   UNL A   1      37.876  33.232  33.915  1.00  0.00     0.029 A 
ATOM     24  C   UNL A   1      38.990  32.295  33.949  1.00  0.00     0.049 A 
ATOM     25  H   UNL A   1      39.666  31.061  32.412  1.00  0.00     0.167 HD
ATOM     26  C   UNL A   1      40.789  28.344  29.166  1.00  0.00     0.037 A 
ATOM     27  C   UNL A   1      39.772  32.067  35.019  1.00  0.00     0.037 A 
ATOM     28  C   UNL A   1      41.740  28.109  30.223  1.00  0.00     0.049 A 
ATOM     29  C   UNL A   1      40.860  31.042  34.917  1.00  0.00     0.074 A 
ATOM     30  C   UNL A   1      42.851  27.282  30.212  1.00  0.00     0.029 A 
ATOM     31  N   UNL A   1      41.686  28.689  31.481  1.00  0.00    -0.354 N 
ATOM     32  N   UNL A   1      41.206  30.311  33.886  1.00  0.00    -0.248 NA
ATOM     33  C   UNL A   1      41.654  30.797  36.127  1.00  0.00     0.031 C 
ATOM     34  C   UNL A   1      43.439  27.323  31.481  1.00  0.00     0.029 A 
ATOM     35  C   UNL A   1      42.718  28.205  32.268  1.00  0.00     0.049 A 
ATOM     36  H   UNL A   1      41.014  29.348  31.771  1.00  0.00     0.167 HD
ATOM     37  C   UNL A   1      42.256  29.517  34.322  1.00  0.00     0.074 A 
ATOM     38  C   UNL A   1      42.510  29.879  35.702  1.00  0.00     0.031 C 
ATOM     39  C   UNL A   1      42.942  28.566  33.643  1.00  0.00     0.037 A 
BRANCH  26  40
ATOM     40  C   UNL A   1      40.921  27.520  27.919  1.00  0.00     0.057 A 
ATOM     41  C   UNL A   1      41.698  27.937  26.833  1.00  0.00     0.134 A 
ATOM     42  C   UNL A   1      40.340  26.246  27.850  1.00  0.00     0.134 A 
ATOM     43  F   UNL A   1      42.277  29.147  26.835  1.00  0.00    -0.206 F 
ATOM     44  C   UNL A   1      41.890  27.117  25.718  1.00  0.00     0.040 A 
ATOM     45  C   UNL A   1      40.540  25.411  26.750  1.00  0.00     0.040 A 
ATOM     46  F   UNL A   1      39.591  25.785  28.862  1.00  0.00    -0.206 F 
ATOM     47  C   UNL A   1      41.319  25.846  25.680  1.00  0.00     0.006 A 
ENDBRANCH  26  40
BRANCH  27  48
ATOM     48  C   UNL A   1      39.513  32.791  36.288  1.00  0.00     0.057 A 
ATOM     49  C   UNL A   1      40.185  33.976  36.601  1.00  0.00     0.134 A 
ATOM     50  C   UNL A   1      38.576  32.314  37.213  1.00  0.00     0.134 A 
ATOM     51  F   UNL A   1      41.107  34.472  35.763  1.00  0.00    -0.206 F 
ATOM     52  C   UNL A   1      39.943  34.657  37.795  1.00  0.00     0.040 A 
ATOM     53  C   UNL A   1      38.303  32.999  38.397  1.00  0.00     0.040 A 
ATOM     54  F   UNL A   1      37.893  31.186  36.966  1.00  0.00    -0.206 F 
ATOM     55  C   UNL A   1      38.994  34.171  38.693  1.00  0.00     0.006 A 
ENDBRANCH  27  48
BRANCH  39  56
ATOM     56  C   UNL A   1      44.025  27.852  34.392  1.00  0.00     0.057 A 
ATOM     57  C   UNL A   1      45.319  28.378  34.478  1.00  0.00     0.134 A 
ATOM     58  C   UNL A   1      43.766  26.646  35.056  1.00  0.00     0.134 A 
ATOM     59  F   UNL A   1      45.632  29.520  33.847  1.00  0.00    -0.206 F 
ATOM     60  C   UNL A   1      46.326  27.721  35.185  1.00  0.00     0.040 A 
ATOM     61  C   UNL A   1      44.758  25.992  35.785  1.00  0.00     0.040 A 
ATOM     62  F   UNL A   1      42.543  26.095  35.014  1.00  0.00    -0.206 F 
ATOM     63  C   UNL A   1      46.044  26.526  35.847  1.00  0.00     0.006 A 
ENDBRANCH  39  56
ENDBRANCH  13  14
ENDBRANCH   6   8
ENDBRANCH   3   4
ENDBRANCH   2   3
ENDBRANCH   1   2
BRANCH   1  64
ATOM     64  C   UNL A   1      32.287  29.839  25.750  1.00  0.00     0.116 C 
BRANCH  64  65
ATOM     65  N   UNL A   1      33.224  29.707  24.652  1.00  0.00    -0.356 N 
ATOM     66  C   UNL A   1      33.298  28.794  23.647  1.00  0.00     0.224 C 
ATOM     67  H   UNL A   1      33.926  30.396  24.630  1.00  0.00     0.163 HD
ATOM     68  O   UNL A   1      34.165  29.010  22.791  1.00  0.00    -0.275 OA
BRANCH  66  69
ATOM     69  C   UNL A   1      32.493  27.490  23.603  1.00  0.00     0.098 C 
ATOM     70  C   UNL A   1      31.478  27.154  24.722  1.00  0.00     0.098 C 
ATOM     71  C   UNL A   1      31.557  27.503  22.343  1.00  0.00     0.025 C 
ATOM     72  C   UNL A   1      30.167  26.833  23.961  1.00  0.00     0.025 C 
ATOM     73  C   UNL A   1      30.510  28.590  22.508  1.00  0.00    -0.027 C 
ATOM     74  C   UNL A   1      30.621  26.320  22.595  1.00  0.00     0.017 C 
ATOM     75  C   UNL A   1      29.661  28.181  23.466  1.00  0.00    -0.027 C 
BRANCH  70  76
ATOM     76  C   UNL A   1      31.926  26.187  25.814  1.00  0.00     0.224 C 
ATOM     77  O   UNL A   1      31.308  26.180  26.888  1.00  0.00    -0.275 OA
ATOM     78  N   UNL A   1      33.015  25.381  25.758  1.00  0.00    -0.353 N 
ATOM     79  H   UNL A   1      33.446  25.217  26.628  1.00  0.00     0.163 HD
BRANCH  78  80
ATOM     80  C   UNL A   1      33.659  24.714  24.632  1.00  0.00     0.093 C 
ATOM     81  C   UNL A   1      32.663  23.786  23.936  1.00  0.00     0.086 C 
ATOM     82  C   UNL A   1      34.939  23.973  25.005  1.00  0.00     0.086 C 
ATOM     83  C   UNL A   1      32.446  22.498  24.730  1.00  0.00     0.264 C 
ATOM     84  C   UNL A   1      34.669  22.652  25.712  1.00  0.00     0.264 C 
ATOM     85  N   UNL A   1      33.719  21.814  24.970  1.00  0.00    -0.331 N 
ATOM     86  H   UNL A   1      34.133  21.648  24.052  1.00  0.00     0.348 HD
BRANCH  85  87
ATOM     87  C   UNL A   1      33.542  20.481  25.585  1.00  0.00     0.299 C 
BRANCH  87  88
ATOM     88  C   UNL A   1      33.624  19.304  24.632  1.00  0.00     0.006 A 
ATOM     89  C   UNL A   1      34.732  18.442  24.677  1.00  0.00     0.009 A 
ATOM     90  C   UNL A   1      32.572  19.005  23.757  1.00  0.00     0.009 A 
ATOM     91  C   UNL A   1      34.763  17.284  23.901  1.00  0.00     0.001 A 
ATOM     92  C   UNL A   1      32.601  17.843  22.985  1.00  0.00     0.001 A 
ATOM     93  C   UNL A   1      33.692  16.979  23.065  1.00  0.00     0.000 A 
ENDBRANCH  87  88
ENDBRANCH  85  87
ENDBRANCH  78  80
ENDBRANCH  70  76
ENDBRANCH  66  69
ENDBRANCH  64  65
ENDBRANCH   1  64
TORSDOF 15
ENDMDL
MODEL 2
REMARK VINA RESULT:     -13.0      0.354      6.044
REMARK SMILES O=C(NCCCCNC(=O)[C@H]1[C@H](C(=O)NC2CC[NH+](Cc3ccccc3)CC2)[C@H]2C=C[C@@H]1C2)c1ccc(-c2c3nc(c(-c4c(F)cccc4F)c4ccc([nH]4)c(-c4c(F)cccc4F)c4nc(c(-c5c(F)cccc5F)c5ccc2[nH]5)C=C4)C=C3)cc1
REMARK SMILES IDX 6 1 5 2 4 3 3 4 1 5 2 6 34 8 35 9 87 10 36 11 86 12 37 13
REMARK SMILES IDX 38 14 39 15 80 16 40 17 85 18 79 19 81 20 41 21 84 22 78 23
REMARK SMILES IDX 77 24 42 26 68 27 51 28 67 29 52 30 55 31 66 32 82 33 53 34
REMARK SMILES IDX 54 35 65 37 83 38 56 39 43 40 44 41 49 42 45 43 46 44 48 45
REMARK SMILES IDX 50 46 47 47 69 48 70 49 75 50 71 51 72 52 74 53 76 54 73 55
REMARK SMILES IDX 57 56 58 57 63 58 59 59 60 60 62 61 64 62 61 63 7 64 8 65
REMARK SMILES IDX 9 66 10 68 11 69 12 70 32 71 29 72 31 73 33 74 30 75 13 76
REMARK SMILES IDX 14 77 15 78 16 80 17 81 28 82 18 83 27 84 19 85 20 87 21 88
REMARK SMILES IDX 22 89 26 90 23 91 25 92 24 93
REMARK H PARENT 3 7 81 25 55 36 8 67 15 79 19 86
REMARK Flexibility Score: inf
ROOT
ATOM      1  C   UNL A   1      31.223  30.738  25.586  1.00  0.00     0.023 C 
ENDROOT
BRANCH   1   2
ATOM      2  C   UNL A   1      31.163  31.962  26.499  1.00  0.00     0.023 C 
BRANCH   2   3
ATOM      3  C   UNL A   1      32.505  32.586  26.864  1.00  0.00     0.116 C 
BRANCH   3   4
ATOM      4  N   UNL A   1      32.384  33.921  27.428  1.00  0.00    -0.352 N 
ATOM      5  O   UNL A   1      32.742  35.621  28.870  1.00  0.00    -0.269 OA
ATOM      6  C   UNL A   1      33.081  34.517  28.451  1.00  0.00     0.251 C 
ATOM      7  H   UNL A   1      31.696  34.487  27.010  1.00  0.00     0.163 HD
BRANCH   6   8
ATOM      8  C   UNL A   1      34.227  33.821  29.075  1.00  0.00     0.039 A 
ATOM      9  C   UNL A   1      34.023  32.743  29.935  1.00  0.00     0.014 A 
ATOM     10  C   UNL A   1      35.526  34.242  28.774  1.00  0.00     0.014 A 
ATOM     11  C   UNL A   1      35.100  32.190  30.619  1.00  0.00     0.010 A 
ATOM     12  C   UNL A   1      36.618  33.620  29.389  1.00  0.00     0.010 A 
ATOM     13  C   UNL A   1      36.411  32.606  30.335  1.00  0.00    -0.014 A 
BRANCH  13  14
ATOM     14  C   UNL A   1      37.549  31.888  30.959  1.00  0.00     0.031 A 
ATOM     15  C   UNL A   1      38.013  32.213  32.350  1.00  0.00     0.074 A 
ATOM     16  C   UNL A   1      38.163  30.927  30.242  1.00  0.00     0.049 A 
ATOM     17  N   UNL A   1      39.012  31.699  33.021  1.00  0.00    -0.248 NA
ATOM     18  C   UNL A   1      37.272  33.252  33.083  1.00  0.00     0.031 C 
ATOM     19  C   UNL A   1      37.806  30.543  28.873  1.00  0.00     0.029 A 
ATOM     20  N   UNL A   1      39.209  30.098  30.556  1.00  0.00    -0.354 N 
ATOM     21  C   UNL A   1      39.038  32.365  34.240  1.00  0.00     0.074 A 
ATOM     22  C   UNL A   1      37.958  33.329  34.216  1.00  0.00     0.031 C 
ATOM     23  C   UNL A   1      38.598  29.538  28.476  1.00  0.00     0.029 A 
ATOM     24  C   UNL A   1      39.562  29.255  29.530  1.00  0.00     0.049 A 
ATOM     25  H   UNL A   1      39.661  30.106  31.429  1.00  0.00     0.167 HD
ATOM     26  C   UNL A   1      39.888  32.183  35.278  1.00  0.00     0.037 A 
ATOM     27  C   UNL A   1      40.576  28.378  29.430  1.00  0.00     0.037 A 
ATOM     28  C   UNL A   1      40.938  31.195  35.302  1.00  0.00     0.049 A 
ATOM     29  C   UNL A   1      41.515  28.219  30.587  1.00  0.00     0.074 A 
ATOM     30  C   UNL A   1      41.789  30.870  36.344  1.00  0.00     0.029 A 
ATOM     31  N   UNL A   1      41.285  30.383  34.233  1.00  0.00    -0.354 N 
ATOM     32  N   UNL A   1      41.486  28.813  31.756  1.00  0.00    -0.248 NA
ATOM     33  C   UNL A   1      42.633  27.285  30.410  1.00  0.00     0.031 C 
ATOM     34  C   UNL A   1      42.687  29.898  35.888  1.00  0.00     0.029 A 
ATOM     35  C   UNL A   1      42.368  29.590  34.577  1.00  0.00     0.049 A 
ATOM     36  H   UNL A   1      40.830  30.372  33.360  1.00  0.00     0.167 HD
ATOM     37  C   UNL A   1      42.582  28.327  32.453  1.00  0.00     0.074 A 
ATOM     38  C   UNL A   1      43.237  27.367  31.588  1.00  0.00     0.031 C 
ATOM     39  C   UNL A   1      43.013  28.653  33.694  1.00  0.00     0.037 A 
BRANCH  26  40
ATOM     40  C   UNL A   1      39.746  33.071  36.479  1.00  0.00     0.057 A 
ATOM     41  C   UNL A   1      40.454  34.271  36.602  1.00  0.00     0.134 A 
ATOM     42  C   UNL A   1      38.811  32.765  37.477  1.00  0.00     0.134 A 
ATOM     43  F   UNL A   1      41.367  34.620  35.683  1.00  0.00    -0.206 F 
ATOM     44  C   UNL A   1      40.241  35.136  37.679  1.00  0.00     0.040 A 
ATOM     45  C   UNL A   1      38.576  33.629  38.547  1.00  0.00     0.040 A 
ATOM     46  F   UNL A   1      38.094  31.633  37.413  1.00  0.00    -0.206 F 
ATOM     47  C   UNL A   1      39.292  34.820  38.649  1.00  0.00     0.006 A 
ENDBRANCH  26  40
BRANCH  27  48
ATOM     48  C   UNL A   1      40.780  27.628  28.167  1.00  0.00     0.057 A 
ATOM     49  C   UNL A   1      40.195  26.375  27.961  1.00  0.00     0.134 A 
ATOM     50  C   UNL A   1      41.559  28.156  27.130  1.00  0.00     0.134 A 
ATOM     51  F   UNL A   1      39.452  25.809  28.924  1.00  0.00    -0.206 F 
ATOM     52  C   UNL A   1      40.386  25.667  26.773  1.00  0.00     0.040 A 
ATOM     53  C   UNL A   1      41.735  27.473  25.926  1.00  0.00     0.040 A 
ATOM     54  F   UNL A   1      42.140  29.358  27.264  1.00  0.00    -0.206 F 
ATOM     55  C   UNL A   1      41.153  26.221  25.749  1.00  0.00     0.006 A 
ENDBRANCH  27  48
BRANCH  39  56
ATOM     56  C   UNL A   1      44.254  27.969  34.179  1.00  0.00     0.057 A 
ATOM     57  C   UNL A   1      44.197  26.724  34.815  1.00  0.00     0.134 A 
ATOM     58  C   UNL A   1      45.516  28.544  33.985  1.00  0.00     0.134 A 
ATOM     59  F   UNL A   1      43.015  26.131  35.046  1.00  0.00    -0.206 F 
ATOM     60  C   UNL A   1      45.353  26.078  35.256  1.00  0.00     0.040 A 
ATOM     61  C   UNL A   1      46.680  27.899  34.401  1.00  0.00     0.040 A 
ATOM     62  F   UNL A   1      45.635  29.735  33.377  1.00  0.00    -0.206 F 
ATOM     63  C   UNL A   1      46.599  26.664  35.043  1.00  0.00     0.006 A 
ENDBRANCH  39  56
ENDBRANCH  13  14
ENDBRANCH   6   8
ENDBRANCH   3   4
ENDBRANCH   2   3
ENDBRANCH   1   2
BRANCH   1  64
ATOM     64  C   UNL A   1      32.407  29.797  25.797  1.00  0.00     0.116 C 
BRANCH  64  65
ATOM     65  N   UNL A   1      33.302  29.680  24.664  1.00  0.00    -0.356 N 
ATOM     66  C   UNL A   1      33.341  28.780  23.646  1.00  0.00     0.224 C 
ATOM     67  H   UNL A   1      34.001  30.372  24.624  1.00  0.00     0.163 HD
ATOM     68  O   UNL A   1      34.175  29.008  22.761  1.00  0.00    -0.275 OA
BRANCH  66  69
ATOM     69  C   UNL A   1      32.537  27.474  23.617  1.00  0.00     0.098 C 
ATOM     70  C   UNL A   1      31.531  27.144  24.746  1.00  0.00     0.098 C 
ATOM     71  C   UNL A   1      31.592  27.477  22.364  1.00  0.00     0.025 C 
ATOM     72  C   UNL A   1      30.215  26.816  23.997  1.00  0.00     0.025 C 
ATOM     73  C   UNL A   1      30.544  28.564  22.529  1.00  0.00    -0.027 C 
ATOM     74  C   UNL A   1      30.660  26.294  22.631  1.00  0.00     0.017 C 
ATOM     75  C   UNL A   1      29.704  28.160  23.497  1.00  0.00    -0.027 C 
BRANCH  70  76
ATOM     76  C   UNL A   1      31.989  26.185  25.842  1.00  0.00     0.224 C 
ATOM     77  O   UNL A   1      31.356  26.158  26.906  1.00  0.00    -0.275 OA
ATOM     78  N   UNL A   1      33.100  25.408  25.798  1.00  0.00    -0.353 N 
ATOM     79  H   UNL A   1      33.522  25.253  26.673  1.00  0.00     0.163 HD
BRANCH  78  80
ATOM     80  C   UNL A   1      33.776  24.762  24.680  1.00  0.00     0.093 C 
ATOM     81  C   UNL A   1      32.812  23.820  23.959  1.00  0.00     0.086 C 
ATOM     82  C   UNL A   1      35.064  24.043  25.071  1.00  0.00     0.086 C 
ATOM     83  C   UNL A   1      32.606  22.523  24.739  1.00  0.00     0.264 C 
ATOM     84  C   UNL A   1      34.807  22.713  25.763  1.00  0.00     0.264 C 
ATOM     85  N   UNL A   1      33.887  21.861  24.998  1.00  0.00    -0.331 N 
ATOM     86  H   UNL A   1      34.321  21.710  24.086  1.00  0.00     0.348 HD
BRANCH  85  87
ATOM     87  C   UNL A   1      33.725  20.521  25.599  1.00  0.00     0.299 C 
BRANCH  87  88
ATOM     88  C   UNL A   1      33.639  19.368  24.618  1.00  0.00     0.006 A 
ATOM     89  C   UNL A   1      34.624  18.367  24.625  1.00  0.00     0.009 A 
ATOM     90  C   UNL A   1      32.546  19.233  23.752  1.00  0.00     0.009 A 
ATOM     91  C   UNL A   1      34.492  17.235  23.822  1.00  0.00     0.001 A 
ATOM     92  C   UNL A   1      32.412  18.097  22.953  1.00  0.00     0.001 A 
ATOM     93  C   UNL A   1      33.380  17.095  22.995  1.00  0.00     0.000 A 
ENDBRANCH  87  88
ENDBRANCH  85  87
ENDBRANCH  78  80
ENDBRANCH  70  76
ENDBRANCH  66  69
ENDBRANCH  64  65
ENDBRANCH   1  64
TORSDOF 15
ENDMDL
MODEL 3
REMARK VINA RESULT:     -12.8      4.645     10.359
REMARK SMILES O=C(NCCCCNC(=O)[C@H]1[C@H](C(=O)NC2CC[NH+](Cc3ccccc3)CC2)[C@H]2C=C[C@@H]1C2)c1ccc(-c2c3nc(c(-c4c(F)cccc4F)c4ccc([nH]4)c(-c4c(F)cccc4F)c4nc(c(-c5c(F)cccc5F)c5ccc2[nH]5)C=C4)C=C3)cc1
REMARK SMILES IDX 6 1 5 2 4 3 3 4 1 5 2 6 34 8 35 9 87 10 36 11 86 12 37 13
REMARK SMILES IDX 38 14 39 15 80 16 40 17 85 18 79 19 81 20 41 21 84 22 78 23
REMARK SMILES IDX 77 24 42 26 68 27 51 28 67 29 52 30 55 31 66 32 82 33 53 34
REMARK SMILES IDX 54 35 65 37 83 38 56 39 43 40 44 41 49 42 45 43 46 44 48 45
REMARK SMILES IDX 50 46 47 47 69 48 70 49 75 50 71 51 72 52 74 53 76 54 73 55
REMARK SMILES IDX 57 56 58 57 63 58 59 59 60 60 62 61 64 62 61 63 7 64 8 65
REMARK SMILES IDX 9 66 10 68 11 69 12 70 32 71 29 72 31 73 33 74 30 75 13 76
REMARK SMILES IDX 14 77 15 78 16 80 17 81 28 82 18 83 27 84 19 85 20 87 21 88
REMARK SMILES IDX 22 89 26 90 23 91 25 92 24 93
REMARK H PARENT 3 7 81 25 55 36 8 67 15 79 19 86
REMARK Flexibility Score: inf
ROOT
ATOM      1  C   UNL A   1      36.803  19.978  25.005  1.00  0.00     0.023 C 
ENDROOT
BRANCH   1   2
ATOM      2  C   UNL A   1      38.113  19.193  24.962  1.00  0.00     0.023 C 
BRANCH   2   3
ATOM      3  C   UNL A   1      39.265  19.776  25.771  1.00  0.00     0.116 C 
BRANCH   3   4
ATOM      4  N   UNL A   1      40.406  18.879  25.876  1.00  0.00    -0.352 N 
ATOM      5  O   UNL A   1      42.569  18.263  26.068  1.00  0.00    -0.269 OA
ATOM      6  C   UNL A   1      41.725  19.151  26.149  1.00  0.00     0.251 C 
ATOM      7  H   UNL A   1      40.200  17.927  25.731  1.00  0.00     0.163 HD
BRANCH   6   8
ATOM      8  C   UNL A   1      42.141  20.522  26.514  1.00  0.00     0.039 A 
ATOM      9  C   UNL A   1      42.158  20.932  27.847  1.00  0.00     0.014 A 
ATOM     10  C   UNL A   1      42.543  21.404  25.505  1.00  0.00     0.014 A 
ATOM     11  C   UNL A   1      42.418  22.261  28.159  1.00  0.00     0.010 A 
ATOM     12  C   UNL A   1      42.900  22.716  25.831  1.00  0.00     0.010 A 
ATOM     13  C   UNL A   1      42.815  23.161  27.158  1.00  0.00    -0.014 A 
BRANCH  13  14
ATOM     14  C   UNL A   1      43.242  24.529  27.542  1.00  0.00     0.031 A 
ATOM     15  C   UNL A   1      42.246  25.573  27.959  1.00  0.00     0.074 A 
ATOM     16  C   UNL A   1      44.558  24.816  27.509  1.00  0.00     0.049 A 
ATOM     17  N   UNL A   1      42.459  26.821  28.292  1.00  0.00    -0.248 NA
ATOM     18  C   UNL A   1      40.830  25.175  28.002  1.00  0.00     0.031 C 
ATOM     19  C   UNL A   1      45.611  23.881  27.100  1.00  0.00     0.029 A 
ATOM     20  N   UNL A   1      45.238  25.964  27.822  1.00  0.00    -0.354 N 
ATOM     21  C   UNL A   1      41.209  27.365  28.557  1.00  0.00     0.074 A 
ATOM     22  C   UNL A   1      40.237  26.314  28.341  1.00  0.00     0.031 C 
ATOM     23  C   UNL A   1      46.803  24.482  27.214  1.00  0.00     0.029 A 
ATOM     24  C   UNL A   1      46.595  25.862  27.633  1.00  0.00     0.049 A 
ATOM     25  H   UNL A   1      44.798  26.780  28.150  1.00  0.00     0.167 HD
ATOM     26  C   UNL A   1      40.907  28.627  28.946  1.00  0.00     0.037 A 
ATOM     27  C   UNL A   1      47.565  26.787  27.744  1.00  0.00     0.037 A 
ATOM     28  C   UNL A   1      41.888  29.654  29.192  1.00  0.00     0.049 A 
ATOM     29  C   UNL A   1      47.195  28.180  28.152  1.00  0.00     0.074 A 
ATOM     30  C   UNL A   1      41.688  30.934  29.679  1.00  0.00     0.029 A 
ATOM     31  N   UNL A   1      43.248  29.523  28.958  1.00  0.00    -0.354 N 
ATOM     32  N   UNL A   1      46.014  28.660  28.459  1.00  0.00    -0.248 NA
ATOM     33  C   UNL A   1      48.283  29.164  28.212  1.00  0.00     0.031 C 
ATOM     34  C   UNL A   1      42.922  31.595  29.691  1.00  0.00     0.029 A 
ATOM     35  C   UNL A   1      43.893  30.713  29.250  1.00  0.00     0.049 A 
ATOM     36  H   UNL A   1      43.689  28.704  28.634  1.00  0.00     0.167 HD
ATOM     37  C   UNL A   1      46.216  30.002  28.747  1.00  0.00     0.074 A 
ATOM     38  C   UNL A   1      47.636  30.251  28.607  1.00  0.00     0.031 C 
ATOM     39  C   UNL A   1      45.305  30.944  29.088  1.00  0.00     0.037 A 
BRANCH  26  40
ATOM     40  C   UNL A   1      39.463  28.992  29.120  1.00  0.00     0.057 A 
ATOM     41  C   UNL A   1      38.671  29.419  28.049  1.00  0.00     0.134 A 
ATOM     42  C   UNL A   1      38.835  28.818  30.361  1.00  0.00     0.134 A 
ATOM     43  F   UNL A   1      39.213  29.610  26.836  1.00  0.00    -0.206 F 
ATOM     44  C   UNL A   1      37.304  29.663  28.205  1.00  0.00     0.040 A 
ATOM     45  C   UNL A   1      37.467  29.041  30.525  1.00  0.00     0.040 A 
ATOM     46  F   UNL A   1      39.537  28.402  31.426  1.00  0.00    -0.206 F 
ATOM     47  C   UNL A   1      36.698  29.464  29.444  1.00  0.00     0.006 A 
ENDBRANCH  26  40
BRANCH  27  48
ATOM     48  C   UNL A   1      48.966  26.429  27.413  1.00  0.00     0.057 A 
ATOM     49  C   UNL A   1      49.818  25.863  28.365  1.00  0.00     0.134 A 
ATOM     50  C   UNL A   1      49.480  26.637  26.127  1.00  0.00     0.134 A 
ATOM     51  F   UNL A   1      49.389  25.656  29.619  1.00  0.00    -0.206 F 
ATOM     52  C   UNL A   1      51.137  25.527  28.055  1.00  0.00     0.040 A 
ATOM     53  C   UNL A   1      50.787  26.280  25.794  1.00  0.00     0.040 A 
ATOM     54  F   UNL A   1      48.709  27.169  25.167  1.00  0.00    -0.206 F 
ATOM     55  C   UNL A   1      51.621  25.729  26.764  1.00  0.00     0.006 A 
ENDBRANCH  27  48
BRANCH  39  56
ATOM     56  C   UNL A   1      45.823  32.329  29.322  1.00  0.00     0.057 A 
ATOM     57  C   UNL A   1      45.839  33.284  28.299  1.00  0.00     0.134 A 
ATOM     58  C   UNL A   1      46.283  32.721  30.586  1.00  0.00     0.134 A 
ATOM     59  F   UNL A   1      45.427  32.963  27.063  1.00  0.00    -0.206 F 
ATOM     60  C   UNL A   1      46.309  34.579  28.519  1.00  0.00     0.040 A 
ATOM     61  C   UNL A   1      46.734  34.019  30.824  1.00  0.00     0.040 A 
ATOM     62  F   UNL A   1      46.289  31.852  31.608  1.00  0.00    -0.206 F 
ATOM     63  C   UNL A   1      46.753  34.951  29.787  1.00  0.00     0.006 A 
ENDBRANCH  39  56
ENDBRANCH  13  14
ENDBRANCH   6   8
ENDBRANCH   3   4
ENDBRANCH   2   3
ENDBRANCH   1   2
BRANCH   1  64
ATOM     64  C   UNL A   1      36.931  21.499  25.040  1.00  0.00     0.116 C 
BRANCH  64  65
ATOM     65  N   UNL A   1      36.442  22.179  23.858  1.00  0.00    -0.356 N 
ATOM     66  C   UNL A   1      35.307  22.897  23.646  1.00  0.00     0.224 C 
ATOM     67  H   UNL A   1      37.033  22.109  23.074  1.00  0.00     0.163 HD
ATOM     68  O   UNL A   1      35.220  23.447  22.541  1.00  0.00    -0.275 OA
BRANCH  66  69
ATOM     69  C   UNL A   1      34.117  22.936  24.612  1.00  0.00     0.098 C 
ATOM     70  C   UNL A   1      33.002  23.996  24.444  1.00  0.00     0.098 C 
ATOM     71  C   UNL A   1      33.292  21.608  24.469  1.00  0.00     0.025 C 
ATOM     72  C   UNL A   1      31.692  23.169  24.424  1.00  0.00     0.025 C 
ATOM     73  C   UNL A   1      32.660  21.557  23.089  1.00  0.00    -0.027 C 
ATOM     74  C   UNL A   1      32.007  21.914  25.239  1.00  0.00     0.017 C 
ATOM     75  C   UNL A   1      31.684  22.481  23.066  1.00  0.00    -0.027 C 
BRANCH  70  76
ATOM     76  C   UNL A   1      33.057  25.227  25.346  1.00  0.00     0.224 C 
ATOM     77  O   UNL A   1      33.376  25.076  26.533  1.00  0.00    -0.275 OA
ATOM     78  N   UNL A   1      32.696  26.484  24.990  1.00  0.00    -0.353 N 
ATOM     79  H   UNL A   1      32.318  27.022  25.722  1.00  0.00     0.163 HD
BRANCH  78  80
ATOM     80  C   UNL A   1      32.770  27.179  23.709  1.00  0.00     0.093 C 
ATOM     81  C   UNL A   1      32.484  28.667  23.905  1.00  0.00     0.086 C 
ATOM     82  C   UNL A   1      31.873  26.579  22.631  1.00  0.00     0.086 C 
ATOM     83  C   UNL A   1      30.991  28.931  24.098  1.00  0.00     0.264 C 
ATOM     84  C   UNL A   1      30.407  26.947  22.815  1.00  0.00     0.264 C 
ATOM     85  N   UNL A   1      30.217  28.394  22.977  1.00  0.00    -0.331 N 
ATOM     86  H   UNL A   1      30.591  28.832  22.134  1.00  0.00     0.348 HD
BRANCH  85  87
ATOM     87  C   UNL A   1      28.790  28.773  23.034  1.00  0.00     0.299 C 
BRANCH  87  88
ATOM     88  C   UNL A   1      28.466  30.177  22.561  1.00  0.00     0.006 A 
ATOM     89  C   UNL A   1      28.506  31.249  23.467  1.00  0.00     0.009 A 
ATOM     90  C   UNL A   1      28.207  30.444  21.210  1.00  0.00     0.009 A 
ATOM     91  C   UNL A   1      28.339  32.560  23.024  1.00  0.00     0.001 A 
ATOM     92  C   UNL A   1      28.047  31.758  20.766  1.00  0.00     0.001 A 
ATOM     93  C   UNL A   1      28.122  32.815  21.671  1.00  0.00     0.000 A 
ENDBRANCH  87  88
ENDBRANCH  85  87
ENDBRANCH  78  80
ENDBRANCH  70  76
ENDBRANCH  66  69
ENDBRANCH  64  65
ENDBRANCH   1  64
TORSDOF 15
ENDMDL
