MODEL 1
REMARK VINA RESULT:     -13.0      0.000      0.000
REMARK SMILES O=C(NCCCCNC(=O)[C@@H](CO)NC(=O)c1ccc2noc(-c3ccccc3)c2c1)c1ccc(-c2c3nc(c(-c4c(F)cccc4F)c4ccc([nH]4)c(-c4c(F)cccc4F)c4nc(c(-c5c(F)cccc5F)c5ccc2[nH]5)C=C4)C=C3)cc1
REMARK SMILES IDX 6 1 5 2 4 3 3 4 1 5 2 6 32 8 33 9 85 10 34 11 84 12 35 13
REMARK SMILES IDX 36 14 37 15 78 16 38 17 83 18 77 19 79 20 39 21 82 22 76 23
REMARK SMILES IDX 75 24 40 26 66 27 49 28 65 29 50 30 53 31 64 32 80 33 51 34
REMARK SMILES IDX 52 35 63 37 81 38 54 39 41 40 42 41 47 42 43 43 44 44 46 45
REMARK SMILES IDX 48 46 45 47 67 48 68 49 73 50 69 51 70 52 72 53 74 54 71 55
REMARK SMILES IDX 55 56 56 57 61 58 57 59 58 60 60 61 62 62 59 63 7 64 8 65
REMARK SMILES IDX 9 66 10 68 11 69 12 70 13 71 14 73 15 74 16 76 17 77 18 78
REMARK SMILES IDX 31 79 19 80 30 81 20 82 23 83 21 84 22 85 24 86 25 87 29 88
REMARK SMILES IDX 26 89 28 90 27 91
REMARK H PARENT 3 7 79 25 53 36 8 67 13 72 14 75
REMARK Flexibility Score: inf
ROOT
ATOM      1  C   UNL A   1      32.534  29.703  26.953  1.00  0.00     0.023 C 
ENDROOT
BRANCH   1   2
ATOM      2  C   UNL A   1      33.662  28.728  27.314  1.00  0.00     0.023 C 
BRANCH   2   3
ATOM      3  C   UNL A   1      35.061  29.325  27.375  1.00  0.00     0.116 C 
BRANCH   3   4
ATOM      4  N   UNL A   1      35.380  29.986  28.645  1.00  0.00    -0.352 N 
ATOM      5  O   UNL A   1      36.460  30.034  30.658  1.00  0.00    -0.269 OA
ATOM      6  C   UNL A   1      36.458  29.723  29.493  1.00  0.00     0.251 C 
ATOM      7  H   UNL A   1      34.764  30.698  28.932  1.00  0.00     0.163 HD
BRANCH   6   8
ATOM      8  C   UNL A   1      37.623  29.059  28.879  1.00  0.00     0.039 A 
ATOM      9  C   UNL A   1      38.280  29.573  27.761  1.00  0.00     0.014 A 
ATOM     10  C   UNL A   1      38.156  28.012  29.611  1.00  0.00     0.014 A 
ATOM     11  C   UNL A   1      39.560  29.097  27.468  1.00  0.00     0.010 A 
ATOM     12  C   UNL A   1      39.487  27.733  29.460  1.00  0.00     0.010 A 
ATOM     13  C   UNL A   1      40.188  28.207  28.356  1.00  0.00    -0.014 A 
BRANCH  13  14
ATOM     14  C   UNL A   1      41.595  27.823  28.204  1.00  0.00     0.031 A 
ATOM     15  C   UNL A   1      41.860  26.557  27.460  1.00  0.00     0.074 A 
ATOM     16  C   UNL A   1      42.628  28.623  28.560  1.00  0.00     0.049 A 
ATOM     17  N   UNL A   1      42.302  25.446  27.954  1.00  0.00    -0.248 NA
ATOM     18  C   UNL A   1      41.505  26.470  26.037  1.00  0.00     0.031 C 
ATOM     19  C   UNL A   1      42.605  29.998  29.078  1.00  0.00     0.029 A 
ATOM     20  N   UNL A   1      43.963  28.383  28.441  1.00  0.00    -0.354 N 
ATOM     21  C   UNL A   1      42.477  24.579  26.878  1.00  0.00     0.074 A 
ATOM     22  C   UNL A   1      41.822  25.201  25.758  1.00  0.00     0.031 C 
ATOM     23  C   UNL A   1      43.831  30.549  28.983  1.00  0.00     0.029 A 
ATOM     24  C   UNL A   1      44.763  29.505  28.616  1.00  0.00     0.049 A 
ATOM     25  H   UNL A   1      44.330  27.491  28.246  1.00  0.00     0.167 HD
ATOM     26  C   UNL A   1      43.348  23.532  26.957  1.00  0.00     0.037 A 
ATOM     27  C   UNL A   1      46.110  29.585  28.514  1.00  0.00     0.037 A 
ATOM     28  C   UNL A   1      43.720  23.268  28.327  1.00  0.00     0.049 A 
ATOM     29  C   UNL A   1      46.640  28.215  28.702  1.00  0.00     0.074 A 
ATOM     30  C   UNL A   1      43.032  22.949  29.483  1.00  0.00     0.029 A 
ATOM     31  N   UNL A   1      44.961  23.685  28.744  1.00  0.00    -0.354 N 
ATOM     32  N   UNL A   1      46.600  27.578  29.838  1.00  0.00    -0.248 NA
ATOM     33  C   UNL A   1      46.798  27.378  27.523  1.00  0.00     0.031 C 
ATOM     34  C   UNL A   1      43.701  23.672  30.517  1.00  0.00     0.029 A 
ATOM     35  C   UNL A   1      44.790  24.328  29.943  1.00  0.00     0.049 A 
ATOM     36  H   UNL A   1      45.813  23.548  28.270  1.00  0.00     0.167 HD
ATOM     37  C   UNL A   1      46.271  26.275  29.497  1.00  0.00     0.074 A 
ATOM     38  C   UNL A   1      46.517  26.187  28.059  1.00  0.00     0.031 C 
ATOM     39  C   UNL A   1      45.564  25.477  30.352  1.00  0.00     0.037 A 
BRANCH  26  40
ATOM     40  C   UNL A   1      44.172  23.000  25.805  1.00  0.00     0.057 A 
ATOM     41  C   UNL A   1      45.150  23.747  25.119  1.00  0.00     0.134 A 
ATOM     42  C   UNL A   1      44.230  21.608  25.593  1.00  0.00     0.134 A 
ATOM     43  F   UNL A   1      45.261  25.074  25.245  1.00  0.00    -0.206 F 
ATOM     44  C   UNL A   1      46.145  23.154  24.336  1.00  0.00     0.040 A 
ATOM     45  C   UNL A   1      45.253  21.001  24.853  1.00  0.00     0.040 A 
ATOM     46  F   UNL A   1      43.349  20.784  26.180  1.00  0.00    -0.206 F 
ATOM     47  C   UNL A   1      46.225  21.774  24.235  1.00  0.00     0.006 A 
ENDBRANCH  26  40
BRANCH  27  48
ATOM     48  C   UNL A   1      46.937  30.734  28.099  1.00  0.00     0.057 A 
ATOM     49  C   UNL A   1      47.694  31.464  29.033  1.00  0.00     0.134 A 
ATOM     50  C   UNL A   1      46.803  31.307  26.829  1.00  0.00     0.134 A 
ATOM     51  F   UNL A   1      47.835  31.037  30.297  1.00  0.00    -0.206 F 
ATOM     52  C   UNL A   1      48.257  32.707  28.732  1.00  0.00     0.040 A 
ATOM     53  C   UNL A   1      47.358  32.554  26.516  1.00  0.00     0.040 A 
ATOM     54  F   UNL A   1      46.076  30.699  25.881  1.00  0.00    -0.206 F 
ATOM     55  C   UNL A   1      48.076  33.265  27.473  1.00  0.00     0.006 A 
ENDBRANCH  27  48
BRANCH  39  56
ATOM     56  C   UNL A   1      45.374  25.963  31.763  1.00  0.00     0.057 A 
ATOM     57  C   UNL A   1      46.305  25.591  32.738  1.00  0.00     0.134 A 
ATOM     58  C   UNL A   1      44.250  26.677  32.206  1.00  0.00     0.134 A 
ATOM     59  F   UNL A   1      47.375  24.851  32.403  1.00  0.00    -0.206 F 
ATOM     60  C   UNL A   1      46.142  25.933  34.083  1.00  0.00     0.040 A 
ATOM     61  C   UNL A   1      44.091  27.055  33.544  1.00  0.00     0.040 A 
ATOM     62  F   UNL A   1      43.251  26.985  31.374  1.00  0.00    -0.206 F 
ATOM     63  C   UNL A   1      45.040  26.680  34.488  1.00  0.00     0.006 A 
ENDBRANCH  39  56
ENDBRANCH  13  14
ENDBRANCH   6   8
ENDBRANCH   3   4
ENDBRANCH   2   3
ENDBRANCH   1   2
BRANCH   1  64
ATOM     64  C   UNL A   1      31.971  29.640  25.524  1.00  0.00     0.116 C 
BRANCH  64  65
ATOM     65  N   UNL A   1      33.000  29.549  24.505  1.00  0.00    -0.354 N 
ATOM     66  C   UNL A   1      33.064  28.873  23.327  1.00  0.00     0.244 C 
ATOM     67  H   UNL A   1      33.805  30.079  24.704  1.00  0.00     0.163 HD
ATOM     68  O   UNL A   1      34.153  28.910  22.736  1.00  0.00    -0.273 OA
BRANCH  66  69
ATOM     69  C   UNL A   1      31.922  28.007  22.750  1.00  0.00     0.197 C 
BRANCH  69  70
ATOM     70  C   UNL A   1      30.678  28.848  22.430  1.00  0.00     0.191 C 
BRANCH  70  71
ATOM     71  O   UNL A   1      30.979  30.063  21.759  1.00  0.00    -0.394 OA
ATOM     72  H   UNL A   1      30.743  30.814  22.326  1.00  0.00     0.210 HD
ENDBRANCH  70  71
ENDBRANCH  69  70
BRANCH  69  73
ATOM     73  N   UNL A   1      32.326  27.102  21.665  1.00  0.00    -0.338 N 
ATOM     74  C   UNL A   1      32.752  25.797  21.740  1.00  0.00     0.252 C 
ATOM     75  H   UNL A   1      32.285  27.483  20.758  1.00  0.00     0.164 HD
ATOM     76  O   UNL A   1      33.280  25.260  20.771  1.00  0.00    -0.269 OA
BRANCH  74  77
ATOM     77  C   UNL A   1      32.602  25.030  23.003  1.00  0.00     0.040 A 
ATOM     78  C   UNL A   1      31.287  24.784  23.521  1.00  0.00     0.016 A 
ATOM     79  C   UNL A   1      33.782  24.550  23.614  1.00  0.00     0.028 A 
ATOM     80  C   UNL A   1      31.034  24.149  24.757  1.00  0.00     0.033 A 
ATOM     81  C   UNL A   1      33.498  23.907  24.819  1.00  0.00     0.050 A 
ATOM     82  C   UNL A   1      32.196  23.705  25.408  1.00  0.00     0.114 A 
ATOM     83  C   UNL A   1      34.384  23.263  25.641  1.00  0.00     0.174 A 
ATOM     84  N   UNL A   1      32.335  23.050  26.571  1.00  0.00    -0.079 NA
ATOM     85  O   UNL A   1      33.683  22.765  26.703  1.00  0.00    -0.355 OA
BRANCH  83  86
ATOM     86  C   UNL A   1      35.801  22.953  25.622  1.00  0.00     0.021 A 
ATOM     87  C   UNL A   1      36.725  23.902  26.083  1.00  0.00     0.012 A 
ATOM     88  C   UNL A   1      36.265  21.700  25.204  1.00  0.00     0.012 A 
ATOM     89  C   UNL A   1      38.085  23.597  26.145  1.00  0.00     0.001 A 
ATOM     90  C   UNL A   1      37.628  21.398  25.261  1.00  0.00     0.001 A 
ATOM     91  C   UNL A   1      38.535  22.343  25.737  1.00  0.00     0.000 A 
ENDBRANCH  83  86
ENDBRANCH  74  77
ENDBRANCH  69  73
ENDBRANCH  66  69
ENDBRANCH  64  65
ENDBRANCH   1  64
TORSDOF 16
ENDMDL
MODEL 2
REMARK VINA RESULT:     -12.7      2.522      7.682
REMARK SMILES O=C(NCCCCNC(=O)[C@@H](CO)NC(=O)c1ccc2noc(-c3ccccc3)c2c1)c1ccc(-c2c3nc(c(-c4c(F)cccc4F)c4ccc([nH]4)c(-c4c(F)cccc4F)c4nc(c(-c5c(F)cccc5F)c5ccc2[nH]5)C=C4)C=C3)cc1
REMARK SMILES IDX 6 1 5 2 4 3 3 4 1 5 2 6 32 8 33 9 85 10 34 11 84 12 35 13
REMARK SMILES IDX 36 14 37 15 78 16 38 17 83 18 77 19 79 20 39 21 82 22 76 23
REMARK SMILES IDX 75 24 40 26 66 27 49 28 65 29 50 30 53 31 64 32 80 33 51 34
REMARK SMILES IDX 52 35 63 37 81 38 54 39 41 40 42 41 47 42 43 43 44 44 46 45
REMARK SMILES IDX 48 46 45 47 67 48 68 49 73 50 69 51 70 52 72 53 74 54 71 55
REMARK SMILES IDX 55 56 56 57 61 58 57 59 58 60 60 61 62 62 59 63 7 64 8 65
REMARK SMILES IDX 9 66 10 68 11 69 12 70 13 71 14 73 15 74 16 76 17 77 18 78
REMARK SMILES IDX 31 79 19 80 30 81 20 82 23 83 21 84 22 85 24 86 25 87 29 88
REMARK SMILES IDX 26 89 28 90 27 91
REMARK H PARENT 3 7 79 25 53 36 8 67 13 72 14 75
REMARK Flexibility Score: inf
ROOT
ATOM      1  C   UNL A   1      41.168  20.901  27.574  1.00  0.00     0.023 C 
ENDROOT
BRANCH   1   2
ATOM      2  C   UNL A   1      42.295  19.948  27.155  1.00  0.00     0.023 C 
BRANCH   2   3
ATOM      3  C   UNL A   1      42.291  19.516  25.695  1.00  0.00     0.116 C 
BRANCH   3   4
ATOM      4  N   UNL A   1      43.555  18.929  25.237  1.00  0.00    -0.352 N 
ATOM      5  O   UNL A   1      45.440  18.998  23.948  1.00  0.00    -0.269 OA
ATOM      6  C   UNL A   1      44.617  19.582  24.608  1.00  0.00     0.251 C 
ATOM      7  H   UNL A   1      43.667  17.963  25.390  1.00  0.00     0.163 HD
BRANCH   6   8
ATOM      8  C   UNL A   1      44.699  21.040  24.815  1.00  0.00     0.039 A 
ATOM      9  C   UNL A   1      43.756  21.928  24.296  1.00  0.00     0.014 A 
ATOM     10  C   UNL A   1      45.648  21.451  25.734  1.00  0.00     0.014 A 
ATOM     11  C   UNL A   1      43.701  23.219  24.826  1.00  0.00     0.010 A 
ATOM     12  C   UNL A   1      45.428  22.623  26.405  1.00  0.00     0.010 A 
ATOM     13  C   UNL A   1      44.511  23.552  25.926  1.00  0.00    -0.014 A 
BRANCH  13  14
ATOM     14  C   UNL A   1      44.362  24.822  26.643  1.00  0.00     0.031 A 
ATOM     15  C   UNL A   1      45.437  25.835  26.428  1.00  0.00     0.074 A 
ATOM     16  C   UNL A   1      43.251  25.158  27.339  1.00  0.00     0.049 A 
ATOM     17  N   UNL A   1      46.322  26.219  27.288  1.00  0.00    -0.248 NA
ATOM     18  C   UNL A   1      45.622  26.415  25.091  1.00  0.00     0.031 C 
ATOM     19  C   UNL A   1      41.984  24.426  27.481  1.00  0.00     0.029 A 
ATOM     20  N   UNL A   1      42.993  26.311  28.016  1.00  0.00    -0.354 N 
ATOM     21  C   UNL A   1      47.052  27.235  26.676  1.00  0.00     0.074 A 
ATOM     22  C   UNL A   1      46.688  27.199  25.283  1.00  0.00     0.031 C 
ATOM     23  C   UNL A   1      41.028  25.245  27.963  1.00  0.00     0.029 A 
ATOM     24  C   UNL A   1      41.663  26.479  28.376  1.00  0.00     0.049 A 
ATOM     25  H   UNL A   1      43.691  26.971  28.232  1.00  0.00     0.167 HD
ATOM     26  C   UNL A   1      47.718  28.165  27.419  1.00  0.00     0.037 A 
ATOM     27  C   UNL A   1      41.103  27.535  29.011  1.00  0.00     0.037 A 
ATOM     28  C   UNL A   1      47.853  27.734  28.790  1.00  0.00     0.049 A 
ATOM     29  C   UNL A   1      42.194  28.241  29.720  1.00  0.00     0.074 A 
ATOM     30  C   UNL A   1      48.416  26.641  29.421  1.00  0.00     0.029 A 
ATOM     31  N   UNL A   1      47.025  28.308  29.725  1.00  0.00    -0.354 N 
ATOM     32  N   UNL A   1      42.822  27.745  30.749  1.00  0.00    -0.248 NA
ATOM     33  C   UNL A   1      42.899  29.294  29.008  1.00  0.00     0.031 C 
ATOM     34  C   UNL A   1      47.517  26.331  30.487  1.00  0.00     0.029 A 
ATOM     35  C   UNL A   1      46.505  27.292  30.484  1.00  0.00     0.049 A 
ATOM     36  H   UNL A   1      46.839  29.270  29.829  1.00  0.00     0.167 HD
ATOM     37  C   UNL A   1      44.150  28.086  30.546  1.00  0.00     0.074 A 
ATOM     38  C   UNL A   1      44.120  29.131  29.524  1.00  0.00     0.031 C 
ATOM     39  C   UNL A   1      45.162  27.296  31.014  1.00  0.00     0.037 A 
BRANCH  26  40
ATOM     40  C   UNL A   1      47.900  29.616  27.031  1.00  0.00     0.057 A 
ATOM     41  C   UNL A   1      46.840  30.522  26.833  1.00  0.00     0.134 A 
ATOM     42  C   UNL A   1      49.169  30.211  27.188  1.00  0.00     0.134 A 
ATOM     43  F   UNL A   1      45.569  30.127  26.712  1.00  0.00    -0.206 F 
ATOM     44  C   UNL A   1      47.016  31.910  26.853  1.00  0.00     0.040 A 
ATOM     45  C   UNL A   1      49.348  31.598  27.260  1.00  0.00     0.040 A 
ATOM     46  F   UNL A   1      50.264  29.457  27.373  1.00  0.00    -0.206 F 
ATOM     47  C   UNL A   1      48.265  32.452  27.109  1.00  0.00     0.006 A 
ENDBRANCH  26  40
BRANCH  27  48
ATOM     48  C   UNL A   1      39.727  28.055  28.897  1.00  0.00     0.057 A 
ATOM     49  C   UNL A   1      39.326  28.821  27.788  1.00  0.00     0.134 A 
ATOM     50  C   UNL A   1      38.850  28.042  29.988  1.00  0.00     0.134 A 
ATOM     51  F   UNL A   1      40.119  28.953  26.713  1.00  0.00    -0.206 F 
ATOM     52  C   UNL A   1      38.137  29.556  27.775  1.00  0.00     0.040 A 
ATOM     53  C   UNL A   1      37.658  28.778  29.991  1.00  0.00     0.040 A 
ATOM     54  F   UNL A   1      39.160  27.364  31.103  1.00  0.00    -0.206 F 
ATOM     55  C   UNL A   1      37.306  29.550  28.888  1.00  0.00     0.006 A 
ENDBRANCH  27  48
BRANCH  39  56
ATOM     56  C   UNL A   1      44.800  26.189  31.967  1.00  0.00     0.057 A 
ATOM     57  C   UNL A   1      44.805  26.451  33.341  1.00  0.00     0.134 A 
ATOM     58  C   UNL A   1      44.566  24.861  31.580  1.00  0.00     0.134 A 
ATOM     59  F   UNL A   1      45.083  27.684  33.794  1.00  0.00    -0.206 F 
ATOM     60  C   UNL A   1      44.564  25.447  34.284  1.00  0.00     0.040 A 
ATOM     61  C   UNL A   1      44.291  23.854  32.512  1.00  0.00     0.040 A 
ATOM     62  F   UNL A   1      44.646  24.486  30.300  1.00  0.00    -0.206 F 
ATOM     63  C   UNL A   1      44.292  24.147  33.871  1.00  0.00     0.006 A 
ENDBRANCH  39  56
ENDBRANCH  13  14
ENDBRANCH   6   8
ENDBRANCH   3   4
ENDBRANCH   2   3
ENDBRANCH   1   2
BRANCH   1  64
ATOM     64  C   UNL A   1      39.952  21.017  26.641  1.00  0.00     0.116 C 
BRANCH  64  65
ATOM     65  N   UNL A   1      39.385  22.352  26.602  1.00  0.00    -0.354 N 
ATOM     66  C   UNL A   1      38.193  22.827  26.150  1.00  0.00     0.244 C 
ATOM     67  H   UNL A   1      39.974  23.047  26.975  1.00  0.00     0.163 HD
ATOM     68  O   UNL A   1      38.062  24.059  26.148  1.00  0.00    -0.273 OA
BRANCH  66  69
ATOM     69  C   UNL A   1      37.065  21.949  25.563  1.00  0.00     0.197 C 
BRANCH  69  70
ATOM     70  C   UNL A   1      37.610  20.629  24.998  1.00  0.00     0.191 C 
BRANCH  70  71
ATOM     71  O   UNL A   1      36.651  19.581  24.997  1.00  0.00    -0.394 OA
ATOM     72  H   UNL A   1      36.753  19.047  25.800  1.00  0.00     0.210 HD
ENDBRANCH  70  71
ENDBRANCH  69  70
BRANCH  69  73
ATOM     73  N   UNL A   1      35.895  21.787  26.437  1.00  0.00    -0.338 N 
ATOM     74  C   UNL A   1      34.710  22.484  26.435  1.00  0.00     0.252 C 
ATOM     75  H   UNL A   1      35.970  21.081  27.119  1.00  0.00     0.164 HD
ATOM     76  O   UNL A   1      33.934  22.391  27.380  1.00  0.00    -0.269 OA
BRANCH  74  77
ATOM     77  C   UNL A   1      34.368  23.379  25.298  1.00  0.00     0.040 A 
ATOM     78  C   UNL A   1      34.246  22.823  23.981  1.00  0.00     0.016 A 
ATOM     79  C   UNL A   1      34.146  24.742  25.593  1.00  0.00     0.028 A 
ATOM     80  C   UNL A   1      34.018  23.595  22.820  1.00  0.00     0.033 A 
ATOM     81  C   UNL A   1      33.898  25.473  24.431  1.00  0.00     0.050 A 
ATOM     82  C   UNL A   1      33.841  24.963  23.082  1.00  0.00     0.114 A 
ATOM     83  C   UNL A   1      33.574  26.801  24.342  1.00  0.00     0.174 A 
ATOM     84  N   UNL A   1      33.585  25.975  22.238  1.00  0.00    -0.079 NA
ATOM     85  O   UNL A   1      33.405  27.103  23.020  1.00  0.00    -0.355 OA
BRANCH  83  86
ATOM     86  C   UNL A   1      33.327  27.886  25.271  1.00  0.00     0.021 A 
ATOM     87  C   UNL A   1      32.114  28.588  25.212  1.00  0.00     0.012 A 
ATOM     88  C   UNL A   1      34.254  28.215  26.267  1.00  0.00     0.012 A 
ATOM     89  C   UNL A   1      31.823  29.584  26.144  1.00  0.00     0.001 A 
ATOM     90  C   UNL A   1      33.964  29.217  27.197  1.00  0.00     0.001 A 
ATOM     91  C   UNL A   1      32.748  29.896  27.139  1.00  0.00     0.000 A 
ENDBRANCH  83  86
ENDBRANCH  74  77
ENDBRANCH  69  73
ENDBRANCH  66  69
ENDBRANCH  64  65
ENDBRANCH   1  64
TORSDOF 16
ENDMDL
MODEL 3
REMARK VINA RESULT:     -12.5      1.866      5.925
REMARK SMILES O=C(NCCCCNC(=O)[C@@H](CO)NC(=O)c1ccc2noc(-c3ccccc3)c2c1)c1ccc(-c2c3nc(c(-c4c(F)cccc4F)c4ccc([nH]4)c(-c4c(F)cccc4F)c4nc(c(-c5c(F)cccc5F)c5ccc2[nH]5)C=C4)C=C3)cc1
REMARK SMILES IDX 6 1 5 2 4 3 3 4 1 5 2 6 32 8 33 9 85 10 34 11 84 12 35 13
REMARK SMILES IDX 36 14 37 15 78 16 38 17 83 18 77 19 79 20 39 21 82 22 76 23
REMARK SMILES IDX 75 24 40 26 66 27 49 28 65 29 50 30 53 31 64 32 80 33 51 34
REMARK SMILES IDX 52 35 63 37 81 38 54 39 41 40 42 41 47 42 43 43 44 44 46 45
REMARK SMILES IDX 48 46 45 47 67 48 68 49 73 50 69 51 70 52 72 53 74 54 71 55
REMARK SMILES IDX 55 56 56 57 61 58 57 59 58 60 60 61 62 62 59 63 7 64 8 65
REMARK SMILES IDX 9 66 10 68 11 69 12 70 13 71 14 73 15 74 16 76 17 77 18 78
REMARK SMILES IDX 31 79 19 80 30 81 20 82 23 83 21 84 22 85 24 86 25 87 29 88
REMARK SMILES IDX 26 89 28 90 27 91
REMARK H PARENT 3 7 79 25 53 36 8 67 13 72 14 75
REMARK Flexibility Score: inf
ROOT
ATOM      1  C   UNL A   1      33.574  29.701  26.981  1.00  0.00     0.023 C 
ENDROOT
BRANCH   1   2
ATOM      2  C   UNL A   1      33.137  31.074  27.506  1.00  0.00     0.023 C 
BRANCH   2   3
ATOM      3  C   UNL A   1      34.259  32.056  27.813  1.00  0.00     0.116 C 
BRANCH   3   4
ATOM      4  N   UNL A   1      34.325  32.477  29.217  1.00  0.00    -0.352 N 
ATOM      5  O   UNL A   1      34.943  32.116  31.387  1.00  0.00    -0.269 OA
ATOM      6  C   UNL A   1      35.180  31.996  30.210  1.00  0.00     0.251 C 
ATOM      7  H   UNL A   1      33.694  33.182  29.490  1.00  0.00     0.163 HD
BRANCH   6   8
ATOM      8  C   UNL A   1      36.419  31.345  29.744  1.00  0.00     0.039 A 
ATOM      9  C   UNL A   1      37.618  32.041  29.580  1.00  0.00     0.014 A 
ATOM     10  C   UNL A   1      36.373  29.964  29.688  1.00  0.00     0.014 A 
ATOM     11  C   UNL A   1      38.802  31.306  29.491  1.00  0.00     0.010 A 
ATOM     12  C   UNL A   1      37.544  29.274  29.841  1.00  0.00     0.010 A 
ATOM     13  C   UNL A   1      38.769  29.913  29.675  1.00  0.00    -0.014 A 
BRANCH  13  14
ATOM     14  C   UNL A   1      39.994  29.115  29.782  1.00  0.00     0.031 A 
ATOM     15  C   UNL A   1      40.533  28.907  31.157  1.00  0.00     0.074 A 
ATOM     16  C   UNL A   1      40.544  28.452  28.737  1.00  0.00     0.049 A 
ATOM     17  N   UNL A   1      41.615  29.415  31.650  1.00  0.00    -0.248 NA
ATOM     18  C   UNL A   1      39.744  28.139  32.131  1.00  0.00     0.031 C 
ATOM     19  C   UNL A   1      40.052  28.314  27.358  1.00  0.00     0.029 A 
ATOM     20  N   UNL A   1      41.655  27.665  28.725  1.00  0.00    -0.354 N 
ATOM     21  C   UNL A   1      41.759  28.875  32.926  1.00  0.00     0.074 A 
ATOM     22  C   UNL A   1      40.506  28.232  33.226  1.00  0.00     0.031 C 
ATOM     23  C   UNL A   1      40.699  27.310  26.735  1.00  0.00     0.029 A 
ATOM     24  C   UNL A   1      41.796  26.891  27.581  1.00  0.00     0.049 A 
ATOM     25  H   UNL A   1      42.304  27.646  29.465  1.00  0.00     0.167 HD
ATOM     26  C   UNL A   1      42.982  28.809  33.525  1.00  0.00     0.037 A 
ATOM     27  C   UNL A   1      42.766  25.989  27.305  1.00  0.00     0.037 A 
ATOM     28  C   UNL A   1      43.936  29.662  32.855  1.00  0.00     0.049 A 
ATOM     29  C   UNL A   1      43.925  26.324  28.163  1.00  0.00     0.074 A 
ATOM     30  C   UNL A   1      44.007  31.011  32.566  1.00  0.00     0.029 A 
ATOM     31  N   UNL A   1      44.860  29.064  32.032  1.00  0.00    -0.354 N 
ATOM     32  N   UNL A   1      44.649  27.397  28.005  1.00  0.00    -0.248 NA
ATOM     33  C   UNL A   1      44.000  25.709  29.478  1.00  0.00     0.031 C 
ATOM     34  C   UNL A   1      44.575  31.076  31.258  1.00  0.00     0.029 A 
ATOM     35  C   UNL A   1      44.878  29.773  30.859  1.00  0.00     0.049 A 
ATOM     36  H   UNL A   1      45.406  28.272  32.245  1.00  0.00     0.167 HD
ATOM     37  C   UNL A   1      44.901  27.842  29.294  1.00  0.00     0.074 A 
ATOM     38  C   UNL A   1      44.575  26.707  30.156  1.00  0.00     0.031 C 
ATOM     39  C   UNL A   1      45.075  29.170  29.562  1.00  0.00     0.037 A 
BRANCH  26  40
ATOM     40  C   UNL A   1      43.436  27.702  34.451  1.00  0.00     0.057 A 
ATOM     41  C   UNL A   1      43.758  26.397  34.028  1.00  0.00     0.134 A 
ATOM     42  C   UNL A   1      43.887  28.036  35.745  1.00  0.00     0.134 A 
ATOM     43  F   UNL A   1      43.444  25.937  32.813  1.00  0.00    -0.206 F 
ATOM     44  C   UNL A   1      44.521  25.517  34.803  1.00  0.00     0.040 A 
ATOM     45  C   UNL A   1      44.694  27.181  36.506  1.00  0.00     0.040 A 
ATOM     46  F   UNL A   1      43.637  29.245  36.270  1.00  0.00    -0.206 F 
ATOM     47  C   UNL A   1      45.028  25.922  36.027  1.00  0.00     0.006 A 
ENDBRANCH  26  40
BRANCH  27  48
ATOM     48  C   UNL A   1      42.683  24.768  26.480  1.00  0.00     0.057 A 
ATOM     49  C   UNL A   1      41.981  23.633  26.925  1.00  0.00     0.134 A 
ATOM     50  C   UNL A   1      43.503  24.588  25.361  1.00  0.00     0.134 A 
ATOM     51  F   UNL A   1      41.215  23.678  28.025  1.00  0.00    -0.206 F 
ATOM     52  C   UNL A   1      42.112  22.384  26.311  1.00  0.00     0.040 A 
ATOM     53  C   UNL A   1      43.647  23.341  24.739  1.00  0.00     0.040 A 
ATOM     54  F   UNL A   1      44.234  25.605  24.881  1.00  0.00    -0.206 F 
ATOM     55  C   UNL A   1      42.962  22.231  25.223  1.00  0.00     0.006 A 
ENDBRANCH  27  48
BRANCH  39  56
ATOM     56  C   UNL A   1      45.238  30.103  28.392  1.00  0.00     0.057 A 
ATOM     57  C   UNL A   1      46.528  30.437  27.968  1.00  0.00     0.134 A 
ATOM     58  C   UNL A   1      44.176  30.764  27.758  1.00  0.00     0.134 A 
ATOM     59  F   UNL A   1      47.599  29.894  28.570  1.00  0.00    -0.206 F 
ATOM     60  C   UNL A   1      46.753  31.364  26.947  1.00  0.00     0.040 A 
ATOM     61  C   UNL A   1      44.384  31.669  26.711  1.00  0.00     0.040 A 
ATOM     62  F   UNL A   1      42.913  30.596  28.161  1.00  0.00    -0.206 F 
ATOM     63  C   UNL A   1      45.678  31.973  26.304  1.00  0.00     0.006 A 
ENDBRANCH  39  56
ENDBRANCH  13  14
ENDBRANCH   6   8
ENDBRANCH   3   4
ENDBRANCH   2   3
ENDBRANCH   1   2
BRANCH   1  64
ATOM     64  C   UNL A   1      32.873  29.167  25.722  1.00  0.00     0.116 C 
BRANCH  64  65
ATOM     65  N   UNL A   1      33.689  29.268  24.525  1.00  0.00    -0.354 N 
ATOM     66  C   UNL A   1      33.533  28.774  23.267  1.00  0.00     0.244 C 
ATOM     67  H   UNL A   1      34.512  29.794  24.647  1.00  0.00     0.163 HD
ATOM     68  O   UNL A   1      34.487  28.941  22.494  1.00  0.00    -0.273 OA
BRANCH  66  69
ATOM     69  C   UNL A   1      32.310  27.958  22.791  1.00  0.00     0.197 C 
BRANCH  69  70
ATOM     70  C   UNL A   1      31.041  28.821  22.727  1.00  0.00     0.191 C 
BRANCH  70  71
ATOM     71  O   UNL A   1      31.109  29.847  21.748  1.00  0.00    -0.394 OA
ATOM     72  H   UNL A   1      30.489  29.651  21.029  1.00  0.00     0.210 HD
ENDBRANCH  70  71
ENDBRANCH  69  70
BRANCH  69  73
ATOM     73  N   UNL A   1      32.544  27.149  21.586  1.00  0.00    -0.338 N 
ATOM     74  C   UNL A   1      32.773  25.798  21.483  1.00  0.00     0.252 C 
ATOM     75  H   UNL A   1      32.534  27.644  20.735  1.00  0.00     0.164 HD
ATOM     76  O   UNL A   1      33.188  25.318  20.432  1.00  0.00    -0.269 OA
BRANCH  74  77
ATOM     77  C   UNL A   1      32.546  24.906  22.650  1.00  0.00     0.040 A 
ATOM     78  C   UNL A   1      31.203  24.575  23.028  1.00  0.00     0.016 A 
ATOM     79  C   UNL A   1      33.689  24.401  23.309  1.00  0.00     0.028 A 
ATOM     80  C   UNL A   1      30.872  23.815  24.171  1.00  0.00     0.033 A 
ATOM     81  C   UNL A   1      33.330  23.635  24.419  1.00  0.00     0.050 A 
ATOM     82  C   UNL A   1      31.992  23.341  24.873  1.00  0.00     0.114 A 
ATOM     83  C   UNL A   1      34.168  22.937  25.248  1.00  0.00     0.174 A 
ATOM     84  N   UNL A   1      32.057  22.579  25.976  1.00  0.00    -0.079 NA
ATOM     85  O   UNL A   1      33.399  22.319  26.194  1.00  0.00    -0.355 OA
BRANCH  83  86
ATOM     86  C   UNL A   1      35.591  22.669  25.320  1.00  0.00     0.021 A 
ATOM     87  C   UNL A   1      36.460  23.661  25.797  1.00  0.00     0.012 A 
ATOM     88  C   UNL A   1      36.112  21.416  24.975  1.00  0.00     0.012 A 
ATOM     89  C   UNL A   1      37.822  23.398  25.946  1.00  0.00     0.001 A 
ATOM     90  C   UNL A   1      37.477  21.157  25.121  1.00  0.00     0.001 A 
ATOM     91  C   UNL A   1      38.329  22.145  25.611  1.00  0.00     0.000 A 
ENDBRANCH  83  86
ENDBRANCH  74  77
ENDBRANCH  69  73
ENDBRANCH  66  69
ENDBRANCH  64  65
ENDBRANCH   1  64
TORSDOF 16
ENDMDL
