MODEL 1
REMARK VINA RESULT:     -11.6      0.000      0.000
REMARK SMILES O=C(NCCCCNC(=O)[C@H]1CCCN(C(=O)CCOc2ccc(F)cc2)C1)c1ccc(-c2c3nc(c(-c4c(F)cccc4F)c4ccc([nH]4)c(-c4c(F)cccc4F)c4nc(c(-c5c(F)cccc5F)c5ccc2[nH]5)C=C4)C=C3)cc1
REMARK SMILES IDX 7 1 6 2 5 3 4 4 3 5 1 6 2 7 29 9 30 10 82 11 31 12 81 13
REMARK SMILES IDX 32 14 33 15 34 16 75 17 35 18 80 19 74 20 76 21 36 22 79 23
REMARK SMILES IDX 73 24 72 25 37 27 63 28 46 29 62 30 47 31 50 32 61 33 77 34
REMARK SMILES IDX 48 35 49 36 60 38 78 39 51 40 38 41 39 42 44 43 40 44 41 45
REMARK SMILES IDX 43 46 45 47 42 48 64 49 65 50 70 51 66 52 67 53 69 54 71 55
REMARK SMILES IDX 68 56 52 57 53 58 58 59 54 60 55 61 57 62 59 63 56 64 8 65
REMARK SMILES IDX 9 66 10 68 11 69 12 70 28 71 13 72 15 73 14 74 16 75 17 76
REMARK SMILES IDX 18 77 19 78 20 79 21 80 22 81 27 82 23 83 26 84 24 85 25 86
REMARK H PARENT 3 8 76 26 50 37 8 67
REMARK Flexibility Score: inf
ROOT
ATOM      1  C   UNL A   1      38.330  23.260  26.109  1.00  0.00     0.116 C 
ENDROOT
BRANCH   1   2
ATOM      2  C   UNL A   1      39.540  22.359  26.532  1.00  0.00     0.023 C 
BRANCH   2   3
ATOM      3  C   UNL A   1      39.495  20.955  25.947  1.00  0.00     0.023 C 
BRANCH   3   4
ATOM      4  C   UNL A   1      40.206  19.992  26.868  1.00  0.00     0.116 C 
BRANCH   4   5
ATOM      5  N   UNL A   1      41.216  19.204  26.160  1.00  0.00    -0.352 N 
ATOM      6  O   UNL A   1      43.133  18.889  25.005  1.00  0.00    -0.269 OA
ATOM      7  C   UNL A   1      42.445  19.602  25.722  1.00  0.00     0.251 C 
ATOM      8  H   UNL A   1      40.977  18.266  25.977  1.00  0.00     0.163 HD
BRANCH   7   9
ATOM      9  C   UNL A   1      42.880  20.938  26.126  1.00  0.00     0.039 A 
ATOM     10  C   UNL A   1      43.002  21.225  27.489  1.00  0.00     0.014 A 
ATOM     11  C   UNL A   1      43.011  21.921  25.150  1.00  0.00     0.014 A 
ATOM     12  C   UNL A   1      43.109  22.540  27.891  1.00  0.00     0.010 A 
ATOM     13  C   UNL A   1      43.257  23.224  25.556  1.00  0.00     0.010 A 
ATOM     14  C   UNL A   1      43.290  23.539  26.926  1.00  0.00    -0.014 A 
BRANCH  14  15
ATOM     15  C   UNL A   1      43.632  24.906  27.357  1.00  0.00     0.031 A 
ATOM     16  C   UNL A   1      42.586  25.821  27.903  1.00  0.00     0.074 A 
ATOM     17  C   UNL A   1      44.898  25.322  27.177  1.00  0.00     0.049 A 
ATOM     18  N   UNL A   1      42.687  27.091  28.193  1.00  0.00    -0.248 NA
ATOM     19  C   UNL A   1      41.253  25.247  28.140  1.00  0.00     0.031 C 
ATOM     20  C   UNL A   1      45.991  24.493  26.660  1.00  0.00     0.029 A 
ATOM     21  N   UNL A   1      45.478  26.542  27.390  1.00  0.00    -0.354 N 
ATOM     22  C   UNL A   1      41.425  27.479  28.615  1.00  0.00     0.074 A 
ATOM     23  C   UNL A   1      40.568  26.316  28.521  1.00  0.00     0.031 C 
ATOM     24  C   UNL A   1      47.111  25.222  26.614  1.00  0.00     0.029 A 
ATOM     25  C   UNL A   1      46.794  26.589  27.009  1.00  0.00     0.049 A 
ATOM     26  H   UNL A   1      44.997  27.309  27.779  1.00  0.00     0.167 HD
ATOM     27  C   UNL A   1      41.031  28.702  29.039  1.00  0.00     0.037 A 
ATOM     28  C   UNL A   1      47.647  27.625  26.932  1.00  0.00     0.037 A 
ATOM     29  C   UNL A   1      41.911  29.840  29.118  1.00  0.00     0.049 A 
ATOM     30  C   UNL A   1      47.172  28.984  27.343  1.00  0.00     0.074 A 
ATOM     31  C   UNL A   1      41.623  31.110  29.581  1.00  0.00     0.029 A 
ATOM     32  N   UNL A   1      43.236  29.854  28.702  1.00  0.00    -0.354 N 
ATOM     33  N   UNL A   1      45.987  29.339  27.777  1.00  0.00    -0.248 NA
ATOM     34  C   UNL A   1      48.138  30.084  27.253  1.00  0.00     0.031 C 
ATOM     35  C   UNL A   1      42.739  31.917  29.352  1.00  0.00     0.029 A 
ATOM     36  C   UNL A   1      43.760  31.127  28.848  1.00  0.00     0.049 A 
ATOM     37  H   UNL A   1      43.728  29.076  28.354  1.00  0.00     0.167 HD
ATOM     38  C   UNL A   1      46.071  30.698  28.042  1.00  0.00     0.074 A 
ATOM     39  C   UNL A   1      47.423  31.104  27.714  1.00  0.00     0.031 C 
ATOM     40  C   UNL A   1      45.111  31.522  28.526  1.00  0.00     0.037 A 
BRANCH  27  41
ATOM     41  C   UNL A   1      39.586  28.889  29.402  1.00  0.00     0.057 A 
ATOM     42  C   UNL A   1      38.659  29.281  28.425  1.00  0.00     0.134 A 
ATOM     43  C   UNL A   1      39.112  28.731  30.710  1.00  0.00     0.134 A 
ATOM     44  F   UNL A   1      39.044  29.461  27.152  1.00  0.00    -0.206 F 
ATOM     45  C   UNL A   1      37.320  29.517  28.738  1.00  0.00     0.040 A 
ATOM     46  C   UNL A   1      37.765  28.924  31.027  1.00  0.00     0.040 A 
ATOM     47  F   UNL A   1      39.941  28.351  31.694  1.00  0.00    -0.206 F 
ATOM     48  C   UNL A   1      36.868  29.328  30.041  1.00  0.00     0.006 A 
ENDBRANCH  27  41
BRANCH  28  49
ATOM     49  C   UNL A   1      49.024  27.371  26.450  1.00  0.00     0.057 A 
ATOM     50  C   UNL A   1      49.320  27.335  25.079  1.00  0.00     0.134 A 
ATOM     51  C   UNL A   1      50.043  27.029  27.341  1.00  0.00     0.134 A 
ATOM     52  F   UNL A   1      48.375  27.630  24.174  1.00  0.00    -0.206 F 
ATOM     53  C   UNL A   1      50.568  26.925  24.612  1.00  0.00     0.040 A 
ATOM     54  C   UNL A   1      51.307  26.646  26.888  1.00  0.00     0.040 A 
ATOM     55  F   UNL A   1      49.820  27.051  28.663  1.00  0.00    -0.206 F 
ATOM     56  C   UNL A   1      51.566  26.577  25.520  1.00  0.00     0.006 A 
ENDBRANCH  28  49
BRANCH  40  57
ATOM     57  C   UNL A   1      45.467  32.959  28.776  1.00  0.00     0.057 A 
ATOM     58  C   UNL A   1      45.343  33.901  27.744  1.00  0.00     0.134 A 
ATOM     59  C   UNL A   1      46.086  33.374  29.960  1.00  0.00     0.134 A 
ATOM     60  F   UNL A   1      44.766  33.563  26.580  1.00  0.00    -0.206 F 
ATOM     61  C   UNL A   1      45.871  35.186  27.861  1.00  0.00     0.040 A 
ATOM     62  C   UNL A   1      46.589  34.668  30.101  1.00  0.00     0.040 A 
ATOM     63  F   UNL A   1      46.223  32.526  30.990  1.00  0.00    -0.206 F 
ATOM     64  C   UNL A   1      46.502  35.570  29.042  1.00  0.00     0.006 A 
ENDBRANCH  40  57
ENDBRANCH  14  15
ENDBRANCH   7   9
ENDBRANCH   4   5
ENDBRANCH   3   4
ENDBRANCH   2   3
ENDBRANCH   1   2
BRANCH   1  65
ATOM     65  N   UNL A   1      37.721  23.223  24.721  1.00  0.00    -0.356 N 
ATOM     66  C   UNL A   1      36.535  23.448  24.003  1.00  0.00     0.224 C 
ATOM     67  H   UNL A   1      38.415  22.935  24.086  1.00  0.00     0.163 HD
ATOM     68  O   UNL A   1      36.663  23.293  22.775  1.00  0.00    -0.275 OA
BRANCH  66  69
ATOM     69  C   UNL A   1      34.897  24.061  24.581  1.00  0.00     0.098 C 
ATOM     70  C   UNL A   1      33.507  25.467  23.548  1.00  0.00     0.017 C 
ATOM     71  C   UNL A   1      34.409  22.178  24.461  1.00  0.00     0.132 C 
ATOM     72  C   UNL A   1      32.214  24.451  22.418  1.00  0.00     0.022 C 
ATOM     73  N   UNL A   1      32.892  21.772  23.949  1.00  0.00    -0.342 N 
ATOM     74  C   UNL A   1      32.218  22.548  22.557  1.00  0.00     0.119 C 
BRANCH  73  75
ATOM     75  C   UNL A   1      32.120  21.413  25.113  1.00  0.00     0.226 C 
ATOM     76  O   UNL A   1      31.871  20.233  25.376  1.00  0.00    -0.275 OA
BRANCH  75  77
ATOM     77  C   UNL A   1      31.854  22.492  26.203  1.00  0.00     0.141 C 
BRANCH  77  78
ATOM     78  C   UNL A   1      30.709  23.550  25.896  1.00  0.00     0.239 C 
BRANCH  78  79
ATOM     79  O   UNL A   1      30.383  24.778  26.625  1.00  0.00    -0.493 OA
BRANCH  79  80
ATOM     80  C   UNL A   1      30.277  25.951  25.936  1.00  0.00     0.119 A 
ATOM     81  C   UNL A   1      31.443  27.035  26.255  1.00  0.00     0.049 A 
ATOM     82  C   UNL A   1      29.422  26.144  24.544  1.00  0.00     0.049 A 
ATOM     83  C   UNL A   1      31.853  28.620  25.197  1.00  0.00     0.043 A 
ATOM     84  C   UNL A   1      29.629  27.448  23.482  1.00  0.00     0.043 A 
ATOM     85  C   UNL A   1      30.777  28.690  23.706  1.00  0.00     0.123 A 
ATOM     86  F   UNL A   1      30.525  29.729  22.901  1.00  0.00    -0.207 F 
ENDBRANCH  79  80
ENDBRANCH  78  79
ENDBRANCH  77  78
ENDBRANCH  75  77
ENDBRANCH  73  75
ENDBRANCH  66  69
ENDBRANCH   1  65
TORSDOF 16
ENDMDL
MODEL 2
REMARK VINA RESULT:     -11.5      5.304     10.479
REMARK SMILES O=C(NCCCCNC(=O)[C@H]1CCCN(C(=O)CCOc2ccc(F)cc2)C1)c1ccc(-c2c3nc(c(-c4c(F)cccc4F)c4ccc([nH]4)c(-c4c(F)cccc4F)c4nc(c(-c5c(F)cccc5F)c5ccc2[nH]5)C=C4)C=C3)cc1
REMARK SMILES IDX 7 1 6 2 5 3 4 4 3 5 1 6 2 7 29 9 30 10 82 11 31 12 81 13
REMARK SMILES IDX 32 14 33 15 34 16 75 17 35 18 80 19 74 20 76 21 36 22 79 23
REMARK SMILES IDX 73 24 72 25 37 27 63 28 46 29 62 30 47 31 50 32 61 33 77 34
REMARK SMILES IDX 48 35 49 36 60 38 78 39 51 40 38 41 39 42 44 43 40 44 41 45
REMARK SMILES IDX 43 46 45 47 42 48 64 49 65 50 70 51 66 52 67 53 69 54 71 55
REMARK SMILES IDX 68 56 52 57 53 58 58 59 54 60 55 61 57 62 59 63 56 64 8 65
REMARK SMILES IDX 9 66 10 68 11 69 12 70 28 71 13 72 15 73 14 74 16 75 17 76
REMARK SMILES IDX 18 77 19 78 20 79 21 80 22 81 27 82 23 83 26 84 24 85 25 86
REMARK H PARENT 3 8 76 26 50 37 8 67
REMARK Flexibility Score: inf
ROOT
ATOM      1  C   UNL A   1      31.944  29.370  27.069  1.00  0.00     0.116 C 
ENDROOT
BRANCH   1   2
ATOM      2  C   UNL A   1      31.594  30.376  25.921  1.00  0.00     0.023 C 
BRANCH   2   3
ATOM      3  C   UNL A   1      31.287  31.784  26.410  1.00  0.00     0.023 C 
BRANCH   3   4
ATOM      4  C   UNL A   1      32.558  32.453  26.876  1.00  0.00     0.116 C 
BRANCH   4   5
ATOM      5  N   UNL A   1      32.311  33.805  27.382  1.00  0.00    -0.352 N 
ATOM      6  O   UNL A   1      32.567  35.541  28.806  1.00  0.00    -0.269 OA
ATOM      7  C   UNL A   1      32.972  34.472  28.370  1.00  0.00     0.251 C 
ATOM      8  H   UNL A   1      31.571  34.294  26.953  1.00  0.00     0.163 HD
BRANCH   7   9
ATOM      9  C   UNL A   1      34.169  33.825  28.905  1.00  0.00     0.039 A 
ATOM     10  C   UNL A   1      34.029  32.898  29.943  1.00  0.00     0.014 A 
ATOM     11  C   UNL A   1      35.416  34.262  28.470  1.00  0.00     0.014 A 
ATOM     12  C   UNL A   1      35.145  32.514  30.656  1.00  0.00     0.010 A 
ATOM     13  C   UNL A   1      36.546  33.765  29.102  1.00  0.00     0.010 A 
ATOM     14  C   UNL A   1      36.413  32.904  30.206  1.00  0.00    -0.014 A 
BRANCH  14  15
ATOM     15  C   UNL A   1      37.612  32.314  30.826  1.00  0.00     0.031 A 
ATOM     16  C   UNL A   1      38.345  31.195  30.165  1.00  0.00     0.074 A 
ATOM     17  C   UNL A   1      37.980  32.771  32.037  1.00  0.00     0.049 A 
ATOM     18  N   UNL A   1      39.325  30.472  30.638  1.00  0.00    -0.248 NA
ATOM     19  C   UNL A   1      37.917  30.825  28.808  1.00  0.00     0.031 C 
ATOM     20  C   UNL A   1      37.330  33.870  32.756  1.00  0.00     0.029 A 
ATOM     21  N   UNL A   1      38.974  32.362  32.883  1.00  0.00    -0.354 N 
ATOM     22  C   UNL A   1      39.612  29.540  29.653  1.00  0.00     0.074 A 
ATOM     23  C   UNL A   1      38.685  29.773  28.565  1.00  0.00     0.031 C 
ATOM     24  C   UNL A   1      37.952  34.060  33.924  1.00  0.00     0.029 A 
ATOM     25  C   UNL A   1      38.982  33.040  34.075  1.00  0.00     0.049 A 
ATOM     26  H   UNL A   1      39.619  31.652  32.658  1.00  0.00     0.167 HD
ATOM     27  C   UNL A   1      40.565  28.580  29.670  1.00  0.00     0.037 A 
ATOM     28  C   UNL A   1      39.699  32.836  35.193  1.00  0.00     0.037 A 
ATOM     29  C   UNL A   1      41.469  28.374  30.772  1.00  0.00     0.049 A 
ATOM     30  C   UNL A   1      40.703  31.725  35.216  1.00  0.00     0.074 A 
ATOM     31  C   UNL A   1      42.503  27.462  30.868  1.00  0.00     0.029 A 
ATOM     32  N   UNL A   1      41.432  29.069  31.974  1.00  0.00    -0.354 N 
ATOM     33  N   UNL A   1      40.996  30.870  34.267  1.00  0.00    -0.248 NA
ATOM     34  C   UNL A   1      41.471  31.545  36.452  1.00  0.00     0.031 C 
ATOM     35  C   UNL A   1      43.025  27.534  32.161  1.00  0.00     0.029 A 
ATOM     36  C   UNL A   1      42.392  28.566  32.836  1.00  0.00     0.049 A 
ATOM     37  H   UNL A   1      40.816  29.808  32.182  1.00  0.00     0.167 HD
ATOM     38  C   UNL A   1      42.004  30.066  34.779  1.00  0.00     0.074 A 
ATOM     39  C   UNL A   1      42.267  30.534  36.125  1.00  0.00     0.031 C 
ATOM     40  C   UNL A   1      42.654  29.043  34.174  1.00  0.00     0.037 A 
BRANCH  27  41
ATOM     41  C   UNL A   1      40.649  27.652  28.493  1.00  0.00     0.057 A 
ATOM     42  C   UNL A   1      41.432  27.993  27.381  1.00  0.00     0.134 A 
ATOM     43  C   UNL A   1      39.930  26.451  28.428  1.00  0.00     0.134 A 
ATOM     44  F   UNL A   1      42.141  29.132  27.368  1.00  0.00    -0.206 F 
ATOM     45  C   UNL A   1      41.489  27.181  26.248  1.00  0.00     0.040 A 
ATOM     46  C   UNL A   1      40.012  25.610  27.316  1.00  0.00     0.040 A 
ATOM     47  F   UNL A   1      39.165  26.058  29.458  1.00  0.00    -0.206 F 
ATOM     48  C   UNL A   1      40.786  25.980  26.218  1.00  0.00     0.006 A 
ENDBRANCH  27  41
BRANCH  28  49
ATOM     49  C   UNL A   1      39.467  33.728  36.353  1.00  0.00     0.057 A 
ATOM     50  C   UNL A   1      40.157  34.942  36.486  1.00  0.00     0.134 A 
ATOM     51  C   UNL A   1      38.654  33.325  37.415  1.00  0.00     0.134 A 
ATOM     52  F   UNL A   1      40.971  35.369  35.510  1.00  0.00    -0.206 F 
ATOM     53  C   UNL A   1      40.079  35.701  37.654  1.00  0.00     0.040 A 
ATOM     54  C   UNL A   1      38.544  34.090  38.576  1.00  0.00     0.040 A 
ATOM     55  F   UNL A   1      37.968  32.176  37.341  1.00  0.00    -0.206 F 
ATOM     56  C   UNL A   1      39.271  35.273  38.705  1.00  0.00     0.006 A 
ENDBRANCH  28  49
BRANCH  40  57
ATOM     57  C   UNL A   1      43.753  28.353  34.928  1.00  0.00     0.057 A 
ATOM     58  C   UNL A   1      45.079  28.790  34.788  1.00  0.00     0.134 A 
ATOM     59  C   UNL A   1      43.534  27.171  35.642  1.00  0.00     0.134 A 
ATOM     60  F   UNL A   1      45.357  29.913  34.107  1.00  0.00    -0.206 F 
ATOM     61  C   UNL A   1      46.149  28.047  35.284  1.00  0.00     0.040 A 
ATOM     62  C   UNL A   1      44.595  26.435  36.172  1.00  0.00     0.040 A 
ATOM     63  F   UNL A   1      42.289  26.707  35.824  1.00  0.00    -0.206 F 
ATOM     64  C   UNL A   1      45.908  26.861  35.973  1.00  0.00     0.006 A 
ENDBRANCH  40  57
ENDBRANCH  14  15
ENDBRANCH   7   9
ENDBRANCH   4   5
ENDBRANCH   3   4
ENDBRANCH   2   3
ENDBRANCH   1   2
BRANCH   1  65
ATOM     65  N   UNL A   1      31.418  27.948  27.109  1.00  0.00    -0.356 N 
ATOM     66  C   UNL A   1      30.899  26.915  26.313  1.00  0.00     0.224 C 
ATOM     67  H   UNL A   1      31.455  27.631  28.040  1.00  0.00     0.163 HD
ATOM     68  O   UNL A   1      30.677  25.866  26.944  1.00  0.00    -0.275 OA
BRANCH  66  69
ATOM     69  C   UNL A   1      30.637  26.839  24.490  1.00  0.00     0.098 C 
ATOM     70  C   UNL A   1      30.305  28.529  23.073  1.00  0.00     0.017 C 
ATOM     71  C   UNL A   1      32.444  26.107  24.495  1.00  0.00     0.132 C 
ATOM     72  C   UNL A   1      32.048  29.161  22.334  1.00  0.00     0.022 C 
ATOM     73  N   UNL A   1      33.474  26.501  23.266  1.00  0.00    -0.342 N 
ATOM     74  C   UNL A   1      33.609  28.148  22.752  1.00  0.00     0.119 C 
BRANCH  73  75
ATOM     75  C   UNL A   1      33.526  25.378  22.363  1.00  0.00     0.226 C 
ATOM     76  O   UNL A   1      33.299  25.517  21.157  1.00  0.00    -0.275 OA
BRANCH  75  77
ATOM     77  C   UNL A   1      34.162  24.045  22.853  1.00  0.00     0.141 C 
BRANCH  77  78
ATOM     78  C   UNL A   1      33.198  22.784  22.939  1.00  0.00     0.239 C 
BRANCH  78  79
ATOM     79  O   UNL A   1      32.778  22.037  24.127  1.00  0.00    -0.493 OA
BRANCH  79  80
ATOM     80  C   UNL A   1      32.902  20.678  24.135  1.00  0.00     0.119 A 
ATOM     81  C   UNL A   1      32.155  19.919  22.908  1.00  0.00     0.049 A 
ATOM     82  C   UNL A   1      34.076  19.850  24.936  1.00  0.00     0.049 A 
ATOM     83  C   UNL A   1      32.438  18.070  22.363  1.00  0.00     0.043 A 
ATOM     84  C   UNL A   1      34.482  18.237  24.612  1.00  0.00     0.043 A 
ATOM     85  C   UNL A   1      33.754  17.295  23.390  1.00  0.00     0.123 A 
ATOM     86  F   UNL A   1      34.039  15.997  23.549  1.00  0.00    -0.207 F 
ENDBRANCH  79  80
ENDBRANCH  78  79
ENDBRANCH  77  78
ENDBRANCH  75  77
ENDBRANCH  73  75
ENDBRANCH  66  69
ENDBRANCH   1  65
TORSDOF 16
ENDMDL
MODEL 3
REMARK VINA RESULT:     -11.5      4.988     10.205
REMARK SMILES O=C(NCCCCNC(=O)[C@H]1CCCN(C(=O)CCOc2ccc(F)cc2)C1)c1ccc(-c2c3nc(c(-c4c(F)cccc4F)c4ccc([nH]4)c(-c4c(F)cccc4F)c4nc(c(-c5c(F)cccc5F)c5ccc2[nH]5)C=C4)C=C3)cc1
REMARK SMILES IDX 7 1 6 2 5 3 4 4 3 5 1 6 2 7 29 9 30 10 82 11 31 12 81 13
REMARK SMILES IDX 32 14 33 15 34 16 75 17 35 18 80 19 74 20 76 21 36 22 79 23
REMARK SMILES IDX 73 24 72 25 37 27 63 28 46 29 62 30 47 31 50 32 61 33 77 34
REMARK SMILES IDX 48 35 49 36 60 38 78 39 51 40 38 41 39 42 44 43 40 44 41 45
REMARK SMILES IDX 43 46 45 47 42 48 64 49 65 50 70 51 66 52 67 53 69 54 71 55
REMARK SMILES IDX 68 56 52 57 53 58 58 59 54 60 55 61 57 62 59 63 56 64 8 65
REMARK SMILES IDX 9 66 10 68 11 69 12 70 28 71 13 72 15 73 14 74 16 75 17 76
REMARK SMILES IDX 18 77 19 78 20 79 21 80 22 81 27 82 23 83 26 84 24 85 25 86
REMARK H PARENT 3 8 76 26 50 37 8 67
REMARK Flexibility Score: inf
ROOT
ATOM      1  C   UNL A   1      32.098  28.945  27.305  1.00  0.00     0.116 C 
ENDROOT
BRANCH   1   2
ATOM      2  C   UNL A   1      32.031  30.050  26.196  1.00  0.00     0.023 C 
BRANCH   2   3
ATOM      3  C   UNL A   1      31.621  31.420  26.717  1.00  0.00     0.023 C 
BRANCH   3   4
ATOM      4  C   UNL A   1      32.839  32.168  27.207  1.00  0.00     0.116 C 
BRANCH   4   5
ATOM      5  N   UNL A   1      32.529  33.561  27.535  1.00  0.00    -0.352 N 
ATOM      6  O   UNL A   1      32.674  35.464  28.746  1.00  0.00    -0.269 OA
ATOM      7  C   UNL A   1      33.129  34.365  28.458  1.00  0.00     0.251 C 
ATOM      8  H   UNL A   1      31.793  33.969  27.023  1.00  0.00     0.163 HD
BRANCH   7   9
ATOM      9  C   UNL A   1      34.323  33.830  29.112  1.00  0.00     0.039 A 
ATOM     10  C   UNL A   1      35.581  34.234  28.654  1.00  0.00     0.014 A 
ATOM     11  C   UNL A   1      34.171  32.826  30.063  1.00  0.00     0.014 A 
ATOM     12  C   UNL A   1      36.696  33.522  29.042  1.00  0.00     0.010 A 
ATOM     13  C   UNL A   1      35.310  32.206  30.553  1.00  0.00     0.010 A 
ATOM     14  C   UNL A   1      36.573  32.540  30.033  1.00  0.00    -0.014 A 
BRANCH  14  15
ATOM     15  C   UNL A   1      37.788  31.939  30.611  1.00  0.00     0.031 A 
ATOM     16  C   UNL A   1      38.540  30.878  29.879  1.00  0.00     0.074 A 
ATOM     17  C   UNL A   1      38.154  32.330  31.844  1.00  0.00     0.049 A 
ATOM     18  N   UNL A   1      39.538  30.149  30.303  1.00  0.00    -0.248 NA
ATOM     19  C   UNL A   1      38.111  30.581  28.505  1.00  0.00     0.031 C 
ATOM     20  C   UNL A   1      37.485  33.370  32.631  1.00  0.00     0.029 A 
ATOM     21  N   UNL A   1      39.161  31.892  32.659  1.00  0.00    -0.354 N 
ATOM     22  C   UNL A   1      39.838  29.284  29.262  1.00  0.00     0.074 A 
ATOM     23  C   UNL A   1      38.900  29.562  28.195  1.00  0.00     0.031 C 
ATOM     24  C   UNL A   1      38.111  33.503  33.805  1.00  0.00     0.029 A 
ATOM     25  C   UNL A   1      39.162  32.497  33.890  1.00  0.00     0.049 A 
ATOM     26  H   UNL A   1      39.819  31.211  32.388  1.00  0.00     0.167 HD
ATOM     27  C   UNL A   1      40.811  28.345  29.217  1.00  0.00     0.037 A 
ATOM     28  C   UNL A   1      39.891  32.242  34.990  1.00  0.00     0.037 A 
ATOM     29  C   UNL A   1      41.727  28.093  30.300  1.00  0.00     0.049 A 
ATOM     30  C   UNL A   1      40.918  31.154  34.941  1.00  0.00     0.074 A 
ATOM     31  C   UNL A   1      42.780  27.199  30.335  1.00  0.00     0.029 A 
ATOM     32  N   UNL A   1      41.683  28.713  31.541  1.00  0.00    -0.354 N 
ATOM     33  N   UNL A   1      41.223  30.363  33.941  1.00  0.00    -0.248 NA
ATOM     34  C   UNL A   1      41.697  30.916  36.160  1.00  0.00     0.031 C 
ATOM     35  C   UNL A   1      43.309  27.204  31.627  1.00  0.00     0.029 A 
ATOM     36  C   UNL A   1      42.658  28.180  32.367  1.00  0.00     0.049 A 
ATOM     37  H   UNL A   1      41.052  29.425  31.797  1.00  0.00     0.167 HD
ATOM     38  C   UNL A   1      42.251  29.552  34.398  1.00  0.00     0.074 A 
ATOM     39  C   UNL A   1      42.513  29.944  35.769  1.00  0.00     0.031 C 
ATOM     40  C   UNL A   1      42.918  28.581  33.730  1.00  0.00     0.037 A 
BRANCH  27  41
ATOM     41  C   UNL A   1      40.907  27.491  27.985  1.00  0.00     0.057 A 
ATOM     42  C   UNL A   1      40.212  26.276  27.914  1.00  0.00     0.134 A 
ATOM     43  C   UNL A   1      41.713  27.835  26.892  1.00  0.00     0.134 A 
ATOM     44  F   UNL A   1      39.428  25.877  28.928  1.00  0.00    -0.206 F 
ATOM     45  C   UNL A   1      40.322  25.432  26.809  1.00  0.00     0.040 A 
ATOM     46  C   UNL A   1      41.799  27.017  25.763  1.00  0.00     0.040 A 
ATOM     47  F   UNL A   1      42.402  28.986  26.888  1.00  0.00    -0.206 F 
ATOM     48  C   UNL A   1      41.110  25.807  25.724  1.00  0.00     0.006 A 
ENDBRANCH  27  41
BRANCH  28  49
ATOM     49  C   UNL A   1      39.647  33.057  36.203  1.00  0.00     0.057 A 
ATOM     50  C   UNL A   1      38.664  32.698  37.136  1.00  0.00     0.134 A 
ATOM     51  C   UNL A   1      40.298  34.279  36.386  1.00  0.00     0.134 A 
ATOM     52  F   UNL A   1      37.989  31.548  36.999  1.00  0.00    -0.206 F 
ATOM     53  C   UNL A   1      38.307  33.547  38.183  1.00  0.00     0.040 A 
ATOM     54  C   UNL A   1      39.971  35.125  37.447  1.00  0.00     0.040 A 
ATOM     55  F   UNL A   1      41.250  34.672  35.528  1.00  0.00    -0.206 F 
ATOM     56  C   UNL A   1      38.961  34.766  38.339  1.00  0.00     0.006 A 
ENDBRANCH  28  49
BRANCH  40  57
ATOM     57  C   UNL A   1      44.037  27.872  34.435  1.00  0.00     0.057 A 
ATOM     58  C   UNL A   1      45.347  28.363  34.341  1.00  0.00     0.134 A 
ATOM     59  C   UNL A   1      43.854  26.629  35.052  1.00  0.00     0.134 A 
ATOM     60  F   UNL A   1      45.590  29.545  33.753  1.00  0.00    -0.206 F 
ATOM     61  C   UNL A   1      46.439  27.619  34.785  1.00  0.00     0.040 A 
ATOM     62  C   UNL A   1      44.937  25.890  35.529  1.00  0.00     0.040 A 
ATOM     63  F   UNL A   1      42.625  26.110  35.186  1.00  0.00    -0.206 F 
ATOM     64  C   UNL A   1      46.236  26.374  35.375  1.00  0.00     0.006 A 
ENDBRANCH  40  57
ENDBRANCH  14  15
ENDBRANCH   7   9
ENDBRANCH   4   5
ENDBRANCH   3   4
ENDBRANCH   2   3
ENDBRANCH   1   2
BRANCH   1  65
ATOM     65  N   UNL A   1      31.406  27.602  27.172  1.00  0.00    -0.356 N 
ATOM     66  C   UNL A   1      30.834  26.715  26.247  1.00  0.00     0.224 C 
ATOM     67  H   UNL A   1      31.331  27.204  28.069  1.00  0.00     0.163 HD
ATOM     68  O   UNL A   1      30.441  25.651  26.759  1.00  0.00    -0.275 OA
BRANCH  66  69
ATOM     69  C   UNL A   1      30.712  26.829  24.412  1.00  0.00     0.098 C 
ATOM     70  C   UNL A   1      30.821  28.653  23.134  1.00  0.00     0.017 C 
ATOM     71  C   UNL A   1      32.341  25.761  24.468  1.00  0.00     0.132 C 
ATOM     72  C   UNL A   1      32.706  28.989  22.570  1.00  0.00     0.022 C 
ATOM     73  N   UNL A   1      33.524  26.038  23.350  1.00  0.00    -0.342 N 
ATOM     74  C   UNL A   1      34.008  27.662  22.996  1.00  0.00     0.119 C 
BRANCH  73  75
ATOM     75  C   UNL A   1      33.436  24.999  22.354  1.00  0.00     0.226 C 
ATOM     76  O   UNL A   1      33.198  25.265  21.172  1.00  0.00    -0.275 OA
BRANCH  75  77
ATOM     77  C   UNL A   1      33.938  23.569  22.711  1.00  0.00     0.141 C 
BRANCH  77  78
ATOM     78  C   UNL A   1      33.034  22.723  23.706  1.00  0.00     0.239 C 
BRANCH  78  79
ATOM     79  O   UNL A   1      33.351  22.265  25.061  1.00  0.00    -0.493 OA
BRANCH  79  80
ATOM     80  C   UNL A   1      34.657  22.191  25.448  1.00  0.00     0.119 A 
ATOM     81  C   UNL A   1      35.450  20.873  24.927  1.00  0.00     0.049 A 
ATOM     82  C   UNL A   1      35.561  23.476  25.936  1.00  0.00     0.049 A 
ATOM     83  C   UNL A   1      37.382  20.623  24.930  1.00  0.00     0.043 A 
ATOM     84  C   UNL A   1      37.254  23.467  26.006  1.00  0.00     0.043 A 
ATOM     85  C   UNL A   1      38.223  22.142  25.540  1.00  0.00     0.123 A 
ATOM     86  F   UNL A   1      39.480  22.289  25.974  1.00  0.00    -0.207 F 
ENDBRANCH  79  80
ENDBRANCH  78  79
ENDBRANCH  77  78
ENDBRANCH  75  77
ENDBRANCH  73  75
ENDBRANCH  66  69
ENDBRANCH   1  65
TORSDOF 16
ENDMDL
