MODEL 1
REMARK VINA RESULT:      -9.9      0.000      0.000
REMARK SMILES COc1cc(OC)cc(-c2ccc([C@@H](C)C(=O)NCCCCNC(=O)c3ccc(-c4c5nc(c(-c6c(F)cccc6F)c6ccc([nH]6)c(-c6c(F)cccc6F)c6nc(c(-c7c(F)cccc7F)c7ccc4[nH]7)C=C6)C=C5)cc3)cc2F)c1
REMARK SMILES IDX 20 1 19 2 18 3 16 4 17 5 14 7 15 8 13 9 10 10 11 11 81 12
REMARK SMILES IDX 12 13 80 14 82 15 9 16 3 17 4 18 83 19 5 20 8 21 2 22 1 23
REMARK SMILES IDX 6 24 7 25 21 26 22 27 23 28 24 29 25 31 26 32 27 33 79 34
REMARK SMILES IDX 28 35 78 36 29 37 30 38 31 39 72 40 32 41 77 42 71 43 73 44
REMARK SMILES IDX 33 45 76 46 70 47 69 48 34 50 60 51 43 52 59 53 44 54 47 55
REMARK SMILES IDX 58 56 74 57 45 58 46 59 57 61 75 62 48 63 35 64 36 65 41 66
REMARK SMILES IDX 37 67 38 68 40 69 42 70 39 71 61 72 62 73 67 74 63 75 64 76
REMARK SMILES IDX 66 77 68 78 65 79 49 80 50 81 55 82 51 83 52 84 54 85 56 86
REMARK SMILES IDX 53 87
REMARK H PARENT 18 6 23 30 73 49 47 60
REMARK Flexibility Score: inf
ROOT
ATOM      1  C   UNL A   1      34.012  35.509  28.934  1.00  0.00     0.023 C 
ENDROOT
BRANCH   1   2
ATOM      2  C   UNL A   1      33.323  35.118  30.243  1.00  0.00     0.116 C 
BRANCH   2   3
ATOM      3  N   UNL A   1      33.857  35.843  31.377  1.00  0.00    -0.356 N 
ATOM      4  C   UNL A   1      34.688  35.462  32.386  1.00  0.00     0.227 C 
ATOM      5  O   UNL A   1      34.906  36.305  33.263  1.00  0.00    -0.274 OA
ATOM      6  H   UNL A   1      33.565  36.782  31.428  1.00  0.00     0.163 HD
BRANCH   4   7
ATOM      7  C   UNL A   1      35.352  34.078  32.475  1.00  0.00     0.105 C 
ATOM      8  C   UNL A   1      35.199  33.406  33.841  1.00  0.00     0.023 C 
BRANCH   7   9
ATOM      9  C   UNL A   1      36.744  34.040  31.865  1.00  0.00    -0.033 A 
ATOM     10  C   UNL A   1      39.301  34.173  30.582  1.00  0.00     0.018 A 
ATOM     11  C   UNL A   1      39.127  34.525  31.932  1.00  0.00     0.012 A 
ATOM     12  C   UNL A   1      38.162  33.714  29.906  1.00  0.00     0.131 A 
ATOM     13  C   UNL A   1      37.887  34.415  32.572  1.00  0.00     0.005 A 
ATOM     14  C   UNL A   1      36.906  33.667  30.522  1.00  0.00     0.044 A 
ATOM     15  F   UNL A   1      38.246  33.303  28.632  1.00  0.00    -0.206 F 
BRANCH  10  16
ATOM     16  C   UNL A   1      40.637  34.279  29.952  1.00  0.00    -0.008 A 
ATOM     17  C   UNL A   1      42.922  33.494  29.601  1.00  0.00     0.123 A 
ATOM     18  C   UNL A   1      43.140  34.526  28.688  1.00  0.00     0.092 A 
ATOM     19  C   UNL A   1      41.679  33.375  30.232  1.00  0.00     0.055 A 
ATOM     20  C   UNL A   1      42.128  35.431  28.384  1.00  0.00     0.123 A 
ATOM     21  C   UNL A   1      40.894  35.307  29.021  1.00  0.00     0.055 A 
BRANCH  17  22
ATOM     22  O   UNL A   1      44.006  32.694  29.840  1.00  0.00    -0.497 OA
ATOM     23  C   UNL A   1      43.714  31.375  30.285  1.00  0.00     0.278 C 
ENDBRANCH  17  22
BRANCH  20  24
ATOM     24  O   UNL A   1      42.453  36.388  27.461  1.00  0.00    -0.497 OA
ATOM     25  C   UNL A   1      42.345  37.744  27.879  1.00  0.00     0.278 C 
ENDBRANCH  20  24
ENDBRANCH  10  16
ENDBRANCH   7   9
ENDBRANCH   4   7
ENDBRANCH   2   3
ENDBRANCH   1   2
BRANCH   1  26
ATOM     26  C   UNL A   1      34.328  34.347  27.994  1.00  0.00     0.023 C 
BRANCH  26  27
ATOM     27  C   UNL A   1      34.290  32.968  28.638  1.00  0.00     0.116 C 
BRANCH  27  28
ATOM     28  N   UNL A   1      33.731  31.929  27.787  1.00  0.00    -0.352 N 
ATOM     29  C   UNL A   1      34.281  30.711  27.453  1.00  0.00     0.251 C 
ATOM     30  H   UNL A   1      32.847  32.121  27.399  1.00  0.00     0.163 HD
ATOM     31  O   UNL A   1      33.719  29.977  26.654  1.00  0.00    -0.269 OA
BRANCH  29  32
ATOM     32  C   UNL A   1      35.581  30.321  28.042  1.00  0.00     0.039 A 
ATOM     33  C   UNL A   1      35.592  29.676  29.281  1.00  0.00     0.014 A 
ATOM     34  C   UNL A   1      36.777  30.561  27.363  1.00  0.00     0.014 A 
ATOM     35  C   UNL A   1      36.801  29.223  29.810  1.00  0.00     0.010 A 
ATOM     36  C   UNL A   1      37.967  30.029  27.847  1.00  0.00     0.010 A 
ATOM     37  C   UNL A   1      37.995  29.372  29.085  1.00  0.00    -0.014 A 
BRANCH  37  38
ATOM     38  C   UNL A   1      39.287  28.881  29.628  1.00  0.00     0.031 A 
ATOM     39  C   UNL A   1      39.864  29.505  30.870  1.00  0.00     0.074 A 
ATOM     40  C   UNL A   1      39.961  27.913  28.979  1.00  0.00     0.049 A 
ATOM     41  N   UNL A   1      40.984  29.232  31.489  1.00  0.00    -0.248 NA
ATOM     42  C   UNL A   1      39.100  30.606  31.481  1.00  0.00     0.031 C 
ATOM     43  C   UNL A   1      39.545  27.283  27.724  1.00  0.00     0.029 A 
ATOM     44  N   UNL A   1      41.145  27.291  29.285  1.00  0.00    -0.354 N 
ATOM     45  C   UNL A   1      41.066  30.137  32.541  1.00  0.00     0.074 A 
ATOM     46  C   UNL A   1      39.915  31.006  32.444  1.00  0.00     0.031 C 
ATOM     47  C   UNL A   1      40.445  26.345  27.384  1.00  0.00     0.029 A 
ATOM     48  C   UNL A   1      41.510  26.322  28.381  1.00  0.00     0.049 A 
ATOM     49  H   UNL A   1      41.683  27.517  30.078  1.00  0.00     0.167 HD
ATOM     50  C   UNL A   1      41.999  30.216  33.518  1.00  0.00     0.037 A 
ATOM     51  C   UNL A   1      42.581  25.506  28.365  1.00  0.00     0.037 A 
ATOM     52  C   UNL A   1      43.116  29.319  33.641  1.00  0.00     0.049 A 
ATOM     53  C   UNL A   1      43.570  25.577  29.496  1.00  0.00     0.074 A 
ATOM     54  C   UNL A   1      44.074  29.265  34.637  1.00  0.00     0.029 A 
ATOM     55  N   UNL A   1      43.421  28.313  32.736  1.00  0.00    -0.354 N 
ATOM     56  N   UNL A   1      43.585  26.378  30.534  1.00  0.00    -0.248 NA
ATOM     57  C   UNL A   1      44.681  24.615  29.464  1.00  0.00     0.031 C 
ATOM     58  C   UNL A   1      44.980  28.249  34.317  1.00  0.00     0.029 A 
ATOM     59  C   UNL A   1      44.559  27.641  33.145  1.00  0.00     0.049 A 
ATOM     60  H   UNL A   1      42.904  28.108  31.924  1.00  0.00     0.167 HD
ATOM     61  C   UNL A   1      44.684  25.997  31.294  1.00  0.00     0.074 A 
ATOM     62  C   UNL A   1      45.298  24.879  30.606  1.00  0.00     0.031 C 
ATOM     63  C   UNL A   1      45.148  26.523  32.454  1.00  0.00     0.037 A 
BRANCH  50  64
ATOM     64  C   UNL A   1      41.840  31.301  34.544  1.00  0.00     0.057 A 
ATOM     65  C   UNL A   1      41.141  31.092  35.740  1.00  0.00     0.134 A 
ATOM     66  C   UNL A   1      42.428  32.557  34.352  1.00  0.00     0.134 A 
ATOM     67  F   UNL A   1      40.540  29.915  35.980  1.00  0.00    -0.206 F 
ATOM     68  C   UNL A   1      41.012  32.099  36.697  1.00  0.00     0.040 A 
ATOM     69  C   UNL A   1      42.330  33.564  35.314  1.00  0.00     0.040 A 
ATOM     70  F   UNL A   1      43.114  32.824  33.231  1.00  0.00    -0.206 F 
ATOM     71  C   UNL A   1      41.616  33.337  36.490  1.00  0.00     0.006 A 
ENDBRANCH  50  64
BRANCH  51  72
ATOM     72  C   UNL A   1      42.759  24.523  27.266  1.00  0.00     0.057 A 
ATOM     73  C   UNL A   1      43.530  24.828  26.138  1.00  0.00     0.134 A 
ATOM     74  C   UNL A   1      42.140  23.268  27.303  1.00  0.00     0.134 A 
ATOM     75  F   UNL A   1      44.135  26.021  26.037  1.00  0.00    -0.206 F 
ATOM     76  C   UNL A   1      43.652  23.937  25.071  1.00  0.00     0.040 A 
ATOM     77  C   UNL A   1      42.275  22.355  26.256  1.00  0.00     0.040 A 
ATOM     78  F   UNL A   1      41.397  22.910  28.360  1.00  0.00    -0.206 F 
ATOM     79  C   UNL A   1      43.024  22.694  25.130  1.00  0.00     0.006 A 
ENDBRANCH  51  72
BRANCH  63  80
ATOM     80  C   UNL A   1      46.347  25.866  33.070  1.00  0.00     0.057 A 
ATOM     81  C   UNL A   1      47.654  26.241  32.735  1.00  0.00     0.134 A 
ATOM     82  C   UNL A   1      46.189  24.853  34.026  1.00  0.00     0.134 A 
ATOM     83  F   UNL A   1      47.872  27.198  31.819  1.00  0.00    -0.206 F 
ATOM     84  C   UNL A   1      48.761  25.609  33.300  1.00  0.00     0.040 A 
ATOM     85  C   UNL A   1      47.289  24.233  34.619  1.00  0.00     0.040 A 
ATOM     86  F   UNL A   1      44.965  24.454  34.401  1.00  0.00    -0.206 F 
ATOM     87  C   UNL A   1      48.581  24.604  34.248  1.00  0.00     0.006 A 
ENDBRANCH  63  80
ENDBRANCH  37  38
ENDBRANCH  29  32
ENDBRANCH  27  28
ENDBRANCH  26  27
ENDBRANCH   1  26
TORSDOF 15
ENDMDL
MODEL 2
REMARK VINA RESULT:      -9.8      4.309      9.614
REMARK SMILES COc1cc(OC)cc(-c2ccc([C@@H](C)C(=O)NCCCCNC(=O)c3ccc(-c4c5nc(c(-c6c(F)cccc6F)c6ccc([nH]6)c(-c6c(F)cccc6F)c6nc(c(-c7c(F)cccc7F)c7ccc4[nH]7)C=C6)C=C5)cc3)cc2F)c1
REMARK SMILES IDX 20 1 19 2 18 3 16 4 17 5 14 7 15 8 13 9 10 10 11 11 81 12
REMARK SMILES IDX 12 13 80 14 82 15 9 16 3 17 4 18 83 19 5 20 8 21 2 22 1 23
REMARK SMILES IDX 6 24 7 25 21 26 22 27 23 28 24 29 25 31 26 32 27 33 79 34
REMARK SMILES IDX 28 35 78 36 29 37 30 38 31 39 72 40 32 41 77 42 71 43 73 44
REMARK SMILES IDX 33 45 76 46 70 47 69 48 34 50 60 51 43 52 59 53 44 54 47 55
REMARK SMILES IDX 58 56 74 57 45 58 46 59 57 61 75 62 48 63 35 64 36 65 41 66
REMARK SMILES IDX 37 67 38 68 40 69 42 70 39 71 61 72 62 73 67 74 63 75 64 76
REMARK SMILES IDX 66 77 68 78 65 79 49 80 50 81 55 82 51 83 52 84 54 85 56 86
REMARK SMILES IDX 53 87
REMARK H PARENT 18 6 23 30 73 49 47 60
REMARK Flexibility Score: inf
ROOT
ATOM      1  C   UNL A   1      32.765  29.253  25.045  1.00  0.00     0.023 C 
ENDROOT
BRANCH   1   2
ATOM      2  C   UNL A   1      31.243  29.361  24.932  1.00  0.00     0.116 C 
BRANCH   2   3
ATOM      3  N   UNL A   1      30.824  29.793  23.615  1.00  0.00    -0.356 N 
ATOM      4  C   UNL A   1      30.165  29.144  22.616  1.00  0.00     0.227 C 
ATOM      5  O   UNL A   1      30.015  29.771  21.562  1.00  0.00    -0.274 OA
ATOM      6  H   UNL A   1      31.059  30.726  23.404  1.00  0.00     0.163 HD
BRANCH   4   7
ATOM      7  C   UNL A   1      29.610  27.715  22.740  1.00  0.00     0.105 C 
ATOM      8  C   UNL A   1      28.286  27.631  23.501  1.00  0.00     0.023 C 
BRANCH   7   9
ATOM      9  C   UNL A   1      30.667  26.693  23.127  1.00  0.00    -0.033 A 
ATOM     10  C   UNL A   1      32.792  24.959  23.952  1.00  0.00     0.018 A 
ATOM     11  C   UNL A   1      31.552  24.984  24.615  1.00  0.00     0.012 A 
ATOM     12  C   UNL A   1      32.920  25.801  22.839  1.00  0.00     0.131 A 
ATOM     13  C   UNL A   1      30.498  25.796  24.183  1.00  0.00     0.005 A 
ATOM     14  C   UNL A   1      31.892  26.666  22.444  1.00  0.00     0.044 A 
ATOM     15  F   UNL A   1      34.048  25.801  22.111  1.00  0.00    -0.206 F 
BRANCH  10  16
ATOM     16  C   UNL A   1      33.872  24.063  24.426  1.00  0.00    -0.008 A 
ATOM     17  C   UNL A   1      36.029  23.670  25.499  1.00  0.00     0.123 A 
ATOM     18  C   UNL A   1      35.866  22.295  25.331  1.00  0.00     0.092 A 
ATOM     19  C   UNL A   1      35.040  24.548  25.044  1.00  0.00     0.055 A 
ATOM     20  C   UNL A   1      34.720  21.783  24.732  1.00  0.00     0.123 A 
ATOM     21  C   UNL A   1      33.741  22.666  24.279  1.00  0.00     0.055 A 
BRANCH  17  22
ATOM     22  O   UNL A   1      37.215  24.047  26.070  1.00  0.00    -0.497 OA
ATOM     23  C   UNL A   1      38.229  23.050  26.104  1.00  0.00     0.278 C 
ENDBRANCH  17  22
BRANCH  20  24
ATOM     24  O   UNL A   1      34.663  20.419  24.640  1.00  0.00    -0.497 OA
ATOM     25  C   UNL A   1      33.518  19.787  25.201  1.00  0.00     0.278 C 
ENDBRANCH  20  24
ENDBRANCH  10  16
ENDBRANCH   7   9
ENDBRANCH   4   7
ENDBRANCH   2   3
ENDBRANCH   1   2
BRANCH   1  26
ATOM     26  C   UNL A   1      33.274  28.042  25.824  1.00  0.00     0.023 C 
BRANCH  26  27
ATOM     27  C   UNL A   1      34.265  28.359  26.935  1.00  0.00     0.116 C 
BRANCH  27  28
ATOM     28  N   UNL A   1      34.043  29.643  27.582  1.00  0.00    -0.352 N 
ATOM     29  C   UNL A   1      34.935  30.396  28.313  1.00  0.00     0.251 C 
ATOM     30  H   UNL A   1      33.140  30.021  27.486  1.00  0.00     0.163 HD
ATOM     31  O   UNL A   1      34.570  31.422  28.867  1.00  0.00    -0.269 OA
BRANCH  29  32
ATOM     32  C   UNL A   1      36.331  29.926  28.454  1.00  0.00     0.039 A 
ATOM     33  C   UNL A   1      37.208  30.090  27.379  1.00  0.00     0.014 A 
ATOM     34  C   UNL A   1      36.780  29.357  29.648  1.00  0.00     0.014 A 
ATOM     35  C   UNL A   1      38.549  29.732  27.524  1.00  0.00     0.010 A 
ATOM     36  C   UNL A   1      38.133  29.088  29.820  1.00  0.00     0.010 A 
ATOM     37  C   UNL A   1      39.028  29.254  28.755  1.00  0.00    -0.014 A 
BRANCH  37  38
ATOM     38  C   UNL A   1      40.455  28.884  28.929  1.00  0.00     0.031 A 
ATOM     39  C   UNL A   1      40.933  27.519  28.514  1.00  0.00     0.074 A 
ATOM     40  C   UNL A   1      41.307  29.756  29.503  1.00  0.00     0.049 A 
ATOM     41  N   UNL A   1      42.131  27.000  28.601  1.00  0.00    -0.248 NA
ATOM     42  C   UNL A   1      39.925  26.600  27.960  1.00  0.00     0.031 C 
ATOM     43  C   UNL A   1      40.950  31.079  30.018  1.00  0.00     0.029 A 
ATOM     44  N   UNL A   1      42.652  29.655  29.754  1.00  0.00    -0.354 N 
ATOM     45  C   UNL A   1      42.014  25.696  28.135  1.00  0.00     0.074 A 
ATOM     46  C   UNL A   1      40.619  25.481  27.822  1.00  0.00     0.031 C 
ATOM     47  C   UNL A   1      42.053  31.678  30.497  1.00  0.00     0.029 A 
ATOM     48  C   UNL A   1      43.189  30.774  30.344  1.00  0.00     0.049 A 
ATOM     49  H   UNL A   1      43.183  28.857  29.532  1.00  0.00     0.167 HD
ATOM     50  C   UNL A   1      42.985  24.772  27.953  1.00  0.00     0.037 A 
ATOM     51  C   UNL A   1      44.456  31.040  30.713  1.00  0.00     0.037 A 
ATOM     52  C   UNL A   1      44.380  25.004  28.219  1.00  0.00     0.049 A 
ATOM     53  C   UNL A   1      45.525  30.016  30.444  1.00  0.00     0.074 A 
ATOM     54  C   UNL A   1      45.453  24.162  27.995  1.00  0.00     0.029 A 
ATOM     55  N   UNL A   1      44.892  26.173  28.763  1.00  0.00    -0.354 N 
ATOM     56  N   UNL A   1      45.413  28.821  29.917  1.00  0.00    -0.248 NA
ATOM     57  C   UNL A   1      46.901  30.388  30.803  1.00  0.00     0.031 C 
ATOM     58  C   UNL A   1      46.613  24.805  28.438  1.00  0.00     0.029 A 
ATOM     59  C   UNL A   1      46.266  26.067  28.893  1.00  0.00     0.049 A 
ATOM     60  H   UNL A   1      44.359  26.959  29.018  1.00  0.00     0.167 HD
ATOM     61  C   UNL A   1      46.704  28.311  29.852  1.00  0.00     0.074 A 
ATOM     62  C   UNL A   1      47.584  29.337  30.374  1.00  0.00     0.031 C 
ATOM     63  C   UNL A   1      47.126  27.104  29.403  1.00  0.00     0.037 A 
BRANCH  50  64
ATOM     64  C   UNL A   1      42.576  23.427  27.426  1.00  0.00     0.057 A 
ATOM     65  C   UNL A   1      42.108  22.411  28.272  1.00  0.00     0.134 A 
ATOM     66  C   UNL A   1      42.609  23.158  26.053  1.00  0.00     0.134 A 
ATOM     67  F   UNL A   1      42.066  22.599  29.600  1.00  0.00    -0.206 F 
ATOM     68  C   UNL A   1      41.712  21.170  27.773  1.00  0.00     0.040 A 
ATOM     69  C   UNL A   1      42.189  21.930  25.538  1.00  0.00     0.040 A 
ATOM     70  F   UNL A   1      43.042  24.086  25.187  1.00  0.00    -0.206 F 
ATOM     71  C   UNL A   1      41.743  20.929  26.401  1.00  0.00     0.006 A 
ENDBRANCH  50  64
BRANCH  51  72
ATOM     72  C   UNL A   1      44.798  32.343  31.339  1.00  0.00     0.057 A 
ATOM     73  C   UNL A   1      44.726  32.522  32.726  1.00  0.00     0.134 A 
ATOM     74  C   UNL A   1      45.176  33.447  30.565  1.00  0.00     0.134 A 
ATOM     75  F   UNL A   1      44.354  31.507  33.519  1.00  0.00    -0.206 F 
ATOM     76  C   UNL A   1      44.983  33.759  33.319  1.00  0.00     0.040 A 
ATOM     77  C   UNL A   1      45.462  34.683  31.147  1.00  0.00     0.040 A 
ATOM     78  F   UNL A   1      45.275  33.339  29.232  1.00  0.00    -0.206 F 
ATOM     79  C   UNL A   1      45.355  34.844  32.527  1.00  0.00     0.006 A 
ENDBRANCH  51  72
BRANCH  63  80
ATOM     80  C   UNL A   1      48.605  26.849  29.417  1.00  0.00     0.057 A 
ATOM     81  C   UNL A   1      49.439  27.264  28.371  1.00  0.00     0.134 A 
ATOM     82  C   UNL A   1      49.202  26.195  30.502  1.00  0.00     0.134 A 
ATOM     83  F   UNL A   1      48.926  27.887  27.299  1.00  0.00    -0.206 F 
ATOM     84  C   UNL A   1      50.809  27.004  28.386  1.00  0.00     0.040 A 
ATOM     85  C   UNL A   1      50.576  25.955  30.542  1.00  0.00     0.040 A 
ATOM     86  F   UNL A   1      48.463  25.783  31.542  1.00  0.00    -0.206 F 
ATOM     87  C   UNL A   1      51.383  26.352  29.476  1.00  0.00     0.006 A 
ENDBRANCH  63  80
ENDBRANCH  37  38
ENDBRANCH  29  32
ENDBRANCH  27  28
ENDBRANCH  26  27
ENDBRANCH   1  26
TORSDOF 15
ENDMDL
MODEL 3
REMARK VINA RESULT:      -9.8      4.190      8.007
REMARK SMILES COc1cc(OC)cc(-c2ccc([C@@H](C)C(=O)NCCCCNC(=O)c3ccc(-c4c5nc(c(-c6c(F)cccc6F)c6ccc([nH]6)c(-c6c(F)cccc6F)c6nc(c(-c7c(F)cccc7F)c7ccc4[nH]7)C=C6)C=C5)cc3)cc2F)c1
REMARK SMILES IDX 20 1 19 2 18 3 16 4 17 5 14 7 15 8 13 9 10 10 11 11 81 12
REMARK SMILES IDX 12 13 80 14 82 15 9 16 3 17 4 18 83 19 5 20 8 21 2 22 1 23
REMARK SMILES IDX 6 24 7 25 21 26 22 27 23 28 24 29 25 31 26 32 27 33 79 34
REMARK SMILES IDX 28 35 78 36 29 37 30 38 31 39 72 40 32 41 77 42 71 43 73 44
REMARK SMILES IDX 33 45 76 46 70 47 69 48 34 50 60 51 43 52 59 53 44 54 47 55
REMARK SMILES IDX 58 56 74 57 45 58 46 59 57 61 75 62 48 63 35 64 36 65 41 66
REMARK SMILES IDX 37 67 38 68 40 69 42 70 39 71 61 72 62 73 67 74 63 75 64 76
REMARK SMILES IDX 66 77 68 78 65 79 49 80 50 81 55 82 51 83 52 84 54 85 56 86
REMARK SMILES IDX 53 87
REMARK H PARENT 18 6 23 30 73 49 47 60
REMARK Flexibility Score: inf
ROOT
ATOM      1  C   UNL A   1      34.153  30.844  27.747  1.00  0.00     0.023 C 
ENDROOT
BRANCH   1   2
ATOM      2  C   UNL A   1      34.080  29.532  26.962  1.00  0.00     0.116 C 
BRANCH   2   3
ATOM      3  N   UNL A   1      32.859  29.425  26.192  1.00  0.00    -0.356 N 
ATOM      4  C   UNL A   1      32.614  28.931  24.947  1.00  0.00     0.227 C 
ATOM      5  O   UNL A   1      31.456  29.050  24.529  1.00  0.00    -0.274 OA
ATOM      6  H   UNL A   1      32.061  29.774  26.651  1.00  0.00     0.163 HD
BRANCH   4   7
ATOM      7  C   UNL A   1      33.676  28.246  24.070  1.00  0.00     0.105 C 
ATOM      8  C   UNL A   1      33.725  28.773  22.635  1.00  0.00     0.023 C 
BRANCH   7   9
ATOM      9  C   UNL A   1      33.699  26.734  24.227  1.00  0.00    -0.033 A 
ATOM     10  C   UNL A   1      33.971  23.890  24.414  1.00  0.00     0.018 A 
ATOM     11  C   UNL A   1      34.069  24.722  25.543  1.00  0.00     0.012 A 
ATOM     12  C   UNL A   1      33.693  24.524  23.195  1.00  0.00     0.131 A 
ATOM     13  C   UNL A   1      33.889  26.107  25.459  1.00  0.00     0.005 A 
ATOM     14  C   UNL A   1      33.580  25.915  23.095  1.00  0.00     0.044 A 
ATOM     15  F   UNL A   1      33.526  23.802  22.076  1.00  0.00    -0.206 F 
BRANCH  10  16
ATOM     16  C   UNL A   1      34.141  22.425  24.553  1.00  0.00    -0.008 A 
ATOM     17  C   UNL A   1      35.519  20.439  24.892  1.00  0.00     0.123 A 
ATOM     18  C   UNL A   1      34.380  19.635  24.841  1.00  0.00     0.092 A 
ATOM     19  C   UNL A   1      35.400  21.824  24.744  1.00  0.00     0.055 A 
ATOM     20  C   UNL A   1      33.121  20.198  24.662  1.00  0.00     0.123 A 
ATOM     21  C   UNL A   1      33.012  21.580  24.512  1.00  0.00     0.055 A 
BRANCH  17  22
ATOM     22  O   UNL A   1      36.700  19.761  25.037  1.00  0.00    -0.497 OA
ATOM     23  C   UNL A   1      37.881  20.532  24.857  1.00  0.00     0.278 C 
ENDBRANCH  17  22
BRANCH  20  24
ATOM     24  O   UNL A   1      32.077  19.313  24.649  1.00  0.00    -0.497 OA
ATOM     25  C   UNL A   1      32.411  17.930  24.635  1.00  0.00     0.278 C 
ENDBRANCH  20  24
ENDBRANCH  10  16
ENDBRANCH   7   9
ENDBRANCH   4   7
ENDBRANCH   2   3
ENDBRANCH   1   2
BRANCH   1  26
ATOM     26  C   UNL A   1      32.916  31.733  27.643  1.00  0.00     0.023 C 
BRANCH  26  27
ATOM     27  C   UNL A   1      33.170  33.132  27.100  1.00  0.00     0.116 C 
BRANCH  27  28
ATOM     28  N   UNL A   1      32.693  34.201  27.964  1.00  0.00    -0.352 N 
ATOM     29  C   UNL A   1      33.261  34.678  29.124  1.00  0.00     0.251 C 
ATOM     30  H   UNL A   1      31.858  34.639  27.683  1.00  0.00     0.163 HD
ATOM     31  O   UNL A   1      32.691  35.533  29.786  1.00  0.00    -0.269 OA
BRANCH  29  32
ATOM     32  C   UNL A   1      34.550  34.114  29.582  1.00  0.00     0.039 A 
ATOM     33  C   UNL A   1      34.548  33.213  30.650  1.00  0.00     0.014 A 
ATOM     34  C   UNL A   1      35.747  34.447  28.944  1.00  0.00     0.014 A 
ATOM     35  C   UNL A   1      35.743  32.605  31.039  1.00  0.00     0.010 A 
ATOM     36  C   UNL A   1      36.917  33.773  29.273  1.00  0.00     0.010 A 
ATOM     37  C   UNL A   1      36.932  32.859  30.335  1.00  0.00    -0.014 A 
BRANCH  37  38
ATOM     38  C   UNL A   1      38.207  32.208  30.728  1.00  0.00     0.031 A 
ATOM     39  C   UNL A   1      39.035  32.790  31.842  1.00  0.00     0.074 A 
ATOM     40  C   UNL A   1      38.642  31.127  30.052  1.00  0.00     0.049 A 
ATOM     41  N   UNL A   1      40.183  32.381  32.319  1.00  0.00    -0.248 NA
ATOM     42  C   UNL A   1      38.525  34.013  32.484  1.00  0.00     0.031 C 
ATOM     43  C   UNL A   1      37.970  30.515  28.904  1.00  0.00     0.029 A 
ATOM     44  N   UNL A   1      39.760  30.353  30.232  1.00  0.00    -0.354 N 
ATOM     45  C   UNL A   1      40.538  33.305  33.295  1.00  0.00     0.074 A 
ATOM     46  C   UNL A   1      39.516  34.328  33.303  1.00  0.00     0.031 C 
ATOM     47  C   UNL A   1      38.674  29.444  28.502  1.00  0.00     0.029 A 
ATOM     48  C   UNL A   1      39.856  29.306  29.346  1.00  0.00     0.049 A 
ATOM     49  H   UNL A   1      40.430  30.529  30.931  1.00  0.00     0.167 HD
ATOM     50  C   UNL A   1      41.601  33.286  34.132  1.00  0.00     0.037 A 
ATOM     51  C   UNL A   1      40.790  28.343  29.235  1.00  0.00     0.037 A 
ATOM     52  C   UNL A   1      42.590  32.242  34.156  1.00  0.00     0.049 A 
ATOM     53  C   UNL A   1      41.930  28.314  30.216  1.00  0.00     0.074 A 
ATOM     54  C   UNL A   1      43.662  32.088  35.016  1.00  0.00     0.029 A 
ATOM     55  N   UNL A   1      42.621  31.168  33.279  1.00  0.00    -0.354 N 
ATOM     56  N   UNL A   1      42.202  29.144  31.194  1.00  0.00    -0.248 NA
ATOM     57  C   UNL A   1      42.881  27.201  30.092  1.00  0.00     0.031 C 
ATOM     58  C   UNL A   1      44.364  30.940  34.637  1.00  0.00     0.029 A 
ATOM     59  C   UNL A   1      43.701  30.353  33.571  1.00  0.00     0.049 A 
ATOM     60  H   UNL A   1      41.971  31.008  32.558  1.00  0.00     0.167 HD
ATOM     61  C   UNL A   1      43.334  28.637  31.819  1.00  0.00     0.074 A 
ATOM     62  C   UNL A   1      43.684  27.416  31.122  1.00  0.00     0.031 C 
ATOM     63  C   UNL A   1      44.026  29.136  32.874  1.00  0.00     0.037 A 
BRANCH  50  64
ATOM     64  C   UNL A   1      41.741  34.422  35.104  1.00  0.00     0.057 A 
ATOM     65  C   UNL A   1      42.401  35.611  34.762  1.00  0.00     0.134 A 
ATOM     66  C   UNL A   1      41.175  34.343  36.381  1.00  0.00     0.134 A 
ATOM     67  F   UNL A   1      42.980  35.746  33.559  1.00  0.00    -0.206 F 
ATOM     68  C   UNL A   1      42.512  36.670  35.664  1.00  0.00     0.040 A 
ATOM     69  C   UNL A   1      41.255  35.406  37.283  1.00  0.00     0.040 A 
ATOM     70  F   UNL A   1      40.526  33.236  36.772  1.00  0.00    -0.206 F 
ATOM     71  C   UNL A   1      41.930  36.573  36.926  1.00  0.00     0.006 A 
ENDBRANCH  50  64
BRANCH  51  72
ATOM     72  C   UNL A   1      40.673  27.302  28.182  1.00  0.00     0.057 A 
ATOM     73  C   UNL A   1      41.373  27.410  26.974  1.00  0.00     0.134 A 
ATOM     74  C   UNL A   1      39.837  26.191  28.345  1.00  0.00     0.134 A 
ATOM     75  F   UNL A   1      42.176  28.461  26.751  1.00  0.00    -0.206 F 
ATOM     76  C   UNL A   1      41.221  26.472  25.952  1.00  0.00     0.040 A 
ATOM     77  C   UNL A   1      39.697  25.229  27.343  1.00  0.00     0.040 A 
ATOM     78  F   UNL A   1      39.148  26.022  29.483  1.00  0.00    -0.206 F 
ATOM     79  C   UNL A   1      40.381  25.375  26.137  1.00  0.00     0.006 A 
ENDBRANCH  51  72
BRANCH  63  80
ATOM     80  C   UNL A   1      45.198  28.336  33.360  1.00  0.00     0.057 A 
ATOM     81  C   UNL A   1      46.498  28.562  32.891  1.00  0.00     0.134 A 
ATOM     82  C   UNL A   1      45.023  27.336  34.326  1.00  0.00     0.134 A 
ATOM     83  F   UNL A   1      46.730  29.499  31.959  1.00  0.00    -0.206 F 
ATOM     84  C   UNL A   1      47.576  27.798  33.337  1.00  0.00     0.040 A 
ATOM     85  C   UNL A   1      46.098  26.585  34.801  1.00  0.00     0.040 A 
ATOM     86  F   UNL A   1      43.806  27.076  34.827  1.00  0.00    -0.206 F 
ATOM     87  C   UNL A   1      47.379  26.809  34.298  1.00  0.00     0.006 A 
ENDBRANCH  63  80
ENDBRANCH  37  38
ENDBRANCH  29  32
ENDBRANCH  27  28
ENDBRANCH  26  27
ENDBRANCH   1  26
TORSDOF 15
ENDMDL
