MODEL 1
REMARK VINA RESULT:     -10.8      0.000      0.000
REMARK SMILES CCc1ccc(CNC(=O)CCC(=O)NCCCCNC(=O)c2ccc(-c3c4nc(c(-c5c(F)cccc5F)c5ccc([nH]5)c(-c5c(F)cccc5F)c5nc(c(-c6c(F)cccc6F)c6ccc3[nH]6)C=C5)C=C4)cc2)cc1
REMARK SMILES IDX 16 1 15 2 13 3 14 4 12 6 11 7 9 8 8 9 10 11 7 12 6 13 3 14
REMARK SMILES IDX 4 15 78 16 5 17 77 18 2 19 1 20 17 21 18 22 19 23 20 24
REMARK SMILES IDX 21 25 22 27 23 28 24 29 76 30 25 31 75 32 26 33 27 34 28 35
REMARK SMILES IDX 69 36 29 37 74 38 68 39 70 40 30 41 73 42 67 43 66 44 31 46
REMARK SMILES IDX 57 47 40 48 56 49 41 50 44 51 55 52 71 53 42 54 43 55 54 57
REMARK SMILES IDX 72 58 45 59 32 60 33 61 38 62 34 63 35 64 37 65 39 66 36 67
REMARK SMILES IDX 58 68 59 69 64 70 60 71 61 72 63 73 65 74 62 75 46 76 47 77
REMARK SMILES IDX 52 78 48 79 49 80 51 81 53 82 50 83
REMARK H PARENT 15 5 8 10 20 26 70 45 44 56
REMARK Flexibility Score: inf
ROOT
ATOM      1  C   UNL A   1      36.485  21.526  25.310  1.00  0.00     0.116 C 
ENDROOT
BRANCH   1   2
ATOM      2  N   UNL A   1      35.737  21.972  26.471  1.00  0.00    -0.356 N 
ATOM      3  C   UNL A   1      34.762  22.924  26.541  1.00  0.00     0.220 C 
ATOM      4  O   UNL A   1      33.899  22.841  27.416  1.00  0.00    -0.275 OA
ATOM      5  H   UNL A   1      35.962  21.528  27.320  1.00  0.00     0.163 HD
BRANCH   3   6
ATOM      6  C   UNL A   1      34.806  24.128  25.638  1.00  0.00     0.110 C 
BRANCH   6   7
ATOM      7  C   UNL A   1      33.631  24.061  24.664  1.00  0.00     0.110 C 
BRANCH   7   8
ATOM      8  C   UNL A   1      34.067  23.453  23.351  1.00  0.00     0.220 C 
ATOM      9  N   UNL A   1      33.276  22.579  22.669  1.00  0.00    -0.352 N 
ATOM     10  H   UNL A   1      33.557  22.412  21.741  1.00  0.00     0.163 HD
ATOM     11  O   UNL A   1      35.142  23.786  22.847  1.00  0.00    -0.275 OA
BRANCH   9  12
ATOM     12  C   UNL A   1      32.088  21.854  23.081  1.00  0.00     0.151 C 
BRANCH  12  13
ATOM     13  C   UNL A   1      32.365  20.471  23.632  1.00  0.00    -0.029 A 
ATOM     14  C   UNL A   1      33.032  17.930  24.732  1.00  0.00    -0.048 A 
ATOM     15  C   UNL A   1      32.904  19.057  25.548  1.00  0.00     0.004 A 
ATOM     16  C   UNL A   1      32.788  18.079  23.360  1.00  0.00     0.004 A 
ATOM     17  C   UNL A   1      32.607  20.306  25.000  1.00  0.00     0.006 A 
ATOM     18  C   UNL A   1      32.451  19.334  22.817  1.00  0.00     0.006 A 
BRANCH  14  19
ATOM     19  C   UNL A   1      33.402  16.611  25.375  1.00  0.00     0.032 C 
ATOM     20  C   UNL A   1      34.777  16.068  25.012  1.00  0.00     0.009 C 
ENDBRANCH  14  19
ENDBRANCH  12  13
ENDBRANCH   9  12
ENDBRANCH   7   8
ENDBRANCH   6   7
ENDBRANCH   3   6
ENDBRANCH   1   2
BRANCH   1  21
ATOM     21  C   UNL A   1      36.453  20.030  25.001  1.00  0.00     0.023 C 
BRANCH  21  22
ATOM     22  C   UNL A   1      37.787  19.278  24.969  1.00  0.00     0.023 C 
BRANCH  22  23
ATOM     23  C   UNL A   1      38.953  19.901  25.728  1.00  0.00     0.116 C 
BRANCH  23  24
ATOM     24  N   UNL A   1      40.056  18.970  25.903  1.00  0.00    -0.352 N 
ATOM     25  C   UNL A   1      41.398  19.180  26.073  1.00  0.00     0.251 C 
ATOM     26  H   UNL A   1      39.791  18.022  25.897  1.00  0.00     0.163 HD
ATOM     27  O   UNL A   1      42.159  18.206  25.977  1.00  0.00    -0.269 OA
BRANCH  25  28
ATOM     28  C   UNL A   1      41.980  20.511  26.373  1.00  0.00     0.039 A 
ATOM     29  C   UNL A   1      42.123  20.881  27.717  1.00  0.00     0.014 A 
ATOM     30  C   UNL A   1      42.275  21.445  25.376  1.00  0.00     0.014 A 
ATOM     31  C   UNL A   1      42.573  22.161  28.059  1.00  0.00     0.010 A 
ATOM     32  C   UNL A   1      42.782  22.705  25.716  1.00  0.00     0.010 A 
ATOM     33  C   UNL A   1      42.920  23.083  27.061  1.00  0.00    -0.014 A 
BRANCH  33  34
ATOM     34  C   UNL A   1      43.394  24.450  27.411  1.00  0.00     0.031 A 
ATOM     35  C   UNL A   1      42.416  25.506  27.858  1.00  0.00     0.074 A 
ATOM     36  C   UNL A   1      44.700  24.763  27.293  1.00  0.00     0.049 A 
ATOM     37  N   UNL A   1      42.628  26.770  28.134  1.00  0.00    -0.248 NA
ATOM     38  C   UNL A   1      41.011  25.092  27.992  1.00  0.00     0.031 C 
ATOM     39  C   UNL A   1      45.751  23.845  26.852  1.00  0.00     0.029 A 
ATOM     40  N   UNL A   1      45.364  25.942  27.526  1.00  0.00    -0.354 N 
ATOM     41  C   UNL A   1      41.384  27.303  28.454  1.00  0.00     0.074 A 
ATOM     42  C   UNL A   1      40.418  26.236  28.299  1.00  0.00     0.031 C 
ATOM     43  C   UNL A   1      46.928  24.491  26.858  1.00  0.00     0.029 A 
ATOM     44  C   UNL A   1      46.712  25.876  27.269  1.00  0.00     0.049 A 
ATOM     45  H   UNL A   1      44.917  26.759  27.845  1.00  0.00     0.167 HD
ATOM     46  C   UNL A   1      41.077  28.560  28.857  1.00  0.00     0.037 A 
ATOM     47  C   UNL A   1      47.666  26.823  27.345  1.00  0.00     0.037 A 
ATOM     48  C   UNL A   1      42.039  29.614  29.045  1.00  0.00     0.049 A 
ATOM     49  C   UNL A   1      47.298  28.212  27.790  1.00  0.00     0.074 A 
ATOM     50  C   UNL A   1      41.828  30.904  29.505  1.00  0.00     0.029 A 
ATOM     51  N   UNL A   1      43.396  29.501  28.786  1.00  0.00    -0.354 N 
ATOM     52  N   UNL A   1      46.126  28.686  28.135  1.00  0.00    -0.248 NA
ATOM     53  C   UNL A   1      48.388  29.197  27.858  1.00  0.00     0.031 C 
ATOM     54  C   UNL A   1      43.052  31.581  29.488  1.00  0.00     0.029 A 
ATOM     55  C   UNL A   1      44.032  30.702  29.057  1.00  0.00     0.049 A 
ATOM     56  H   UNL A   1      43.843  28.687  28.457  1.00  0.00     0.167 HD
ATOM     57  C   UNL A   1      46.341  30.013  28.484  1.00  0.00     0.074 A 
ATOM     58  C   UNL A   1      47.757  30.267  28.322  1.00  0.00     0.031 C 
ATOM     59  C   UNL A   1      45.443  30.939  28.900  1.00  0.00     0.037 A 
BRANCH  46  60
ATOM     60  C   UNL A   1      39.632  28.868  29.126  1.00  0.00     0.057 A 
ATOM     61  C   UNL A   1      39.076  28.744  30.407  1.00  0.00     0.134 A 
ATOM     62  C   UNL A   1      38.797  29.335  28.103  1.00  0.00     0.134 A 
ATOM     63  F   UNL A   1      39.820  28.294  31.429  1.00  0.00    -0.206 F 
ATOM     64  C   UNL A   1      37.736  29.047  30.654  1.00  0.00     0.040 A 
ATOM     65  C   UNL A   1      37.461  29.667  28.344  1.00  0.00     0.040 A 
ATOM     66  F   UNL A   1      39.267  29.487  26.856  1.00  0.00    -0.206 F 
ATOM     67  C   UNL A   1      36.926  29.517  29.621  1.00  0.00     0.006 A 
ENDBRANCH  46  60
BRANCH  47  68
ATOM     68  C   UNL A   1      49.073  26.490  27.007  1.00  0.00     0.057 A 
ATOM     69  C   UNL A   1      49.564  26.669  25.709  1.00  0.00     0.134 A 
ATOM     70  C   UNL A   1      49.953  25.975  27.966  1.00  0.00     0.134 A 
ATOM     71  F   UNL A   1      48.761  27.137  24.743  1.00  0.00    -0.206 F 
ATOM     72  C   UNL A   1      50.876  26.332  25.371  1.00  0.00     0.040 A 
ATOM     73  C   UNL A   1      51.275  25.656  27.648  1.00  0.00     0.040 A 
ATOM     74  F   UNL A   1      49.544  25.785  29.229  1.00  0.00    -0.206 F 
ATOM     75  C   UNL A   1      51.736  25.828  26.344  1.00  0.00     0.006 A 
ENDBRANCH  47  68
BRANCH  59  76
ATOM     76  C   UNL A   1      45.969  32.303  29.241  1.00  0.00     0.057 A 
ATOM     77  C   UNL A   1      46.014  33.334  28.294  1.00  0.00     0.134 A 
ATOM     78  C   UNL A   1      46.398  32.598  30.541  1.00  0.00     0.134 A 
ATOM     79  F   UNL A   1      45.630  33.110  27.028  1.00  0.00    -0.206 F 
ATOM     80  C   UNL A   1      46.484  34.606  28.624  1.00  0.00     0.040 A 
ATOM     81  C   UNL A   1      46.848  33.872  30.888  1.00  0.00     0.040 A 
ATOM     82  F   UNL A   1      46.373  31.656  31.496  1.00  0.00    -0.206 F 
ATOM     83  C   UNL A   1      46.896  34.880  29.927  1.00  0.00     0.006 A 
ENDBRANCH  59  76
ENDBRANCH  33  34
ENDBRANCH  25  28
ENDBRANCH  23  24
ENDBRANCH  22  23
ENDBRANCH  21  22
ENDBRANCH   1  21
TORSDOF 16
ENDMDL
MODEL 2
REMARK VINA RESULT:     -10.6      5.032     10.696
REMARK SMILES CCc1ccc(CNC(=O)CCC(=O)NCCCCNC(=O)c2ccc(-c3c4nc(c(-c5c(F)cccc5F)c5ccc([nH]5)c(-c5c(F)cccc5F)c5nc(c(-c6c(F)cccc6F)c6ccc3[nH]6)C=C5)C=C4)cc2)cc1
REMARK SMILES IDX 16 1 15 2 13 3 14 4 12 6 11 7 9 8 8 9 10 11 7 12 6 13 3 14
REMARK SMILES IDX 4 15 78 16 5 17 77 18 2 19 1 20 17 21 18 22 19 23 20 24
REMARK SMILES IDX 21 25 22 27 23 28 24 29 76 30 25 31 75 32 26 33 27 34 28 35
REMARK SMILES IDX 69 36 29 37 74 38 68 39 70 40 30 41 73 42 67 43 66 44 31 46
REMARK SMILES IDX 57 47 40 48 56 49 41 50 44 51 55 52 71 53 42 54 43 55 54 57
REMARK SMILES IDX 72 58 45 59 32 60 33 61 38 62 34 63 35 64 37 65 39 66 36 67
REMARK SMILES IDX 58 68 59 69 64 70 60 71 61 72 63 73 65 74 62 75 46 76 47 77
REMARK SMILES IDX 52 78 48 79 49 80 51 81 53 82 50 83
REMARK H PARENT 15 5 8 10 20 26 70 45 44 56
REMARK Flexibility Score: inf
ROOT
ATOM      1  C   UNL A   1      32.904  35.980  29.710  1.00  0.00     0.116 C 
ENDROOT
BRANCH   1   2
ATOM      2  N   UNL A   1      33.146  37.033  30.679  1.00  0.00    -0.356 N 
ATOM      3  C   UNL A   1      33.600  36.924  31.961  1.00  0.00     0.220 C 
ATOM      4  O   UNL A   1      34.222  37.861  32.463  1.00  0.00    -0.275 OA
ATOM      5  H   UNL A   1      32.960  37.949  30.369  1.00  0.00     0.163 HD
BRANCH   3   6
ATOM      6  C   UNL A   1      33.243  35.723  32.795  1.00  0.00     0.110 C 
BRANCH   6   7
ATOM      7  C   UNL A   1      34.530  35.048  33.269  1.00  0.00     0.110 C 
BRANCH   7   8
ATOM      8  C   UNL A   1      34.390  33.544  33.210  1.00  0.00     0.220 C 
ATOM      9  N   UNL A   1      35.408  32.717  33.573  1.00  0.00    -0.352 N 
ATOM     10  H   UNL A   1      35.146  31.777  33.698  1.00  0.00     0.163 HD
ATOM     11  O   UNL A   1      33.315  33.039  32.876  1.00  0.00    -0.275 OA
BRANCH   9  12
ATOM     12  C   UNL A   1      36.816  32.988  33.806  1.00  0.00     0.151 C 
BRANCH  12  13
ATOM     13  C   UNL A   1      37.564  33.475  32.584  1.00  0.00    -0.029 A 
ATOM     14  C   UNL A   1      38.986  34.231  30.234  1.00  0.00    -0.048 A 
ATOM     15  C   UNL A   1      37.776  33.536  30.152  1.00  0.00     0.004 A 
ATOM     16  C   UNL A   1      39.461  34.577  31.507  1.00  0.00     0.004 A 
ATOM     17  C   UNL A   1      37.099  33.141  31.307  1.00  0.00     0.006 A 
ATOM     18  C   UNL A   1      38.755  34.209  32.668  1.00  0.00     0.006 A 
BRANCH  14  19
ATOM     19  C   UNL A   1      39.699  34.592  28.950  1.00  0.00     0.032 C 
ATOM     20  C   UNL A   1      41.078  35.215  29.120  1.00  0.00     0.009 C 
ENDBRANCH  14  19
ENDBRANCH  12  13
ENDBRANCH   9  12
ENDBRANCH   7   8
ENDBRANCH   6   7
ENDBRANCH   3   6
ENDBRANCH   1   2
BRANCH   1  21
ATOM     21  C   UNL A   1      34.111  35.155  29.269  1.00  0.00     0.023 C 
BRANCH  21  22
ATOM     22  C   UNL A   1      34.015  33.630  29.382  1.00  0.00     0.023 C 
BRANCH  22  23
ATOM     23  C   UNL A   1      34.692  32.809  28.290  1.00  0.00     0.116 C 
BRANCH  23  24
ATOM     24  N   UNL A   1      34.061  31.513  28.107  1.00  0.00    -0.352 N 
ATOM     25  C   UNL A   1      34.593  30.258  27.980  1.00  0.00     0.251 C 
ATOM     26  H   UNL A   1      33.078  31.541  28.066  1.00  0.00     0.163 HD
ATOM     27  O   UNL A   1      33.847  29.340  27.610  1.00  0.00    -0.269 OA
BRANCH  25  28
ATOM     28  C   UNL A   1      36.014  29.946  28.270  1.00  0.00     0.039 A 
ATOM     29  C   UNL A   1      36.946  30.081  27.232  1.00  0.00     0.014 A 
ATOM     30  C   UNL A   1      36.432  29.413  29.493  1.00  0.00     0.014 A 
ATOM     31  C   UNL A   1      38.281  29.707  27.420  1.00  0.00     0.010 A 
ATOM     32  C   UNL A   1      37.779  29.094  29.701  1.00  0.00     0.010 A 
ATOM     33  C   UNL A   1      38.715  29.221  28.662  1.00  0.00    -0.014 A 
BRANCH  33  34
ATOM     34  C   UNL A   1      40.131  28.813  28.874  1.00  0.00     0.031 A 
ATOM     35  C   UNL A   1      41.121  29.778  29.475  1.00  0.00     0.074 A 
ATOM     36  C   UNL A   1      40.546  27.588  28.493  1.00  0.00     0.049 A 
ATOM     37  N   UNL A   1      42.409  29.632  29.669  1.00  0.00    -0.248 NA
ATOM     38  C   UNL A   1      40.598  31.087  29.895  1.00  0.00     0.031 C 
ATOM     39  C   UNL A   1      39.699  26.564  27.880  1.00  0.00     0.029 A 
ATOM     40  N   UNL A   1      41.786  27.002  28.557  1.00  0.00    -0.354 N 
ATOM     41  C   UNL A   1      42.851  30.833  30.212  1.00  0.00     0.074 A 
ATOM     42  C   UNL A   1      41.702  31.710  30.281  1.00  0.00     0.031 C 
ATOM     43  C   UNL A   1      40.441  25.471  27.636  1.00  0.00     0.029 A 
ATOM     44  C   UNL A   1      41.820  25.728  28.042  1.00  0.00     0.049 A 
ATOM     45  H   UNL A   1      42.575  27.450  28.936  1.00  0.00     0.167 HD
ATOM     46  C   UNL A   1      44.095  31.169  30.633  1.00  0.00     0.037 A 
ATOM     47  C   UNL A   1      42.846  24.867  27.903  1.00  0.00     0.037 A 
ATOM     48  C   UNL A   1      45.233  30.288  30.598  1.00  0.00     0.049 A 
ATOM     49  C   UNL A   1      44.218  25.266  28.372  1.00  0.00     0.074 A 
ATOM     50  C   UNL A   1      46.520  30.521  31.054  1.00  0.00     0.029 A 
ATOM     51  N   UNL A   1      45.222  29.002  30.080  1.00  0.00    -0.354 N 
ATOM     52  N   UNL A   1      44.608  26.387  28.928  1.00  0.00    -0.248 NA
ATOM     53  C   UNL A   1      45.292  24.278  28.197  1.00  0.00     0.031 C 
ATOM     54  C   UNL A   1      47.295  29.390  30.778  1.00  0.00     0.029 A 
ATOM     55  C   UNL A   1      46.482  28.437  30.188  1.00  0.00     0.049 A 
ATOM     56  H   UNL A   1      44.434  28.555  29.693  1.00  0.00     0.167 HD
ATOM     57  C   UNL A   1      45.963  26.230  29.191  1.00  0.00     0.074 A 
ATOM     58  C   UNL A   1      46.326  24.901  28.747  1.00  0.00     0.031 C 
ATOM     59  C   UNL A   1      46.829  27.110  29.750  1.00  0.00     0.037 A 
BRANCH  46  60
ATOM     60  C   UNL A   1      44.294  32.556  31.172  1.00  0.00     0.057 A 
ATOM     61  C   UNL A   1      44.610  33.635  30.336  1.00  0.00     0.134 A 
ATOM     62  C   UNL A   1      44.125  32.825  32.536  1.00  0.00     0.134 A 
ATOM     63  F   UNL A   1      44.794  33.444  29.020  1.00  0.00    -0.206 F 
ATOM     64  C   UNL A   1      44.779  34.926  30.840  1.00  0.00     0.040 A 
ATOM     65  C   UNL A   1      44.265  34.117  33.049  1.00  0.00     0.040 A 
ATOM     66  F   UNL A   1      43.811  31.841  33.391  1.00  0.00    -0.206 F 
ATOM     67  C   UNL A   1      44.599  35.170  32.201  1.00  0.00     0.006 A 
ENDBRANCH  46  60
BRANCH  47  68
ATOM     68  C   UNL A   1      42.616  23.528  27.305  1.00  0.00     0.057 A 
ATOM     69  C   UNL A   1      42.231  22.440  28.097  1.00  0.00     0.134 A 
ATOM     70  C   UNL A   1      42.784  23.301  25.934  1.00  0.00     0.134 A 
ATOM     71  F   UNL A   1      42.076  22.592  29.421  1.00  0.00    -0.206 F 
ATOM     72  C   UNL A   1      42.040  21.170  27.552  1.00  0.00     0.040 A 
ATOM     73  C   UNL A   1      42.572  22.042  25.370  1.00  0.00     0.040 A 
ATOM     74  F   UNL A   1      43.147  24.304  25.121  1.00  0.00    -0.206 F 
ATOM     75  C   UNL A   1      42.205  20.970  26.183  1.00  0.00     0.006 A 
ENDBRANCH  47  68
BRANCH  59  76
ATOM     76  C   UNL A   1      48.245  26.654  29.942  1.00  0.00     0.057 A 
ATOM     77  C   UNL A   1      49.245  26.934  29.002  1.00  0.00     0.134 A 
ATOM     78  C   UNL A   1      48.620  25.960  31.099  1.00  0.00     0.134 A 
ATOM     79  F   UNL A   1      48.946  27.583  27.866  1.00  0.00    -0.206 F 
ATOM     80  C   UNL A   1      50.565  26.526  29.198  1.00  0.00     0.040 A 
ATOM     81  C   UNL A   1      49.941  25.566  31.317  1.00  0.00     0.040 A 
ATOM     82  F   UNL A   1      47.712  25.666  32.042  1.00  0.00    -0.206 F 
ATOM     83  C   UNL A   1      50.918  25.845  30.362  1.00  0.00     0.006 A 
ENDBRANCH  59  76
ENDBRANCH  33  34
ENDBRANCH  25  28
ENDBRANCH  23  24
ENDBRANCH  22  23
ENDBRANCH  21  22
ENDBRANCH   1  21
TORSDOF 16
ENDMDL
MODEL 3
REMARK VINA RESULT:     -10.6      5.811     11.006
REMARK SMILES CCc1ccc(CNC(=O)CCC(=O)NCCCCNC(=O)c2ccc(-c3c4nc(c(-c5c(F)cccc5F)c5ccc([nH]5)c(-c5c(F)cccc5F)c5nc(c(-c6c(F)cccc6F)c6ccc3[nH]6)C=C5)C=C4)cc2)cc1
REMARK SMILES IDX 16 1 15 2 13 3 14 4 12 6 11 7 9 8 8 9 10 11 7 12 6 13 3 14
REMARK SMILES IDX 4 15 78 16 5 17 77 18 2 19 1 20 17 21 18 22 19 23 20 24
REMARK SMILES IDX 21 25 22 27 23 28 24 29 76 30 25 31 75 32 26 33 27 34 28 35
REMARK SMILES IDX 69 36 29 37 74 38 68 39 70 40 30 41 73 42 67 43 66 44 31 46
REMARK SMILES IDX 57 47 40 48 56 49 41 50 44 51 55 52 71 53 42 54 43 55 54 57
REMARK SMILES IDX 72 58 45 59 32 60 33 61 38 62 34 63 35 64 37 65 39 66 36 67
REMARK SMILES IDX 58 68 59 69 64 70 60 71 61 72 63 73 65 74 62 75 46 76 47 77
REMARK SMILES IDX 52 78 48 79 49 80 51 81 53 82 50 83
REMARK H PARENT 15 5 8 10 20 26 70 45 44 56
REMARK Flexibility Score: inf
ROOT
ATOM      1  C   UNL A   1      32.837  35.598  29.821  1.00  0.00     0.116 C 
ENDROOT
BRANCH   1   2
ATOM      2  N   UNL A   1      32.659  36.842  30.547  1.00  0.00    -0.356 N 
ATOM      3  C   UNL A   1      33.014  37.138  31.830  1.00  0.00     0.220 C 
ATOM      4  O   UNL A   1      33.272  38.303  32.132  1.00  0.00    -0.275 OA
ATOM      5  H   UNL A   1      32.227  37.570  30.045  1.00  0.00     0.163 HD
BRANCH   3   6
ATOM      6  C   UNL A   1      32.974  36.074  32.895  1.00  0.00     0.110 C 
BRANCH   6   7
ATOM      7  C   UNL A   1      34.403  35.635  33.211  1.00  0.00     0.110 C 
BRANCH   7   8
ATOM      8  C   UNL A   1      34.484  34.128  33.303  1.00  0.00     0.220 C 
ATOM      9  N   UNL A   1      35.527  33.504  33.916  1.00  0.00    -0.352 N 
ATOM     10  H   UNL A   1      35.379  32.550  34.105  1.00  0.00     0.163 HD
ATOM     11  O   UNL A   1      33.564  33.435  32.862  1.00  0.00    -0.275 OA
BRANCH   9  12
ATOM     12  C   UNL A   1      36.822  34.010  34.339  1.00  0.00     0.151 C 
BRANCH  12  13
ATOM     13  C   UNL A   1      37.874  34.004  33.251  1.00  0.00    -0.029 A 
ATOM     14  C   UNL A   1      39.898  34.151  31.251  1.00  0.00    -0.048 A 
ATOM     15  C   UNL A   1      40.209  34.310  32.604  1.00  0.00     0.004 A 
ATOM     16  C   UNL A   1      38.565  33.880  30.910  1.00  0.00     0.004 A 
ATOM     17  C   UNL A   1      39.209  34.268  33.577  1.00  0.00     0.006 A 
ATOM     18  C   UNL A   1      37.566  33.801  31.899  1.00  0.00     0.006 A 
BRANCH  14  19
ATOM     19  C   UNL A   1      41.015  34.253  30.236  1.00  0.00     0.032 C 
ATOM     20  C   UNL A   1      42.003  33.095  30.233  1.00  0.00     0.009 C 
ENDBRANCH  14  19
ENDBRANCH  12  13
ENDBRANCH   9  12
ENDBRANCH   7   8
ENDBRANCH   6   7
ENDBRANCH   3   6
ENDBRANCH   1   2
BRANCH   1  21
ATOM     21  C   UNL A   1      34.133  35.439  29.027  1.00  0.00     0.023 C 
BRANCH  21  22
ATOM     22  C   UNL A   1      34.947  34.159  29.238  1.00  0.00     0.023 C 
BRANCH  22  23
ATOM     23  C   UNL A   1      35.330  33.367  27.992  1.00  0.00     0.116 C 
BRANCH  23  24
ATOM     24  N   UNL A   1      34.414  32.269  27.735  1.00  0.00    -0.352 N 
ATOM     25  C   UNL A   1      34.615  30.917  27.678  1.00  0.00     0.251 C 
ATOM     26  H   UNL A   1      33.483  32.547  27.573  1.00  0.00     0.163 HD
ATOM     27  O   UNL A   1      33.708  30.208  27.221  1.00  0.00    -0.269 OA
BRANCH  25  28
ATOM     28  C   UNL A   1      35.863  30.262  28.144  1.00  0.00     0.039 A 
ATOM     29  C   UNL A   1      35.909  29.792  29.464  1.00  0.00     0.014 A 
ATOM     30  C   UNL A   1      37.021  30.206  27.362  1.00  0.00     0.014 A 
ATOM     31  C   UNL A   1      37.091  29.256  29.988  1.00  0.00     0.010 A 
ATOM     32  C   UNL A   1      38.185  29.616  27.866  1.00  0.00     0.010 A 
ATOM     33  C   UNL A   1      38.239  29.150  29.189  1.00  0.00    -0.014 A 
BRANCH  33  34
ATOM     34  C   UNL A   1      39.504  28.588  29.736  1.00  0.00     0.031 A 
ATOM     35  C   UNL A   1      40.153  29.207  30.948  1.00  0.00     0.074 A 
ATOM     36  C   UNL A   1      40.098  27.542  29.127  1.00  0.00     0.049 A 
ATOM     37  N   UNL A   1      41.291  28.905  31.525  1.00  0.00    -0.248 NA
ATOM     38  C   UNL A   1      39.440  30.326  31.581  1.00  0.00     0.031 C 
ATOM     39  C   UNL A   1      39.590  26.861  27.936  1.00  0.00     0.029 A 
ATOM     40  N   UNL A   1      41.262  26.876  29.421  1.00  0.00    -0.354 N 
ATOM     41  C   UNL A   1      41.437  29.807  32.573  1.00  0.00     0.074 A 
ATOM     42  C   UNL A   1      40.292  30.691  32.528  1.00  0.00     0.031 C 
ATOM     43  C   UNL A   1      40.431  25.866  27.608  1.00  0.00     0.029 A 
ATOM     44  C   UNL A   1      41.553  25.861  28.542  1.00  0.00     0.049 A 
ATOM     45  H   UNL A   1      41.835  27.105  30.188  1.00  0.00     0.167 HD
ATOM     46  C   UNL A   1      42.424  29.881  33.499  1.00  0.00     0.037 A 
ATOM     47  C   UNL A   1      42.607  25.025  28.488  1.00  0.00     0.037 A 
ATOM     48  C   UNL A   1      43.546  28.982  33.568  1.00  0.00     0.049 A 
ATOM     49  C   UNL A   1      43.693  25.131  29.524  1.00  0.00     0.074 A 
ATOM     50  C   UNL A   1      44.566  28.944  34.505  1.00  0.00     0.029 A 
ATOM     51  N   UNL A   1      43.796  27.959  32.667  1.00  0.00    -0.354 N 
ATOM     52  N   UNL A   1      43.791  25.958  30.536  1.00  0.00    -0.248 NA
ATOM     53  C   UNL A   1      44.812  24.185  29.411  1.00  0.00     0.031 C 
ATOM     54  C   UNL A   1      45.452  27.922  34.147  1.00  0.00     0.029 A 
ATOM     55  C   UNL A   1      44.963  27.297  33.013  1.00  0.00     0.049 A 
ATOM     56  H   UNL A   1      43.228  27.735  31.893  1.00  0.00     0.167 HD
ATOM     57  C   UNL A   1      44.966  25.616  31.193  1.00  0.00     0.074 A 
ATOM     58  C   UNL A   1      45.540  24.499  30.474  1.00  0.00     0.031 C 
ATOM     59  C   UNL A   1      45.520  26.181  32.294  1.00  0.00     0.037 A 
BRANCH  46  60
ATOM     60  C   UNL A   1      42.335  30.977  34.522  1.00  0.00     0.057 A 
ATOM     61  C   UNL A   1      42.850  32.257  34.278  1.00  0.00     0.134 A 
ATOM     62  C   UNL A   1      41.689  30.763  35.746  1.00  0.00     0.134 A 
ATOM     63  F   UNL A   1      43.488  32.526  33.129  1.00  0.00    -0.206 F 
ATOM     64  C   UNL A   1      42.751  33.277  35.227  1.00  0.00     0.040 A 
ATOM     65  C   UNL A   1      41.560  31.783  36.692  1.00  0.00     0.040 A 
ATOM     66  F   UNL A   1      41.163  29.565  36.039  1.00  0.00    -0.206 F 
ATOM     67  C   UNL A   1      42.098  33.042  36.435  1.00  0.00     0.006 A 
ENDBRANCH  46  60
BRANCH  47  68
ATOM     68  C   UNL A   1      42.686  23.997  27.420  1.00  0.00     0.057 A 
ATOM     69  C   UNL A   1      43.292  24.280  26.190  1.00  0.00     0.134 A 
ATOM     70  C   UNL A   1      42.150  22.716  27.596  1.00  0.00     0.134 A 
ATOM     71  F   UNL A   1      43.803  25.497  25.955  1.00  0.00    -0.206 F 
ATOM     72  C   UNL A   1      43.346  23.333  25.166  1.00  0.00     0.040 A 
ATOM     73  C   UNL A   1      42.218  21.750  26.590  1.00  0.00     0.040 A 
ATOM     74  F   UNL A   1      41.560  22.382  28.754  1.00  0.00    -0.206 F 
ATOM     75  C   UNL A   1      42.812  22.062  25.368  1.00  0.00     0.006 A 
ENDBRANCH  47  68
BRANCH  59  76
ATOM     76  C   UNL A   1      46.795  25.580  32.807  1.00  0.00     0.057 A 
ATOM     77  C   UNL A   1      48.043  25.943  32.287  1.00  0.00     0.134 A 
ATOM     78  C   UNL A   1      46.775  24.656  33.860  1.00  0.00     0.134 A 
ATOM     79  F   UNL A   1      48.128  26.812  31.270  1.00  0.00    -0.206 F 
ATOM     80  C   UNL A   1      49.227  25.395  32.786  1.00  0.00     0.040 A 
ATOM     81  C   UNL A   1      47.953  24.119  34.381  1.00  0.00     0.040 A 
ATOM     82  F   UNL A   1      45.612  24.271  34.407  1.00  0.00    -0.206 F 
ATOM     83  C   UNL A   1      49.184  24.485  33.840  1.00  0.00     0.006 A 
ENDBRANCH  59  76
ENDBRANCH  33  34
ENDBRANCH  25  28
ENDBRANCH  23  24
ENDBRANCH  22  23
ENDBRANCH  21  22
ENDBRANCH   1  21
TORSDOF 16
ENDMDL
