MODEL 1
REMARK VINA RESULT:     -12.0      0.000      0.000
REMARK SMILES O=C(C[C@H]1C[C@H]2CC[C@@H](C1)[N@H+]2C[C@@H]1CCCOC1)NCCCCNC(=O)c1ccc(-c2c3nc(c(-c4c(F)cccc4F)c4ccc([nH]4)c(-c4c(F)cccc4F)c4nc(c(-c5c(F)cccc5F)c5ccc2[nH]5)C=C4)C=C3)cc1
REMARK SMILES IDX 21 1 20 2 19 3 1 4 2 5 3 7 4 8 5 9 10 10 6 11 9 12 7 13
REMARK SMILES IDX 11 14 8 15 12 17 13 18 14 19 18 20 15 21 17 22 16 23 22 24
REMARK SMILES IDX 23 25 24 26 25 27 26 29 27 30 28 31 80 32 29 33 79 34 30 35
REMARK SMILES IDX 31 36 32 37 73 38 33 39 78 40 72 41 74 42 34 43 77 44 71 45
REMARK SMILES IDX 70 46 35 48 61 49 44 50 60 51 45 52 48 53 59 54 75 55 46 56
REMARK SMILES IDX 47 57 58 59 76 60 49 61 36 62 37 63 42 64 38 65 39 66 41 67
REMARK SMILES IDX 43 68 40 69 62 70 63 71 68 72 64 73 65 74 67 75 69 76 66 77
REMARK SMILES IDX 50 78 51 79 56 80 52 81 53 82 55 83 57 84 54 85
REMARK H PARENT 19 6 11 16 24 28 74 47 48 58
REMARK Flexibility Score: inf
ROOT
ATOM      1  C   UNL A   1      34.079  33.442  29.127  1.00  0.00     0.023 C 
ENDROOT
BRANCH   1   2
ATOM      2  C   UNL A   1      34.572  32.523  28.011  1.00  0.00     0.116 C 
BRANCH   2   3
ATOM      3  N   UNL A   1      34.194  31.138  28.197  1.00  0.00    -0.356 N 
ATOM      4  O   UNL A   1      32.479  31.177  26.667  1.00  0.00    -0.275 OA
ATOM      5  C   UNL A   1      33.240  30.547  27.390  1.00  0.00     0.220 C 
ATOM      6  H   UNL A   1      34.623  30.610  28.908  1.00  0.00     0.163 HD
BRANCH   5   7
ATOM      7  C   UNL A   1      33.325  29.030  27.365  1.00  0.00     0.104 C 
BRANCH   7   8
ATOM      8  C   UNL A   1      32.646  28.436  26.112  1.00  0.00     0.010 C 
ATOM      9  C   UNL A   1      33.666  28.179  24.968  1.00  0.00     0.069 C 
ATOM     10  C   UNL A   1      31.668  27.271  26.427  1.00  0.00     0.069 C 
ATOM     11  C   UNL A   1      33.339  26.986  24.042  1.00  0.00     0.184 C 
ATOM     12  C   UNL A   1      31.785  26.071  25.498  1.00  0.00     0.184 C 
ATOM     13  C   UNL A   1      34.028  25.740  24.621  1.00  0.00     0.071 C 
ATOM     14  N   UNL A   1      31.961  26.554  24.153  1.00  0.00    -0.330 N 
ATOM     15  C   UNL A   1      33.102  25.312  25.755  1.00  0.00     0.071 C 
ATOM     16  H   UNL A   1      31.725  25.955  23.361  1.00  0.00     0.348 HD
BRANCH  14  17
ATOM     17  C   UNL A   1      30.865  26.874  23.263  1.00  0.00     0.268 C 
BRANCH  17  18
ATOM     18  C   UNL A   1      29.997  28.166  23.323  1.00  0.00     0.070 C 
ATOM     19  C   UNL A   1      28.487  27.901  23.354  1.00  0.00     0.014 C 
ATOM     20  C   UNL A   1      30.434  29.279  22.367  1.00  0.00     0.169 C 
ATOM     21  C   UNL A   1      27.592  29.046  22.886  1.00  0.00     0.029 C 
ATOM     22  O   UNL A   1      29.516  30.374  22.360  1.00  0.00    -0.381 OA
ATOM     23  C   UNL A   1      28.248  29.957  21.867  1.00  0.00     0.160 C 
ENDBRANCH  17  18
ENDBRANCH  14  17
ENDBRANCH   7   8
ENDBRANCH   5   7
ENDBRANCH   2   3
ENDBRANCH   1   2
BRANCH   1  24
ATOM     24  C   UNL A   1      33.108  34.561  28.717  1.00  0.00     0.023 C 
BRANCH  24  25
ATOM     25  C   UNL A   1      33.317  35.929  29.370  1.00  0.00     0.116 C 
BRANCH  25  26
ATOM     26  N   UNL A   1      32.496  36.138  30.550  1.00  0.00    -0.352 N 
ATOM     27  C   UNL A   1      32.654  35.738  31.856  1.00  0.00     0.251 C 
ATOM     28  H   UNL A   1      31.678  36.660  30.384  1.00  0.00     0.163 HD
ATOM     29  O   UNL A   1      31.741  35.931  32.654  1.00  0.00    -0.269 OA
BRANCH  27  30
ATOM     30  C   UNL A   1      33.883  35.052  32.322  1.00  0.00     0.039 A 
ATOM     31  C   UNL A   1      33.755  33.780  32.895  1.00  0.00     0.014 A 
ATOM     32  C   UNL A   1      35.142  35.655  32.268  1.00  0.00     0.014 A 
ATOM     33  C   UNL A   1      34.887  33.087  33.334  1.00  0.00     0.010 A 
ATOM     34  C   UNL A   1      36.280  34.935  32.647  1.00  0.00     0.010 A 
ATOM     35  C   UNL A   1      36.168  33.639  33.174  1.00  0.00    -0.014 A 
BRANCH  35  36
ATOM     36  C   UNL A   1      37.389  32.858  33.520  1.00  0.00     0.031 A 
ATOM     37  C   UNL A   1      38.155  33.137  34.784  1.00  0.00     0.074 A 
ATOM     38  C   UNL A   1      37.847  31.926  32.660  1.00  0.00     0.049 A 
ATOM     39  N   UNL A   1      39.270  32.598  35.212  1.00  0.00    -0.248 NA
ATOM     40  C   UNL A   1      37.607  34.169  35.677  1.00  0.00     0.031 C 
ATOM     41  C   UNL A   1      37.226  31.580  31.380  1.00  0.00     0.029 A 
ATOM     42  N   UNL A   1      38.948  31.107  32.724  1.00  0.00    -0.354 N 
ATOM     43  C   UNL A   1      39.561  33.230  36.416  1.00  0.00     0.074 A 
ATOM     44  C   UNL A   1      38.532  34.226  36.625  1.00  0.00     0.031 C 
ATOM     45  C   UNL A   1      37.944  30.612  30.790  1.00  0.00     0.029 A 
ATOM     46  C   UNL A   1      39.098  30.295  31.625  1.00  0.00     0.049 A 
ATOM     47  H   UNL A   1      39.572  31.103  33.486  1.00  0.00     0.167 HD
ATOM     48  C   UNL A   1      40.579  32.988  37.279  1.00  0.00     0.037 A 
ATOM     49  C   UNL A   1      40.060  29.406  31.314  1.00  0.00     0.037 A 
ATOM     50  C   UNL A   1      41.600  31.991  37.079  1.00  0.00     0.049 A 
ATOM     51  C   UNL A   1      41.193  29.174  32.276  1.00  0.00     0.074 A 
ATOM     52  C   UNL A   1      42.643  31.644  37.921  1.00  0.00     0.029 A 
ATOM     53  N   UNL A   1      41.711  31.185  35.956  1.00  0.00    -0.354 N 
ATOM     54  N   UNL A   1      41.419  29.735  33.438  1.00  0.00    -0.248 NA
ATOM     55  C   UNL A   1      42.202  28.179  31.884  1.00  0.00     0.031 C 
ATOM     56  C   UNL A   1      43.413  30.664  37.286  1.00  0.00     0.029 A 
ATOM     57  C   UNL A   1      42.818  30.359  36.073  1.00  0.00     0.049 A 
ATOM     58  H   UNL A   1      41.093  31.196  35.189  1.00  0.00     0.167 HD
ATOM     59  C   UNL A   1      42.576  29.145  33.929  1.00  0.00     0.074 A 
ATOM     60  C   UNL A   1      42.997  28.170  32.944  1.00  0.00     0.031 C 
ATOM     61  C   UNL A   1      43.229  29.387  35.091  1.00  0.00     0.037 A 
BRANCH  48  62
ATOM     62  C   UNL A   1      40.640  33.824  38.527  1.00  0.00     0.057 A 
ATOM     63  C   UNL A   1      39.903  33.494  39.673  1.00  0.00     0.134 A 
ATOM     64  C   UNL A   1      41.476  34.946  38.600  1.00  0.00     0.134 A 
ATOM     65  F   UNL A   1      39.079  32.435  39.670  1.00  0.00    -0.206 F 
ATOM     66  C   UNL A   1      39.971  34.268  40.833  1.00  0.00     0.040 A 
ATOM     67  C   UNL A   1      41.575  35.710  39.764  1.00  0.00     0.040 A 
ATOM     68  F   UNL A   1      42.219  35.313  37.544  1.00  0.00    -0.206 F 
ATOM     69  C   UNL A   1      40.814  35.376  40.883  1.00  0.00     0.006 A 
ENDBRANCH  48  62
BRANCH  49  70
ATOM     70  C   UNL A   1      39.990  28.655  30.034  1.00  0.00     0.057 A 
ATOM     71  C   UNL A   1      40.631  29.126  28.883  1.00  0.00     0.134 A 
ATOM     72  C   UNL A   1      39.273  27.457  29.928  1.00  0.00     0.134 A 
ATOM     73  F   UNL A   1      41.315  30.279  28.915  1.00  0.00    -0.206 F 
ATOM     74  C   UNL A   1      40.547  28.444  27.668  1.00  0.00     0.040 A 
ATOM     75  C   UNL A   1      39.204  26.750  28.727  1.00  0.00     0.040 A 
ATOM     76  F   UNL A   1      38.644  26.948  30.998  1.00  0.00    -0.206 F 
ATOM     77  C   UNL A   1      39.836  27.248  27.589  1.00  0.00     0.006 A 
ENDBRANCH  49  70
BRANCH  61  78
ATOM     78  C   UNL A   1      44.449  28.562  35.383  1.00  0.00     0.057 A 
ATOM     79  C   UNL A   1      44.375  27.341  36.067  1.00  0.00     0.134 A 
ATOM     80  C   UNL A   1      45.713  28.977  34.942  1.00  0.00     0.134 A 
ATOM     81  F   UNL A   1      43.198  26.892  36.529  1.00  0.00    -0.206 F 
ATOM     82  C   UNL A   1      45.513  26.576  36.323  1.00  0.00     0.040 A 
ATOM     83  C   UNL A   1      46.855  28.207  35.167  1.00  0.00     0.040 A 
ATOM     84  F   UNL A   1      45.856  30.131  34.273  1.00  0.00    -0.206 F 
ATOM     85  C   UNL A   1      46.759  27.006  35.865  1.00  0.00     0.006 A 
ENDBRANCH  61  78
ENDBRANCH  35  36
ENDBRANCH  27  30
ENDBRANCH  25  26
ENDBRANCH  24  25
ENDBRANCH   1  24
TORSDOF 14
ENDMDL
MODEL 2
REMARK VINA RESULT:     -11.8      5.387     10.996
REMARK SMILES O=C(C[C@H]1C[C@H]2CC[C@@H](C1)[N@H+]2C[C@@H]1CCCOC1)NCCCCNC(=O)c1ccc(-c2c3nc(c(-c4c(F)cccc4F)c4ccc([nH]4)c(-c4c(F)cccc4F)c4nc(c(-c5c(F)cccc5F)c5ccc2[nH]5)C=C4)C=C3)cc1
REMARK SMILES IDX 21 1 20 2 19 3 1 4 2 5 3 7 4 8 5 9 10 10 6 11 9 12 7 13
REMARK SMILES IDX 11 14 8 15 12 17 13 18 14 19 18 20 15 21 17 22 16 23 22 24
REMARK SMILES IDX 23 25 24 26 25 27 26 29 27 30 28 31 80 32 29 33 79 34 30 35
REMARK SMILES IDX 31 36 32 37 73 38 33 39 78 40 72 41 74 42 34 43 77 44 71 45
REMARK SMILES IDX 70 46 35 48 61 49 44 50 60 51 45 52 48 53 59 54 75 55 46 56
REMARK SMILES IDX 47 57 58 59 76 60 49 61 36 62 37 63 42 64 38 65 39 66 41 67
REMARK SMILES IDX 43 68 40 69 62 70 63 71 68 72 64 73 65 74 67 75 69 76 66 77
REMARK SMILES IDX 50 78 51 79 56 80 52 81 53 82 55 83 57 84 54 85
REMARK H PARENT 19 6 11 16 24 28 74 47 48 58
REMARK Flexibility Score: inf
ROOT
ATOM      1  C   UNL A   1      42.067  19.410  25.776  1.00  0.00     0.023 C 
ENDROOT
BRANCH   1   2
ATOM      2  C   UNL A   1      43.277  18.478  25.789  1.00  0.00     0.116 C 
BRANCH   2   3
ATOM      3  N   UNL A   1      44.543  19.178  25.814  1.00  0.00    -0.356 N 
ATOM      4  O   UNL A   1      44.579  19.636  23.562  1.00  0.00    -0.275 OA
ATOM      5  C   UNL A   1      45.023  19.820  24.688  1.00  0.00     0.220 C 
ATOM      6  H   UNL A   1      45.070  19.197  26.646  1.00  0.00     0.163 HD
BRANCH   5   7
ATOM      7  C   UNL A   1      46.053  20.893  24.997  1.00  0.00     0.104 C 
BRANCH   7   8
ATOM      8  C   UNL A   1      45.401  22.282  25.173  1.00  0.00     0.010 C 
ATOM      9  C   UNL A   1      45.124  22.606  26.667  1.00  0.00     0.069 C 
ATOM     10  C   UNL A   1      46.093  23.403  24.350  1.00  0.00     0.069 C 
ATOM     11  C   UNL A   1      45.204  24.101  27.049  1.00  0.00     0.184 C 
ATOM     12  C   UNL A   1      46.315  24.706  25.107  1.00  0.00     0.184 C 
ATOM     13  C   UNL A   1      46.646  24.395  27.495  1.00  0.00     0.071 C 
ATOM     14  N   UNL A   1      45.142  24.976  25.897  1.00  0.00    -0.330 N 
ATOM     15  C   UNL A   1      47.407  24.531  26.180  1.00  0.00     0.071 C 
ATOM     16  H   UNL A   1      44.941  25.929  26.202  1.00  0.00     0.348 HD
BRANCH  14  17
ATOM     17  C   UNL A   1      43.989  25.700  25.405  1.00  0.00     0.268 C 
BRANCH  17  18
ATOM     18  C   UNL A   1      43.828  27.250  25.396  1.00  0.00     0.070 C 
ATOM     19  C   UNL A   1      44.413  27.944  26.632  1.00  0.00     0.014 C 
ATOM     20  C   UNL A   1      42.445  27.751  24.973  1.00  0.00     0.169 C 
ATOM     21  C   UNL A   1      43.852  29.326  26.958  1.00  0.00     0.029 C 
ATOM     22  O   UNL A   1      42.313  29.165  25.128  1.00  0.00    -0.381 OA
ATOM     23  C   UNL A   1      42.421  29.527  26.500  1.00  0.00     0.160 C 
ENDBRANCH  17  18
ENDBRANCH  14  17
ENDBRANCH   7   8
ENDBRANCH   5   7
ENDBRANCH   2   3
ENDBRANCH   1   2
BRANCH   1  24
ATOM     24  C   UNL A   1      41.997  20.462  26.895  1.00  0.00     0.023 C 
BRANCH  24  25
ATOM     25  C   UNL A   1      41.559  21.871  26.490  1.00  0.00     0.116 C 
BRANCH  25  26
ATOM     26  N   UNL A   1      40.180  21.940  26.040  1.00  0.00    -0.352 N 
ATOM     27  C   UNL A   1      39.205  22.892  26.225  1.00  0.00     0.251 C 
ATOM     28  H   UNL A   1      39.891  21.165  25.506  1.00  0.00     0.163 HD
ATOM     29  O   UNL A   1      38.061  22.655  25.849  1.00  0.00    -0.269 OA
BRANCH  27  30
ATOM     30  C   UNL A   1      39.489  24.184  26.895  1.00  0.00     0.039 A 
ATOM     31  C   UNL A   1      39.040  24.362  28.210  1.00  0.00     0.014 A 
ATOM     32  C   UNL A   1      40.125  25.241  26.240  1.00  0.00     0.014 A 
ATOM     33  C   UNL A   1      39.299  25.557  28.889  1.00  0.00     0.010 A 
ATOM     34  C   UNL A   1      40.440  26.411  26.940  1.00  0.00     0.010 A 
ATOM     35  C   UNL A   1      40.041  26.578  28.275  1.00  0.00    -0.014 A 
BRANCH  35  36
ATOM     36  C   UNL A   1      40.432  27.802  29.031  1.00  0.00     0.031 A 
ATOM     37  C   UNL A   1      41.779  27.905  29.695  1.00  0.00     0.074 A 
ATOM     38  C   UNL A   1      39.546  28.808  29.170  1.00  0.00     0.049 A 
ATOM     39  N   UNL A   1      42.261  28.867  30.442  1.00  0.00    -0.248 NA
ATOM     40  C   UNL A   1      42.697  26.772  29.510  1.00  0.00     0.031 C 
ATOM     41  C   UNL A   1      38.192  28.824  28.613  1.00  0.00     0.029 A 
ATOM     42  N   UNL A   1      39.644  30.007  29.833  1.00  0.00    -0.354 N 
ATOM     43  C   UNL A   1      43.533  28.453  30.823  1.00  0.00     0.074 A 
ATOM     44  C   UNL A   1      43.726  27.132  30.266  1.00  0.00     0.031 C 
ATOM     45  C   UNL A   1      37.594  29.979  28.942  1.00  0.00     0.029 A 
ATOM     46  C   UNL A   1      38.502  30.770  29.768  1.00  0.00     0.049 A 
ATOM     47  H   UNL A   1      40.456  30.293  30.311  1.00  0.00     0.167 HD
ATOM     48  C   UNL A   1      44.461  29.120  31.552  1.00  0.00     0.037 A 
ATOM     49  C   UNL A   1      38.209  31.963  30.319  1.00  0.00     0.037 A 
ATOM     50  C   UNL A   1      44.275  30.440  32.101  1.00  0.00     0.049 A 
ATOM     51  C   UNL A   1      39.247  32.672  31.145  1.00  0.00     0.074 A 
ATOM     52  C   UNL A   1      45.178  31.213  32.812  1.00  0.00     0.029 A 
ATOM     53  N   UNL A   1      43.107  31.180  32.005  1.00  0.00    -0.354 N 
ATOM     54  N   UNL A   1      40.466  32.293  31.444  1.00  0.00    -0.248 NA
ATOM     55  C   UNL A   1      38.871  33.977  31.706  1.00  0.00     0.031 C 
ATOM     56  C   UNL A   1      44.539  32.399  33.189  1.00  0.00     0.029 A 
ATOM     57  C   UNL A   1      43.257  32.390  32.665  1.00  0.00     0.049 A 
ATOM     58  H   UNL A   1      42.290  30.890  31.536  1.00  0.00     0.167 HD
ATOM     59  C   UNL A   1      41.011  33.322  32.201  1.00  0.00     0.074 A 
ATOM     60  C   UNL A   1      39.994  34.349  32.304  1.00  0.00     0.031 C 
ATOM     61  C   UNL A   1      42.242  33.410  32.759  1.00  0.00     0.037 A 
BRANCH  48  62
ATOM     62  C   UNL A   1      45.772  28.428  31.801  1.00  0.00     0.057 A 
ATOM     63  C   UNL A   1      45.978  27.623  32.930  1.00  0.00     0.134 A 
ATOM     64  C   UNL A   1      46.826  28.533  30.884  1.00  0.00     0.134 A 
ATOM     65  F   UNL A   1      45.013  27.484  33.851  1.00  0.00    -0.206 F 
ATOM     66  C   UNL A   1      47.194  26.974  33.153  1.00  0.00     0.040 A 
ATOM     67  C   UNL A   1      48.036  27.865  31.081  1.00  0.00     0.040 A 
ATOM     68  F   UNL A   1      46.693  29.277  29.775  1.00  0.00    -0.206 F 
ATOM     69  C   UNL A   1      48.225  27.090  32.223  1.00  0.00     0.006 A 
ENDBRANCH  48  62
BRANCH  49  70
ATOM     70  C   UNL A   1      36.873  32.573  30.100  1.00  0.00     0.057 A 
ATOM     71  C   UNL A   1      35.793  32.273  30.938  1.00  0.00     0.134 A 
ATOM     72  C   UNL A   1      36.640  33.461  29.042  1.00  0.00     0.134 A 
ATOM     73  F   UNL A   1      35.948  31.412  31.955  1.00  0.00    -0.206 F 
ATOM     74  C   UNL A   1      34.527  32.818  30.723  1.00  0.00     0.040 A 
ATOM     75  C   UNL A   1      35.385  34.035  28.832  1.00  0.00     0.040 A 
ATOM     76  F   UNL A   1      37.636  33.796  28.208  1.00  0.00    -0.206 F 
ATOM     77  C   UNL A   1      34.322  33.707  29.670  1.00  0.00     0.006 A 
ENDBRANCH  49  70
BRANCH  61  78
ATOM     78  C   UNL A   1      42.576  34.671  33.502  1.00  0.00     0.057 A 
ATOM     79  C   UNL A   1      42.315  34.819  34.871  1.00  0.00     0.134 A 
ATOM     80  C   UNL A   1      43.199  35.741  32.846  1.00  0.00     0.134 A 
ATOM     81  F   UNL A   1      41.708  33.839  35.556  1.00  0.00    -0.206 F 
ATOM     82  C   UNL A   1      42.641  35.992  35.554  1.00  0.00     0.040 A 
ATOM     83  C   UNL A   1      43.555  36.908  33.523  1.00  0.00     0.040 A 
ATOM     84  F   UNL A   1      43.486  35.663  31.537  1.00  0.00    -0.206 F 
ATOM     85  C   UNL A   1      43.270  37.039  34.880  1.00  0.00     0.006 A 
ENDBRANCH  61  78
ENDBRANCH  35  36
ENDBRANCH  27  30
ENDBRANCH  25  26
ENDBRANCH  24  25
ENDBRANCH   1  24
TORSDOF 14
ENDMDL
MODEL 3
REMARK VINA RESULT:     -11.8      4.826      7.347
REMARK SMILES O=C(C[C@H]1C[C@H]2CC[C@@H](C1)[N@H+]2C[C@@H]1CCCOC1)NCCCCNC(=O)c1ccc(-c2c3nc(c(-c4c(F)cccc4F)c4ccc([nH]4)c(-c4c(F)cccc4F)c4nc(c(-c5c(F)cccc5F)c5ccc2[nH]5)C=C4)C=C3)cc1
REMARK SMILES IDX 21 1 20 2 19 3 1 4 2 5 3 7 4 8 5 9 10 10 6 11 9 12 7 13
REMARK SMILES IDX 11 14 8 15 12 17 13 18 14 19 18 20 15 21 17 22 16 23 22 24
REMARK SMILES IDX 23 25 24 26 25 27 26 29 27 30 28 31 80 32 29 33 79 34 30 35
REMARK SMILES IDX 31 36 32 37 73 38 33 39 78 40 72 41 74 42 34 43 77 44 71 45
REMARK SMILES IDX 70 46 35 48 61 49 44 50 60 51 45 52 48 53 59 54 75 55 46 56
REMARK SMILES IDX 47 57 58 59 76 60 49 61 36 62 37 63 42 64 38 65 39 66 41 67
REMARK SMILES IDX 43 68 40 69 62 70 63 71 68 72 64 73 65 74 67 75 69 76 66 77
REMARK SMILES IDX 50 78 51 79 56 80 52 81 53 82 55 83 57 84 54 85
REMARK H PARENT 19 6 11 16 24 28 74 47 48 58
REMARK Flexibility Score: inf
ROOT
ATOM      1  C   UNL A   1      33.897  28.571  24.543  1.00  0.00     0.023 C 
ENDROOT
BRANCH   1   2
ATOM      2  C   UNL A   1      33.249  28.509  23.161  1.00  0.00     0.116 C 
BRANCH   2   3
ATOM      3  N   UNL A   1      32.397  27.354  22.976  1.00  0.00    -0.356 N 
ATOM      4  O   UNL A   1      34.026  26.035  22.034  1.00  0.00    -0.275 OA
ATOM      5  C   UNL A   1      32.916  26.151  22.536  1.00  0.00     0.220 C 
ATOM      6  H   UNL A   1      31.433  27.427  23.166  1.00  0.00     0.163 HD
BRANCH   5   7
ATOM      7  C   UNL A   1      32.041  24.955  22.874  1.00  0.00     0.104 C 
BRANCH   7   8
ATOM      8  C   UNL A   1      32.710  24.028  23.912  1.00  0.00     0.010 C 
ATOM      9  C   UNL A   1      32.726  24.662  25.330  1.00  0.00     0.069 C 
ATOM     10  C   UNL A   1      32.228  22.553  23.831  1.00  0.00     0.069 C 
ATOM     11  C   UNL A   1      32.643  23.663  26.506  1.00  0.00     0.184 C 
ATOM     12  C   UNL A   1      31.930  21.905  25.176  1.00  0.00     0.184 C 
ATOM     13  C   UNL A   1      31.159  23.478  26.860  1.00  0.00     0.071 C 
ATOM     14  N   UNL A   1      32.951  22.306  26.109  1.00  0.00    -0.330 N 
ATOM     15  C   UNL A   1      30.655  22.506  25.798  1.00  0.00     0.071 C 
ATOM     16  H   UNL A   1      33.135  21.740  26.938  1.00  0.00     0.348 HD
BRANCH  14  17
ATOM     17  C   UNL A   1      34.205  21.602  26.281  1.00  0.00     0.268 C 
BRANCH  17  18
ATOM     18  C   UNL A   1      35.537  21.931  25.543  1.00  0.00     0.070 C 
ATOM     19  C   UNL A   1      36.382  20.697  25.204  1.00  0.00     0.014 C 
ATOM     20  C   UNL A   1      36.323  23.107  26.127  1.00  0.00     0.169 C 
ATOM     21  C   UNL A   1      37.873  20.941  24.983  1.00  0.00     0.029 C 
ATOM     22  O   UNL A   1      37.600  23.264  25.505  1.00  0.00    -0.381 OA
ATOM     23  C   UNL A   1      38.418  22.127  25.754  1.00  0.00     0.160 C 
ENDBRANCH  17  18
ENDBRANCH  14  17
ENDBRANCH   7   8
ENDBRANCH   5   7
ENDBRANCH   2   3
ENDBRANCH   1   2
BRANCH   1  24
ATOM     24  C   UNL A   1      32.978  28.309  25.746  1.00  0.00     0.023 C 
BRANCH  24  25
ATOM     25  C   UNL A   1      33.589  28.504  27.136  1.00  0.00     0.116 C 
BRANCH  25  26
ATOM     26  N   UNL A   1      33.630  29.893  27.559  1.00  0.00    -0.352 N 
ATOM     27  C   UNL A   1      34.620  30.639  28.152  1.00  0.00     0.251 C 
ATOM     28  H   UNL A   1      32.796  30.391  27.390  1.00  0.00     0.163 HD
ATOM     29  O   UNL A   1      34.361  31.776  28.538  1.00  0.00    -0.269 OA
BRANCH  27  30
ATOM     30  C   UNL A   1      35.984  30.100  28.369  1.00  0.00     0.039 A 
ATOM     31  C   UNL A   1      36.878  30.107  27.292  1.00  0.00     0.014 A 
ATOM     32  C   UNL A   1      36.379  29.531  29.582  1.00  0.00     0.014 A 
ATOM     33  C   UNL A   1      38.181  29.625  27.452  1.00  0.00     0.010 A 
ATOM     34  C   UNL A   1      37.701  29.108  29.761  1.00  0.00     0.010 A 
ATOM     35  C   UNL A   1      38.620  29.161  28.702  1.00  0.00    -0.014 A 
BRANCH  35  36
ATOM     36  C   UNL A   1      40.041  28.765  28.917  1.00  0.00     0.031 A 
ATOM     37  C   UNL A   1      41.037  29.735  29.493  1.00  0.00     0.074 A 
ATOM     38  C   UNL A   1      40.453  27.538  28.539  1.00  0.00     0.049 A 
ATOM     39  N   UNL A   1      42.323  29.580  29.691  1.00  0.00    -0.248 NA
ATOM     40  C   UNL A   1      40.526  31.058  29.880  1.00  0.00     0.031 C 
ATOM     41  C   UNL A   1      39.603  26.512  27.932  1.00  0.00     0.029 A 
ATOM     42  N   UNL A   1      41.692  26.948  28.597  1.00  0.00    -0.354 N 
ATOM     43  C   UNL A   1      42.775  30.785  30.217  1.00  0.00     0.074 A 
ATOM     44  C   UNL A   1      41.636  31.676  30.259  1.00  0.00     0.031 C 
ATOM     45  C   UNL A   1      40.340  25.417  27.689  1.00  0.00     0.029 A 
ATOM     46  C   UNL A   1      41.722  25.674  28.083  1.00  0.00     0.049 A 
ATOM     47  H   UNL A   1      42.485  27.397  28.970  1.00  0.00     0.167 HD
ATOM     48  C   UNL A   1      44.020  31.112  30.644  1.00  0.00     0.037 A 
ATOM     49  C   UNL A   1      42.745  24.811  27.931  1.00  0.00     0.037 A 
ATOM     50  C   UNL A   1      45.154  30.224  30.611  1.00  0.00     0.049 A 
ATOM     51  C   UNL A   1      44.122  25.207  28.389  1.00  0.00     0.074 A 
ATOM     52  C   UNL A   1      46.442  30.454  31.066  1.00  0.00     0.029 A 
ATOM     53  N   UNL A   1      45.140  28.939  30.090  1.00  0.00    -0.354 N 
ATOM     54  N   UNL A   1      44.519  26.328  28.940  1.00  0.00    -0.248 NA
ATOM     55  C   UNL A   1      45.191  24.216  28.209  1.00  0.00     0.031 C 
ATOM     56  C   UNL A   1      47.219  29.327  30.774  1.00  0.00     0.029 A 
ATOM     57  C   UNL A   1      46.402  28.374  30.190  1.00  0.00     0.049 A 
ATOM     58  H   UNL A   1      44.350  28.493  29.707  1.00  0.00     0.167 HD
ATOM     59  C   UNL A   1      45.874  26.167  29.199  1.00  0.00     0.074 A 
ATOM     60  C   UNL A   1      46.228  24.833  28.757  1.00  0.00     0.031 C 
ATOM     61  C   UNL A   1      46.746  27.044  29.752  1.00  0.00     0.037 A 
BRANCH  48  62
ATOM     62  C   UNL A   1      44.222  32.499  31.186  1.00  0.00     0.057 A 
ATOM     63  C   UNL A   1      44.045  32.794  32.545  1.00  0.00     0.134 A 
ATOM     64  C   UNL A   1      44.638  33.544  30.349  1.00  0.00     0.134 A 
ATOM     65  F   UNL A   1      43.643  31.842  33.400  1.00  0.00    -0.206 F 
ATOM     66  C   UNL A   1      44.244  34.082  33.045  1.00  0.00     0.040 A 
ATOM     67  C   UNL A   1      44.868  34.829  30.844  1.00  0.00     0.040 A 
ATOM     68  F   UNL A   1      44.838  33.331  29.040  1.00  0.00    -0.206 F 
ATOM     69  C   UNL A   1      44.662  35.103  32.194  1.00  0.00     0.006 A 
ENDBRANCH  48  62
BRANCH  49  70
ATOM     70  C   UNL A   1      42.506  23.477  27.325  1.00  0.00     0.057 A 
ATOM     71  C   UNL A   1      42.682  23.262  25.953  1.00  0.00     0.134 A 
ATOM     72  C   UNL A   1      42.085  22.388  28.098  1.00  0.00     0.134 A 
ATOM     73  F   UNL A   1      43.064  24.271  25.156  1.00  0.00    -0.206 F 
ATOM     74  C   UNL A   1      42.432  22.019  25.369  1.00  0.00     0.040 A 
ATOM     75  C   UNL A   1      41.857  21.133  27.531  1.00  0.00     0.040 A 
ATOM     76  F   UNL A   1      41.905  22.526  29.420  1.00  0.00    -0.206 F 
ATOM     77  C   UNL A   1      42.023  20.948  26.160  1.00  0.00     0.006 A 
ENDBRANCH  49  70
BRANCH  61  78
ATOM     78  C   UNL A   1      48.161  26.580  29.948  1.00  0.00     0.057 A 
ATOM     79  C   UNL A   1      49.155  26.798  28.984  1.00  0.00     0.134 A 
ATOM     80  C   UNL A   1      48.543  25.939  31.134  1.00  0.00     0.134 A 
ATOM     81  F   UNL A   1      48.853  27.394  27.821  1.00  0.00    -0.206 F 
ATOM     82  C   UNL A   1      50.470  26.373  29.182  1.00  0.00     0.040 A 
ATOM     83  C   UNL A   1      49.861  25.535  31.356  1.00  0.00     0.040 A 
ATOM     84  F   UNL A   1      47.645  25.707  32.103  1.00  0.00    -0.206 F 
ATOM     85  C   UNL A   1      50.827  25.746  30.375  1.00  0.00     0.006 A 
ENDBRANCH  61  78
ENDBRANCH  35  36
ENDBRANCH  27  30
ENDBRANCH  25  26
ENDBRANCH  24  25
ENDBRANCH   1  24
TORSDOF 14
ENDMDL
