MODEL 1
REMARK VINA RESULT:     -12.2      0.000      0.000
REMARK SMILES O=C(NCCCCNC(=O)C1(NC(=O)c2c[nH]c(=O)c(Cl)c2)CCCCC1)c1ccc(-c2c3nc(c(-c4c(F)cccc4F)c4ccc([nH]4)c(-c4c(F)cccc4F)c4nc(c(-c5c(F)cccc5F)c5ccc2[nH]5)C=C4)C=C3)cc1
REMARK SMILES IDX 5 1 4 2 3 3 1 4 2 5 28 7 29 8 81 9 30 10 80 11 31 12 32 13
REMARK SMILES IDX 33 14 74 15 34 16 79 17 73 18 75 19 35 20 78 21 72 22 71 23
REMARK SMILES IDX 36 25 62 26 45 27 61 28 46 29 49 30 60 31 76 32 47 33 48 34
REMARK SMILES IDX 59 36 77 37 50 38 37 39 38 40 43 41 39 42 40 43 42 44 44 45
REMARK SMILES IDX 41 46 63 47 64 48 69 49 65 50 66 51 68 52 70 53 67 54 51 55
REMARK SMILES IDX 52 56 57 57 53 58 54 59 56 60 58 61 55 62 6 63 7 64 8 65
REMARK SMILES IDX 9 66 10 68 11 69 23 70 27 71 24 72 26 73 25 74 12 75 13 76
REMARK SMILES IDX 14 78 15 79 16 80 22 81 17 82 20 83 18 84 21 86 19 87
REMARK H PARENT 3 6 75 24 49 35 8 67 12 77 17 85
REMARK Flexibility Score: inf
ROOT
ATOM      1  C   UNL A   1      34.039  28.873  26.042  1.00  0.00     0.023 C 
ENDROOT
BRANCH   1   2
ATOM      2  C   UNL A   1      33.505  29.070  27.449  1.00  0.00     0.116 C 
BRANCH   2   3
ATOM      3  N   UNL A   1      33.794  30.407  27.930  1.00  0.00    -0.352 N 
ATOM      4  O   UNL A   1      34.812  31.934  29.219  1.00  0.00    -0.269 OA
ATOM      5  C   UNL A   1      34.891  30.862  28.623  1.00  0.00     0.251 C 
ATOM      6  H   UNL A   1      33.107  31.084  27.734  1.00  0.00     0.163 HD
BRANCH   5   7
ATOM      7  C   UNL A   1      36.176  30.114  28.633  1.00  0.00     0.039 A 
ATOM      8  C   UNL A   1      37.049  30.144  27.541  1.00  0.00     0.014 A 
ATOM      9  C   UNL A   1      36.588  29.495  29.822  1.00  0.00     0.014 A 
ATOM     10  C   UNL A   1      38.307  29.546  27.625  1.00  0.00     0.010 A 
ATOM     11  C   UNL A   1      37.875  28.952  29.929  1.00  0.00     0.010 A 
ATOM     12  C   UNL A   1      38.754  28.999  28.838  1.00  0.00    -0.014 A 
BRANCH  12  13
ATOM     13  C   UNL A   1      40.193  28.662  29.006  1.00  0.00     0.031 A 
ATOM     14  C   UNL A   1      41.187  29.671  29.501  1.00  0.00     0.074 A 
ATOM     15  C   UNL A   1      40.600  27.424  28.655  1.00  0.00     0.049 A 
ATOM     16  N   UNL A   1      42.484  29.547  29.636  1.00  0.00    -0.248 NA
ATOM     17  C   UNL A   1      40.666  30.991  29.883  1.00  0.00     0.031 C 
ATOM     18  C   UNL A   1      39.725  26.370  28.132  1.00  0.00     0.029 A 
ATOM     19  N   UNL A   1      41.842  26.842  28.671  1.00  0.00    -0.354 N 
ATOM     20  C   UNL A   1      42.938  30.773  30.101  1.00  0.00     0.074 A 
ATOM     21  C   UNL A   1      41.780  31.636  30.211  1.00  0.00     0.031 C 
ATOM     22  C   UNL A   1      40.453  25.270  27.894  1.00  0.00     0.029 A 
ATOM     23  C   UNL A   1      41.852  25.557  28.180  1.00  0.00     0.049 A 
ATOM     24  H   UNL A   1      42.648  27.299  29.001  1.00  0.00     0.167 HD
ATOM     25  C   UNL A   1      44.207  31.138  30.408  1.00  0.00     0.037 A 
ATOM     26  C   UNL A   1      42.875  24.715  27.946  1.00  0.00     0.037 A 
ATOM     27  C   UNL A   1      45.348  30.263  30.313  1.00  0.00     0.049 A 
ATOM     28  C   UNL A   1      44.273  25.164  28.263  1.00  0.00     0.074 A 
ATOM     29  C   UNL A   1      46.660  30.517  30.679  1.00  0.00     0.029 A 
ATOM     30  N   UNL A   1      45.319  28.973  29.803  1.00  0.00    -0.354 N 
ATOM     31  N   UNL A   1      44.676  26.299  28.778  1.00  0.00    -0.248 NA
ATOM     32  C   UNL A   1      45.360  24.222  27.958  1.00  0.00     0.031 C 
ATOM     33  C   UNL A   1      47.435  29.407  30.329  1.00  0.00     0.029 A 
ATOM     34  C   UNL A   1      46.598  28.439  29.799  1.00  0.00     0.049 A 
ATOM     35  H   UNL A   1      44.511  28.507  29.490  1.00  0.00     0.167 HD
ATOM     36  C   UNL A   1      46.057  26.205  28.870  1.00  0.00     0.074 A 
ATOM     37  C   UNL A   1      46.421  24.891  28.383  1.00  0.00     0.031 C 
ATOM     38  C   UNL A   1      46.945  27.129  29.311  1.00  0.00     0.037 A 
BRANCH  25  39
ATOM     39  C   UNL A   1      44.451  32.550  30.855  1.00  0.00     0.057 A 
ATOM     40  C   UNL A   1      44.458  32.913  32.207  1.00  0.00     0.134 A 
ATOM     41  C   UNL A   1      44.775  33.543  29.920  1.00  0.00     0.134 A 
ATOM     42  F   UNL A   1      44.158  32.011  33.154  1.00  0.00    -0.206 F 
ATOM     43  C   UNL A   1      44.768  34.213  32.613  1.00  0.00     0.040 A 
ATOM     44  C   UNL A   1      45.108  34.840  30.314  1.00  0.00     0.040 A 
ATOM     45  F   UNL A   1      44.798  33.262  28.608  1.00  0.00    -0.206 F 
ATOM     46  C   UNL A   1      45.104  35.179  31.665  1.00  0.00     0.006 A 
ENDBRANCH  25  39
BRANCH  26  47
ATOM     47  C   UNL A   1      42.623  23.381  27.339  1.00  0.00     0.057 A 
ATOM     48  C   UNL A   1      42.732  23.175  25.960  1.00  0.00     0.134 A 
ATOM     49  C   UNL A   1      42.247  22.285  28.126  1.00  0.00     0.134 A 
ATOM     50  F   UNL A   1      43.071  24.189  25.150  1.00  0.00    -0.206 F 
ATOM     51  C   UNL A   1      42.452  21.935  25.382  1.00  0.00     0.040 A 
ATOM     52  C   UNL A   1      41.996  21.031  27.565  1.00  0.00     0.040 A 
ATOM     53  F   UNL A   1      42.131  22.411  29.456  1.00  0.00    -0.206 F 
ATOM     54  C   UNL A   1      42.088  20.858  26.187  1.00  0.00     0.006 A 
ENDBRANCH  26  47
BRANCH  38  55
ATOM     55  C   UNL A   1      48.394  26.744  29.300  1.00  0.00     0.057 A 
ATOM     56  C   UNL A   1      48.981  26.057  30.369  1.00  0.00     0.134 A 
ATOM     57  C   UNL A   1      49.199  27.019  28.186  1.00  0.00     0.134 A 
ATOM     58  F   UNL A   1      48.269  25.780  31.473  1.00  0.00    -0.206 F 
ATOM     59  C   UNL A   1      50.322  25.671  30.339  1.00  0.00     0.040 A 
ATOM     60  C   UNL A   1      50.533  26.613  28.133  1.00  0.00     0.040 A 
ATOM     61  F   UNL A   1      48.697  27.669  27.126  1.00  0.00    -0.206 F 
ATOM     62  C   UNL A   1      51.099  25.940  29.215  1.00  0.00     0.006 A 
ENDBRANCH  38  55
ENDBRANCH  12  13
ENDBRANCH   5   7
ENDBRANCH   2   3
ENDBRANCH   1   2
BRANCH   1  63
ATOM     63  C   UNL A   1      33.033  28.780  24.889  1.00  0.00     0.023 C 
BRANCH  63  64
ATOM     64  C   UNL A   1      32.461  27.441  24.362  1.00  0.00     0.116 C 
BRANCH  64  65
ATOM     65  N   UNL A   1      32.980  26.702  23.195  1.00  0.00    -0.354 N 
ATOM     66  C   UNL A   1      33.545  25.450  22.959  1.00  0.00     0.245 C 
ATOM     67  H   UNL A   1      32.909  27.231  22.367  1.00  0.00     0.163 HD
ATOM     68  O   UNL A   1      33.653  25.087  21.785  1.00  0.00    -0.272 OA
BRANCH  66  69
ATOM     69  C   UNL A   1      33.904  24.512  24.119  1.00  0.00     0.119 C 
ATOM     70  C   UNL A   1      34.743  23.467  23.294  1.00  0.00     0.038 C 
ATOM     71  C   UNL A   1      34.790  24.979  25.300  1.00  0.00     0.038 C 
ATOM     72  C   UNL A   1      35.631  22.444  23.987  1.00  0.00     0.003 C 
ATOM     73  C   UNL A   1      35.358  23.761  26.074  1.00  0.00     0.003 C 
ATOM     74  C   UNL A   1      36.339  22.990  25.208  1.00  0.00     0.000 C 
BRANCH  69  75
ATOM     75  N   UNL A   1      32.608  24.146  24.713  1.00  0.00    -0.338 N 
ATOM     76  C   UNL A   1      31.966  22.925  24.797  1.00  0.00     0.253 C 
ATOM     77  H   UNL A   1      32.116  24.897  25.117  1.00  0.00     0.164 HD
ATOM     78  O   UNL A   1      30.730  23.010  24.846  1.00  0.00    -0.269 OA
BRANCH  76  79
ATOM     79  C   UNL A   1      32.571  21.496  24.937  1.00  0.00     0.057 A 
ATOM     80  C   UNL A   1      32.992  20.872  26.059  1.00  0.00     0.099 A 
ATOM     81  C   UNL A   1      32.373  20.578  23.793  1.00  0.00     0.041 A 
ATOM     82  N   UNL A   1      33.255  19.527  26.150  1.00  0.00    -0.327 N 
ATOM     83  C   UNL A   1      32.575  19.249  23.866  1.00  0.00     0.106 A 
ATOM     84  C   UNL A   1      33.070  18.627  25.132  1.00  0.00     0.266 A 
ATOM     85  H   UNL A   1      33.600  19.185  27.006  1.00  0.00     0.169 HD
ATOM     86  Cl  UNL A   1      32.225  18.196  22.554  1.00  0.00    -0.078 Cl
ATOM     87  O   UNL A   1      33.270  17.441  25.294  1.00  0.00    -0.268 OA
ENDBRANCH  76  79
ENDBRANCH  69  75
ENDBRANCH  66  69
ENDBRANCH  64  65
ENDBRANCH  63  64
ENDBRANCH   1  63
TORSDOF 13
ENDMDL
MODEL 2
REMARK VINA RESULT:     -12.1      2.424      6.987
REMARK SMILES O=C(NCCCCNC(=O)C1(NC(=O)c2c[nH]c(=O)c(Cl)c2)CCCCC1)c1ccc(-c2c3nc(c(-c4c(F)cccc4F)c4ccc([nH]4)c(-c4c(F)cccc4F)c4nc(c(-c5c(F)cccc5F)c5ccc2[nH]5)C=C4)C=C3)cc1
REMARK SMILES IDX 5 1 4 2 3 3 1 4 2 5 28 7 29 8 81 9 30 10 80 11 31 12 32 13
REMARK SMILES IDX 33 14 74 15 34 16 79 17 73 18 75 19 35 20 78 21 72 22 71 23
REMARK SMILES IDX 36 25 62 26 45 27 61 28 46 29 49 30 60 31 76 32 47 33 48 34
REMARK SMILES IDX 59 36 77 37 50 38 37 39 38 40 43 41 39 42 40 43 42 44 44 45
REMARK SMILES IDX 41 46 63 47 64 48 69 49 65 50 66 51 68 52 70 53 67 54 51 55
REMARK SMILES IDX 52 56 57 57 53 58 54 59 56 60 58 61 55 62 6 63 7 64 8 65
REMARK SMILES IDX 9 66 10 68 11 69 23 70 27 71 24 72 26 73 25 74 12 75 13 76
REMARK SMILES IDX 14 78 15 79 16 80 22 81 17 82 20 83 18 84 21 86 19 87
REMARK H PARENT 3 6 75 24 49 35 8 67 12 77 17 85
REMARK Flexibility Score: inf
ROOT
ATOM      1  C   UNL A   1      38.042  20.000  24.970  1.00  0.00     0.023 C 
ENDROOT
BRANCH   1   2
ATOM      2  C   UNL A   1      39.267  20.386  25.778  1.00  0.00     0.116 C 
BRANCH   2   3
ATOM      3  N   UNL A   1      40.169  19.260  25.920  1.00  0.00    -0.352 N 
ATOM      4  O   UNL A   1      42.151  18.211  25.840  1.00  0.00    -0.269 OA
ATOM      5  C   UNL A   1      41.538  19.255  26.057  1.00  0.00     0.251 C 
ATOM      6  H   UNL A   1      39.741  18.373  25.918  1.00  0.00     0.163 HD
BRANCH   5   7
ATOM      7  C   UNL A   1      42.285  20.462  26.498  1.00  0.00     0.039 A 
ATOM      8  C   UNL A   1      42.958  21.279  25.584  1.00  0.00     0.014 A 
ATOM      9  C   UNL A   1      42.180  20.871  27.835  1.00  0.00     0.014 A 
ATOM     10  C   UNL A   1      43.538  22.478  26.003  1.00  0.00     0.010 A 
ATOM     11  C   UNL A   1      42.705  22.104  28.242  1.00  0.00     0.010 A 
ATOM     12  C   UNL A   1      43.364  22.930  27.320  1.00  0.00    -0.014 A 
BRANCH  12  13
ATOM     13  C   UNL A   1      43.701  24.337  27.665  1.00  0.00     0.031 A 
ATOM     14  C   UNL A   1      42.641  25.337  28.021  1.00  0.00     0.074 A 
ATOM     15  C   UNL A   1      44.995  24.713  27.604  1.00  0.00     0.049 A 
ATOM     16  N   UNL A   1      42.772  26.615  28.280  1.00  0.00    -0.248 NA
ATOM     17  C   UNL A   1      41.256  24.850  28.086  1.00  0.00     0.031 C 
ATOM     18  C   UNL A   1      46.109  23.831  27.238  1.00  0.00     0.029 A 
ATOM     19  N   UNL A   1      45.598  25.924  27.834  1.00  0.00    -0.354 N 
ATOM     20  C   UNL A   1      41.490  27.089  28.521  1.00  0.00     0.074 A 
ATOM     21  C   UNL A   1      40.590  25.964  28.364  1.00  0.00     0.031 C 
ATOM     22  C   UNL A   1      47.255  24.525  27.285  1.00  0.00     0.029 A 
ATOM     23  C   UNL A   1      46.956  25.911  27.616  1.00  0.00     0.049 A 
ATOM     24  H   UNL A   1      45.106  26.724  28.127  1.00  0.00     0.167 HD
ATOM     25  C   UNL A   1      41.107  28.348  28.846  1.00  0.00     0.037 A 
ATOM     26  C   UNL A   1      47.857  26.910  27.638  1.00  0.00     0.037 A 
ATOM     27  C   UNL A   1      42.016  29.453  29.020  1.00  0.00     0.049 A 
ATOM     28  C   UNL A   1      47.393  28.300  27.965  1.00  0.00     0.074 A 
ATOM     29  C   UNL A   1      41.730  30.745  29.428  1.00  0.00     0.029 A 
ATOM     30  N   UNL A   1      43.381  29.403  28.781  1.00  0.00    -0.354 N 
ATOM     31  N   UNL A   1      46.189  28.716  28.270  1.00  0.00    -0.248 NA
ATOM     32  C   UNL A   1      48.408  29.363  27.943  1.00  0.00     0.031 C 
ATOM     33  C   UNL A   1      42.910  31.493  29.372  1.00  0.00     0.029 A 
ATOM     34  C   UNL A   1      43.942  30.654  28.984  1.00  0.00     0.049 A 
ATOM     35  H   UNL A   1      43.878  28.599  28.506  1.00  0.00     0.167 HD
ATOM     36  C   UNL A   1      46.302  30.082  28.487  1.00  0.00     0.074 A 
ATOM     37  C   UNL A   1      47.698  30.420  28.306  1.00  0.00     0.031 C 
ATOM     38  C   UNL A   1      45.333  30.976  28.800  1.00  0.00     0.037 A 
BRANCH  25  39
ATOM     39  C   UNL A   1      39.641  28.621  29.016  1.00  0.00     0.057 A 
ATOM     40  C   UNL A   1      38.988  28.447  30.242  1.00  0.00     0.134 A 
ATOM     41  C   UNL A   1      38.893  29.156  27.958  1.00  0.00     0.134 A 
ATOM     42  F   UNL A   1      39.645  27.941  31.296  1.00  0.00    -0.206 F 
ATOM     43  C   UNL A   1      37.642  28.785  30.407  1.00  0.00     0.040 A 
ATOM     44  C   UNL A   1      37.554  29.518  28.116  1.00  0.00     0.040 A 
ATOM     45  F   UNL A   1      39.459  29.360  26.758  1.00  0.00    -0.206 F 
ATOM     46  C   UNL A   1      36.924  29.331  29.344  1.00  0.00     0.006 A 
ENDBRANCH  25  39
BRANCH  26  47
ATOM     47  C   UNL A   1      49.279  26.643  27.295  1.00  0.00     0.057 A 
ATOM     48  C   UNL A   1      49.733  26.696  25.973  1.00  0.00     0.134 A 
ATOM     49  C   UNL A   1      50.213  26.308  28.283  1.00  0.00     0.134 A 
ATOM     50  F   UNL A   1      48.885  26.994  24.979  1.00  0.00    -0.206 F 
ATOM     51  C   UNL A   1      51.058  26.402  25.643  1.00  0.00     0.040 A 
ATOM     52  C   UNL A   1      51.548  26.043  27.971  1.00  0.00     0.040 A 
ATOM     53  F   UNL A   1      49.846  26.245  29.572  1.00  0.00    -0.206 F 
ATOM     54  C   UNL A   1      51.970  26.079  26.645  1.00  0.00     0.006 A 
ENDBRANCH  26  47
BRANCH  38  55
ATOM     55  C   UNL A   1      45.754  32.404  28.980  1.00  0.00     0.057 A 
ATOM     56  C   UNL A   1      46.201  32.889  30.215  1.00  0.00     0.134 A 
ATOM     57  C   UNL A   1      45.760  33.291  27.896  1.00  0.00     0.134 A 
ATOM     58  F   UNL A   1      46.202  32.095  31.298  1.00  0.00    -0.206 F 
ATOM     59  C   UNL A   1      46.624  34.210  30.370  1.00  0.00     0.040 A 
ATOM     60  C   UNL A   1      46.207  34.606  28.031  1.00  0.00     0.040 A 
ATOM     61  F   UNL A   1      45.349  32.888  26.684  1.00  0.00    -0.206 F 
ATOM     62  C   UNL A   1      46.637  35.069  29.273  1.00  0.00     0.006 A 
ENDBRANCH  38  55
ENDBRANCH  12  13
ENDBRANCH   5   7
ENDBRANCH   2   3
ENDBRANCH   1   2
BRANCH   1  63
ATOM     63  C   UNL A   1      37.085  21.112  24.525  1.00  0.00     0.023 C 
BRANCH  63  64
ATOM     64  C   UNL A   1      36.907  22.443  25.295  1.00  0.00     0.116 C 
BRANCH  64  65
ATOM     65  N   UNL A   1      36.054  22.622  26.486  1.00  0.00    -0.354 N 
ATOM     66  C   UNL A   1      34.734  22.989  26.739  1.00  0.00     0.245 C 
ATOM     67  H   UNL A   1      36.545  22.433  27.318  1.00  0.00     0.163 HD
ATOM     68  O   UNL A   1      34.301  22.806  27.880  1.00  0.00    -0.272 OA
BRANCH  66  69
ATOM     69  C   UNL A   1      33.819  23.486  25.611  1.00  0.00     0.119 C 
ATOM     70  C   UNL A   1      34.114  25.025  25.761  1.00  0.00     0.038 C 
ATOM     71  C   UNL A   1      34.076  23.113  24.131  1.00  0.00     0.038 C 
ATOM     72  C   UNL A   1      33.708  26.015  24.680  1.00  0.00     0.003 C 
ATOM     73  C   UNL A   1      33.311  24.074  23.184  1.00  0.00     0.003 C 
ATOM     74  C   UNL A   1      33.882  25.478  23.276  1.00  0.00     0.000 C 
BRANCH  69  75
ATOM     75  N   UNL A   1      32.495  22.932  25.939  1.00  0.00    -0.338 N 
ATOM     76  C   UNL A   1      31.879  21.765  25.529  1.00  0.00     0.253 C 
ATOM     77  H   UNL A   1      31.960  23.484  26.554  1.00  0.00     0.164 HD
ATOM     78  O   UNL A   1      30.640  21.828  25.520  1.00  0.00    -0.269 OA
BRANCH  76  79
ATOM     79  C   UNL A   1      32.507  20.381  25.182  1.00  0.00     0.057 A 
ATOM     80  C   UNL A   1      32.914  19.411  26.029  1.00  0.00     0.099 A 
ATOM     81  C   UNL A   1      32.353  19.916  23.785  1.00  0.00     0.041 A 
ATOM     82  N   UNL A   1      33.200  18.121  25.656  1.00  0.00    -0.327 N 
ATOM     83  C   UNL A   1      32.578  18.647  23.399  1.00  0.00     0.106 A 
ATOM     84  C   UNL A   1      33.055  17.628  24.384  1.00  0.00     0.266 A 
ATOM     85  H   UNL A   1      33.532  17.507  26.350  1.00  0.00     0.169 HD
ATOM     86  Cl  UNL A   1      32.278  18.110  21.794  1.00  0.00    -0.078 Cl
ATOM     87  O   UNL A   1      33.274  16.462  24.131  1.00  0.00    -0.268 OA
ENDBRANCH  76  79
ENDBRANCH  69  75
ENDBRANCH  66  69
ENDBRANCH  64  65
ENDBRANCH  63  64
ENDBRANCH   1  63
TORSDOF 13
ENDMDL
MODEL 3
REMARK VINA RESULT:     -12.1      4.177      8.218
REMARK SMILES O=C(NCCCCNC(=O)C1(NC(=O)c2c[nH]c(=O)c(Cl)c2)CCCCC1)c1ccc(-c2c3nc(c(-c4c(F)cccc4F)c4ccc([nH]4)c(-c4c(F)cccc4F)c4nc(c(-c5c(F)cccc5F)c5ccc2[nH]5)C=C4)C=C3)cc1
REMARK SMILES IDX 5 1 4 2 3 3 1 4 2 5 28 7 29 8 81 9 30 10 80 11 31 12 32 13
REMARK SMILES IDX 33 14 74 15 34 16 79 17 73 18 75 19 35 20 78 21 72 22 71 23
REMARK SMILES IDX 36 25 62 26 45 27 61 28 46 29 49 30 60 31 76 32 47 33 48 34
REMARK SMILES IDX 59 36 77 37 50 38 37 39 38 40 43 41 39 42 40 43 42 44 44 45
REMARK SMILES IDX 41 46 63 47 64 48 69 49 65 50 66 51 68 52 70 53 67 54 51 55
REMARK SMILES IDX 52 56 57 57 53 58 54 59 56 60 58 61 55 62 6 63 7 64 8 65
REMARK SMILES IDX 9 66 10 68 11 69 23 70 27 71 24 72 26 73 25 74 12 75 13 76
REMARK SMILES IDX 14 78 15 79 16 80 22 81 17 82 20 83 18 84 21 86 19 87
REMARK H PARENT 3 6 75 24 49 35 8 67 12 77 17 85
REMARK Flexibility Score: inf
ROOT
ATOM      1  C   UNL A   1      31.655  31.840  26.697  1.00  0.00     0.023 C 
ENDROOT
BRANCH   1   2
ATOM      2  C   UNL A   1      32.809  32.523  27.408  1.00  0.00     0.116 C 
BRANCH   2   3
ATOM      3  N   UNL A   1      32.553  33.942  27.564  1.00  0.00    -0.352 N 
ATOM      4  O   UNL A   1      32.456  35.885  28.681  1.00  0.00    -0.269 OA
ATOM      5  C   UNL A   1      33.030  34.810  28.519  1.00  0.00     0.251 C 
ATOM      6  H   UNL A   1      31.953  34.339  26.893  1.00  0.00     0.163 HD
BRANCH   5   7
ATOM      7  C   UNL A   1      34.239  34.498  29.327  1.00  0.00     0.039 A 
ATOM      8  C   UNL A   1      34.142  33.906  30.589  1.00  0.00     0.014 A 
ATOM      9  C   UNL A   1      35.502  34.661  28.741  1.00  0.00     0.014 A 
ATOM     10  C   UNL A   1      35.291  33.501  31.270  1.00  0.00     0.010 A 
ATOM     11  C   UNL A   1      36.651  34.195  29.394  1.00  0.00     0.010 A 
ATOM     12  C   UNL A   1      36.549  33.586  30.653  1.00  0.00    -0.014 A 
BRANCH  12  13
ATOM     13  C   UNL A   1      37.708  32.865  31.244  1.00  0.00     0.031 A 
ATOM     14  C   UNL A   1      38.315  31.667  30.576  1.00  0.00     0.074 A 
ATOM     15  C   UNL A   1      38.179  33.289  32.436  1.00  0.00     0.049 A 
ATOM     16  N   UNL A   1      39.284  30.894  31.001  1.00  0.00    -0.248 NA
ATOM     17  C   UNL A   1      37.763  31.277  29.272  1.00  0.00     0.031 C 
ATOM     18  C   UNL A   1      37.644  34.426  33.193  1.00  0.00     0.029 A 
ATOM     19  N   UNL A   1      39.197  32.818  33.226  1.00  0.00    -0.354 N 
ATOM     20  C   UNL A   1      39.447  29.917  30.029  1.00  0.00     0.074 A 
ATOM     21  C   UNL A   1      38.467  30.184  28.996  1.00  0.00     0.031 C 
ATOM     22  C   UNL A   1      38.347  34.573  34.324  1.00  0.00     0.029 A 
ATOM     23  C   UNL A   1      39.335  33.505  34.409  1.00  0.00     0.049 A 
ATOM     24  H   UNL A   1      39.772  32.062  32.971  1.00  0.00     0.167 HD
ATOM     25  C   UNL A   1      40.337  28.894  30.006  1.00  0.00     0.037 A 
ATOM     26  C   UNL A   1      40.138  33.280  35.466  1.00  0.00     0.037 A 
ATOM     27  C   UNL A   1      41.321  28.652  31.030  1.00  0.00     0.049 A 
ATOM     28  C   UNL A   1      41.086  32.117  35.423  1.00  0.00     0.074 A 
ATOM     29  C   UNL A   1      42.318  27.691  31.055  1.00  0.00     0.029 A 
ATOM     30  N   UNL A   1      41.424  29.363  32.216  1.00  0.00    -0.354 N 
ATOM     31  N   UNL A   1      41.283  31.250  34.461  1.00  0.00    -0.248 NA
ATOM     32  C   UNL A   1      41.917  31.891  36.615  1.00  0.00     0.031 C 
ATOM     33  C   UNL A   1      42.980  27.777  32.283  1.00  0.00     0.029 A 
ATOM     34  C   UNL A   1      42.434  28.829  33.001  1.00  0.00     0.049 A 
ATOM     35  H   UNL A   1      40.862  30.131  32.465  1.00  0.00     0.167 HD
ATOM     36  C   UNL A   1      42.265  30.386  34.923  1.00  0.00     0.074 A 
ATOM     37  C   UNL A   1      42.644  30.849  36.241  1.00  0.00     0.031 C 
ATOM     38  C   UNL A   1      42.800  29.301  34.311  1.00  0.00     0.037 A 
BRANCH  25  39
ATOM     39  C   UNL A   1      40.286  27.936  28.851  1.00  0.00     0.057 A 
ATOM     40  C   UNL A   1      41.010  28.150  27.672  1.00  0.00     0.134 A 
ATOM     41  C   UNL A   1      39.572  26.734  28.961  1.00  0.00     0.134 A 
ATOM     42  F   UNL A   1      41.714  29.278  27.503  1.00  0.00    -0.206 F 
ATOM     43  C   UNL A   1      41.018  27.208  26.640  1.00  0.00     0.040 A 
ATOM     44  C   UNL A   1      39.591  25.776  27.946  1.00  0.00     0.040 A 
ATOM     45  F   UNL A   1      38.866  26.459  30.069  1.00  0.00    -0.206 F 
ATOM     46  C   UNL A   1      40.314  26.013  26.779  1.00  0.00     0.006 A 
ENDBRANCH  25  39
BRANCH  26  47
ATOM     47  C   UNL A   1      40.047  34.144  36.673  1.00  0.00     0.057 A 
ATOM     48  C   UNL A   1      39.152  33.859  37.709  1.00  0.00     0.134 A 
ATOM     49  C   UNL A   1      40.842  35.289  36.806  1.00  0.00     0.134 A 
ATOM     50  F   UNL A   1      38.350  32.787  37.633  1.00  0.00    -0.206 F 
ATOM     51  C   UNL A   1      39.033  34.693  38.822  1.00  0.00     0.040 A 
ATOM     52  C   UNL A   1      40.757  36.115  37.929  1.00  0.00     0.040 A 
ATOM     53  F   UNL A   1      41.726  35.618  35.853  1.00  0.00    -0.206 F 
ATOM     54  C   UNL A   1      39.841  35.823  38.936  1.00  0.00     0.006 A 
ENDBRANCH  26  47
BRANCH  38  55
ATOM     55  C   UNL A   1      43.861  28.549  35.058  1.00  0.00     0.057 A 
ATOM     56  C   UNL A   1      43.545  27.496  35.925  1.00  0.00     0.134 A 
ATOM     57  C   UNL A   1      45.216  28.849  34.871  1.00  0.00     0.134 A 
ATOM     58  F   UNL A   1      42.264  27.171  36.162  1.00  0.00    -0.206 F 
ATOM     59  C   UNL A   1      44.538  26.778  36.591  1.00  0.00     0.040 A 
ATOM     60  C   UNL A   1      46.220  28.120  35.510  1.00  0.00     0.040 A 
ATOM     61  F   UNL A   1      45.587  29.843  34.050  1.00  0.00    -0.206 F 
ATOM     62  C   UNL A   1      45.880  27.083  36.377  1.00  0.00     0.006 A 
ENDBRANCH  38  55
ENDBRANCH  12  13
ENDBRANCH   5   7
ENDBRANCH   2   3
ENDBRANCH   1   2
BRANCH   1  63
ATOM     63  C   UNL A   1      31.818  30.371  26.291  1.00  0.00     0.023 C 
BRANCH  63  64
ATOM     64  C   UNL A   1      33.189  29.716  25.993  1.00  0.00     0.116 C 
BRANCH  64  65
ATOM     65  N   UNL A   1      33.712  29.429  24.643  1.00  0.00    -0.354 N 
ATOM     66  C   UNL A   1      33.461  28.498  23.638  1.00  0.00     0.245 C 
ATOM     67  H   UNL A   1      34.424  30.059  24.386  1.00  0.00     0.163 HD
ATOM     68  O   UNL A   1      33.954  28.713  22.527  1.00  0.00    -0.272 OA
BRANCH  66  69
ATOM     69  C   UNL A   1      32.508  27.317  23.870  1.00  0.00     0.119 C 
ATOM     70  C   UNL A   1      33.194  26.743  25.165  1.00  0.00     0.038 C 
ATOM     71  C   UNL A   1      31.012  27.533  24.203  1.00  0.00     0.038 C 
ATOM     72  C   UNL A   1      32.489  25.721  26.044  1.00  0.00     0.003 C 
ATOM     73  C   UNL A   1      30.396  26.249  24.816  1.00  0.00     0.003 C 
ATOM     74  C   UNL A   1      31.002  25.968  26.181  1.00  0.00     0.000 C 
BRANCH  69  75
ATOM     75  N   UNL A   1      32.532  26.569  22.603  1.00  0.00    -0.338 N 
ATOM     76  C   UNL A   1      33.151  25.380  22.268  1.00  0.00     0.253 C 
ATOM     77  H   UNL A   1      32.021  26.986  21.871  1.00  0.00     0.164 HD
ATOM     78  O   UNL A   1      33.442  25.286  21.066  1.00  0.00    -0.269 OA
BRANCH  76  79
ATOM     79  C   UNL A   1      33.437  24.129  23.153  1.00  0.00     0.057 A 
ATOM     80  C   UNL A   1      32.606  23.108  23.452  1.00  0.00     0.099 A 
ATOM     81  C   UNL A   1      34.859  23.834  23.441  1.00  0.00     0.041 A 
ATOM     82  N   UNL A   1      33.005  21.915  24.003  1.00  0.00    -0.327 N 
ATOM     83  C   UNL A   1      35.285  22.657  23.935  1.00  0.00     0.106 A 
ATOM     84  C   UNL A   1      34.306  21.577  24.271  1.00  0.00     0.266 A 
ATOM     85  H   UNL A   1      32.306  21.256  24.221  1.00  0.00     0.169 HD
ATOM     86  Cl  UNL A   1      36.953  22.302  24.150  1.00  0.00    -0.078 Cl
ATOM     87  O   UNL A   1      34.597  20.484  24.710  1.00  0.00    -0.268 OA
ENDBRANCH  76  79
ENDBRANCH  69  75
ENDBRANCH  66  69
ENDBRANCH  64  65
ENDBRANCH  63  64
ENDBRANCH   1  63
TORSDOF 13
ENDMDL
