MODEL 1
REMARK VINA RESULT:     -11.3      0.000      0.000
REMARK SMILES O=C(NCCCCNC(=O)[C@@H]1C=C[C@H](NC(=O)C2CCOCC2)C1)c1ccc(-c2c3nc(c(-c4c(F)cccc4F)c4ccc([nH]4)c(-c4c(F)cccc4F)c4nc(c(-c5c(F)cccc5F)c5ccc2[nH]5)C=C4)C=C3)cc1
REMARK SMILES IDX 5 1 4 2 3 3 1 4 2 5 25 7 26 8 78 9 27 10 77 11 28 12 29 13
REMARK SMILES IDX 30 14 71 15 31 16 76 17 70 18 72 19 32 20 75 21 69 22 68 23
REMARK SMILES IDX 33 25 59 26 42 27 58 28 43 29 46 30 57 31 73 32 44 33 45 34
REMARK SMILES IDX 56 36 74 37 47 38 34 39 35 40 40 41 36 42 37 43 39 44 41 45
REMARK SMILES IDX 38 46 60 47 61 48 66 49 62 50 63 51 65 52 67 53 64 54 48 55
REMARK SMILES IDX 49 56 54 57 50 58 51 59 53 60 55 61 52 62 6 63 7 64 8 65
REMARK SMILES IDX 9 66 10 68 11 69 12 70 24 71 13 72 14 73 15 74 16 75 17 77
REMARK SMILES IDX 18 78 19 79 23 80 20 81 22 82 21 83
REMARK H PARENT 3 6 72 24 46 35 8 67 15 76
REMARK Flexibility Score: inf
ROOT
ATOM      1  C   UNL A   1      38.843  20.386  25.163  1.00  0.00     0.023 C 
ENDROOT
BRANCH   1   2
ATOM      2  C   UNL A   1      39.420  19.363  26.136  1.00  0.00     0.116 C 
BRANCH   2   3
ATOM      3  N   UNL A   1      40.748  18.902  25.762  1.00  0.00    -0.352 N 
ATOM      4  O   UNL A   1      42.955  19.022  25.338  1.00  0.00    -0.269 OA
ATOM      5  C   UNL A   1      41.960  19.552  25.816  1.00  0.00     0.251 C 
ATOM      6  H   UNL A   1      40.785  17.982  25.415  1.00  0.00     0.163 HD
BRANCH   5   7
ATOM      7  C   UNL A   1      42.062  20.905  26.412  1.00  0.00     0.039 A 
ATOM      8  C   UNL A   1      42.274  22.034  25.620  1.00  0.00     0.014 A 
ATOM      9  C   UNL A   1      41.937  21.043  27.799  1.00  0.00     0.014 A 
ATOM     10  C   UNL A   1      42.532  23.263  26.221  1.00  0.00     0.010 A 
ATOM     11  C   UNL A   1      42.111  22.296  28.396  1.00  0.00     0.010 A 
ATOM     12  C   UNL A   1      42.461  23.408  27.617  1.00  0.00    -0.014 A 
BRANCH  12  13
ATOM     13  C   UNL A   1      42.755  24.732  28.227  1.00  0.00     0.031 A 
ATOM     14  C   UNL A   1      44.164  25.130  28.577  1.00  0.00     0.074 A 
ATOM     15  C   UNL A   1      41.746  25.605  28.419  1.00  0.00     0.049 A 
ATOM     16  N   UNL A   1      44.607  26.268  29.052  1.00  0.00    -0.248 NA
ATOM     17  C   UNL A   1      45.214  24.118  28.379  1.00  0.00     0.031 C 
ATOM     18  C   UNL A   1      40.335  25.337  28.136  1.00  0.00     0.029 A 
ATOM     19  N   UNL A   1      41.756  26.900  28.870  1.00  0.00    -0.354 N 
ATOM     20  C   UNL A   1      45.975  26.103  29.230  1.00  0.00     0.074 A 
ATOM     21  C   UNL A   1      46.288  24.745  28.837  1.00  0.00     0.031 C 
ATOM     22  C   UNL A   1      39.622  26.450  28.366  1.00  0.00     0.029 A 
ATOM     23  C   UNL A   1      40.516  27.493  28.857  1.00  0.00     0.049 A 
ATOM     24  H   UNL A   1      42.571  27.361  29.174  1.00  0.00     0.167 HD
ATOM     25  C   UNL A   1      46.888  27.002  29.670  1.00  0.00     0.037 A 
ATOM     26  C   UNL A   1      40.140  28.740  29.199  1.00  0.00     0.037 A 
ATOM     27  C   UNL A   1      46.584  28.362  30.033  1.00  0.00     0.049 A 
ATOM     28  C   UNL A   1      41.174  29.717  29.676  1.00  0.00     0.074 A 
ATOM     29  C   UNL A   1      47.451  29.359  30.448  1.00  0.00     0.029 A 
ATOM     30  N   UNL A   1      45.314  28.918  30.024  1.00  0.00    -0.354 N 
ATOM     31  N   UNL A   1      42.469  29.556  29.798  1.00  0.00    -0.248 NA
ATOM     32  C   UNL A   1      40.693  31.050  30.060  1.00  0.00     0.031 C 
ATOM     33  C   UNL A   1      46.701  30.508  30.724  1.00  0.00     0.029 A 
ATOM     34  C   UNL A   1      45.372  30.238  30.441  1.00  0.00     0.049 A 
ATOM     35  H   UNL A   1      44.492  28.444  29.760  1.00  0.00     0.167 HD
ATOM     36  C   UNL A   1      42.960  30.773  30.250  1.00  0.00     0.074 A 
ATOM     37  C   UNL A   1      41.826  31.666  30.367  1.00  0.00     0.031 C 
ATOM     38  C   UNL A   1      44.237  31.119  30.544  1.00  0.00     0.037 A 
BRANCH  25  39
ATOM     39  C   UNL A   1      48.311  26.539  29.800  1.00  0.00     0.057 A 
ATOM     40  C   UNL A   1      49.255  26.748  28.787  1.00  0.00     0.134 A 
ATOM     41  C   UNL A   1      48.752  25.914  30.974  1.00  0.00     0.134 A 
ATOM     42  F   UNL A   1      48.895  27.331  27.633  1.00  0.00    -0.206 F 
ATOM     43  C   UNL A   1      50.581  26.333  28.927  1.00  0.00     0.040 A 
ATOM     44  C   UNL A   1      50.080  25.516  31.135  1.00  0.00     0.040 A 
ATOM     45  F   UNL A   1      47.902  25.689  31.987  1.00  0.00    -0.206 F 
ATOM     46  C   UNL A   1      50.998  25.720  30.107  1.00  0.00     0.006 A 
ENDBRANCH  25  39
BRANCH  26  47
ATOM     47  C   UNL A   1      38.716  29.138  29.078  1.00  0.00     0.057 A 
ATOM     48  C   UNL A   1      38.188  29.560  27.853  1.00  0.00     0.134 A 
ATOM     49  C   UNL A   1      37.852  29.102  30.178  1.00  0.00     0.134 A 
ATOM     50  F   UNL A   1      38.971  29.631  26.767  1.00  0.00    -0.206 F 
ATOM     51  C   UNL A   1      36.852  29.945  27.729  1.00  0.00     0.040 A 
ATOM     52  C   UNL A   1      36.509  29.461  30.064  1.00  0.00     0.040 A 
ATOM     53  F   UNL A   1      38.299  28.700  31.377  1.00  0.00    -0.206 F 
ATOM     54  C   UNL A   1      36.007  29.890  28.836  1.00  0.00     0.006 A 
ENDBRANCH  26  47
BRANCH  38  55
ATOM     55  C   UNL A   1      44.477  32.533  30.980  1.00  0.00     0.057 A 
ATOM     56  C   UNL A   1      44.454  32.904  32.329  1.00  0.00     0.134 A 
ATOM     57  C   UNL A   1      44.750  33.532  30.037  1.00  0.00     0.134 A 
ATOM     58  F   UNL A   1      44.184  31.997  33.280  1.00  0.00    -0.206 F 
ATOM     59  C   UNL A   1      44.669  34.226  32.725  1.00  0.00     0.040 A 
ATOM     60  C   UNL A   1      44.989  34.852  30.421  1.00  0.00     0.040 A 
ATOM     61  F   UNL A   1      44.792  33.240  28.728  1.00  0.00    -0.206 F 
ATOM     62  C   UNL A   1      44.942  35.202  31.768  1.00  0.00     0.006 A 
ENDBRANCH  38  55
ENDBRANCH  12  13
ENDBRANCH   5   7
ENDBRANCH   2   3
ENDBRANCH   1   2
BRANCH   1  63
ATOM     63  C   UNL A   1      38.508  21.756  25.760  1.00  0.00     0.023 C 
BRANCH  63  64
ATOM     64  C   UNL A   1      37.195  22.379  25.286  1.00  0.00     0.116 C 
BRANCH  64  65
ATOM     65  N   UNL A   1      36.211  22.466  26.347  1.00  0.00    -0.356 N 
ATOM     66  C   UNL A   1      34.988  21.872  26.461  1.00  0.00     0.227 C 
ATOM     67  H   UNL A   1      36.464  23.044  27.103  1.00  0.00     0.163 HD
ATOM     68  O   UNL A   1      34.386  22.030  27.524  1.00  0.00    -0.274 OA
BRANCH  66  69
ATOM     69  C   UNL A   1      34.430  21.033  25.303  1.00  0.00     0.103 C 
ATOM     70  C   UNL A   1      33.994  21.865  24.133  1.00  0.00    -0.016 C 
ATOM     71  C   UNL A   1      33.117  20.316  25.679  1.00  0.00     0.047 C 
ATOM     72  C   UNL A   1      32.661  21.930  24.019  1.00  0.00    -0.006 C 
ATOM     73  C   UNL A   1      31.966  21.131  25.051  1.00  0.00     0.106 C 
BRANCH  73  74
ATOM     74  N   UNL A   1      31.179  21.845  26.054  1.00  0.00    -0.350 N 
ATOM     75  C   UNL A   1      30.864  23.093  26.459  1.00  0.00     0.223 C 
ATOM     76  H   UNL A   1      30.722  21.191  26.632  1.00  0.00     0.164 HD
ATOM     77  O   UNL A   1      30.091  23.153  27.427  1.00  0.00    -0.275 OA
BRANCH  75  78
ATOM     78  C   UNL A   1      31.312  24.398  25.816  1.00  0.00     0.083 C 
ATOM     79  C   UNL A   1      32.712  24.797  26.282  1.00  0.00     0.042 C 
ATOM     80  C   UNL A   1      30.238  25.480  25.852  1.00  0.00     0.042 C 
ATOM     81  C   UNL A   1      33.004  26.263  26.031  1.00  0.00     0.161 C 
ATOM     82  C   UNL A   1      30.759  26.905  25.801  1.00  0.00     0.161 C 
ATOM     83  O   UNL A   1      31.954  27.067  26.557  1.00  0.00    -0.381 OA
ENDBRANCH  75  78
ENDBRANCH  73  74
ENDBRANCH  66  69
ENDBRANCH  64  65
ENDBRANCH  63  64
ENDBRANCH   1  63
TORSDOF 13
ENDMDL
MODEL 2
REMARK VINA RESULT:     -11.2      1.588      3.116
REMARK SMILES O=C(NCCCCNC(=O)[C@@H]1C=C[C@H](NC(=O)C2CCOCC2)C1)c1ccc(-c2c3nc(c(-c4c(F)cccc4F)c4ccc([nH]4)c(-c4c(F)cccc4F)c4nc(c(-c5c(F)cccc5F)c5ccc2[nH]5)C=C4)C=C3)cc1
REMARK SMILES IDX 5 1 4 2 3 3 1 4 2 5 25 7 26 8 78 9 27 10 77 11 28 12 29 13
REMARK SMILES IDX 30 14 71 15 31 16 76 17 70 18 72 19 32 20 75 21 69 22 68 23
REMARK SMILES IDX 33 25 59 26 42 27 58 28 43 29 46 30 57 31 73 32 44 33 45 34
REMARK SMILES IDX 56 36 74 37 47 38 34 39 35 40 40 41 36 42 37 43 39 44 41 45
REMARK SMILES IDX 38 46 60 47 61 48 66 49 62 50 63 51 65 52 67 53 64 54 48 55
REMARK SMILES IDX 49 56 54 57 50 58 51 59 53 60 55 61 52 62 6 63 7 64 8 65
REMARK SMILES IDX 9 66 10 68 11 69 12 70 24 71 13 72 14 73 15 74 16 75 17 77
REMARK SMILES IDX 18 78 19 79 23 80 20 81 22 82 21 83
REMARK H PARENT 3 6 72 24 46 35 8 67 15 76
REMARK Flexibility Score: inf
ROOT
ATOM      1  C   UNL A   1      38.850  21.488  25.400  1.00  0.00     0.023 C 
ENDROOT
BRANCH   1   2
ATOM      2  C   UNL A   1      38.911  20.173  26.170  1.00  0.00     0.116 C 
BRANCH   2   3
ATOM      3  N   UNL A   1      40.065  19.359  25.822  1.00  0.00    -0.352 N 
ATOM      4  O   UNL A   1      42.227  18.853  25.457  1.00  0.00    -0.269 OA
ATOM      5  C   UNL A   1      41.409  19.639  25.918  1.00  0.00     0.251 C 
ATOM      6  H   UNL A   1      39.850  18.468  25.462  1.00  0.00     0.163 HD
BRANCH   5   7
ATOM      7  C   UNL A   1      41.871  20.903  26.538  1.00  0.00     0.039 A 
ATOM      8  C   UNL A   1      41.782  21.113  27.914  1.00  0.00     0.014 A 
ATOM      9  C   UNL A   1      42.412  21.899  25.716  1.00  0.00     0.014 A 
ATOM     10  C   UNL A   1      42.068  22.369  28.443  1.00  0.00     0.010 A 
ATOM     11  C   UNL A   1      42.779  23.133  26.264  1.00  0.00     0.010 A 
ATOM     12  C   UNL A   1      42.562  23.397  27.623  1.00  0.00    -0.014 A 
BRANCH  12  13
ATOM     13  C   UNL A   1      42.845  24.730  28.218  1.00  0.00     0.031 A 
ATOM     14  C   UNL A   1      44.252  25.151  28.547  1.00  0.00     0.074 A 
ATOM     15  C   UNL A   1      41.826  25.591  28.414  1.00  0.00     0.049 A 
ATOM     16  N   UNL A   1      44.685  26.300  29.007  1.00  0.00    -0.248 NA
ATOM     17  C   UNL A   1      45.314  24.152  28.346  1.00  0.00     0.031 C 
ATOM     18  C   UNL A   1      40.415  25.300  28.151  1.00  0.00     0.029 A 
ATOM     19  N   UNL A   1      41.823  26.890  28.853  1.00  0.00    -0.354 N 
ATOM     20  C   UNL A   1      46.057  26.156  29.170  1.00  0.00     0.074 A 
ATOM     21  C   UNL A   1      46.384  24.799  28.786  1.00  0.00     0.031 C 
ATOM     22  C   UNL A   1      39.690  26.406  28.380  1.00  0.00     0.029 A 
ATOM     23  C   UNL A   1      40.575  27.466  28.850  1.00  0.00     0.049 A 
ATOM     24  H   UNL A   1      42.636  27.365  29.144  1.00  0.00     0.167 HD
ATOM     25  C   UNL A   1      46.963  27.071  29.591  1.00  0.00     0.037 A 
ATOM     26  C   UNL A   1      40.186  28.710  29.185  1.00  0.00     0.037 A 
ATOM     27  C   UNL A   1      46.644  28.430  29.945  1.00  0.00     0.049 A 
ATOM     28  C   UNL A   1      41.212  29.706  29.641  1.00  0.00     0.074 A 
ATOM     29  C   UNL A   1      47.502  29.443  30.340  1.00  0.00     0.029 A 
ATOM     30  N   UNL A   1      45.366  28.968  29.946  1.00  0.00    -0.354 N 
ATOM     31  N   UNL A   1      42.510  29.564  29.749  1.00  0.00    -0.248 NA
ATOM     32  C   UNL A   1      40.716  31.036  30.019  1.00  0.00     0.031 C 
ATOM     33  C   UNL A   1      46.738  30.583  30.615  1.00  0.00     0.029 A 
ATOM     34  C   UNL A   1      45.410  30.292  30.351  1.00  0.00     0.049 A 
ATOM     35  H   UNL A   1      44.548  28.480  29.696  1.00  0.00     0.167 HD
ATOM     36  C   UNL A   1      42.989  30.792  30.184  1.00  0.00     0.074 A 
ATOM     37  C   UNL A   1      41.844  31.670  30.306  1.00  0.00     0.031 C 
ATOM     38  C   UNL A   1      44.265  31.158  30.459  1.00  0.00     0.037 A 
BRANCH  25  39
ATOM     39  C   UNL A   1      48.393  26.629  29.707  1.00  0.00     0.057 A 
ATOM     40  C   UNL A   1      49.312  26.806  28.665  1.00  0.00     0.134 A 
ATOM     41  C   UNL A   1      48.868  26.058  30.896  1.00  0.00     0.134 A 
ATOM     42  F   UNL A   1      48.921  27.337  27.497  1.00  0.00    -0.206 F 
ATOM     43  C   UNL A   1      50.646  26.412  28.793  1.00  0.00     0.040 A 
ATOM     44  C   UNL A   1      50.203  25.681  31.043  1.00  0.00     0.040 A 
ATOM     45  F   UNL A   1      48.042  25.866  31.936  1.00  0.00    -0.206 F 
ATOM     46  C   UNL A   1      51.095  25.853  29.988  1.00  0.00     0.006 A 
ENDBRANCH  25  39
BRANCH  26  47
ATOM     47  C   UNL A   1      38.755  29.087  29.077  1.00  0.00     0.057 A 
ATOM     48  C   UNL A   1      37.904  29.013  30.186  1.00  0.00     0.134 A 
ATOM     49  C   UNL A   1      38.207  29.533  27.869  1.00  0.00     0.134 A 
ATOM     50  F   UNL A   1      38.368  28.578  31.366  1.00  0.00    -0.206 F 
ATOM     51  C   UNL A   1      36.555  29.357  30.094  1.00  0.00     0.040 A 
ATOM     52  C   UNL A   1      36.866  29.903  27.768  1.00  0.00     0.040 A 
ATOM     53  F   UNL A   1      38.974  29.631  26.774  1.00  0.00    -0.206 F 
ATOM     54  C   UNL A   1      36.034  29.810  28.883  1.00  0.00     0.006 A 
ENDBRANCH  26  47
BRANCH  38  55
ATOM     55  C   UNL A   1      44.490  32.580  30.879  1.00  0.00     0.057 A 
ATOM     56  C   UNL A   1      44.487  32.962  32.226  1.00  0.00     0.134 A 
ATOM     57  C   UNL A   1      44.728  33.575  29.923  1.00  0.00     0.134 A 
ATOM     58  F   UNL A   1      44.250  32.058  33.189  1.00  0.00    -0.206 F 
ATOM     59  C   UNL A   1      44.687  34.290  32.607  1.00  0.00     0.040 A 
ATOM     60  C   UNL A   1      44.953  34.902  30.293  1.00  0.00     0.040 A 
ATOM     61  F   UNL A   1      44.750  33.273  28.617  1.00  0.00    -0.206 F 
ATOM     62  C   UNL A   1      44.926  35.263  31.638  1.00  0.00     0.006 A 
ENDBRANCH  38  55
ENDBRANCH  12  13
ENDBRANCH   5   7
ENDBRANCH   2   3
ENDBRANCH   1   2
BRANCH   1  63
ATOM     63  C   UNL A   1      38.656  22.747  26.250  1.00  0.00     0.023 C 
BRANCH  63  64
ATOM     64  C   UNL A   1      37.774  23.831  25.630  1.00  0.00     0.116 C 
BRANCH  64  65
ATOM     65  N   UNL A   1      36.995  23.335  24.513  1.00  0.00    -0.356 N 
ATOM     66  C   UNL A   1      35.656  23.086  24.418  1.00  0.00     0.227 C 
ATOM     67  H   UNL A   1      37.510  23.148  23.695  1.00  0.00     0.163 HD
ATOM     68  O   UNL A   1      35.224  22.764  23.311  1.00  0.00    -0.274 OA
BRANCH  66  69
ATOM     69  C   UNL A   1      34.757  23.235  25.653  1.00  0.00     0.103 C 
ATOM     70  C   UNL A   1      34.936  22.124  26.646  1.00  0.00    -0.016 C 
ATOM     71  C   UNL A   1      33.259  23.102  25.307  1.00  0.00     0.047 C 
ATOM     72  C   UNL A   1      33.899  21.276  26.657  1.00  0.00    -0.006 C 
ATOM     73  C   UNL A   1      32.829  21.678  25.719  1.00  0.00     0.106 C 
BRANCH  73  74
ATOM     74  N   UNL A   1      32.572  20.820  24.566  1.00  0.00    -0.350 N 
ATOM     75  C   UNL A   1      32.730  19.550  24.136  1.00  0.00     0.223 C 
ATOM     76  H   UNL A   1      32.132  21.348  23.861  1.00  0.00     0.164 HD
ATOM     77  O   UNL A   1      32.299  19.323  22.996  1.00  0.00    -0.275 OA
BRANCH  75  78
ATOM     78  C   UNL A   1      33.321  18.390  24.925  1.00  0.00     0.083 C 
ATOM     79  C   UNL A   1      34.582  17.846  24.257  1.00  0.00     0.042 C 
ATOM     80  C   UNL A   1      32.273  17.370  25.358  1.00  0.00     0.042 C 
ATOM     81  C   UNL A   1      34.934  16.453  24.741  1.00  0.00     0.161 C 
ATOM     82  C   UNL A   1      32.803  15.966  25.593  1.00  0.00     0.161 C 
ATOM     83  O   UNL A   1      33.797  15.601  24.643  1.00  0.00    -0.381 OA
ENDBRANCH  75  78
ENDBRANCH  73  74
ENDBRANCH  66  69
ENDBRANCH  64  65
ENDBRANCH  63  64
ENDBRANCH   1  63
TORSDOF 13
ENDMDL
MODEL 3
REMARK VINA RESULT:     -11.2      4.590      9.687
REMARK SMILES O=C(NCCCCNC(=O)[C@@H]1C=C[C@H](NC(=O)C2CCOCC2)C1)c1ccc(-c2c3nc(c(-c4c(F)cccc4F)c4ccc([nH]4)c(-c4c(F)cccc4F)c4nc(c(-c5c(F)cccc5F)c5ccc2[nH]5)C=C4)C=C3)cc1
REMARK SMILES IDX 5 1 4 2 3 3 1 4 2 5 25 7 26 8 78 9 27 10 77 11 28 12 29 13
REMARK SMILES IDX 30 14 71 15 31 16 76 17 70 18 72 19 32 20 75 21 69 22 68 23
REMARK SMILES IDX 33 25 59 26 42 27 58 28 43 29 46 30 57 31 73 32 44 33 45 34
REMARK SMILES IDX 56 36 74 37 47 38 34 39 35 40 40 41 36 42 37 43 39 44 41 45
REMARK SMILES IDX 38 46 60 47 61 48 66 49 62 50 63 51 65 52 67 53 64 54 48 55
REMARK SMILES IDX 49 56 54 57 50 58 51 59 53 60 55 61 52 62 6 63 7 64 8 65
REMARK SMILES IDX 9 66 10 68 11 69 12 70 24 71 13 72 14 73 15 74 16 75 17 77
REMARK SMILES IDX 18 78 19 79 23 80 20 81 22 82 21 83
REMARK H PARENT 3 6 72 24 46 35 8 67 15 76
REMARK Flexibility Score: inf
ROOT
ATOM      1  C   UNL A   1      31.397  32.256  26.531  1.00  0.00     0.023 C 
ENDROOT
BRANCH   1   2
ATOM      2  C   UNL A   1      32.579  32.898  27.251  1.00  0.00     0.116 C 
BRANCH   2   3
ATOM      3  N   UNL A   1      32.309  34.255  27.699  1.00  0.00    -0.352 N 
ATOM      4  O   UNL A   1      32.503  36.116  28.949  1.00  0.00    -0.269 OA
ATOM      5  C   UNL A   1      32.966  35.030  28.628  1.00  0.00     0.251 C 
ATOM      6  H   UNL A   1      31.534  34.686  27.271  1.00  0.00     0.163 HD
BRANCH   5   7
ATOM      7  C   UNL A   1      34.207  34.540  29.273  1.00  0.00     0.039 A 
ATOM      8  C   UNL A   1      35.449  34.671  28.650  1.00  0.00     0.014 A 
ATOM      9  C   UNL A   1      34.121  33.940  30.534  1.00  0.00     0.014 A 
ATOM     10  C   UNL A   1      36.568  34.054  29.203  1.00  0.00     0.010 A 
ATOM     11  C   UNL A   1      35.265  33.395  31.128  1.00  0.00     0.010 A 
ATOM     12  C   UNL A   1      36.489  33.402  30.445  1.00  0.00    -0.014 A 
BRANCH  12  13
ATOM     13  C   UNL A   1      37.700  32.742  31.000  1.00  0.00     0.031 A 
ATOM     14  C   UNL A   1      38.290  33.181  32.314  1.00  0.00     0.074 A 
ATOM     15  C   UNL A   1      38.244  31.702  30.337  1.00  0.00     0.049 A 
ATOM     16  N   UNL A   1      39.301  32.673  32.976  1.00  0.00    -0.248 NA
ATOM     17  C   UNL A   1      37.674  34.346  32.968  1.00  0.00     0.031 C 
ATOM     18  C   UNL A   1      37.778  31.189  29.047  1.00  0.00     0.029 A 
ATOM     19  N   UNL A   1      39.286  30.875  30.668  1.00  0.00    -0.354 N 
ATOM     20  C   UNL A   1      39.455  33.466  34.106  1.00  0.00     0.074 A 
ATOM     21  C   UNL A   1      38.452  34.506  34.029  1.00  0.00     0.031 C 
ATOM     22  C   UNL A   1      38.494  30.101  28.724  1.00  0.00     0.029 A 
ATOM     23  C   UNL A   1      39.497  29.869  29.756  1.00  0.00     0.049 A 
ATOM     24  H   UNL A   1      39.831  30.990  31.481  1.00  0.00     0.167 HD
ATOM     25  C   UNL A   1      40.344  33.335  35.121  1.00  0.00     0.037 A 
ATOM     26  C   UNL A   1      40.398  28.868  29.752  1.00  0.00     0.037 A 
ATOM     27  C   UNL A   1      41.324  32.283  35.214  1.00  0.00     0.049 A 
ATOM     28  C   UNL A   1      41.365  28.741  30.892  1.00  0.00     0.074 A 
ATOM     29  C   UNL A   1      42.238  32.043  36.227  1.00  0.00     0.029 A 
ATOM     30  N   UNL A   1      41.518  31.296  34.261  1.00  0.00    -0.354 N 
ATOM     31  N   UNL A   1      41.469  29.475  31.972  1.00  0.00    -0.248 NA
ATOM     32  C   UNL A   1      42.340  27.645  30.811  1.00  0.00     0.031 C 
ATOM     33  C   UNL A   1      43.009  30.931  35.869  1.00  0.00     0.029 A 
ATOM     34  C   UNL A   1      42.547  30.454  34.653  1.00  0.00     0.049 A 
ATOM     35  H   UNL A   1      41.000  31.206  33.428  1.00  0.00     0.167 HD
ATOM     36  C   UNL A   1      42.503  28.916  32.711  1.00  0.00     0.074 A 
ATOM     37  C   UNL A   1      42.984  27.774  31.962  1.00  0.00     0.031 C 
ATOM     38  C   UNL A   1      43.009  29.315  33.903  1.00  0.00     0.037 A 
BRANCH  25  39
ATOM     39  C   UNL A   1      40.310  34.366  36.212  1.00  0.00     0.057 A 
ATOM     40  C   UNL A   1      39.543  34.196  37.371  1.00  0.00     0.134 A 
ATOM     41  C   UNL A   1      41.091  35.526  36.119  1.00  0.00     0.134 A 
ATOM     42  F   UNL A   1      38.765  33.113  37.517  1.00  0.00    -0.206 F 
ATOM     43  C   UNL A   1      39.536  35.151  38.389  1.00  0.00     0.040 A 
ATOM     44  C   UNL A   1      41.110  36.477  37.140  1.00  0.00     0.040 A 
ATOM     45  F   UNL A   1      41.855  35.749  35.039  1.00  0.00    -0.206 F 
ATOM     46  C   UNL A   1      40.327  36.293  38.277  1.00  0.00     0.006 A 
ENDBRANCH  25  39
BRANCH  26  47
ATOM     47  C   UNL A   1      40.406  27.890  28.635  1.00  0.00     0.057 A 
ATOM     48  C   UNL A   1      41.132  28.139  27.465  1.00  0.00     0.134 A 
ATOM     49  C   UNL A   1      39.695  26.688  28.713  1.00  0.00     0.134 A 
ATOM     50  F   UNL A   1      41.820  29.281  27.326  1.00  0.00    -0.206 F 
ATOM     51  C   UNL A   1      41.140  27.231  26.406  1.00  0.00     0.040 A 
ATOM     52  C   UNL A   1      39.712  25.760  27.672  1.00  0.00     0.040 A 
ATOM     53  F   UNL A   1      38.985  26.391  29.812  1.00  0.00    -0.206 F 
ATOM     54  C   UNL A   1      40.433  26.034  26.511  1.00  0.00     0.006 A 
ENDBRANCH  26  47
BRANCH  38  55
ATOM     55  C   UNL A   1      44.113  28.485  34.487  1.00  0.00     0.057 A 
ATOM     56  C   UNL A   1      45.462  28.772  34.243  1.00  0.00     0.134 A 
ATOM     57  C   UNL A   1      43.821  27.395  35.315  1.00  0.00     0.134 A 
ATOM     58  F   UNL A   1      45.806  29.795  33.447  1.00  0.00    -0.206 F 
ATOM     59  C   UNL A   1      46.482  27.987  34.783  1.00  0.00     0.040 A 
ATOM     60  C   UNL A   1      44.833  26.616  35.880  1.00  0.00     0.040 A 
ATOM     61  F   UNL A   1      42.550  27.070  35.592  1.00  0.00    -0.206 F 
ATOM     62  C   UNL A   1      46.168  26.909  35.608  1.00  0.00     0.006 A 
ENDBRANCH  38  55
ENDBRANCH  12  13
ENDBRANCH   5   7
ENDBRANCH   2   3
ENDBRANCH   1   2
BRANCH   1  63
ATOM     63  C   UNL A   1      31.474  30.737  26.350  1.00  0.00     0.023 C 
BRANCH  63  64
ATOM     64  C   UNL A   1      32.850  30.115  26.590  1.00  0.00     0.116 C 
BRANCH  64  65
ATOM     65  N   UNL A   1      33.466  29.652  25.363  1.00  0.00    -0.356 N 
ATOM     66  C   UNL A   1      32.895  29.194  24.211  1.00  0.00     0.227 C 
ATOM     67  H   UNL A   1      34.451  29.668  25.359  1.00  0.00     0.163 HD
ATOM     68  O   UNL A   1      33.649  28.958  23.267  1.00  0.00    -0.274 OA
BRANCH  66  69
ATOM     69  C   UNL A   1      31.372  29.017  24.127  1.00  0.00     0.103 C 
ATOM     70  C   UNL A   1      30.895  27.737  24.746  1.00  0.00    -0.016 C 
ATOM     71  C   UNL A   1      30.881  28.858  22.673  1.00  0.00     0.047 C 
ATOM     72  C   UNL A   1      30.512  26.837  23.832  1.00  0.00    -0.006 C 
ATOM     73  C   UNL A   1      30.619  27.353  22.451  1.00  0.00     0.106 C 
BRANCH  73  74
ATOM     74  N   UNL A   1      31.606  26.742  21.565  1.00  0.00    -0.350 N 
ATOM     75  C   UNL A   1      32.572  25.798  21.549  1.00  0.00     0.223 C 
ATOM     76  H   UNL A   1      31.548  27.162  20.676  1.00  0.00     0.164 HD
ATOM     77  O   UNL A   1      33.152  25.657  20.462  1.00  0.00    -0.275 OA
BRANCH  75  78
ATOM     78  C   UNL A   1      32.961  24.876  22.696  1.00  0.00     0.083 C 
ATOM     79  C   UNL A   1      33.952  25.552  23.642  1.00  0.00     0.042 C 
ATOM     80  C   UNL A   1      33.300  23.463  22.235  1.00  0.00     0.042 C 
ATOM     81  C   UNL A   1      34.690  24.552  24.511  1.00  0.00     0.161 C 
ATOM     82  C   UNL A   1      34.232  22.693  23.154  1.00  0.00     0.161 C 
ATOM     83  O   UNL A   1      35.250  23.523  23.703  1.00  0.00    -0.381 OA
ENDBRANCH  75  78
ENDBRANCH  73  74
ENDBRANCH  66  69
ENDBRANCH  64  65
ENDBRANCH  63  64
ENDBRANCH   1  63
TORSDOF 13
ENDMDL
