MODEL 1
REMARK VINA RESULT:     -13.4      0.000      0.000
REMARK SMILES Cc1ccc(S(=O)(=O)N2c3ccc(C(=O)NCCCCNC(=O)c4ccc(-c5c6nc(c(-c7c(F)cccc7F)c7ccc([nH]7)c(-c7c(F)cccc7F)c7nc(c(-c8c(F)cccc8F)c8ccc5[nH]8)C=C7)C=C6)cc4)cc3C[C@H]2C)cc1
REMARK SMILES IDX 18 1 17 2 16 3 14 4 15 5 13 7 9 8 10 9 81 10 11 11 79 12
REMARK SMILES IDX 80 13 82 14 12 15 78 16 6 17 7 18 8 19 5 20 1 21 2 22 3 23
REMARK SMILES IDX 84 24 4 25 83 26 19 27 20 28 21 29 22 30 23 32 24 33 25 34
REMARK SMILES IDX 77 35 26 36 76 37 27 38 28 39 29 40 70 41 30 42 75 43 69 44
REMARK SMILES IDX 71 45 31 46 74 47 68 48 67 49 32 51 58 52 41 53 57 54 42 55
REMARK SMILES IDX 45 56 56 57 72 58 43 59 44 60 55 62 73 63 46 64 33 65 34 66
REMARK SMILES IDX 39 67 35 68 36 69 38 70 40 71 37 72 59 73 60 74 65 75 61 76
REMARK SMILES IDX 62 77 64 78 66 79 63 80 47 81 48 82 53 83 49 84 50 85 52 86
REMARK SMILES IDX 54 87 51 88
REMARK H PARENT 16 6 21 31 71 50 45 61
REMARK Flexibility Score: inf
ROOT
ATOM      1  C   UNL A   1      31.807  29.767  26.607  1.00  0.00     0.023 C 
ENDROOT
BRANCH   1   2
ATOM      2  C   UNL A   1      31.580  29.508  25.118  1.00  0.00     0.116 C 
BRANCH   2   3
ATOM      3  N   UNL A   1      32.773  29.649  24.292  1.00  0.00    -0.352 N 
ATOM      4  C   UNL A   1      33.582  28.712  23.687  1.00  0.00     0.251 C 
ATOM      5  O   UNL A   1      34.585  29.095  23.086  1.00  0.00    -0.269 OA
ATOM      6  H   UNL A   1      33.050  30.582  24.139  1.00  0.00     0.163 HD
BRANCH   4   7
ATOM      7  C   UNL A   1      33.313  27.255  23.798  1.00  0.00     0.040 A 
ATOM      8  N   UNL A   1      32.097  23.278  24.505  1.00  0.00    -0.263 N 
ATOM      9  C   UNL A   1      32.541  24.601  24.110  1.00  0.00     0.055 A 
ATOM     10  C   UNL A   1      32.315  23.242  26.010  1.00  0.00     0.101 C 
ATOM     11  C   UNL A   1      32.481  25.172  22.852  1.00  0.00     0.028 A 
ATOM     12  C   UNL A   1      33.071  25.313  25.183  1.00  0.00    -0.021 A 
ATOM     13  C   UNL A   1      33.244  24.422  26.365  1.00  0.00     0.063 C 
ATOM     14  C   UNL A   1      30.957  23.422  26.702  1.00  0.00     0.032 C 
ATOM     15  C   UNL A   1      32.947  26.477  22.689  1.00  0.00     0.016 A 
ATOM     16  C   UNL A   1      33.444  26.645  25.053  1.00  0.00     0.019 A 
BRANCH   8  17
ATOM     17  S   UNL A   1      32.832  22.046  23.554  1.00  0.00     0.264 S 
ATOM     18  O   UNL A   1      32.893  22.543  22.181  1.00  0.00    -0.201 OA
ATOM     19  O   UNL A   1      32.176  20.802  23.857  1.00  0.00    -0.201 OA
BRANCH  17  20
ATOM     20  C   UNL A   1      34.525  21.801  24.056  1.00  0.00     0.088 A 
ATOM     21  C   UNL A   1      38.555  21.829  25.575  1.00  0.00     0.044 C 
ATOM     22  C   UNL A   1      37.170  21.783  25.001  1.00  0.00    -0.051 A 
ATOM     23  C   UNL A   1      36.739  22.798  24.144  1.00  0.00     0.005 A 
ATOM     24  C   UNL A   1      36.292  20.740  25.314  1.00  0.00     0.005 A 
ATOM     25  C   UNL A   1      35.425  22.809  23.676  1.00  0.00     0.022 A 
ATOM     26  C   UNL A   1      34.976  20.742  24.838  1.00  0.00     0.022 A 
ENDBRANCH  17  20
ENDBRANCH   8  17
ENDBRANCH   4   7
ENDBRANCH   2   3
ENDBRANCH   1   2
BRANCH   1  27
ATOM     27  C   UNL A   1      32.851  30.819  26.955  1.00  0.00     0.023 C 
BRANCH  27  28
ATOM     28  C   UNL A   1      34.099  30.283  27.641  1.00  0.00     0.116 C 
BRANCH  28  29
ATOM     29  N   UNL A   1      34.981  31.283  28.223  1.00  0.00    -0.352 N 
ATOM     30  C   UNL A   1      36.223  31.133  28.819  1.00  0.00     0.251 C 
ATOM     31  H   UNL A   1      34.644  32.208  28.186  1.00  0.00     0.163 HD
ATOM     32  O   UNL A   1      36.756  32.113  29.337  1.00  0.00    -0.269 OA
BRANCH  30  33
ATOM     33  C   UNL A   1      36.987  29.857  28.710  1.00  0.00     0.039 A 
ATOM     34  C   UNL A   1      37.150  29.083  29.870  1.00  0.00     0.014 A 
ATOM     35  C   UNL A   1      37.711  29.526  27.572  1.00  0.00     0.014 A 
ATOM     36  C   UNL A   1      38.217  28.190  29.963  1.00  0.00     0.010 A 
ATOM     37  C   UNL A   1      38.841  28.753  27.698  1.00  0.00     0.010 A 
ATOM     38  C   UNL A   1      39.127  28.134  28.913  1.00  0.00    -0.014 A 
BRANCH  38  39
ATOM     39  C   UNL A   1      40.456  27.555  29.008  1.00  0.00     0.031 A 
ATOM     40  C   UNL A   1      40.692  26.158  28.599  1.00  0.00     0.074 A 
ATOM     41  C   UNL A   1      41.493  28.369  29.304  1.00  0.00     0.049 A 
ATOM     42  N   UNL A   1      41.690  25.449  29.002  1.00  0.00    -0.248 NA
ATOM     43  C   UNL A   1      39.797  25.436  27.700  1.00  0.00     0.031 C 
ATOM     44  C   UNL A   1      42.917  28.095  29.139  1.00  0.00     0.029 A 
ATOM     45  N   UNL A   1      41.453  29.583  30.004  1.00  0.00    -0.354 N 
ATOM     46  C   UNL A   1      41.734  24.320  28.222  1.00  0.00     0.074 A 
ATOM     47  C   UNL A   1      40.502  24.325  27.468  1.00  0.00     0.031 C 
ATOM     48  C   UNL A   1      43.611  28.915  29.944  1.00  0.00     0.029 A 
ATOM     49  C   UNL A   1      42.646  29.636  30.756  1.00  0.00     0.049 A 
ATOM     50  H   UNL A   1      40.738  30.259  29.976  1.00  0.00     0.167 HD
ATOM     51  C   UNL A   1      42.872  23.572  28.184  1.00  0.00     0.037 A 
ATOM     52  C   UNL A   1      42.613  29.626  32.121  1.00  0.00     0.037 A 
ATOM     53  C   UNL A   1      43.902  24.133  29.051  1.00  0.00     0.049 A 
ATOM     54  C   UNL A   1      43.305  28.430  32.732  1.00  0.00     0.074 A 
ATOM     55  C   UNL A   1      44.967  24.982  28.799  1.00  0.00     0.029 A 
ATOM     56  N   UNL A   1      43.713  24.138  30.428  1.00  0.00    -0.354 N 
ATOM     57  N   UNL A   1      43.566  27.330  32.079  1.00  0.00    -0.248 NA
ATOM     58  C   UNL A   1      43.757  28.370  34.120  1.00  0.00     0.031 C 
ATOM     59  C   UNL A   1      45.378  25.550  30.029  1.00  0.00     0.029 A 
ATOM     60  C   UNL A   1      44.582  25.025  31.031  1.00  0.00     0.049 A 
ATOM     61  H   UNL A   1      43.052  23.585  30.906  1.00  0.00     0.167 HD
ATOM     62  C   UNL A   1      44.199  26.440  32.907  1.00  0.00     0.074 A 
ATOM     63  C   UNL A   1      44.304  27.142  34.173  1.00  0.00     0.031 C 
ATOM     64  C   UNL A   1      44.585  25.203  32.474  1.00  0.00     0.037 A 
BRANCH  51  65
ATOM     65  C   UNL A   1      43.119  22.535  27.120  1.00  0.00     0.057 A 
ATOM     66  C   UNL A   1      42.414  21.317  27.106  1.00  0.00     0.134 A 
ATOM     67  C   UNL A   1      44.083  22.669  26.106  1.00  0.00     0.134 A 
ATOM     68  F   UNL A   1      41.405  21.076  27.953  1.00  0.00    -0.206 F 
ATOM     69  C   UNL A   1      42.719  20.273  26.226  1.00  0.00     0.040 A 
ATOM     70  C   UNL A   1      44.434  21.614  25.250  1.00  0.00     0.040 A 
ATOM     71  F   UNL A   1      44.706  23.836  25.891  1.00  0.00    -0.206 F 
ATOM     72  C   UNL A   1      43.759  20.404  25.317  1.00  0.00     0.006 A 
ENDBRANCH  51  65
BRANCH  52  73
ATOM     73  C   UNL A   1      41.420  30.325  32.671  1.00  0.00     0.057 A 
ATOM     74  C   UNL A   1      41.402  31.731  32.627  1.00  0.00     0.134 A 
ATOM     75  C   UNL A   1      40.190  29.679  32.818  1.00  0.00     0.134 A 
ATOM     76  F   UNL A   1      42.550  32.414  32.486  1.00  0.00    -0.206 F 
ATOM     77  C   UNL A   1      40.208  32.457  32.598  1.00  0.00     0.040 A 
ATOM     78  C   UNL A   1      38.987  30.398  32.805  1.00  0.00     0.040 A 
ATOM     79  F   UNL A   1      40.121  28.340  32.847  1.00  0.00    -0.206 F 
ATOM     80  C   UNL A   1      38.992  31.784  32.649  1.00  0.00     0.006 A 
ENDBRANCH  52  73
BRANCH  64  81
ATOM     81  C   UNL A   1      45.087  24.063  33.328  1.00  0.00     0.057 A 
ATOM     82  C   UNL A   1      46.358  24.017  33.917  1.00  0.00     0.134 A 
ATOM     83  C   UNL A   1      44.207  23.027  33.722  1.00  0.00     0.134 A 
ATOM     84  F   UNL A   1      47.262  24.983  33.712  1.00  0.00    -0.206 F 
ATOM     85  C   UNL A   1      46.739  22.996  34.800  1.00  0.00     0.040 A 
ATOM     86  C   UNL A   1      44.557  22.038  34.645  1.00  0.00     0.040 A 
ATOM     87  F   UNL A   1      42.954  22.943  33.250  1.00  0.00    -0.206 F 
ATOM     88  C   UNL A   1      45.833  22.013  35.181  1.00  0.00     0.006 A 
ENDBRANCH  64  81
ENDBRANCH  38  39
ENDBRANCH  30  33
ENDBRANCH  28  29
ENDBRANCH  27  28
ENDBRANCH   1  27
TORSDOF 13
ENDMDL
MODEL 2
REMARK VINA RESULT:     -13.2      1.452      2.102
REMARK SMILES Cc1ccc(S(=O)(=O)N2c3ccc(C(=O)NCCCCNC(=O)c4ccc(-c5c6nc(c(-c7c(F)cccc7F)c7ccc([nH]7)c(-c7c(F)cccc7F)c7nc(c(-c8c(F)cccc8F)c8ccc5[nH]8)C=C7)C=C6)cc4)cc3C[C@H]2C)cc1
REMARK SMILES IDX 18 1 17 2 16 3 14 4 15 5 13 7 9 8 10 9 81 10 11 11 79 12
REMARK SMILES IDX 80 13 82 14 12 15 78 16 6 17 7 18 8 19 5 20 1 21 2 22 3 23
REMARK SMILES IDX 84 24 4 25 83 26 19 27 20 28 21 29 22 30 23 32 24 33 25 34
REMARK SMILES IDX 77 35 26 36 76 37 27 38 28 39 29 40 70 41 30 42 75 43 69 44
REMARK SMILES IDX 71 45 31 46 74 47 68 48 67 49 32 51 58 52 41 53 57 54 42 55
REMARK SMILES IDX 45 56 56 57 72 58 43 59 44 60 55 62 73 63 46 64 33 65 34 66
REMARK SMILES IDX 39 67 35 68 36 69 38 70 40 71 37 72 59 73 60 74 65 75 61 76
REMARK SMILES IDX 62 77 64 78 66 79 63 80 47 81 48 82 53 83 49 84 50 85 52 86
REMARK SMILES IDX 54 87 51 88
REMARK H PARENT 16 6 21 31 71 50 45 61
REMARK Flexibility Score: inf
ROOT
ATOM      1  C   UNL A   1      32.215  29.682  26.363  1.00  0.00     0.023 C 
ENDROOT
BRANCH   1   2
ATOM      2  C   UNL A   1      32.964  29.644  25.031  1.00  0.00     0.116 C 
BRANCH   2   3
ATOM      3  N   UNL A   1      32.168  29.175  23.903  1.00  0.00    -0.352 N 
ATOM      4  C   UNL A   1      31.854  27.904  23.471  1.00  0.00     0.251 C 
ATOM      5  O   UNL A   1      31.206  27.775  22.434  1.00  0.00    -0.269 OA
ATOM      6  H   UNL A   1      31.785  29.896  23.352  1.00  0.00     0.163 HD
BRANCH   4   7
ATOM      7  C   UNL A   1      32.334  26.693  24.185  1.00  0.00     0.040 A 
ATOM      8  N   UNL A   1      34.228  23.561  26.283  1.00  0.00    -0.263 N 
ATOM      9  C   UNL A   1      33.442  24.597  25.640  1.00  0.00     0.055 A 
ATOM     10  C   UNL A   1      35.399  23.337  25.340  1.00  0.00     0.101 C 
ATOM     11  C   UNL A   1      32.308  25.222  26.124  1.00  0.00     0.028 A 
ATOM     12  C   UNL A   1      33.963  24.946  24.396  1.00  0.00    -0.021 A 
ATOM     13  C   UNL A   1      35.031  23.988  23.990  1.00  0.00     0.063 C 
ATOM     14  C   UNL A   1      36.637  24.025  25.930  1.00  0.00     0.032 C 
ATOM     15  C   UNL A   1      31.712  26.217  25.349  1.00  0.00     0.016 A 
ATOM     16  C   UNL A   1      33.437  26.002  23.662  1.00  0.00     0.019 A 
BRANCH   8  17
ATOM     17  S   UNL A   1      33.263  22.201  26.710  1.00  0.00     0.264 S 
ATOM     18  O   UNL A   1      31.921  22.700  27.002  1.00  0.00    -0.201 OA
ATOM     19  O   UNL A   1      33.990  21.432  27.687  1.00  0.00    -0.201 OA
BRANCH  17  20
ATOM     20  C   UNL A   1      33.081  21.106  25.315  1.00  0.00     0.088 A 
ATOM     21  C   UNL A   1      32.284  18.056  22.381  1.00  0.00     0.044 C 
ATOM     22  C   UNL A   1      32.612  19.133  23.372  1.00  0.00    -0.051 A 
ATOM     23  C   UNL A   1      33.298  18.811  24.545  1.00  0.00     0.005 A 
ATOM     24  C   UNL A   1      32.235  20.461  23.147  1.00  0.00     0.005 A 
ATOM     25  C   UNL A   1      33.530  19.790  25.512  1.00  0.00     0.022 A 
ATOM     26  C   UNL A   1      32.475  21.447  24.111  1.00  0.00     0.022 A 
ENDBRANCH  17  20
ENDBRANCH   8  17
ENDBRANCH   4   7
ENDBRANCH   2   3
ENDBRANCH   1   2
BRANCH   1  27
ATOM     27  C   UNL A   1      32.836  30.536  27.459  1.00  0.00     0.023 C 
BRANCH  27  28
ATOM     28  C   UNL A   1      34.331  30.781  27.313  1.00  0.00     0.116 C 
BRANCH  28  29
ATOM     29  N   UNL A   1      34.948  31.580  28.361  1.00  0.00    -0.352 N 
ATOM     30  C   UNL A   1      36.001  31.274  29.207  1.00  0.00     0.251 C 
ATOM     31  H   UNL A   1      34.556  32.475  28.487  1.00  0.00     0.163 HD
ATOM     32  O   UNL A   1      36.299  32.070  30.096  1.00  0.00    -0.269 OA
BRANCH  30  33
ATOM     33  C   UNL A   1      36.870  30.087  28.967  1.00  0.00     0.039 A 
ATOM     34  C   UNL A   1      37.027  29.161  30.011  1.00  0.00     0.014 A 
ATOM     35  C   UNL A   1      37.683  29.983  27.846  1.00  0.00     0.014 A 
ATOM     36  C   UNL A   1      38.155  28.341  30.047  1.00  0.00     0.010 A 
ATOM     37  C   UNL A   1      38.863  29.281  27.936  1.00  0.00     0.010 A 
ATOM     38  C   UNL A   1      39.126  28.509  29.066  1.00  0.00    -0.014 A 
BRANCH  38  39
ATOM     39  C   UNL A   1      40.489  28.017  29.168  1.00  0.00     0.031 A 
ATOM     40  C   UNL A   1      40.863  26.723  28.566  1.00  0.00     0.074 A 
ATOM     41  C   UNL A   1      41.437  28.845  29.661  1.00  0.00     0.049 A 
ATOM     42  N   UNL A   1      41.889  26.032  28.927  1.00  0.00    -0.248 NA
ATOM     43  C   UNL A   1      40.086  26.093  27.503  1.00  0.00     0.031 C 
ATOM     44  C   UNL A   1      42.886  28.702  29.561  1.00  0.00     0.029 A 
ATOM     45  N   UNL A   1      41.255  29.926  30.535  1.00  0.00    -0.354 N 
ATOM     46  C   UNL A   1      42.072  25.047  27.987  1.00  0.00     0.074 A 
ATOM     47  C   UNL A   1      40.892  25.085  27.155  1.00  0.00     0.031 C 
ATOM     48  C   UNL A   1      43.459  29.430  30.531  1.00  0.00     0.029 A 
ATOM     49  C   UNL A   1      42.391  29.942  31.372  1.00  0.00     0.049 A 
ATOM     50  H   UNL A   1      40.490  30.546  30.559  1.00  0.00     0.167 HD
ATOM     51  C   UNL A   1      43.268  24.398  27.918  1.00  0.00     0.037 A 
ATOM     52  C   UNL A   1      42.275  29.712  32.713  1.00  0.00     0.037 A 
ATOM     53  C   UNL A   1      44.193  24.884  28.934  1.00  0.00     0.049 A 
ATOM     54  C   UNL A   1      43.023  28.486  33.181  1.00  0.00     0.074 A 
ATOM     55  C   UNL A   1      45.199  25.836  28.896  1.00  0.00     0.029 A 
ATOM     56  N   UNL A   1      43.920  24.656  30.278  1.00  0.00    -0.354 N 
ATOM     57  N   UNL A   1      43.413  27.526  32.387  1.00  0.00    -0.248 NA
ATOM     58  C   UNL A   1      43.393  28.237  34.572  1.00  0.00     0.031 C 
ATOM     59  C   UNL A   1      45.486  26.228  30.225  1.00  0.00     0.029 A 
ATOM     60  C   UNL A   1      44.675  25.495  31.073  1.00  0.00     0.049 A 
ATOM     61  H   UNL A   1      43.278  23.989  30.616  1.00  0.00     0.167 HD
ATOM     62  C   UNL A   1      44.064  26.562  33.112  1.00  0.00     0.074 A 
ATOM     63  C   UNL A   1      44.033  27.058  34.475  1.00  0.00     0.031 C 
ATOM     64  C   UNL A   1      44.575  25.440  32.523  1.00  0.00     0.037 A 
BRANCH  51  65
ATOM     65  C   UNL A   1      43.663  23.564  26.728  1.00  0.00     0.057 A 
ATOM     66  C   UNL A   1      43.384  22.185  26.674  1.00  0.00     0.134 A 
ATOM     67  C   UNL A   1      44.368  24.066  25.621  1.00  0.00     0.134 A 
ATOM     68  F   UNL A   1      42.645  21.578  27.610  1.00  0.00    -0.206 F 
ATOM     69  C   UNL A   1      43.865  21.353  25.656  1.00  0.00     0.040 A 
ATOM     70  C   UNL A   1      44.899  23.237  24.621  1.00  0.00     0.040 A 
ATOM     71  F   UNL A   1      44.551  25.383  25.454  1.00  0.00    -0.206 F 
ATOM     72  C   UNL A   1      44.659  21.870  24.644  1.00  0.00     0.006 A 
ENDBRANCH  51  65
BRANCH  52  73
ATOM     73  C   UNL A   1      40.998  30.228  33.275  1.00  0.00     0.057 A 
ATOM     74  C   UNL A   1      40.861  31.620  33.431  1.00  0.00     0.134 A 
ATOM     75  C   UNL A   1      39.821  29.475  33.245  1.00  0.00     0.134 A 
ATOM     76  F   UNL A   1      41.952  32.402  33.467  1.00  0.00    -0.206 F 
ATOM     77  C   UNL A   1      39.613  32.248  33.425  1.00  0.00     0.040 A 
ATOM     78  C   UNL A   1      38.564  30.093  33.253  1.00  0.00     0.040 A 
ATOM     79  F   UNL A   1      39.866  28.145  33.077  1.00  0.00    -0.206 F 
ATOM     80  C   UNL A   1      38.458  31.483  33.297  1.00  0.00     0.006 A 
ENDBRANCH  52  73
BRANCH  64  81
ATOM     81  C   UNL A   1      45.115  24.216  33.225  1.00  0.00     0.057 A 
ATOM     82  C   UNL A   1      46.388  24.136  33.805  1.00  0.00     0.134 A 
ATOM     83  C   UNL A   1      44.269  23.111  33.482  1.00  0.00     0.134 A 
ATOM     84  F   UNL A   1      47.260  25.149  33.727  1.00  0.00    -0.206 F 
ATOM     85  C   UNL A   1      46.803  23.024  34.551  1.00  0.00     0.040 A 
ATOM     86  C   UNL A   1      44.652  22.024  34.271  1.00  0.00     0.040 A 
ATOM     87  F   UNL A   1      43.018  23.049  33.001  1.00  0.00    -0.206 F 
ATOM     88  C   UNL A   1      45.929  21.972  34.802  1.00  0.00     0.006 A 
ENDBRANCH  64  81
ENDBRANCH  38  39
ENDBRANCH  30  33
ENDBRANCH  28  29
ENDBRANCH  27  28
ENDBRANCH   1  27
TORSDOF 13
ENDMDL
MODEL 3
REMARK VINA RESULT:     -13.1      3.753      9.317
REMARK SMILES Cc1ccc(S(=O)(=O)N2c3ccc(C(=O)NCCCCNC(=O)c4ccc(-c5c6nc(c(-c7c(F)cccc7F)c7ccc([nH]7)c(-c7c(F)cccc7F)c7nc(c(-c8c(F)cccc8F)c8ccc5[nH]8)C=C7)C=C6)cc4)cc3C[C@H]2C)cc1
REMARK SMILES IDX 18 1 17 2 16 3 14 4 15 5 13 7 9 8 10 9 81 10 11 11 79 12
REMARK SMILES IDX 80 13 82 14 12 15 78 16 6 17 7 18 8 19 5 20 1 21 2 22 3 23
REMARK SMILES IDX 84 24 4 25 83 26 19 27 20 28 21 29 22 30 23 32 24 33 25 34
REMARK SMILES IDX 77 35 26 36 76 37 27 38 28 39 29 40 70 41 30 42 75 43 69 44
REMARK SMILES IDX 71 45 31 46 74 47 68 48 67 49 32 51 58 52 41 53 57 54 42 55
REMARK SMILES IDX 45 56 56 57 72 58 43 59 44 60 55 62 73 63 46 64 33 65 34 66
REMARK SMILES IDX 39 67 35 68 36 69 38 70 40 71 37 72 59 73 60 74 65 75 61 76
REMARK SMILES IDX 62 77 64 78 66 79 63 80 47 81 48 82 53 83 49 84 50 85 52 86
REMARK SMILES IDX 54 87 51 88
REMARK H PARENT 16 6 21 31 71 50 45 61
REMARK Flexibility Score: inf
ROOT
ATOM      1  C   UNL A   1      36.813  21.767  24.573  1.00  0.00     0.023 C 
ENDROOT
BRANCH   1   2
ATOM      2  C   UNL A   1      35.549  21.139  25.158  1.00  0.00     0.116 C 
BRANCH   2   3
ATOM      3  N   UNL A   1      35.297  21.477  26.554  1.00  0.00    -0.352 N 
ATOM      4  C   UNL A   1      34.484  22.428  27.132  1.00  0.00     0.251 C 
ATOM      5  O   UNL A   1      34.499  22.556  28.355  1.00  0.00    -0.269 OA
ATOM      6  H   UNL A   1      35.797  20.927  27.199  1.00  0.00     0.163 HD
BRANCH   4   7
ATOM      7  C   UNL A   1      33.644  23.343  26.315  1.00  0.00     0.040 A 
ATOM      8  N   UNL A   1      31.510  25.655  23.506  1.00  0.00    -0.263 N 
ATOM      9  C   UNL A   1      32.111  24.864  24.563  1.00  0.00     0.055 A 
ATOM     10  C   UNL A   1      32.694  26.260  22.768  1.00  0.00     0.101 C 
ATOM     11  C   UNL A   1      31.471  24.046  25.474  1.00  0.00     0.028 A 
ATOM     12  C   UNL A   1      33.497  24.998  24.586  1.00  0.00    -0.021 A 
ATOM     13  C   UNL A   1      33.931  26.096  23.677  1.00  0.00     0.063 C 
ATOM     14  C   UNL A   1      32.901  25.481  21.462  1.00  0.00     0.032 C 
ATOM     15  C   UNL A   1      32.244  23.348  26.404  1.00  0.00     0.016 A 
ATOM     16  C   UNL A   1      34.282  24.233  25.441  1.00  0.00     0.019 A 
BRANCH   8  17
ATOM     17  S   UNL A   1      30.307  26.726  24.116  1.00  0.00     0.264 S 
ATOM     18  O   UNL A   1      29.467  25.954  25.027  1.00  0.00    -0.201 OA
ATOM     19  O   UNL A   1      29.730  27.426  22.998  1.00  0.00    -0.201 OA
BRANCH  17  20
ATOM     20  C   UNL A   1      31.057  28.001  25.110  1.00  0.00     0.088 A 
ATOM     21  C   UNL A   1      33.381  30.623  27.616  1.00  0.00     0.044 C 
ATOM     22  C   UNL A   1      32.522  29.739  26.761  1.00  0.00    -0.051 A 
ATOM     23  C   UNL A   1      32.090  28.505  27.252  1.00  0.00     0.005 A 
ATOM     24  C   UNL A   1      32.147  30.126  25.470  1.00  0.00     0.005 A 
ATOM     25  C   UNL A   1      31.364  27.640  26.432  1.00  0.00     0.022 A 
ATOM     26  C   UNL A   1      31.411  29.265  24.649  1.00  0.00     0.022 A 
ENDBRANCH  17  20
ENDBRANCH   8  17
ENDBRANCH   4   7
ENDBRANCH   2   3
ENDBRANCH   1   2
BRANCH   1  27
ATOM     27  C   UNL A   1      38.076  21.643  25.413  1.00  0.00     0.023 C 
BRANCH  27  28
ATOM     28  C   UNL A   1      38.500  22.918  26.126  1.00  0.00     0.116 C 
BRANCH  28  29
ATOM     29  N   UNL A   1      39.899  22.988  26.523  1.00  0.00    -0.352 N 
ATOM     30  C   UNL A   1      40.668  24.084  26.878  1.00  0.00     0.251 C 
ATOM     31  H   UNL A   1      40.369  22.123  26.542  1.00  0.00     0.163 HD
ATOM     32  O   UNL A   1      41.869  23.924  27.086  1.00  0.00    -0.269 OA
BRANCH  30  33
ATOM     33  C   UNL A   1      40.047  25.409  27.162  1.00  0.00     0.039 A 
ATOM     34  C   UNL A   1      40.432  26.503  26.371  1.00  0.00     0.014 A 
ATOM     35  C   UNL A   1      39.280  25.635  28.298  1.00  0.00     0.014 A 
ATOM     36  C   UNL A   1      40.293  27.800  26.867  1.00  0.00     0.010 A 
ATOM     37  C   UNL A   1      39.261  26.893  28.854  1.00  0.00     0.010 A 
ATOM     38  C   UNL A   1      39.824  27.965  28.165  1.00  0.00    -0.014 A 
BRANCH  38  39
ATOM     39  C   UNL A   1      39.971  29.184  28.942  1.00  0.00     0.031 A 
ATOM     40  C   UNL A   1      38.895  30.192  28.961  1.00  0.00     0.074 A 
ATOM     41  C   UNL A   1      41.025  29.288  29.781  1.00  0.00     0.049 A 
ATOM     42  N   UNL A   1      39.075  31.430  29.269  1.00  0.00    -0.248 NA
ATOM     43  C   UNL A   1      37.512  29.878  28.612  1.00  0.00     0.031 C 
ATOM     44  C   UNL A   1      41.206  30.242  30.871  1.00  0.00     0.029 A 
ATOM     45  N   UNL A   1      42.261  28.634  29.685  1.00  0.00    -0.354 N 
ATOM     46  C   UNL A   1      37.834  31.995  29.440  1.00  0.00     0.074 A 
ATOM     47  C   UNL A   1      36.893  31.010  28.961  1.00  0.00     0.031 C 
ATOM     48  C   UNL A   1      42.515  30.334  31.152  1.00  0.00     0.029 A 
ATOM     49  C   UNL A   1      43.224  29.554  30.152  1.00  0.00     0.049 A 
ATOM     50  H   UNL A   1      42.423  27.719  29.358  1.00  0.00     0.167 HD
ATOM     51  C   UNL A   1      37.721  33.179  30.104  1.00  0.00     0.037 A 
ATOM     52  C   UNL A   1      44.184  30.046  29.315  1.00  0.00     0.037 A 
ATOM     53  C   UNL A   1      39.025  33.676  30.526  1.00  0.00     0.049 A 
ATOM     54  C   UNL A   1      44.111  31.544  29.129  1.00  0.00     0.074 A 
ATOM     55  C   UNL A   1      39.718  33.568  31.720  1.00  0.00     0.029 A 
ATOM     56  N   UNL A   1      39.951  34.073  29.569  1.00  0.00    -0.354 N 
ATOM     57  N   UNL A   1      43.052  32.259  29.397  1.00  0.00    -0.248 NA
ATOM     58  C   UNL A   1      45.217  32.359  28.630  1.00  0.00     0.031 C 
ATOM     59  C   UNL A   1      41.083  33.841  31.464  1.00  0.00     0.029 A 
ATOM     60  C   UNL A   1      41.216  34.141  30.120  1.00  0.00     0.049 A 
ATOM     61  H   UNL A   1      39.736  34.278  28.629  1.00  0.00     0.167 HD
ATOM     62  C   UNL A   1      43.305  33.579  29.127  1.00  0.00     0.074 A 
ATOM     63  C   UNL A   1      44.677  33.591  28.656  1.00  0.00     0.031 C 
ATOM     64  C   UNL A   1      42.359  34.546  29.318  1.00  0.00     0.037 A 
BRANCH  51  65
ATOM     65  C   UNL A   1      36.401  33.688  30.623  1.00  0.00     0.057 A 
ATOM     66  C   UNL A   1      35.420  34.200  29.752  1.00  0.00     0.134 A 
ATOM     67  C   UNL A   1      36.063  33.739  31.985  1.00  0.00     0.134 A 
ATOM     68  F   UNL A   1      35.557  34.141  28.422  1.00  0.00    -0.206 F 
ATOM     69  C   UNL A   1      34.248  34.815  30.208  1.00  0.00     0.040 A 
ATOM     70  C   UNL A   1      34.918  34.396  32.459  1.00  0.00     0.040 A 
ATOM     71  F   UNL A   1      36.821  33.132  32.911  1.00  0.00    -0.206 F 
ATOM     72  C   UNL A   1      34.010  34.950  31.567  1.00  0.00     0.006 A 
ENDBRANCH  51  65
BRANCH  52  73
ATOM     73  C   UNL A   1      44.617  29.056  28.292  1.00  0.00     0.057 A 
ATOM     74  C   UNL A   1      45.468  28.014  28.703  1.00  0.00     0.134 A 
ATOM     75  C   UNL A   1      43.905  28.863  27.105  1.00  0.00     0.134 A 
ATOM     76  F   UNL A   1      46.181  28.135  29.835  1.00  0.00    -0.206 F 
ATOM     77  C   UNL A   1      45.512  26.786  28.038  1.00  0.00     0.040 A 
ATOM     78  C   UNL A   1      43.952  27.640  26.422  1.00  0.00     0.040 A 
ATOM     79  F   UNL A   1      43.056  29.800  26.658  1.00  0.00    -0.206 F 
ATOM     80  C   UNL A   1      44.719  26.584  26.912  1.00  0.00     0.006 A 
ENDBRANCH  52  73
BRANCH  64  81
ATOM     81  C   UNL A   1      42.432  35.984  28.862  1.00  0.00     0.057 A 
ATOM     82  C   UNL A   1      43.175  36.981  29.509  1.00  0.00     0.134 A 
ATOM     83  C   UNL A   1      41.866  36.368  27.623  1.00  0.00     0.134 A 
ATOM     84  F   UNL A   1      43.846  36.733  30.641  1.00  0.00    -0.206 F 
ATOM     85  C   UNL A   1      43.311  38.274  28.984  1.00  0.00     0.040 A 
ATOM     86  C   UNL A   1      42.044  37.636  27.063  1.00  0.00     0.040 A 
ATOM     87  F   UNL A   1      41.137  35.519  26.883  1.00  0.00    -0.206 F 
ATOM     88  C   UNL A   1      42.761  38.600  27.750  1.00  0.00     0.006 A 
ENDBRANCH  64  81
ENDBRANCH  38  39
ENDBRANCH  30  33
ENDBRANCH  28  29
ENDBRANCH  27  28
ENDBRANCH   1  27
TORSDOF 13
ENDMDL
