MODEL 1
REMARK VINA RESULT:     -11.2      0.000      0.000
REMARK SMILES COC(=O)CNC(=O)N1[C@@H](C(=O)NCCCCNC(=O)c2ccc(-c3c4nc(c(-c5c(F)cccc5F)c5ccc([nH]5)c(-c5c(F)cccc5F)c5nc(c(-c6c(F)cccc6F)c6ccc3[nH]6)C=C5)C=C4)cc2)CC[C@@H]2CCCC[C@H]21
REMARK SMILES IDX 14 1 13 2 11 3 12 4 10 6 9 7 82 8 75 9 77 10 81 11 76 12
REMARK SMILES IDX 78 13 80 14 79 15 7 16 6 17 8 19 5 20 3 21 4 22 2 23 1 24
REMARK SMILES IDX 15 25 16 26 17 27 18 28 19 29 20 31 21 32 22 33 74 34 23 35
REMARK SMILES IDX 73 36 24 37 25 38 26 39 67 40 27 41 72 42 66 43 68 44 28 45
REMARK SMILES IDX 71 46 65 47 64 48 29 50 55 51 38 52 54 53 39 54 42 55 53 56
REMARK SMILES IDX 69 57 40 58 41 59 52 61 70 62 43 63 30 64 31 65 36 66 32 67
REMARK SMILES IDX 33 68 35 69 37 70 34 71 56 72 57 73 62 74 58 75 59 76 61 77
REMARK SMILES IDX 63 78 60 79 44 80 45 81 50 82 46 83 47 84 49 85 51 86 48 87
REMARK H PARENT 13 5 6 18 18 30 68 49 42 60
REMARK Flexibility Score: inf
ROOT
ATOM      1  C   UNL A   1      36.182  22.574  23.883  1.00  0.00     0.116 C 
ENDROOT
BRANCH   1   2
ATOM      2  N   UNL A   1      34.899  22.497  23.212  1.00  0.00    -0.354 N 
ATOM      3  C   UNL A   1      33.959  23.463  23.026  1.00  0.00     0.242 C 
ATOM      4  O   UNL A   1      32.852  23.105  22.608  1.00  0.00    -0.273 OA
ATOM      5  H   UNL A   1      34.675  21.616  22.835  1.00  0.00     0.163 HD
BRANCH   3   6
ATOM      6  C   UNL A   1      34.202  24.937  23.431  1.00  0.00     0.176 C 
ATOM      7  N   UNL A   1      33.751  25.325  24.791  1.00  0.00    -0.310 N 
ATOM      8  C   UNL A   1      33.673  26.792  25.054  1.00  0.00     0.091 C 
ATOM      9  C   UNL A   1      33.540  25.765  22.306  1.00  0.00     0.036 C 
ATOM     10  C   UNL A   1      32.863  27.520  23.957  1.00  0.00     0.012 C 
ATOM     11  C   UNL A   1      33.184  27.226  26.454  1.00  0.00     0.025 C 
ATOM     12  C   UNL A   1      33.489  27.252  22.587  1.00  0.00     0.008 C 
ATOM     13  C   UNL A   1      32.787  29.040  24.179  1.00  0.00     0.006 C 
ATOM     14  C   UNL A   1      33.178  28.741  26.632  1.00  0.00     0.002 C 
ATOM     15  C   UNL A   1      32.308  29.405  25.577  1.00  0.00     0.000 C 
BRANCH   7  16
ATOM     16  C   UNL A   1      33.668  24.453  25.848  1.00  0.00     0.318 C 
ATOM     17  N   UNL A   1      32.512  23.920  26.271  1.00  0.00    -0.327 N 
ATOM     18  H   UNL A   1      32.576  23.568  27.188  1.00  0.00     0.166 HD
ATOM     19  O   UNL A   1      34.652  24.144  26.523  1.00  0.00    -0.249 OA
BRANCH  17  20
ATOM     20  C   UNL A   1      31.182  23.736  25.700  1.00  0.00     0.240 C 
BRANCH  20  21
ATOM     21  C   UNL A   1      30.032  24.128  26.620  1.00  0.00     0.325 C 
ATOM     22  O   UNL A   1      29.554  23.370  27.456  1.00  0.00    -0.250 OA
BRANCH  21  23
ATOM     23  O   UNL A   1      29.730  25.452  26.513  1.00  0.00    -0.468 OA
ATOM     24  C   UNL A   1      29.813  25.961  25.180  1.00  0.00     0.282 C 
ENDBRANCH  21  23
ENDBRANCH  20  21
ENDBRANCH  17  20
ENDBRANCH   7  16
ENDBRANCH   3   6
ENDBRANCH   1   2
BRANCH   1  25
ATOM     25  C   UNL A   1      36.300  21.471  24.931  1.00  0.00     0.023 C 
BRANCH  25  26
ATOM     26  C   UNL A   1      37.498  20.540  24.730  1.00  0.00     0.023 C 
BRANCH  26  27
ATOM     27  C   UNL A   1      38.666  20.798  25.674  1.00  0.00     0.116 C 
BRANCH  27  28
ATOM     28  N   UNL A   1      39.630  19.709  25.679  1.00  0.00    -0.352 N 
ATOM     29  C   UNL A   1      40.962  19.745  26.008  1.00  0.00     0.251 C 
ATOM     30  H   UNL A   1      39.281  18.829  25.410  1.00  0.00     0.163 HD
ATOM     31  O   UNL A   1      41.686  18.776  25.804  1.00  0.00    -0.269 OA
BRANCH  29  32
ATOM     32  C   UNL A   1      41.523  20.982  26.586  1.00  0.00     0.039 A 
ATOM     33  C   UNL A   1      42.106  21.923  25.735  1.00  0.00     0.014 A 
ATOM     34  C   UNL A   1      41.436  21.222  27.960  1.00  0.00     0.014 A 
ATOM     35  C   UNL A   1      42.544  23.140  26.257  1.00  0.00     0.010 A 
ATOM     36  C   UNL A   1      41.803  22.464  28.464  1.00  0.00     0.010 A 
ATOM     37  C   UNL A   1      42.361  23.435  27.618  1.00  0.00    -0.014 A 
BRANCH  37  38
ATOM     38  C   UNL A   1      42.747  24.752  28.179  1.00  0.00     0.031 A 
ATOM     39  C   UNL A   1      41.705  25.814  28.388  1.00  0.00     0.074 A 
ATOM     40  C   UNL A   1      44.043  25.015  28.433  1.00  0.00     0.049 A 
ATOM     41  N   UNL A   1      41.853  27.049  28.794  1.00  0.00    -0.248 NA
ATOM     42  C   UNL A   1      40.315  25.448  28.073  1.00  0.00     0.031 C 
ATOM     43  C   UNL A   1      45.154  24.083  28.225  1.00  0.00     0.029 A 
ATOM     44  N   UNL A   1      44.648  26.150  28.911  1.00  0.00    -0.354 N 
ATOM     45  C   UNL A   1      40.583  27.611  28.768  1.00  0.00     0.074 A 
ATOM     46  C   UNL A   1      39.685  26.599  28.255  1.00  0.00     0.031 C 
ATOM     47  C   UNL A   1      46.300  24.677  28.594  1.00  0.00     0.029 A 
ATOM     48  C   UNL A   1      46.013  26.041  29.028  1.00  0.00     0.049 A 
ATOM     49  H   UNL A   1      44.151  26.966  29.150  1.00  0.00     0.167 HD
ATOM     50  C   UNL A   1      40.196  28.847  29.157  1.00  0.00     0.037 A 
ATOM     51  C   UNL A   1      46.929  26.941  29.431  1.00  0.00     0.037 A 
ATOM     52  C   UNL A   1      41.089  29.842  29.691  1.00  0.00     0.049 A 
ATOM     53  C   UNL A   1      46.474  28.310  29.855  1.00  0.00     0.074 A 
ATOM     54  C   UNL A   1      40.786  31.103  30.172  1.00  0.00     0.029 A 
ATOM     55  N   UNL A   1      42.462  29.686  29.812  1.00  0.00    -0.354 N 
ATOM     56  N   UNL A   1      45.260  28.804  29.890  1.00  0.00    -0.248 NA
ATOM     57  C   UNL A   1      47.517  29.246  30.300  1.00  0.00     0.031 C 
ATOM     58  C   UNL A   1      41.981  31.728  30.544  1.00  0.00     0.029 A 
ATOM     59  C   UNL A   1      43.023  30.838  30.341  1.00  0.00     0.049 A 
ATOM     60  H   UNL A   1      42.964  28.878  29.559  1.00  0.00     0.167 HD
ATOM     61  C   UNL A   1      45.388  30.095  30.387  1.00  0.00     0.074 A 
ATOM     62  C   UNL A   1      46.798  30.302  30.651  1.00  0.00     0.031 C 
ATOM     63  C   UNL A   1      44.426  31.024  30.605  1.00  0.00     0.037 A 
BRANCH  50  64
ATOM     64  C   UNL A   1      38.742  29.191  29.024  1.00  0.00     0.057 A 
ATOM     65  C   UNL A   1      38.187  29.590  27.800  1.00  0.00     0.134 A 
ATOM     66  C   UNL A   1      37.879  29.094  30.123  1.00  0.00     0.134 A 
ATOM     67  F   UNL A   1      38.960  29.715  26.711  1.00  0.00    -0.206 F 
ATOM     68  C   UNL A   1      36.832  29.907  27.681  1.00  0.00     0.040 A 
ATOM     69  C   UNL A   1      36.518  29.382  30.009  1.00  0.00     0.040 A 
ATOM     70  F   UNL A   1      38.343  28.713  31.322  1.00  0.00    -0.206 F 
ATOM     71  C   UNL A   1      35.992  29.796  28.787  1.00  0.00     0.006 A 
ENDBRANCH  50  64
BRANCH  51  72
ATOM     72  C   UNL A   1      48.365  26.571  29.476  1.00  0.00     0.057 A 
ATOM     73  C   UNL A   1      48.917  25.964  30.611  1.00  0.00     0.134 A 
ATOM     74  C   UNL A   1      49.221  26.822  28.398  1.00  0.00     0.134 A 
ATOM     75  F   UNL A   1      48.152  25.715  31.683  1.00  0.00    -0.206 F 
ATOM     76  C   UNL A   1      50.273  25.637  30.679  1.00  0.00     0.040 A 
ATOM     77  C   UNL A   1      50.573  26.477  28.442  1.00  0.00     0.040 A 
ATOM     78  F   UNL A   1      48.752  27.394  27.279  1.00  0.00    -0.206 F 
ATOM     79  C   UNL A   1      51.104  25.889  29.589  1.00  0.00     0.006 A 
ENDBRANCH  51  72
BRANCH  63  80
ATOM     80  C   UNL A   1      44.859  32.336  31.191  1.00  0.00     0.057 A 
ATOM     81  C   UNL A   1      44.953  32.534  32.573  1.00  0.00     0.134 A 
ATOM     82  C   UNL A   1      45.228  33.400  30.357  1.00  0.00     0.134 A 
ATOM     83  F   UNL A   1      44.602  31.560  33.426  1.00  0.00    -0.206 F 
ATOM     84  C   UNL A   1      45.379  33.753  33.107  1.00  0.00     0.040 A 
ATOM     85  C   UNL A   1      45.680  34.612  30.877  1.00  0.00     0.040 A 
ATOM     86  F   UNL A   1      45.169  33.271  29.022  1.00  0.00    -0.206 F 
ATOM     87  C   UNL A   1      45.751  34.792  32.257  1.00  0.00     0.006 A 
ENDBRANCH  63  80
ENDBRANCH  37  38
ENDBRANCH  29  32
ENDBRANCH  27  28
ENDBRANCH  26  27
ENDBRANCH  25  26
ENDBRANCH   1  25
TORSDOF 15
ENDMDL
MODEL 2
REMARK VINA RESULT:     -11.1      2.140      7.212
REMARK SMILES COC(=O)CNC(=O)N1[C@@H](C(=O)NCCCCNC(=O)c2ccc(-c3c4nc(c(-c5c(F)cccc5F)c5ccc([nH]5)c(-c5c(F)cccc5F)c5nc(c(-c6c(F)cccc6F)c6ccc3[nH]6)C=C5)C=C4)cc2)CC[C@@H]2CCCC[C@H]21
REMARK SMILES IDX 14 1 13 2 11 3 12 4 10 6 9 7 82 8 75 9 77 10 81 11 76 12
REMARK SMILES IDX 78 13 80 14 79 15 7 16 6 17 8 19 5 20 3 21 4 22 2 23 1 24
REMARK SMILES IDX 15 25 16 26 17 27 18 28 19 29 20 31 21 32 22 33 74 34 23 35
REMARK SMILES IDX 73 36 24 37 25 38 26 39 67 40 27 41 72 42 66 43 68 44 28 45
REMARK SMILES IDX 71 46 65 47 64 48 29 50 55 51 38 52 54 53 39 54 42 55 53 56
REMARK SMILES IDX 69 57 40 58 41 59 52 61 70 62 43 63 30 64 31 65 36 66 32 67
REMARK SMILES IDX 33 68 35 69 37 70 34 71 56 72 57 73 62 74 58 75 59 76 61 77
REMARK SMILES IDX 63 78 60 79 44 80 45 81 50 82 46 83 47 84 49 85 51 86 48 87
REMARK H PARENT 13 5 6 18 18 30 68 49 42 60
REMARK Flexibility Score: inf
ROOT
ATOM      1  C   UNL A   1      30.653  26.495  25.862  1.00  0.00     0.116 C 
ENDROOT
BRANCH   1   2
ATOM      2  N   UNL A   1      30.308  25.136  26.233  1.00  0.00    -0.354 N 
ATOM      3  C   UNL A   1      31.093  24.027  26.289  1.00  0.00     0.242 C 
ATOM      4  O   UNL A   1      30.528  22.936  26.429  1.00  0.00    -0.273 OA
ATOM      5  H   UNL A   1      29.365  24.995  26.481  1.00  0.00     0.163 HD
BRANCH   3   6
ATOM      6  C   UNL A   1      32.624  24.090  26.065  1.00  0.00     0.176 C 
ATOM      7  N   UNL A   1      33.103  23.707  24.713  1.00  0.00    -0.310 N 
ATOM      8  C   UNL A   1      34.568  23.443  24.596  1.00  0.00     0.091 C 
ATOM      9  C   UNL A   1      33.220  23.222  27.196  1.00  0.00     0.036 C 
ATOM     10  C   UNL A   1      35.050  22.445  25.674  1.00  0.00     0.012 C 
ATOM     11  C   UNL A   1      35.092  23.019  23.206  1.00  0.00     0.025 C 
ATOM     12  C   UNL A   1      34.710  22.983  27.065  1.00  0.00     0.008 C 
ATOM     13  C   UNL A   1      36.561  22.172  25.602  1.00  0.00     0.006 C 
ATOM     14  C   UNL A   1      36.603  22.812  23.185  1.00  0.00     0.002 C 
ATOM     15  C   UNL A   1      37.019  21.768  24.208  1.00  0.00     0.000 C 
BRANCH   7  16
ATOM     16  C   UNL A   1      32.356  23.842  23.569  1.00  0.00     0.318 C 
ATOM     17  N   UNL A   1      32.175  25.015  22.944  1.00  0.00    -0.327 N 
ATOM     18  H   UNL A   1      31.400  24.999  22.337  1.00  0.00     0.166 HD
ATOM     19  O   UNL A   1      31.748  22.893  23.067  1.00  0.00    -0.249 OA
BRANCH  17  20
ATOM     20  C   UNL A   1      32.848  26.309  22.948  1.00  0.00     0.240 C 
BRANCH  20  21
ATOM     21  C   UNL A   1      31.986  27.478  22.489  1.00  0.00     0.325 C 
ATOM     22  O   UNL A   1      30.826  27.350  22.116  1.00  0.00    -0.250 OA
BRANCH  21  23
ATOM     23  O   UNL A   1      32.600  28.674  22.707  1.00  0.00    -0.468 OA
ATOM     24  C   UNL A   1      34.026  28.593  22.761  1.00  0.00     0.282 C 
ENDBRANCH  21  23
ENDBRANCH  20  21
ENDBRANCH  17  20
ENDBRANCH   7  16
ENDBRANCH   3   6
ENDBRANCH   1   2
BRANCH   1  25
ATOM     25  C   UNL A   1      31.597  27.103  26.896  1.00  0.00     0.023 C 
BRANCH  25  26
ATOM     26  C   UNL A   1      32.489  28.220  26.350  1.00  0.00     0.023 C 
BRANCH  26  27
ATOM     27  C   UNL A   1      33.667  28.585  27.245  1.00  0.00     0.116 C 
BRANCH  27  28
ATOM     28  N   UNL A   1      33.623  29.970  27.688  1.00  0.00    -0.352 N 
ATOM     29  C   UNL A   1      34.596  30.696  28.328  1.00  0.00     0.251 C 
ATOM     30  H   UNL A   1      32.783  30.450  27.505  1.00  0.00     0.163 HD
ATOM     31  O   UNL A   1      34.350  31.807  28.786  1.00  0.00    -0.269 OA
BRANCH  29  32
ATOM     32  C   UNL A   1      35.940  30.109  28.485  1.00  0.00     0.039 A 
ATOM     33  C   UNL A   1      36.840  30.183  27.420  1.00  0.00     0.014 A 
ATOM     34  C   UNL A   1      36.318  29.524  29.696  1.00  0.00     0.014 A 
ATOM     35  C   UNL A   1      38.147  29.726  27.593  1.00  0.00     0.010 A 
ATOM     36  C   UNL A   1      37.639  29.139  29.890  1.00  0.00     0.010 A 
ATOM     37  C   UNL A   1      38.566  29.236  28.841  1.00  0.00    -0.014 A 
BRANCH  37  38
ATOM     38  C   UNL A   1      39.971  28.818  29.071  1.00  0.00     0.031 A 
ATOM     39  C   UNL A   1      40.949  29.778  29.688  1.00  0.00     0.074 A 
ATOM     40  C   UNL A   1      40.381  27.603  28.660  1.00  0.00     0.049 A 
ATOM     41  N   UNL A   1      42.231  29.629  29.900  1.00  0.00    -0.248 NA
ATOM     42  C   UNL A   1      40.421  31.090  30.095  1.00  0.00     0.031 C 
ATOM     43  C   UNL A   1      39.538  26.601  28.004  1.00  0.00     0.029 A 
ATOM     44  N   UNL A   1      41.615  27.007  28.724  1.00  0.00    -0.354 N 
ATOM     45  C   UNL A   1      42.665  30.829  30.449  1.00  0.00     0.074 A 
ATOM     46  C   UNL A   1      41.522  31.714  30.487  1.00  0.00     0.031 C 
ATOM     47  C   UNL A   1      40.275  25.509  27.746  1.00  0.00     0.029 A 
ATOM     48  C   UNL A   1      41.648  25.745  28.183  1.00  0.00     0.049 A 
ATOM     49  H   UNL A   1      42.404  27.443  29.122  1.00  0.00     0.167 HD
ATOM     50  C   UNL A   1      43.897  31.155  30.901  1.00  0.00     0.037 A 
ATOM     51  C   UNL A   1      42.670  24.880  28.047  1.00  0.00     0.037 A 
ATOM     52  C   UNL A   1      45.027  30.262  30.885  1.00  0.00     0.049 A 
ATOM     53  C   UNL A   1      44.031  25.268  28.554  1.00  0.00     0.074 A 
ATOM     54  C   UNL A   1      46.302  30.477  31.377  1.00  0.00     0.029 A 
ATOM     55  N   UNL A   1      45.014  28.985  30.346  1.00  0.00    -0.354 N 
ATOM     56  N   UNL A   1      44.411  26.381  29.134  1.00  0.00    -0.248 NA
ATOM     57  C   UNL A   1      45.105  24.278  28.392  1.00  0.00     0.031 C 
ATOM     58  C   UNL A   1      47.075  29.345  31.097  1.00  0.00     0.029 A 
ATOM     59  C   UNL A   1      46.267  28.406  30.475  1.00  0.00     0.049 A 
ATOM     60  H   UNL A   1      44.232  28.552  29.933  1.00  0.00     0.167 HD
ATOM     61  C   UNL A   1      45.757  26.215  29.432  1.00  0.00     0.074 A 
ATOM     62  C   UNL A   1      46.124  24.888  28.980  1.00  0.00     0.031 C 
ATOM     63  C   UNL A   1      46.612  27.081  30.027  1.00  0.00     0.037 A 
BRANCH  50  64
ATOM     64  C   UNL A   1      44.087  32.536  31.458  1.00  0.00     0.057 A 
ATOM     65  C   UNL A   1      44.484  33.609  30.648  1.00  0.00     0.134 A 
ATOM     66  C   UNL A   1      43.841  32.803  32.810  1.00  0.00     0.134 A 
ATOM     67  F   UNL A   1      44.748  33.419  29.347  1.00  0.00    -0.206 F 
ATOM     68  C   UNL A   1      44.658  34.893  31.170  1.00  0.00     0.040 A 
ATOM     69  C   UNL A   1      43.984  34.089  33.337  1.00  0.00     0.040 A 
ATOM     70  F   UNL A   1      43.452  31.824  33.639  1.00  0.00    -0.206 F 
ATOM     71  C   UNL A   1      44.399  35.136  32.518  1.00  0.00     0.006 A 
ENDBRANCH  50  64
BRANCH  51  72
ATOM     72  C   UNL A   1      42.442  23.552  27.424  1.00  0.00     0.057 A 
ATOM     73  C   UNL A   1      42.601  23.367  26.045  1.00  0.00     0.134 A 
ATOM     74  C   UNL A   1      42.054  22.443  28.183  1.00  0.00     0.134 A 
ATOM     75  F   UNL A   1      42.954  24.396  25.262  1.00  0.00    -0.206 F 
ATOM     76  C   UNL A   1      42.362  22.131  25.441  1.00  0.00     0.040 A 
ATOM     77  C   UNL A   1      41.837  21.195  27.596  1.00  0.00     0.040 A 
ATOM     78  F   UNL A   1      41.893  22.553  29.510  1.00  0.00    -0.206 F 
ATOM     79  C   UNL A   1      41.984  21.039  26.219  1.00  0.00     0.006 A 
ENDBRANCH  51  72
BRANCH  63  80
ATOM     80  C   UNL A   1      48.018  26.611  30.256  1.00  0.00     0.057 A 
ATOM     81  C   UNL A   1      48.391  25.937  31.426  1.00  0.00     0.134 A 
ATOM     82  C   UNL A   1      49.000  26.796  29.274  1.00  0.00     0.134 A 
ATOM     83  F   UNL A   1      47.503  25.739  32.410  1.00  0.00    -0.206 F 
ATOM     84  C   UNL A   1      49.698  25.484  31.619  1.00  0.00     0.040 A 
ATOM     85  C   UNL A   1      50.301  26.324  29.444  1.00  0.00     0.040 A 
ATOM     86  F   UNL A   1      48.704  27.427  28.126  1.00  0.00    -0.206 F 
ATOM     87  C   UNL A   1      50.654  25.670  30.623  1.00  0.00     0.006 A 
ENDBRANCH  63  80
ENDBRANCH  37  38
ENDBRANCH  29  32
ENDBRANCH  27  28
ENDBRANCH  26  27
ENDBRANCH  25  26
ENDBRANCH   1  25
TORSDOF 15
ENDMDL
MODEL 3
REMARK VINA RESULT:     -11.1      2.064      6.821
REMARK SMILES COC(=O)CNC(=O)N1[C@@H](C(=O)NCCCCNC(=O)c2ccc(-c3c4nc(c(-c5c(F)cccc5F)c5ccc([nH]5)c(-c5c(F)cccc5F)c5nc(c(-c6c(F)cccc6F)c6ccc3[nH]6)C=C5)C=C4)cc2)CC[C@@H]2CCCC[C@H]21
REMARK SMILES IDX 14 1 13 2 11 3 12 4 10 6 9 7 82 8 75 9 77 10 81 11 76 12
REMARK SMILES IDX 78 13 80 14 79 15 7 16 6 17 8 19 5 20 3 21 4 22 2 23 1 24
REMARK SMILES IDX 15 25 16 26 17 27 18 28 19 29 20 31 21 32 22 33 74 34 23 35
REMARK SMILES IDX 73 36 24 37 25 38 26 39 67 40 27 41 72 42 66 43 68 44 28 45
REMARK SMILES IDX 71 46 65 47 64 48 29 50 55 51 38 52 54 53 39 54 42 55 53 56
REMARK SMILES IDX 69 57 40 58 41 59 52 61 70 62 43 63 30 64 31 65 36 66 32 67
REMARK SMILES IDX 33 68 35 69 37 70 34 71 56 72 57 73 62 74 58 75 59 76 61 77
REMARK SMILES IDX 63 78 60 79 44 80 45 81 50 82 46 83 47 84 49 85 51 86 48 87
REMARK H PARENT 13 5 6 18 18 30 68 49 42 60
REMARK Flexibility Score: inf
ROOT
ATOM      1  C   UNL A   1      37.383  21.800  25.008  1.00  0.00     0.116 C 
ENDROOT
BRANCH   1   2
ATOM      2  N   UNL A   1      36.909  22.424  23.788  1.00  0.00    -0.354 N 
ATOM      3  C   UNL A   1      35.755  23.106  23.555  1.00  0.00     0.242 C 
ATOM      4  O   UNL A   1      35.475  23.364  22.379  1.00  0.00    -0.273 OA
ATOM      5  H   UNL A   1      37.511  22.343  23.013  1.00  0.00     0.163 HD
BRANCH   3   6
ATOM      6  C   UNL A   1      34.757  23.447  24.688  1.00  0.00     0.176 C 
ATOM      7  N   UNL A   1      33.344  23.056  24.455  1.00  0.00    -0.310 N 
ATOM      8  C   UNL A   1      32.341  23.673  25.372  1.00  0.00     0.091 C 
ATOM      9  C   UNL A   1      34.942  24.962  24.929  1.00  0.00     0.036 C 
ATOM     10  C   UNL A   1      32.503  25.209  25.435  1.00  0.00     0.012 C 
ATOM     11  C   UNL A   1      30.860  23.303  25.138  1.00  0.00     0.025 C 
ATOM     12  C   UNL A   1      33.925  25.562  25.877  1.00  0.00     0.008 C 
ATOM     13  C   UNL A   1      31.505  25.877  26.395  1.00  0.00     0.006 C 
ATOM     14  C   UNL A   1      29.924  23.954  26.151  1.00  0.00     0.002 C 
ATOM     15  C   UNL A   1      30.065  25.468  26.121  1.00  0.00     0.000 C 
BRANCH   7  16
ATOM     16  C   UNL A   1      32.962  22.004  23.660  1.00  0.00     0.318 C 
ATOM     17  N   UNL A   1      33.046  20.723  24.047  1.00  0.00    -0.327 N 
ATOM     18  H   UNL A   1      33.020  20.100  23.285  1.00  0.00     0.166 HD
ATOM     19  O   UNL A   1      32.567  22.166  22.503  1.00  0.00    -0.249 OA
BRANCH  17  20
ATOM     20  C   UNL A   1      33.167  20.029  25.325  1.00  0.00     0.240 C 
BRANCH  20  21
ATOM     21  C   UNL A   1      33.101  18.510  25.235  1.00  0.00     0.325 C 
ATOM     22  O   UNL A   1      32.153  17.854  25.652  1.00  0.00    -0.250 OA
BRANCH  21  23
ATOM     23  O   UNL A   1      34.126  18.003  24.495  1.00  0.00    -0.468 OA
ATOM     24  C   UNL A   1      33.715  17.066  23.498  1.00  0.00     0.282 C 
ENDBRANCH  21  23
ENDBRANCH  20  21
ENDBRANCH  17  20
ENDBRANCH   7  16
ENDBRANCH   3   6
ENDBRANCH   1   2
BRANCH   1  25
ATOM     25  C   UNL A   1      36.987  20.326  25.038  1.00  0.00     0.023 C 
BRANCH  25  26
ATOM     26  C   UNL A   1      38.170  19.358  25.005  1.00  0.00     0.023 C 
BRANCH  26  27
ATOM     27  C   UNL A   1      39.416  19.854  25.729  1.00  0.00     0.116 C 
BRANCH  27  28
ATOM     28  N   UNL A   1      40.438  18.826  25.851  1.00  0.00    -0.352 N 
ATOM     29  C   UNL A   1      41.783  18.977  26.077  1.00  0.00     0.251 C 
ATOM     30  H   UNL A   1      40.123  17.898  25.758  1.00  0.00     0.163 HD
ATOM     31  O   UNL A   1      42.545  18.021  25.989  1.00  0.00    -0.269 OA
BRANCH  29  32
ATOM     32  C   UNL A   1      42.308  20.318  26.399  1.00  0.00     0.039 A 
ATOM     33  C   UNL A   1      42.880  21.084  25.382  1.00  0.00     0.014 A 
ATOM     34  C   UNL A   1      42.197  20.827  27.696  1.00  0.00     0.014 A 
ATOM     35  C   UNL A   1      43.283  22.392  25.652  1.00  0.00     0.010 A 
ATOM     36  C   UNL A   1      42.529  22.154  27.944  1.00  0.00     0.010 A 
ATOM     37  C   UNL A   1      43.076  22.949  26.925  1.00  0.00    -0.014 A 
BRANCH  37  38
ATOM     38  C   UNL A   1      43.425  24.362  27.213  1.00  0.00     0.031 A 
ATOM     39  C   UNL A   1      44.854  24.817  27.122  1.00  0.00     0.074 A 
ATOM     40  C   UNL A   1      42.467  25.214  27.623  1.00  0.00     0.049 A 
ATOM     41  N   UNL A   1      45.369  25.985  27.406  1.00  0.00    -0.248 NA
ATOM     42  C   UNL A   1      45.839  23.817  26.679  1.00  0.00     0.031 C 
ATOM     43  C   UNL A   1      41.052  24.879  27.799  1.00  0.00     0.029 A 
ATOM     44  N   UNL A   1      42.540  26.537  27.980  1.00  0.00    -0.354 N 
ATOM     45  C   UNL A   1      46.735  25.858  27.192  1.00  0.00     0.074 A 
ATOM     46  C   UNL A   1      46.977  24.484  26.807  1.00  0.00     0.031 C 
ATOM     47  C   UNL A   1      40.389  25.972  28.208  1.00  0.00     0.029 A 
ATOM     48  C   UNL A   1      41.334  27.074  28.360  1.00  0.00     0.049 A 
ATOM     49  H   UNL A   1      43.379  27.054  27.963  1.00  0.00     0.167 HD
ATOM     50  C   UNL A   1      47.698  26.804  27.285  1.00  0.00     0.037 A 
ATOM     51  C   UNL A   1      41.028  28.312  28.790  1.00  0.00     0.037 A 
ATOM     52  C   UNL A   1      47.450  28.176  27.644  1.00  0.00     0.049 A 
ATOM     53  C   UNL A   1      42.116  29.344  28.889  1.00  0.00     0.074 A 
ATOM     54  C   UNL A   1      48.349  29.226  27.707  1.00  0.00     0.029 A 
ATOM     55  N   UNL A   1      46.212  28.685  28.003  1.00  0.00    -0.354 N 
ATOM     56  N   UNL A   1      43.393  29.228  28.617  1.00  0.00    -0.248 NA
ATOM     57  C   UNL A   1      41.720  30.683  29.351  1.00  0.00     0.031 C 
ATOM     58  C   UNL A   1      47.662  30.363  28.146  1.00  0.00     0.029 A 
ATOM     59  C   UNL A   1      46.326  30.032  28.309  1.00  0.00     0.049 A 
ATOM     60  H   UNL A   1      45.375  28.168  28.037  1.00  0.00     0.167 HD
ATOM     61  C   UNL A   1      43.947  30.481  28.846  1.00  0.00     0.074 A 
ATOM     62  C   UNL A   1      42.864  31.346  29.266  1.00  0.00     0.031 C 
ATOM     63  C   UNL A   1      45.236  30.880  28.718  1.00  0.00     0.037 A 
BRANCH  50  64
ATOM     64  C   UNL A   1      49.109  26.387  26.989  1.00  0.00     0.057 A 
ATOM     65  C   UNL A   1      49.980  25.961  28.001  1.00  0.00     0.134 A 
ATOM     66  C   UNL A   1      49.593  26.381  25.676  1.00  0.00     0.134 A 
ATOM     67  F   UNL A   1      49.583  25.954  29.283  1.00  0.00    -0.206 F 
ATOM     68  C   UNL A   1      51.292  25.572  27.721  1.00  0.00     0.040 A 
ATOM     69  C   UNL A   1      50.894  25.968  25.380  1.00  0.00     0.040 A 
ATOM     70  F   UNL A   1      48.811  26.771  24.659  1.00  0.00    -0.206 F 
ATOM     71  C   UNL A   1      51.749  25.568  26.404  1.00  0.00     0.006 A 
ENDBRANCH  50  64
BRANCH  51  72
ATOM     72  C   UNL A   1      39.626  28.652  29.139  1.00  0.00     0.057 A 
ATOM     73  C   UNL A   1      38.756  29.192  28.183  1.00  0.00     0.134 A 
ATOM     74  C   UNL A   1      39.123  28.458  30.430  1.00  0.00     0.134 A 
ATOM     75  F   UNL A   1      39.185  29.419  26.933  1.00  0.00    -0.206 F 
ATOM     76  C   UNL A   1      37.444  29.544  28.504  1.00  0.00     0.040 A 
ATOM     77  C   UNL A   1      37.805  28.781  30.758  1.00  0.00     0.040 A 
ATOM     78  F   UNL A   1      39.903  27.937  31.389  1.00  0.00    -0.206 F 
ATOM     79  C   UNL A   1      36.964  29.333  29.795  1.00  0.00     0.006 A 
ENDBRANCH  51  72
BRANCH  63  80
ATOM     80  C   UNL A   1      45.540  32.322  29.001  1.00  0.00     0.057 A 
ATOM     81  C   UNL A   1      45.436  33.308  28.013  1.00  0.00     0.134 A 
ATOM     82  C   UNL A   1      45.900  32.733  30.291  1.00  0.00     0.134 A 
ATOM     83  F   UNL A   1      45.109  32.979  26.754  1.00  0.00    -0.206 F 
ATOM     84  C   UNL A   1      45.700  34.650  28.294  1.00  0.00     0.040 A 
ATOM     85  C   UNL A   1      46.139  34.074  30.590  1.00  0.00     0.040 A 
ATOM     86  F   UNL A   1      46.008  31.837  31.286  1.00  0.00    -0.206 F 
ATOM     87  C   UNL A   1      46.044  35.037  29.587  1.00  0.00     0.006 A 
ENDBRANCH  63  80
ENDBRANCH  37  38
ENDBRANCH  29  32
ENDBRANCH  27  28
ENDBRANCH  26  27
ENDBRANCH  25  26
ENDBRANCH   1  25
TORSDOF 15
ENDMDL
