MODEL 1
REMARK VINA RESULT:     -11.5      0.000      0.000
REMARK SMILES O=Cc1ccc2c(c1)C=C(C(=O)NCCCCNC(=O)c1ccc(-c3c4nc(c(-c5c(F)cccc5F)c5ccc([nH]5)c(-c5c(F)cccc5F)c5nc(c(-c6c(F)cccc6F)c6ccc3[nH]6)C=C5)C=C4)cc1)[C@H](C(F)(F)F)O2
REMARK SMILES IDX 16 1 15 2 14 3 13 4 11 5 12 6 10 8 3 9 4 10 8 11 5 12 7 13
REMARK SMILES IDX 6 14 9 15 80 16 75 17 2 18 1 19 76 20 77 21 78 22 79 23
REMARK SMILES IDX 17 24 18 25 19 26 20 28 21 29 22 30 74 31 23 32 73 33 24 34
REMARK SMILES IDX 25 35 26 36 67 37 27 38 72 39 66 40 68 41 28 42 71 43 65 44
REMARK SMILES IDX 64 45 29 47 55 48 38 49 54 50 39 51 42 52 53 53 69 54 40 55
REMARK SMILES IDX 41 56 52 58 70 59 43 60 30 61 31 62 36 63 32 64 33 65 35 66
REMARK SMILES IDX 37 67 34 68 56 69 57 70 62 71 58 72 59 73 61 74 63 75 60 76
REMARK SMILES IDX 44 77 45 78 50 79 46 80 47 81 49 82 51 83 48 84
REMARK H PARENT 13 7 18 27 68 46 42 57
REMARK Flexibility Score: inf
ROOT
ATOM      1  C   UNL A   1      33.710  28.613  25.631  1.00  0.00     0.023 C 
ENDROOT
BRANCH   1   2
ATOM      2  C   UNL A   1      32.306  28.953  25.124  1.00  0.00     0.023 C 
BRANCH   2   3
ATOM      3  C   UNL A   1      31.519  27.749  24.592  1.00  0.00     0.116 C 
BRANCH   3   4
ATOM      4  N   UNL A   1      31.140  26.875  25.689  1.00  0.00    -0.352 N 
ATOM      5  C   UNL A   1      31.505  25.610  26.023  1.00  0.00     0.251 C 
ATOM      6  O   UNL A   1      30.888  25.055  26.929  1.00  0.00    -0.270 OA
ATOM      7  H   UNL A   1      30.494  27.280  26.313  1.00  0.00     0.163 HD
BRANCH   5   8
ATOM      8  C   UNL A   1      32.652  24.900  25.392  1.00  0.00     0.067 C 
ATOM      9  C   UNL A   1      37.185  23.241  25.266  1.00  0.00     0.015 A 
ATOM     10  C   UNL A   1      36.911  22.551  24.082  1.00  0.00     0.015 A 
ATOM     11  C   UNL A   1      36.203  24.030  25.866  1.00  0.00     0.023 A 
ATOM     12  C   UNL A   1      35.641  22.641  23.508  1.00  0.00     0.048 A 
ATOM     13  C   UNL A   1      34.932  24.119  25.282  1.00  0.00     0.018 A 
ATOM     14  C   UNL A   1      34.652  23.419  24.112  1.00  0.00     0.128 A 
ATOM     15  C   UNL A   1      33.876  24.871  25.936  1.00  0.00     0.025 C 
ATOM     16  O   UNL A   1      33.423  23.401  23.529  1.00  0.00    -0.475 OA
ATOM     17  C   UNL A   1      32.400  24.330  23.995  1.00  0.00     0.314 C 
BRANCH   9  18
ATOM     18  C   UNL A   1      38.507  23.120  25.913  1.00  0.00     0.260 C 
ATOM     19  O   UNL A   1      38.893  22.071  26.411  1.00  0.00    -0.298 OA
ENDBRANCH   9  18
BRANCH  17  20
ATOM     20  C   UNL A   1      31.030  23.646  23.778  1.00  0.00     0.429 C 
ATOM     21  F   UNL A   1      30.060  24.515  23.414  1.00  0.00    -0.167 F 
ATOM     22  F   UNL A   1      31.096  22.734  22.771  1.00  0.00    -0.167 F 
ATOM     23  F   UNL A   1      30.609  22.981  24.878  1.00  0.00    -0.167 F 
ENDBRANCH  17  20
ENDBRANCH   5   8
ENDBRANCH   3   4
ENDBRANCH   2   3
ENDBRANCH   1   2
BRANCH   1  24
ATOM     24  C   UNL A   1      33.865  28.651  27.146  1.00  0.00     0.116 C 
BRANCH  24  25
ATOM     25  N   UNL A   1      33.771  29.993  27.698  1.00  0.00    -0.352 N 
ATOM     26  C   UNL A   1      34.730  30.708  28.373  1.00  0.00     0.251 C 
ATOM     27  H   UNL A   1      32.907  30.448  27.572  1.00  0.00     0.163 HD
ATOM     28  O   UNL A   1      34.461  31.794  28.867  1.00  0.00    -0.269 OA
BRANCH  26  29
ATOM     29  C   UNL A   1      36.080  30.128  28.535  1.00  0.00     0.039 A 
ATOM     30  C   UNL A   1      36.971  30.195  27.462  1.00  0.00     0.014 A 
ATOM     31  C   UNL A   1      36.471  29.553  29.747  1.00  0.00     0.014 A 
ATOM     32  C   UNL A   1      38.280  29.742  27.625  1.00  0.00     0.010 A 
ATOM     33  C   UNL A   1      37.794  29.163  29.929  1.00  0.00     0.010 A 
ATOM     34  C   UNL A   1      38.710  29.255  28.870  1.00  0.00    -0.014 A 
BRANCH  34  35
ATOM     35  C   UNL A   1      40.114  28.830  29.084  1.00  0.00     0.031 A 
ATOM     36  C   UNL A   1      41.100  29.779  29.707  1.00  0.00     0.074 A 
ATOM     37  C   UNL A   1      40.516  27.615  28.660  1.00  0.00     0.049 A 
ATOM     38  N   UNL A   1      42.384  29.625  29.902  1.00  0.00    -0.248 NA
ATOM     39  C   UNL A   1      40.576  31.083  30.143  1.00  0.00     0.031 C 
ATOM     40  C   UNL A   1      39.664  26.622  28.002  1.00  0.00     0.029 A 
ATOM     41  N   UNL A   1      41.747  27.014  28.712  1.00  0.00    -0.354 N 
ATOM     42  C   UNL A   1      42.822  30.812  30.474  1.00  0.00     0.074 A 
ATOM     43  C   UNL A   1      41.679  31.697  30.545  1.00  0.00     0.031 C 
ATOM     44  C   UNL A   1      40.394  25.527  27.730  1.00  0.00     0.029 A 
ATOM     45  C   UNL A   1      41.769  25.755  28.162  1.00  0.00     0.049 A 
ATOM     46  H   UNL A   1      42.541  27.444  29.106  1.00  0.00     0.167 HD
ATOM     47  C   UNL A   1      44.060  31.129  30.922  1.00  0.00     0.037 A 
ATOM     48  C   UNL A   1      42.788  24.885  28.019  1.00  0.00     0.037 A 
ATOM     49  C   UNL A   1      45.189  30.239  30.877  1.00  0.00     0.049 A 
ATOM     50  C   UNL A   1      44.153  25.264  28.525  1.00  0.00     0.074 A 
ATOM     51  C   UNL A   1      46.475  30.452  31.341  1.00  0.00     0.029 A 
ATOM     52  N   UNL A   1      45.164  28.961  30.338  1.00  0.00    -0.354 N 
ATOM     53  N   UNL A   1      44.539  26.371  29.111  1.00  0.00    -0.248 NA
ATOM     54  C   UNL A   1      45.221  24.269  28.355  1.00  0.00     0.031 C 
ATOM     55  C   UNL A   1      47.236  29.313  31.058  1.00  0.00     0.029 A 
ATOM     56  C   UNL A   1      46.414  28.377  30.453  1.00  0.00     0.049 A 
ATOM     57  H   UNL A   1      44.375  28.533  29.934  1.00  0.00     0.167 HD
ATOM     58  C   UNL A   1      45.884  26.192  29.410  1.00  0.00     0.074 A 
ATOM     59  C   UNL A   1      46.243  24.866  28.950  1.00  0.00     0.031 C 
ATOM     60  C   UNL A   1      46.746  27.048  30.009  1.00  0.00     0.037 A 
BRANCH  47  61
ATOM     61  C   UNL A   1      44.252  32.490  31.520  1.00  0.00     0.057 A 
ATOM     62  C   UNL A   1      44.607  33.594  30.733  1.00  0.00     0.134 A 
ATOM     63  C   UNL A   1      44.040  32.713  32.886  1.00  0.00     0.134 A 
ATOM     64  F   UNL A   1      44.838  33.444  29.419  1.00  0.00    -0.206 F 
ATOM     65  C   UNL A   1      44.763  34.865  31.285  1.00  0.00     0.040 A 
ATOM     66  C   UNL A   1      44.169  33.985  33.446  1.00  0.00     0.040 A 
ATOM     67  F   UNL A   1      43.695  31.700  33.696  1.00  0.00    -0.206 F 
ATOM     68  C   UNL A   1      44.536  35.064  32.645  1.00  0.00     0.006 A 
ENDBRANCH  47  61
BRANCH  48  69
ATOM     69  C   UNL A   1      42.560  23.559  27.392  1.00  0.00     0.057 A 
ATOM     70  C   UNL A   1      42.267  22.434  28.172  1.00  0.00     0.134 A 
ATOM     71  C   UNL A   1      42.659  23.376  26.008  1.00  0.00     0.134 A 
ATOM     72  F   UNL A   1      42.176  22.544  29.506  1.00  0.00    -0.206 F 
ATOM     73  C   UNL A   1      42.110  21.170  27.604  1.00  0.00     0.040 A 
ATOM     74  C   UNL A   1      42.481  22.121  25.423  1.00  0.00     0.040 A 
ATOM     75  F   UNL A   1      42.930  24.415  25.205  1.00  0.00    -0.206 F 
ATOM     76  C   UNL A   1      42.215  21.011  26.223  1.00  0.00     0.006 A 
ENDBRANCH  48  69
BRANCH  60  77
ATOM     77  C   UNL A   1      48.143  26.560  30.246  1.00  0.00     0.057 A 
ATOM     78  C   UNL A   1      48.499  25.878  31.415  1.00  0.00     0.134 A 
ATOM     79  C   UNL A   1      49.134  26.744  29.273  1.00  0.00     0.134 A 
ATOM     80  F   UNL A   1      47.598  25.683  32.390  1.00  0.00    -0.206 F 
ATOM     81  C   UNL A   1      49.799  25.413  31.618  1.00  0.00     0.040 A 
ATOM     82  C   UNL A   1      50.431  26.263  29.455  1.00  0.00     0.040 A 
ATOM     83  F   UNL A   1      48.854  27.382  28.127  1.00  0.00    -0.206 F 
ATOM     84  C   UNL A   1      50.768  25.600  30.633  1.00  0.00     0.006 A 
ENDBRANCH  60  77
ENDBRANCH  34  35
ENDBRANCH  26  29
ENDBRANCH  24  25
ENDBRANCH   1  24
TORSDOF 13
ENDMDL
MODEL 2
REMARK VINA RESULT:     -11.2      1.993      7.200
REMARK SMILES O=Cc1ccc2c(c1)C=C(C(=O)NCCCCNC(=O)c1ccc(-c3c4nc(c(-c5c(F)cccc5F)c5ccc([nH]5)c(-c5c(F)cccc5F)c5nc(c(-c6c(F)cccc6F)c6ccc3[nH]6)C=C5)C=C4)cc1)[C@H](C(F)(F)F)O2
REMARK SMILES IDX 16 1 15 2 14 3 13 4 11 5 12 6 10 8 3 9 4 10 8 11 5 12 7 13
REMARK SMILES IDX 6 14 9 15 80 16 75 17 2 18 1 19 76 20 77 21 78 22 79 23
REMARK SMILES IDX 17 24 18 25 19 26 20 28 21 29 22 30 74 31 23 32 73 33 24 34
REMARK SMILES IDX 25 35 26 36 67 37 27 38 72 39 66 40 68 41 28 42 71 43 65 44
REMARK SMILES IDX 64 45 29 47 55 48 38 49 54 50 39 51 42 52 53 53 69 54 40 55
REMARK SMILES IDX 41 56 52 58 70 59 43 60 30 61 31 62 36 63 32 64 33 65 35 66
REMARK SMILES IDX 37 67 34 68 56 69 57 70 62 71 58 72 59 73 61 74 63 75 60 76
REMARK SMILES IDX 44 77 45 78 50 79 46 80 47 81 49 82 51 83 48 84
REMARK H PARENT 13 7 18 27 68 46 42 57
REMARK Flexibility Score: inf
ROOT
ATOM      1  C   UNL A   1      37.561  20.571  24.638  1.00  0.00     0.023 C 
ENDROOT
BRANCH   1   2
ATOM      2  C   UNL A   1      36.110  20.759  25.088  1.00  0.00     0.023 C 
BRANCH   2   3
ATOM      3  C   UNL A   1      35.658  22.223  25.166  1.00  0.00     0.116 C 
BRANCH   3   4
ATOM      4  N   UNL A   1      35.233  22.684  23.856  1.00  0.00    -0.352 N 
ATOM      5  C   UNL A   1      34.294  23.583  23.459  1.00  0.00     0.251 C 
ATOM      6  O   UNL A   1      34.035  23.651  22.260  1.00  0.00    -0.270 OA
ATOM      7  H   UNL A   1      35.721  22.265  23.111  1.00  0.00     0.163 HD
BRANCH   5   8
ATOM      8  C   UNL A   1      33.621  24.526  24.396  1.00  0.00     0.067 C 
ATOM      9  C   UNL A   1      32.906  28.848  26.427  1.00  0.00     0.015 A 
ATOM     10  C   UNL A   1      31.780  28.360  27.093  1.00  0.00     0.015 A 
ATOM     11  C   UNL A   1      33.669  28.002  25.619  1.00  0.00     0.023 A 
ATOM     12  C   UNL A   1      31.408  27.023  26.935  1.00  0.00     0.048 A 
ATOM     13  C   UNL A   1      33.292  26.661  25.468  1.00  0.00     0.018 A 
ATOM     14  C   UNL A   1      32.161  26.178  26.119  1.00  0.00     0.128 A 
ATOM     15  C   UNL A   1      34.029  25.790  24.570  1.00  0.00     0.025 C 
ATOM     16  O   UNL A   1      31.695  24.909  25.963  1.00  0.00    -0.475 OA
ATOM     17  C   UNL A   1      32.526  23.925  25.278  1.00  0.00     0.314 C 
BRANCH   9  18
ATOM     18  C   UNL A   1      33.287  30.270  26.544  1.00  0.00     0.260 C 
ATOM     19  O   UNL A   1      33.112  30.907  27.574  1.00  0.00    -0.298 OA
ENDBRANCH   9  18
BRANCH  17  20
ATOM     20  C   UNL A   1      31.571  22.923  24.588  1.00  0.00     0.429 C 
ATOM     21  F   UNL A   1      30.466  22.660  25.320  1.00  0.00    -0.167 F 
ATOM     22  F   UNL A   1      31.113  23.422  23.407  1.00  0.00    -0.167 F 
ATOM     23  F   UNL A   1      32.178  21.748  24.304  1.00  0.00    -0.167 F 
ENDBRANCH  17  20
ENDBRANCH   5   8
ENDBRANCH   3   4
ENDBRANCH   2   3
ENDBRANCH   1   2
BRANCH   1  24
ATOM     24  C   UNL A   1      38.588  20.639  25.761  1.00  0.00     0.116 C 
BRANCH  24  25
ATOM     25  N   UNL A   1      39.569  19.568  25.706  1.00  0.00    -0.352 N 
ATOM     26  C   UNL A   1      40.908  19.619  26.013  1.00  0.00     0.251 C 
ATOM     27  H   UNL A   1      39.231  18.692  25.409  1.00  0.00     0.163 HD
ATOM     28  O   UNL A   1      41.626  18.649  25.816  1.00  0.00    -0.269 OA
BRANCH  26  29
ATOM     29  C   UNL A   1      41.478  20.875  26.542  1.00  0.00     0.039 A 
ATOM     30  C   UNL A   1      41.987  21.811  25.640  1.00  0.00     0.014 A 
ATOM     31  C   UNL A   1      41.480  21.139  27.914  1.00  0.00     0.014 A 
ATOM     32  C   UNL A   1      42.440  23.044  26.110  1.00  0.00     0.010 A 
ATOM     33  C   UNL A   1      41.870  22.393  28.374  1.00  0.00     0.010 A 
ATOM     34  C   UNL A   1      42.353  23.357  27.476  1.00  0.00    -0.014 A 
BRANCH  34  35
ATOM     35  C   UNL A   1      42.767  24.685  27.987  1.00  0.00     0.031 A 
ATOM     36  C   UNL A   1      41.734  25.745  28.248  1.00  0.00     0.074 A 
ATOM     37  C   UNL A   1      44.076  24.956  28.156  1.00  0.00     0.049 A 
ATOM     38  N   UNL A   1      41.902  26.989  28.617  1.00  0.00    -0.248 NA
ATOM     39  C   UNL A   1      40.328  25.363  28.040  1.00  0.00     0.031 C 
ATOM     40  C   UNL A   1      45.176  24.025  27.896  1.00  0.00     0.029 A 
ATOM     41  N   UNL A   1      44.703  26.100  28.579  1.00  0.00    -0.354 N 
ATOM     42  C   UNL A   1      40.628  27.538  28.676  1.00  0.00     0.074 A 
ATOM     43  C   UNL A   1      39.701  26.511  28.254  1.00  0.00     0.031 C 
ATOM     44  C   UNL A   1      46.341  24.629  28.184  1.00  0.00     0.029 A 
ATOM     45  C   UNL A   1      46.074  25.997  28.615  1.00  0.00     0.049 A 
ATOM     46  H   UNL A   1      44.218  26.919  28.832  1.00  0.00     0.167 HD
ATOM     47  C   UNL A   1      40.260  28.780  29.071  1.00  0.00     0.037 A 
ATOM     48  C   UNL A   1      47.006  26.907  28.953  1.00  0.00     0.037 A 
ATOM     49  C   UNL A   1      41.180  29.793  29.517  1.00  0.00     0.049 A 
ATOM     50  C   UNL A   1      46.569  28.280  29.386  1.00  0.00     0.074 A 
ATOM     51  C   UNL A   1      40.903  31.069  29.974  1.00  0.00     0.029 A 
ATOM     52  N   UNL A   1      42.557  29.640  29.566  1.00  0.00    -0.354 N 
ATOM     53  N   UNL A   1      45.357  28.767  29.487  1.00  0.00    -0.248 NA
ATOM     54  C   UNL A   1      47.631  29.226  29.758  1.00  0.00     0.031 C 
ATOM     55  C   UNL A   1      42.115  31.699  30.274  1.00  0.00     0.029 A 
ATOM     56  C   UNL A   1      43.143  30.801  30.040  1.00  0.00     0.049 A 
ATOM     57  H   UNL A   1      43.045  28.827  29.304  1.00  0.00     0.167 HD
ATOM     58  C   UNL A   1      45.509  30.063  29.966  1.00  0.00     0.074 A 
ATOM     59  C   UNL A   1      46.929  30.280  30.145  1.00  0.00     0.031 C 
ATOM     60  C   UNL A   1      44.558  30.991  30.232  1.00  0.00     0.037 A 
BRANCH  47  61
ATOM     61  C   UNL A   1      38.797  29.107  29.057  1.00  0.00     0.057 A 
ATOM     62  C   UNL A   1      38.010  29.000  30.212  1.00  0.00     0.134 A 
ATOM     63  C   UNL A   1      38.175  29.573  27.892  1.00  0.00     0.134 A 
ATOM     64  F   UNL A   1      38.543  28.547  31.357  1.00  0.00    -0.206 F 
ATOM     65  C   UNL A   1      36.654  29.327  30.204  1.00  0.00     0.040 A 
ATOM     66  C   UNL A   1      36.825  29.926  27.878  1.00  0.00     0.040 A 
ATOM     67  F   UNL A   1      38.872  29.701  26.752  1.00  0.00    -0.206 F 
ATOM     68  C   UNL A   1      36.060  29.799  29.036  1.00  0.00     0.006 A 
ENDBRANCH  47  61
BRANCH  48  69
ATOM     69  C   UNL A   1      48.447  26.551  28.923  1.00  0.00     0.057 A 
ATOM     70  C   UNL A   1      49.065  25.954  30.028  1.00  0.00     0.134 A 
ATOM     71  C   UNL A   1      49.247  26.827  27.808  1.00  0.00     0.134 A 
ATOM     72  F   UNL A   1      48.354  25.682  31.132  1.00  0.00    -0.206 F 
ATOM     73  C   UNL A   1      50.431  25.669  30.038  1.00  0.00     0.040 A 
ATOM     74  C   UNL A   1      50.610  26.526  27.795  1.00  0.00     0.040 A 
ATOM     75  F   UNL A   1      48.713  27.392  26.714  1.00  0.00    -0.206 F 
ATOM     76  C   UNL A   1      51.208  25.954  28.916  1.00  0.00     0.006 A 
ENDBRANCH  48  69
BRANCH  60  77
ATOM     77  C   UNL A   1      45.018  32.303  30.790  1.00  0.00     0.057 A 
ATOM     78  C   UNL A   1      45.160  32.512  32.167  1.00  0.00     0.134 A 
ATOM     79  C   UNL A   1      45.360  33.358  29.934  1.00  0.00     0.134 A 
ATOM     80  F   UNL A   1      44.835  31.544  33.038  1.00  0.00    -0.206 F 
ATOM     81  C   UNL A   1      45.605  33.733  32.675  1.00  0.00     0.040 A 
ATOM     82  C   UNL A   1      45.829  34.575  30.430  1.00  0.00     0.040 A 
ATOM     83  F   UNL A   1      45.255  33.219  28.604  1.00  0.00    -0.206 F 
ATOM     84  C   UNL A   1      45.948  34.767  31.805  1.00  0.00     0.006 A 
ENDBRANCH  60  77
ENDBRANCH  34  35
ENDBRANCH  26  29
ENDBRANCH  24  25
ENDBRANCH   1  24
TORSDOF 13
ENDMDL
MODEL 3
REMARK VINA RESULT:     -11.2      3.743      5.190
REMARK SMILES O=Cc1ccc2c(c1)C=C(C(=O)NCCCCNC(=O)c1ccc(-c3c4nc(c(-c5c(F)cccc5F)c5ccc([nH]5)c(-c5c(F)cccc5F)c5nc(c(-c6c(F)cccc6F)c6ccc3[nH]6)C=C5)C=C4)cc1)[C@H](C(F)(F)F)O2
REMARK SMILES IDX 16 1 15 2 14 3 13 4 11 5 12 6 10 8 3 9 4 10 8 11 5 12 7 13
REMARK SMILES IDX 6 14 9 15 80 16 75 17 2 18 1 19 76 20 77 21 78 22 79 23
REMARK SMILES IDX 17 24 18 25 19 26 20 28 21 29 22 30 74 31 23 32 73 33 24 34
REMARK SMILES IDX 25 35 26 36 67 37 27 38 72 39 66 40 68 41 28 42 71 43 65 44
REMARK SMILES IDX 64 45 29 47 55 48 38 49 54 50 39 51 42 52 53 53 69 54 40 55
REMARK SMILES IDX 41 56 52 58 70 59 43 60 30 61 31 62 36 63 32 64 33 65 35 66
REMARK SMILES IDX 37 67 34 68 56 69 57 70 62 71 58 72 59 73 61 74 63 75 60 76
REMARK SMILES IDX 44 77 45 78 50 79 46 80 47 81 49 82 51 83 48 84
REMARK H PARENT 13 7 18 27 68 46 42 57
REMARK Flexibility Score: inf
ROOT
ATOM      1  C   UNL A   1      31.565  31.721  26.506  1.00  0.00     0.023 C 
ENDROOT
BRANCH   1   2
ATOM      2  C   UNL A   1      31.742  30.200  26.473  1.00  0.00     0.023 C 
BRANCH   2   3
ATOM      3  C   UNL A   1      33.144  29.736  26.060  1.00  0.00     0.116 C 
BRANCH   3   4
ATOM      4  N   UNL A   1      33.245  29.679  24.612  1.00  0.00    -0.352 N 
ATOM      5  C   UNL A   1      33.175  28.650  23.727  1.00  0.00     0.251 C 
ATOM      6  O   UNL A   1      33.464  28.880  22.555  1.00  0.00    -0.270 OA
ATOM      7  H   UNL A   1      33.391  30.556  24.190  1.00  0.00     0.163 HD
BRANCH   5   8
ATOM      8  C   UNL A   1      32.703  27.287  24.099  1.00  0.00     0.067 C 
ATOM      9  C   UNL A   1      32.949  23.132  26.547  1.00  0.00     0.015 A 
ATOM     10  C   UNL A   1      31.706  22.747  26.040  1.00  0.00     0.015 A 
ATOM     11  C   UNL A   1      33.526  24.343  26.158  1.00  0.00     0.023 A 
ATOM     12  C   UNL A   1      31.031  23.589  25.153  1.00  0.00     0.048 A 
ATOM     13  C   UNL A   1      32.845  25.180  25.265  1.00  0.00     0.018 A 
ATOM     14  C   UNL A   1      31.599  24.805  24.771  1.00  0.00     0.128 A 
ATOM     15  C   UNL A   1      33.394  26.477  24.912  1.00  0.00     0.025 C 
ATOM     16  O   UNL A   1      30.849  25.597  23.957  1.00  0.00    -0.475 OA
ATOM     17  C   UNL A   1      31.453  26.790  23.373  1.00  0.00     0.314 C 
BRANCH   9  18
ATOM     18  C   UNL A   1      33.656  22.279  27.524  1.00  0.00     0.260 C 
ATOM     19  O   UNL A   1      34.493  21.454  27.180  1.00  0.00    -0.298 OA
ENDBRANCH   9  18
BRANCH  17  20
ATOM     20  C   UNL A   1      30.321  27.827  23.184  1.00  0.00     0.429 C 
ATOM     21  F   UNL A   1      30.432  28.524  22.031  1.00  0.00    -0.167 F 
ATOM     22  F   UNL A   1      29.106  27.216  23.122  1.00  0.00    -0.167 F 
ATOM     23  F   UNL A   1      30.259  28.711  24.206  1.00  0.00    -0.167 F 
ENDBRANCH  17  20
ENDBRANCH   5   8
ENDBRANCH   3   4
ENDBRANCH   2   3
ENDBRANCH   1   2
BRANCH   1  24
ATOM     24  C   UNL A   1      32.808  32.494  26.925  1.00  0.00     0.116 C 
BRANCH  24  25
ATOM     25  N   UNL A   1      32.513  33.833  27.411  1.00  0.00    -0.352 N 
ATOM     26  C   UNL A   1      33.118  34.524  28.434  1.00  0.00     0.251 C 
ATOM     27  H   UNL A   1      31.785  34.306  26.947  1.00  0.00     0.163 HD
ATOM     28  O   UNL A   1      32.683  35.610  28.790  1.00  0.00    -0.269 OA
BRANCH  26  29
ATOM     29  C   UNL A   1      34.271  33.916  29.130  1.00  0.00     0.039 A 
ATOM     30  C   UNL A   1      34.027  32.989  30.146  1.00  0.00     0.014 A 
ATOM     31  C   UNL A   1      35.580  34.234  28.760  1.00  0.00     0.014 A 
ATOM     32  C   UNL A   1      35.100  32.331  30.748  1.00  0.00     0.010 A 
ATOM     33  C   UNL A   1      36.644  33.531  29.315  1.00  0.00     0.010 A 
ATOM     34  C   UNL A   1      36.413  32.572  30.313  1.00  0.00    -0.014 A 
BRANCH  34  35
ATOM     35  C   UNL A   1      37.561  31.836  30.895  1.00  0.00     0.031 A 
ATOM     36  C   UNL A   1      38.052  32.178  32.274  1.00  0.00     0.074 A 
ATOM     37  C   UNL A   1      38.200  30.906  30.158  1.00  0.00     0.049 A 
ATOM     38  N   UNL A   1      39.086  31.708  32.922  1.00  0.00    -0.248 NA
ATOM     39  C   UNL A   1      37.295  33.203  33.010  1.00  0.00     0.031 C 
ATOM     40  C   UNL A   1      37.845  30.516  28.791  1.00  0.00     0.029 A 
ATOM     41  N   UNL A   1      39.288  30.126  30.453  1.00  0.00    -0.354 N 
ATOM     42  C   UNL A   1      39.109  32.385  34.135  1.00  0.00     0.074 A 
ATOM     43  C   UNL A   1      38.018  33.336  34.112  1.00  0.00     0.031 C 
ATOM     44  C   UNL A   1      38.689  29.557  28.375  1.00  0.00     0.029 A 
ATOM     45  C   UNL A   1      39.661  29.289  29.429  1.00  0.00     0.049 A 
ATOM     46  H   UNL A   1      39.759  30.162  31.318  1.00  0.00     0.167 HD
ATOM     47  C   UNL A   1      39.947  32.212  35.184  1.00  0.00     0.037 A 
ATOM     48  C   UNL A   1      40.677  28.408  29.351  1.00  0.00     0.037 A 
ATOM     49  C   UNL A   1      41.014  31.248  35.217  1.00  0.00     0.049 A 
ATOM     50  C   UNL A   1      41.594  28.239  30.531  1.00  0.00     0.074 A 
ATOM     51  C   UNL A   1      41.894  30.970  36.248  1.00  0.00     0.029 A 
ATOM     52  N   UNL A   1      41.341  30.398  34.171  1.00  0.00    -0.354 N 
ATOM     53  N   UNL A   1      41.570  28.849  31.690  1.00  0.00    -0.248 NA
ATOM     54  C   UNL A   1      42.675  27.253  30.392  1.00  0.00     0.031 C 
ATOM     55  C   UNL A   1      42.772  29.971  35.816  1.00  0.00     0.029 A 
ATOM     56  C   UNL A   1      42.414  29.601  34.530  1.00  0.00     0.049 A 
ATOM     57  H   UNL A   1      40.879  30.367  33.303  1.00  0.00     0.167 HD
ATOM     58  C   UNL A   1      42.609  28.298  32.431  1.00  0.00     0.074 A 
ATOM     59  C   UNL A   1      43.235  27.297  31.592  1.00  0.00     0.031 C 
ATOM     60  C   UNL A   1      43.010  28.595  33.690  1.00  0.00     0.037 A 
BRANCH  47  61
ATOM     61  C   UNL A   1      39.731  33.075  36.392  1.00  0.00     0.057 A 
ATOM     62  C   UNL A   1      40.406  34.292  36.553  1.00  0.00     0.134 A 
ATOM     63  C   UNL A   1      38.811  32.709  37.381  1.00  0.00     0.134 A 
ATOM     64  F   UNL A   1      41.310  34.693  35.647  1.00  0.00    -0.206 F 
ATOM     65  C   UNL A   1      40.187  35.106  37.665  1.00  0.00     0.040 A 
ATOM     66  C   UNL A   1      38.566  33.526  38.486  1.00  0.00     0.040 A 
ATOM     67  F   UNL A   1      38.129  31.557  37.286  1.00  0.00    -0.206 F 
ATOM     68  C   UNL A   1      39.258  34.727  38.632  1.00  0.00     0.006 A 
ENDBRANCH  47  61
BRANCH  48  69
ATOM     69  C   UNL A   1      40.873  27.597  28.124  1.00  0.00     0.057 A 
ATOM     70  C   UNL A   1      41.676  28.061  27.074  1.00  0.00     0.134 A 
ATOM     71  C   UNL A   1      40.243  26.359  27.954  1.00  0.00     0.134 A 
ATOM     72  F   UNL A   1      42.291  29.249  27.171  1.00  0.00    -0.206 F 
ATOM     73  C   UNL A   1      41.821  27.339  25.889  1.00  0.00     0.040 A 
ATOM     74  C   UNL A   1      40.399  25.614  26.784  1.00  0.00     0.040 A 
ATOM     75  F   UNL A   1      39.467  25.855  28.926  1.00  0.00    -0.206 F 
ATOM     76  C   UNL A   1      41.183  26.108  25.743  1.00  0.00     0.006 A 
ENDBRANCH  48  69
BRANCH  60  77
ATOM     77  C   UNL A   1      44.145  27.795  34.254  1.00  0.00     0.057 A 
ATOM     78  C   UNL A   1      43.939  26.563  34.885  1.00  0.00     0.134 A 
ATOM     79  C   UNL A   1      45.464  28.248  34.128  1.00  0.00     0.134 A 
ATOM     80  F   UNL A   1      42.697  26.082  35.049  1.00  0.00    -0.206 F 
ATOM     81  C   UNL A   1      45.005  25.818  35.392  1.00  0.00     0.040 A 
ATOM     82  C   UNL A   1      46.540  27.502  34.610  1.00  0.00     0.040 A 
ATOM     83  F   UNL A   1      45.729  29.417  33.525  1.00  0.00    -0.206 F 
ATOM     84  C   UNL A   1      46.311  26.285  35.249  1.00  0.00     0.006 A 
ENDBRANCH  60  77
ENDBRANCH  34  35
ENDBRANCH  26  29
ENDBRANCH  24  25
ENDBRANCH   1  24
TORSDOF 13
ENDMDL
