MODEL 1
REMARK VINA RESULT:     -10.7      0.000      0.000
REMARK SMILES Cc1n[nH]c(C(=O)N[C@@H](CC(C)C)C(=O)NCCCCNC(=O)c2ccc(-c3c4nc(c(-c5c(F)cccc5F)c5ccc([nH]5)c(-c5c(F)cccc5F)c5nc(c(-c6c(F)cccc6F)c6ccc3[nH]6)C=C5)C=C4)cc2)n1
REMARK SMILES IDX 18 1 17 2 16 3 14 4 15 5 9 7 8 8 6 9 7 10 5 12 1 13 2 14
REMARK SMILES IDX 3 15 78 16 4 17 10 19 11 20 12 21 13 22 19 23 20 24 21 25
REMARK SMILES IDX 22 26 23 28 24 29 25 30 77 31 26 32 76 33 27 34 28 35 29 36
REMARK SMILES IDX 70 37 30 38 75 39 69 40 71 41 31 42 74 43 68 44 67 45 32 47
REMARK SMILES IDX 58 48 41 49 57 50 42 51 45 52 56 53 72 54 43 55 44 56 55 58
REMARK SMILES IDX 73 59 46 60 33 61 34 62 39 63 35 64 36 65 38 66 40 67 37 68
REMARK SMILES IDX 59 69 60 70 65 71 61 72 62 73 64 74 66 75 63 76 47 77 48 78
REMARK SMILES IDX 53 79 49 80 50 81 52 82 54 83 51 84
REMARK H PARENT 16 6 8 11 4 18 21 27 71 46 45 57
REMARK Flexibility Score: inf
ROOT
ATOM      1  C   UNL A   1      36.609  20.638  24.982  1.00  0.00     0.023 C 
ENDROOT
BRANCH   1   2
ATOM      2  C   UNL A   1      36.739  21.881  24.105  1.00  0.00     0.116 C 
BRANCH   2   3
ATOM      3  N   UNL A   1      36.413  23.129  24.771  1.00  0.00    -0.354 N 
ATOM      4  C   UNL A   1      35.225  23.786  24.914  1.00  0.00     0.242 C 
ATOM      5  O   UNL A   1      35.165  24.652  25.795  1.00  0.00    -0.273 OA
ATOM      6  H   UNL A   1      37.181  23.578  25.193  1.00  0.00     0.163 HD
BRANCH   4   7
ATOM      7  C   UNL A   1      33.951  23.462  24.095  1.00  0.00     0.172 C 
BRANCH   7   8
ATOM      8  N   UNL A   1      32.788  23.286  24.960  1.00  0.00    -0.338 N 
ATOM      9  C   UNL A   1      32.249  22.212  25.631  1.00  0.00     0.289 C 
ATOM     10  O   UNL A   1      31.452  22.548  26.514  1.00  0.00    -0.266 OA
ATOM     11  H   UNL A   1      32.278  24.117  25.092  1.00  0.00     0.164 HD
BRANCH   9  12
ATOM     12  C   UNL A   1      32.510  20.817  25.311  1.00  0.00     0.214 A 
ATOM     13  C   UNL A   1      32.623  18.121  22.999  1.00  0.00     0.092 C 
ATOM     14  C   UNL A   1      32.695  19.030  24.158  1.00  0.00     0.148 A 
ATOM     15  N   UNL A   1      33.240  18.686  25.326  1.00  0.00    -0.159 NA
ATOM     16  N   UNL A   1      32.224  20.311  24.116  1.00  0.00    -0.207 NA
ATOM     17  N   UNL A   1      33.089  19.815  26.037  1.00  0.00    -0.255 N 
ATOM     18  H   UNL A   1      33.365  19.911  26.977  1.00  0.00     0.192 HD
ENDBRANCH   9  12
ENDBRANCH   7   8
BRANCH   7  19
ATOM     19  C   UNL A   1      33.646  24.297  22.831  1.00  0.00     0.038 C 
BRANCH  19  20
ATOM     20  C   UNL A   1      32.753  25.544  22.941  1.00  0.00    -0.015 C 
ATOM     21  C   UNL A   1      33.564  26.815  23.215  1.00  0.00     0.007 C 
ATOM     22  C   UNL A   1      31.959  25.763  21.647  1.00  0.00     0.007 C 
ENDBRANCH  19  20
ENDBRANCH   7  19
ENDBRANCH   4   7
ENDBRANCH   2   3
ENDBRANCH   1   2
BRANCH   1  23
ATOM     23  C   UNL A   1      37.799  19.669  24.961  1.00  0.00     0.023 C 
BRANCH  23  24
ATOM     24  C   UNL A   1      39.033  20.148  25.712  1.00  0.00     0.116 C 
BRANCH  24  25
ATOM     25  N   UNL A   1      40.118  19.171  25.751  1.00  0.00    -0.352 N 
ATOM     26  C   UNL A   1      41.469  19.426  25.925  1.00  0.00     0.251 C 
ATOM     27  H   UNL A   1      39.861  18.227  25.643  1.00  0.00     0.163 HD
ATOM     28  O   UNL A   1      42.317  18.609  25.612  1.00  0.00    -0.269 OA
BRANCH  26  29
ATOM     29  C   UNL A   1      41.862  20.717  26.525  1.00  0.00     0.039 A 
ATOM     30  C   UNL A   1      42.354  21.772  25.752  1.00  0.00     0.014 A 
ATOM     31  C   UNL A   1      41.703  20.854  27.902  1.00  0.00     0.014 A 
ATOM     32  C   UNL A   1      42.622  22.990  26.374  1.00  0.00     0.010 A 
ATOM     33  C   UNL A   1      41.823  22.087  28.485  1.00  0.00     0.010 A 
ATOM     34  C   UNL A   1      42.340  23.142  27.742  1.00  0.00    -0.014 A 
BRANCH  34  35
ATOM     35  C   UNL A   1      42.428  24.443  28.396  1.00  0.00     0.031 A 
ATOM     36  C   UNL A   1      41.225  25.296  28.186  1.00  0.00     0.074 A 
ATOM     37  C   UNL A   1      43.384  24.725  29.311  1.00  0.00     0.049 A 
ATOM     38  N   UNL A   1      41.159  26.423  27.559  1.00  0.00    -0.248 NA
ATOM     39  C   UNL A   1      39.907  24.759  28.575  1.00  0.00     0.031 C 
ATOM     40  C   UNL A   1      44.433  23.831  29.821  1.00  0.00     0.029 A 
ATOM     41  N   UNL A   1      43.555  25.837  30.080  1.00  0.00    -0.354 N 
ATOM     42  C   UNL A   1      39.840  26.851  27.687  1.00  0.00     0.074 A 
ATOM     43  C   UNL A   1      39.084  25.708  28.121  1.00  0.00     0.031 C 
ATOM     44  C   UNL A   1      44.954  24.338  30.960  1.00  0.00     0.029 A 
ATOM     45  C   UNL A   1      44.401  25.661  31.176  1.00  0.00     0.049 A 
ATOM     46  H   UNL A   1      43.117  26.695  29.878  1.00  0.00     0.167 HD
ATOM     47  C   UNL A   1      39.544  28.182  27.706  1.00  0.00     0.037 A 
ATOM     48  C   UNL A   1      44.599  26.533  32.200  1.00  0.00     0.037 A 
ATOM     49  C   UNL A   1      40.649  28.955  27.192  1.00  0.00     0.049 A 
ATOM     50  C   UNL A   1      44.128  27.862  31.743  1.00  0.00     0.074 A 
ATOM     51  C   UNL A   1      41.344  28.993  25.999  1.00  0.00     0.029 A 
ATOM     52  N   UNL A   1      41.450  29.587  28.112  1.00  0.00    -0.354 N 
ATOM     53  N   UNL A   1      44.715  28.555  30.809  1.00  0.00    -0.248 NA
ATOM     54  C   UNL A   1      42.735  28.196  31.989  1.00  0.00     0.031 C 
ATOM     55  C   UNL A   1      42.705  29.202  26.373  1.00  0.00     0.029 A 
ATOM     56  C   UNL A   1      42.755  29.372  27.756  1.00  0.00     0.049 A 
ATOM     57  H   UNL A   1      41.140  30.105  28.889  1.00  0.00     0.167 HD
ATOM     58  C   UNL A   1      43.673  29.059  30.046  1.00  0.00     0.074 A 
ATOM     59  C   UNL A   1      42.476  28.873  30.867  1.00  0.00     0.031 C 
ATOM     60  C   UNL A   1      43.835  29.294  28.710  1.00  0.00     0.037 A 
BRANCH  47  61
ATOM     61  C   UNL A   1      38.475  28.809  28.577  1.00  0.00     0.057 A 
ATOM     62  C   UNL A   1      37.643  29.797  28.016  1.00  0.00     0.134 A 
ATOM     63  C   UNL A   1      38.433  28.728  29.984  1.00  0.00     0.134 A 
ATOM     64  F   UNL A   1      37.589  29.981  26.689  1.00  0.00    -0.206 F 
ATOM     65  C   UNL A   1      36.910  30.698  28.799  1.00  0.00     0.040 A 
ATOM     66  C   UNL A   1      37.665  29.588  30.772  1.00  0.00     0.040 A 
ATOM     67  F   UNL A   1      39.202  27.887  30.685  1.00  0.00    -0.206 F 
ATOM     68  C   UNL A   1      36.929  30.603  30.184  1.00  0.00     0.006 A 
ENDBRANCH  47  61
BRANCH  48  69
ATOM     69  C   UNL A   1      44.853  26.255  33.637  1.00  0.00     0.057 A 
ATOM     70  C   UNL A   1      43.838  25.748  34.465  1.00  0.00     0.134 A 
ATOM     71  C   UNL A   1      46.158  26.187  34.153  1.00  0.00     0.134 A 
ATOM     72  F   UNL A   1      42.563  25.733  34.049  1.00  0.00    -0.206 F 
ATOM     73  C   UNL A   1      44.109  25.172  35.715  1.00  0.00     0.040 A 
ATOM     74  C   UNL A   1      46.441  25.618  35.401  1.00  0.00     0.040 A 
ATOM     75  F   UNL A   1      47.212  26.581  33.426  1.00  0.00    -0.206 F 
ATOM     76  C   UNL A   1      45.417  25.092  36.180  1.00  0.00     0.006 A 
ENDBRANCH  48  69
BRANCH  60  77
ATOM     77  C   UNL A   1      45.236  29.268  28.158  1.00  0.00     0.057 A 
ATOM     78  C   UNL A   1      45.887  28.123  27.672  1.00  0.00     0.134 A 
ATOM     79  C   UNL A   1      45.905  30.487  28.001  1.00  0.00     0.134 A 
ATOM     80  F   UNL A   1      45.291  26.925  27.682  1.00  0.00    -0.206 F 
ATOM     81  C   UNL A   1      47.166  28.186  27.107  1.00  0.00     0.040 A 
ATOM     82  C   UNL A   1      47.164  30.568  27.406  1.00  0.00     0.040 A 
ATOM     83  F   UNL A   1      45.322  31.631  28.391  1.00  0.00    -0.206 F 
ATOM     84  C   UNL A   1      47.807  29.413  26.970  1.00  0.00     0.006 A 
ENDBRANCH  60  77
ENDBRANCH  34  35
ENDBRANCH  26  29
ENDBRANCH  24  25
ENDBRANCH  23  24
ENDBRANCH   1  23
TORSDOF 15
ENDMDL
MODEL 2
REMARK VINA RESULT:     -10.7      2.850      6.780
REMARK SMILES Cc1n[nH]c(C(=O)N[C@@H](CC(C)C)C(=O)NCCCCNC(=O)c2ccc(-c3c4nc(c(-c5c(F)cccc5F)c5ccc([nH]5)c(-c5c(F)cccc5F)c5nc(c(-c6c(F)cccc6F)c6ccc3[nH]6)C=C5)C=C4)cc2)n1
REMARK SMILES IDX 18 1 17 2 16 3 14 4 15 5 9 7 8 8 6 9 7 10 5 12 1 13 2 14
REMARK SMILES IDX 3 15 78 16 4 17 10 19 11 20 12 21 13 22 19 23 20 24 21 25
REMARK SMILES IDX 22 26 23 28 24 29 25 30 77 31 26 32 76 33 27 34 28 35 29 36
REMARK SMILES IDX 70 37 30 38 75 39 69 40 71 41 31 42 74 43 68 44 67 45 32 47
REMARK SMILES IDX 58 48 41 49 57 50 42 51 45 52 56 53 72 54 43 55 44 56 55 58
REMARK SMILES IDX 73 59 46 60 33 61 34 62 39 63 35 64 36 65 38 66 40 67 37 68
REMARK SMILES IDX 59 69 60 70 65 71 61 72 62 73 64 74 66 75 63 76 47 77 48 78
REMARK SMILES IDX 53 79 49 80 50 81 52 82 54 83 51 84
REMARK H PARENT 16 6 8 11 4 18 21 27 71 46 45 57
REMARK Flexibility Score: inf
ROOT
ATOM      1  C   UNL A   1      37.842  22.977  25.692  1.00  0.00     0.023 C 
ENDROOT
BRANCH   1   2
ATOM      2  C   UNL A   1      36.453  22.436  25.359  1.00  0.00     0.116 C 
BRANCH   2   3
ATOM      3  N   UNL A   1      35.710  21.932  26.500  1.00  0.00    -0.354 N 
ATOM      4  C   UNL A   1      34.424  22.152  26.902  1.00  0.00     0.242 C 
ATOM      5  O   UNL A   1      33.947  21.355  27.718  1.00  0.00    -0.273 OA
ATOM      6  H   UNL A   1      36.222  21.328  27.085  1.00  0.00     0.163 HD
BRANCH   4   7
ATOM      7  C   UNL A   1      33.524  23.284  26.348  1.00  0.00     0.172 C 
BRANCH   7   8
ATOM      8  N   UNL A   1      32.238  23.333  27.037  1.00  0.00    -0.338 N 
ATOM      9  C   UNL A   1      30.946  23.585  26.636  1.00  0.00     0.289 C 
ATOM     10  O   UNL A   1      30.105  23.208  27.460  1.00  0.00    -0.266 OA
ATOM     11  H   UNL A   1      32.312  23.144  28.001  1.00  0.00     0.164 HD
BRANCH   9  12
ATOM     12  C   UNL A   1      30.578  24.285  25.415  1.00  0.00     0.214 A 
ATOM     13  C   UNL A   1      29.888  27.279  23.630  1.00  0.00     0.092 C 
ATOM     14  C   UNL A   1      30.135  25.900  24.092  1.00  0.00     0.148 A 
ATOM     15  N   UNL A   1      30.191  24.851  23.269  1.00  0.00    -0.159 NA
ATOM     16  N   UNL A   1      30.346  25.593  25.405  1.00  0.00    -0.207 NA
ATOM     17  N   UNL A   1      30.446  23.850  24.127  1.00  0.00    -0.255 N 
ATOM     18  H   UNL A   1      30.528  22.906  23.859  1.00  0.00     0.192 HD
ENDBRANCH   9  12
ENDBRANCH   7   8
BRANCH   7  19
ATOM     19  C   UNL A   1      34.142  24.681  26.116  1.00  0.00     0.038 C 
BRANCH  19  20
ATOM     20  C   UNL A   1      34.375  25.181  24.682  1.00  0.00    -0.015 C 
ATOM     21  C   UNL A   1      33.834  24.203  23.632  1.00  0.00     0.007 C 
ATOM     22  C   UNL A   1      33.692  26.536  24.457  1.00  0.00     0.007 C 
ENDBRANCH  19  20
ENDBRANCH   7  19
ENDBRANCH   4   7
ENDBRANCH   2   3
ENDBRANCH   1   2
BRANCH   1  23
ATOM     23  C   UNL A   1      38.892  21.935  26.101  1.00  0.00     0.023 C 
BRANCH  23  24
ATOM     24  C   UNL A   1      40.133  22.501  26.775  1.00  0.00     0.116 C 
BRANCH  24  25
ATOM     25  N   UNL A   1      41.364  22.296  26.015  1.00  0.00    -0.352 N 
ATOM     26  C   UNL A   1      42.236  23.271  25.557  1.00  0.00     0.251 C 
ATOM     27  H   UNL A   1      41.600  21.364  25.805  1.00  0.00     0.163 HD
ATOM     28  O   UNL A   1      43.034  23.043  24.663  1.00  0.00    -0.269 OA
BRANCH  26  29
ATOM     29  C   UNL A   1      42.194  24.601  26.197  1.00  0.00     0.039 A 
ATOM     30  C   UNL A   1      41.341  25.611  25.745  1.00  0.00     0.014 A 
ATOM     31  C   UNL A   1      43.028  24.808  27.293  1.00  0.00     0.014 A 
ATOM     32  C   UNL A   1      41.290  26.811  26.453  1.00  0.00     0.010 A 
ATOM     33  C   UNL A   1      42.870  25.923  28.071  1.00  0.00     0.010 A 
ATOM     34  C   UNL A   1      42.050  26.953  27.624  1.00  0.00    -0.014 A 
BRANCH  34  35
ATOM     35  C   UNL A   1      41.894  28.112  28.497  1.00  0.00     0.031 A 
ATOM     36  C   UNL A   1      42.943  29.151  28.297  1.00  0.00     0.074 A 
ATOM     37  C   UNL A   1      40.766  28.327  29.213  1.00  0.00     0.049 A 
ATOM     38  N   UNL A   1      43.837  29.539  29.144  1.00  0.00    -0.248 NA
ATOM     39  C   UNL A   1      43.128  29.711  26.945  1.00  0.00     0.031 C 
ATOM     40  C   UNL A   1      39.543  27.514  29.230  1.00  0.00     0.029 A 
ATOM     41  N   UNL A   1      40.417  29.389  29.992  1.00  0.00    -0.354 N 
ATOM     42  C   UNL A   1      44.539  30.563  28.512  1.00  0.00     0.074 A 
ATOM     43  C   UNL A   1      44.210  30.475  27.115  1.00  0.00     0.031 C 
ATOM     44  C   UNL A   1      38.527  28.225  29.767  1.00  0.00     0.029 A 
ATOM     45  C   UNL A   1      39.054  29.474  30.280  1.00  0.00     0.049 A 
ATOM     46  H   UNL A   1      41.073  30.043  30.324  1.00  0.00     0.167 HD
ATOM     47  C   UNL A   1      45.096  31.571  29.240  1.00  0.00     0.037 A 
ATOM     48  C   UNL A   1      38.410  30.517  30.869  1.00  0.00     0.037 A 
ATOM     49  C   UNL A   1      45.194  31.198  30.631  1.00  0.00     0.049 A 
ATOM     50  C   UNL A   1      39.438  31.340  31.550  1.00  0.00     0.074 A 
ATOM     51  C   UNL A   1      45.811  30.178  31.328  1.00  0.00     0.029 A 
ATOM     52  N   UNL A   1      44.252  31.719  31.484  1.00  0.00    -0.354 N 
ATOM     53  N   UNL A   1      40.109  30.941  32.592  1.00  0.00    -0.248 NA
ATOM     54  C   UNL A   1      40.051  32.410  30.781  1.00  0.00     0.031 C 
ATOM     55  C   UNL A   1      44.888  29.827  32.358  1.00  0.00     0.029 A 
ATOM     56  C   UNL A   1      43.808  30.707  32.293  1.00  0.00     0.049 A 
ATOM     57  H   UNL A   1      43.951  32.655  31.511  1.00  0.00     0.167 HD
ATOM     58  C   UNL A   1      41.408  31.356  32.346  1.00  0.00     0.074 A 
ATOM     59  C   UNL A   1      41.297  32.326  31.256  1.00  0.00     0.031 C 
ATOM     60  C   UNL A   1      42.472  30.652  32.836  1.00  0.00     0.037 A 
BRANCH  47  61
ATOM     61  C   UNL A   1      45.138  33.021  28.804  1.00  0.00     0.057 A 
ATOM     62  C   UNL A   1      43.926  33.668  28.493  1.00  0.00     0.134 A 
ATOM     63  C   UNL A   1      46.298  33.699  28.375  1.00  0.00     0.134 A 
ATOM     64  F   UNL A   1      42.749  33.129  28.843  1.00  0.00    -0.206 F 
ATOM     65  C   UNL A   1      43.872  34.839  27.728  1.00  0.00     0.040 A 
ATOM     66  C   UNL A   1      46.256  34.896  27.655  1.00  0.00     0.040 A 
ATOM     67  F   UNL A   1      47.530  33.202  28.534  1.00  0.00    -0.206 F 
ATOM     68  C   UNL A   1      45.040  35.451  27.295  1.00  0.00     0.006 A 
ENDBRANCH  47  61
BRANCH  48  69
ATOM     69  C   UNL A   1      37.042  31.038  30.621  1.00  0.00     0.057 A 
ATOM     70  C   UNL A   1      36.197  31.386  31.687  1.00  0.00     0.134 A 
ATOM     71  C   UNL A   1      36.647  31.493  29.351  1.00  0.00     0.134 A 
ATOM     72  F   UNL A   1      36.503  31.032  32.943  1.00  0.00    -0.206 F 
ATOM     73  C   UNL A   1      35.049  32.173  31.507  1.00  0.00     0.040 A 
ATOM     74  C   UNL A   1      35.502  32.275  29.158  1.00  0.00     0.040 A 
ATOM     75  F   UNL A   1      37.409  31.276  28.270  1.00  0.00    -0.206 F 
ATOM     76  C   UNL A   1      34.707  32.633  30.240  1.00  0.00     0.006 A 
ENDBRANCH  48  69
BRANCH  60  77
ATOM     77  C   UNL A   1      42.197  29.597  33.875  1.00  0.00     0.057 A 
ATOM     78  C   UNL A   1      41.911  28.252  33.598  1.00  0.00     0.134 A 
ATOM     79  C   UNL A   1      42.353  29.943  35.222  1.00  0.00     0.134 A 
ATOM     80  F   UNL A   1      41.841  27.797  32.341  1.00  0.00    -0.206 F 
ATOM     81  C   UNL A   1      41.734  27.310  34.618  1.00  0.00     0.040 A 
ATOM     82  C   UNL A   1      42.217  29.007  36.246  1.00  0.00     0.040 A 
ATOM     83  F   UNL A   1      42.682  31.200  35.561  1.00  0.00    -0.206 F 
ATOM     84  C   UNL A   1      41.892  27.687  35.948  1.00  0.00     0.006 A 
ENDBRANCH  60  77
ENDBRANCH  34  35
ENDBRANCH  26  29
ENDBRANCH  24  25
ENDBRANCH  23  24
ENDBRANCH   1  23
TORSDOF 15
ENDMDL
MODEL 3
REMARK VINA RESULT:     -10.5      3.006      7.525
REMARK SMILES Cc1n[nH]c(C(=O)N[C@@H](CC(C)C)C(=O)NCCCCNC(=O)c2ccc(-c3c4nc(c(-c5c(F)cccc5F)c5ccc([nH]5)c(-c5c(F)cccc5F)c5nc(c(-c6c(F)cccc6F)c6ccc3[nH]6)C=C5)C=C4)cc2)n1
REMARK SMILES IDX 18 1 17 2 16 3 14 4 15 5 9 7 8 8 6 9 7 10 5 12 1 13 2 14
REMARK SMILES IDX 3 15 78 16 4 17 10 19 11 20 12 21 13 22 19 23 20 24 21 25
REMARK SMILES IDX 22 26 23 28 24 29 25 30 77 31 26 32 76 33 27 34 28 35 29 36
REMARK SMILES IDX 70 37 30 38 75 39 69 40 71 41 31 42 74 43 68 44 67 45 32 47
REMARK SMILES IDX 58 48 41 49 57 50 42 51 45 52 56 53 72 54 43 55 44 56 55 58
REMARK SMILES IDX 73 59 46 60 33 61 34 62 39 63 35 64 36 65 38 66 40 67 37 68
REMARK SMILES IDX 59 69 60 70 65 71 61 72 62 73 64 74 66 75 63 76 47 77 48 78
REMARK SMILES IDX 53 79 49 80 50 81 52 82 54 83 51 84
REMARK H PARENT 16 6 8 11 4 18 21 27 71 46 45 57
REMARK Flexibility Score: inf
ROOT
ATOM      1  C   UNL A   1      33.528  29.325  25.877  1.00  0.00     0.023 C 
ENDROOT
BRANCH   1   2
ATOM      2  C   UNL A   1      33.518  27.799  25.808  1.00  0.00     0.116 C 
BRANCH   2   3
ATOM      3  N   UNL A   1      32.200  27.198  25.904  1.00  0.00    -0.354 N 
ATOM      4  C   UNL A   1      31.224  27.019  24.964  1.00  0.00     0.242 C 
ATOM      5  O   UNL A   1      30.338  26.198  25.226  1.00  0.00    -0.273 OA
ATOM      6  H   UNL A   1      31.969  26.862  26.799  1.00  0.00     0.163 HD
BRANCH   4   7
ATOM      7  C   UNL A   1      31.208  27.725  23.586  1.00  0.00     0.172 C 
BRANCH   7   8
ATOM      8  N   UNL A   1      32.364  27.348  22.778  1.00  0.00    -0.338 N 
ATOM      9  C   UNL A   1      32.789  26.171  22.205  1.00  0.00     0.289 C 
ATOM     10  O   UNL A   1      33.644  26.345  21.329  1.00  0.00    -0.266 OA
ATOM     11  H   UNL A   1      32.975  28.102  22.606  1.00  0.00     0.164 HD
BRANCH   9  12
ATOM     12  C   UNL A   1      32.353  24.844  22.613  1.00  0.00     0.214 A 
ATOM     13  C   UNL A   1      33.025  21.620  23.948  1.00  0.00     0.092 C 
ATOM     14  C   UNL A   1      32.449  22.861  23.394  1.00  0.00     0.148 A 
ATOM     15  N   UNL A   1      31.137  23.061  23.256  1.00  0.00    -0.159 NA
ATOM     16  N   UNL A   1      33.221  23.915  22.997  1.00  0.00    -0.207 NA
ATOM     17  N   UNL A   1      31.107  24.302  22.743  1.00  0.00    -0.255 N 
ATOM     18  H   UNL A   1      30.279  24.768  22.487  1.00  0.00     0.192 HD
ENDBRANCH   9  12
ENDBRANCH   7   8
BRANCH   7  19
ATOM     19  C   UNL A   1      29.890  27.757  22.781  1.00  0.00     0.038 C 
BRANCH  19  20
ATOM     20  C   UNL A   1      29.112  29.076  22.648  1.00  0.00    -0.015 C 
ATOM     21  C   UNL A   1      27.622  28.905  22.962  1.00  0.00     0.007 C 
ATOM     22  C   UNL A   1      29.674  30.139  23.600  1.00  0.00     0.007 C 
ENDBRANCH  19  20
ENDBRANCH   7  19
ENDBRANCH   4   7
ENDBRANCH   2   3
ENDBRANCH   1   2
BRANCH   1  23
ATOM     23  C   UNL A   1      33.483  29.936  27.283  1.00  0.00     0.023 C 
BRANCH  23  24
ATOM     24  C   UNL A   1      34.685  30.795  27.651  1.00  0.00     0.116 C 
BRANCH  24  25
ATOM     25  N   UNL A   1      34.415  31.768  28.707  1.00  0.00    -0.352 N 
ATOM     26  C   UNL A   1      34.997  31.823  29.963  1.00  0.00     0.251 C 
ATOM     27  H   UNL A   1      33.746  32.461  28.504  1.00  0.00     0.163 HD
ATOM     28  O   UNL A   1      34.481  32.442  30.878  1.00  0.00    -0.269 OA
BRANCH  26  29
ATOM     29  C   UNL A   1      36.282  31.125  30.167  1.00  0.00     0.039 A 
ATOM     30  C   UNL A   1      36.345  29.755  30.431  1.00  0.00     0.014 A 
ATOM     31  C   UNL A   1      37.444  31.886  30.062  1.00  0.00     0.014 A 
ATOM     32  C   UNL A   1      37.596  29.147  30.525  1.00  0.00     0.010 A 
ATOM     33  C   UNL A   1      38.664  31.267  30.005  1.00  0.00     0.010 A 
ATOM     34  C   UNL A   1      38.752  29.911  30.296  1.00  0.00    -0.014 A 
BRANCH  34  35
ATOM     35  C   UNL A   1      40.069  29.289  30.200  1.00  0.00     0.031 A 
ATOM     36  C   UNL A   1      40.737  29.108  31.520  1.00  0.00     0.074 A 
ATOM     37  C   UNL A   1      40.506  28.702  29.063  1.00  0.00     0.049 A 
ATOM     38  N   UNL A   1      41.827  29.664  31.932  1.00  0.00    -0.248 NA
ATOM     39  C   UNL A   1      40.029  28.348  32.567  1.00  0.00     0.031 C 
ATOM     40  C   UNL A   1      39.783  28.552  27.792  1.00  0.00     0.029 A 
ATOM     41  N   UNL A   1      41.650  28.000  28.828  1.00  0.00    -0.354 N 
ATOM     42  C   UNL A   1      42.068  29.134  33.197  1.00  0.00     0.074 A 
ATOM     43  C   UNL A   1      40.840  28.514  33.615  1.00  0.00     0.031 C 
ATOM     44  C   UNL A   1      40.387  27.615  27.029  1.00  0.00     0.029 A 
ATOM     45  C   UNL A   1      41.623  27.216  27.673  1.00  0.00     0.049 A 
ATOM     46  H   UNL A   1      42.432  28.043  29.424  1.00  0.00     0.167 HD
ATOM     47  C   UNL A   1      43.343  29.001  33.660  1.00  0.00     0.037 A 
ATOM     48  C   UNL A   1      42.540  26.283  27.301  1.00  0.00     0.037 A 
ATOM     49  C   UNL A   1      44.251  29.811  32.884  1.00  0.00     0.049 A 
ATOM     50  C   UNL A   1      43.777  26.551  28.073  1.00  0.00     0.074 A 
ATOM     51  C   UNL A   1      44.357  31.158  32.596  1.00  0.00     0.029 A 
ATOM     52  N   UNL A   1      45.013  29.166  31.941  1.00  0.00    -0.354 N 
ATOM     53  N   UNL A   1      44.522  27.605  27.901  1.00  0.00    -0.248 NA
ATOM     54  C   UNL A   1      43.916  25.887  29.359  1.00  0.00     0.031 C 
ATOM     55  C   UNL A   1      44.766  31.210  31.230  1.00  0.00     0.029 A 
ATOM     56  C   UNL A   1      44.976  29.904  30.789  1.00  0.00     0.049 A 
ATOM     57  H   UNL A   1      45.501  28.321  32.072  1.00  0.00     0.167 HD
ATOM     58  C   UNL A   1      44.854  28.007  29.186  1.00  0.00     0.074 A 
ATOM     59  C   UNL A   1      44.522  26.865  30.038  1.00  0.00     0.031 C 
ATOM     60  C   UNL A   1      45.076  29.324  29.471  1.00  0.00     0.037 A 
BRANCH  47  61
ATOM     61  C   UNL A   1      43.834  27.836  34.493  1.00  0.00     0.057 A 
ATOM     62  C   UNL A   1      44.511  28.106  35.698  1.00  0.00     0.134 A 
ATOM     63  C   UNL A   1      43.958  26.510  34.028  1.00  0.00     0.134 A 
ATOM     64  F   UNL A   1      44.476  29.328  36.249  1.00  0.00    -0.206 F 
ATOM     65  C   UNL A   1      45.329  27.161  36.331  1.00  0.00     0.040 A 
ATOM     66  C   UNL A   1      44.730  25.545  34.681  1.00  0.00     0.040 A 
ATOM     67  F   UNL A   1      43.430  26.094  32.872  1.00  0.00    -0.206 F 
ATOM     68  C   UNL A   1      45.450  25.879  35.815  1.00  0.00     0.006 A 
ENDBRANCH  47  61
BRANCH  48  69
ATOM     69  C   UNL A   1      42.337  24.997  26.588  1.00  0.00     0.057 A 
ATOM     70  C   UNL A   1      43.101  24.669  25.457  1.00  0.00     0.134 A 
ATOM     71  C   UNL A   1      41.617  23.940  27.170  1.00  0.00     0.134 A 
ATOM     72  F   UNL A   1      43.853  25.599  24.849  1.00  0.00    -0.206 F 
ATOM     73  C   UNL A   1      43.177  23.360  24.957  1.00  0.00     0.040 A 
ATOM     74  C   UNL A   1      41.681  22.630  26.678  1.00  0.00     0.040 A 
ATOM     75  F   UNL A   1      40.904  24.120  28.290  1.00  0.00    -0.206 F 
ATOM     76  C   UNL A   1      42.477  22.332  25.579  1.00  0.00     0.006 A 
ENDBRANCH  48  69
BRANCH  60  77
ATOM     77  C   UNL A   1      45.234  30.276  28.314  1.00  0.00     0.057 A 
ATOM     78  C   UNL A   1      44.184  30.971  27.696  1.00  0.00     0.134 A 
ATOM     79  C   UNL A   1      46.531  30.591  27.893  1.00  0.00     0.134 A 
ATOM     80  F   UNL A   1      42.915  30.817  28.095  1.00  0.00    -0.206 F 
ATOM     81  C   UNL A   1      44.413  31.894  26.670  1.00  0.00     0.040 A 
ATOM     82  C   UNL A   1      46.776  31.536  26.897  1.00  0.00     0.040 A 
ATOM     83  F   UNL A   1      47.590  30.007  28.477  1.00  0.00    -0.206 F 
ATOM     84  C   UNL A   1      45.714  32.182  26.270  1.00  0.00     0.006 A 
ENDBRANCH  60  77
ENDBRANCH  34  35
ENDBRANCH  26  29
ENDBRANCH  24  25
ENDBRANCH  23  24
ENDBRANCH   1  23
TORSDOF 15
ENDMDL
