MODEL 1
REMARK VINA RESULT:     -11.8      0.000      0.000
REMARK SMILES CC(=O)Oc1c(Cl)cc(-c2ccccc2)cc1C(=O)NCCCCNC(=O)c1ccc(-c2c3nc(c(-c4c(F)cccc4F)c4ccc([nH]4)c(-c4c(F)cccc4F)c4nc(c(-c5c(F)cccc5F)c5ccc2[nH]5)C=C4)C=C3)cc1
REMARK SMILES IDX 22 1 21 2 20 3 18 4 19 5 17 7 5 8 6 9 7 10 8 11 16 12 9 13
REMARK SMILES IDX 4 14 2 15 1 16 3 17 10 18 11 19 15 20 12 21 14 22 13 23
REMARK SMILES IDX 23 24 24 25 25 26 26 27 27 29 28 30 29 31 81 32 30 33 80 34
REMARK SMILES IDX 31 35 32 36 33 37 74 38 34 39 79 40 73 41 75 42 35 43 78 44
REMARK SMILES IDX 72 45 71 46 36 48 62 49 45 50 61 51 46 52 49 53 60 54 76 55
REMARK SMILES IDX 47 56 48 57 59 59 77 60 50 61 37 62 38 63 43 64 39 65 40 66
REMARK SMILES IDX 42 67 44 68 41 69 63 70 64 71 69 72 65 73 66 74 68 75 70 76
REMARK SMILES IDX 67 77 51 78 52 79 57 80 53 81 54 82 56 83 58 84 55 85
REMARK H PARENT 20 6 25 28 75 47 49 58
REMARK Flexibility Score: inf
ROOT
ATOM      1  C   UNL A   1      37.243  21.389  24.417  1.00  0.00     0.023 C 
ENDROOT
BRANCH   1   2
ATOM      2  C   UNL A   1      37.086  22.588  25.340  1.00  0.00     0.116 C 
BRANCH   2   3
ATOM      3  N   UNL A   1      36.013  22.542  26.293  1.00  0.00    -0.352 N 
ATOM      4  C   UNL A   1      34.804  23.196  26.279  1.00  0.00     0.255 C 
ATOM      5  O   UNL A   1      34.026  22.935  27.201  1.00  0.00    -0.269 OA
ATOM      6  H   UNL A   1      36.165  21.955  27.068  1.00  0.00     0.163 HD
BRANCH   4   7
ATOM      7  C   UNL A   1      34.386  24.235  25.282  1.00  0.00     0.084 A 
ATOM      8  C   UNL A   1      34.074  24.050  23.923  1.00  0.00     0.162 A 
ATOM      9  C   UNL A   1      33.487  25.102  23.190  1.00  0.00     0.085 A 
ATOM     10  Cl  UNL A   1      32.903  24.892  21.569  1.00  0.00    -0.080 Cl
ATOM     11  C   UNL A   1      33.280  26.351  23.770  1.00  0.00     0.033 A 
ATOM     12  C   UNL A   1      34.141  25.514  25.850  1.00  0.00     0.026 A 
ATOM     13  C   UNL A   1      33.595  26.581  25.112  1.00  0.00    -0.016 A 
BRANCH   8  14
ATOM     14  O   UNL A   1      34.222  22.811  23.281  1.00  0.00    -0.424 OA
BRANCH  14  15
ATOM     15  C   UNL A   1      33.137  21.954  23.506  1.00  0.00     0.308 C 
ATOM     16  C   UNL A   1      33.595  20.724  24.227  1.00  0.00     0.139 C 
ATOM     17  O   UNL A   1      31.998  22.110  23.080  1.00  0.00    -0.252 OA
ENDBRANCH  14  15
ENDBRANCH   8  14
BRANCH  13  18
ATOM     18  C   UNL A   1      33.294  27.891  25.715  1.00  0.00    -0.018 A 
ATOM     19  C   UNL A   1      32.193  28.645  25.266  1.00  0.00     0.009 A 
ATOM     20  C   UNL A   1      34.111  28.452  26.709  1.00  0.00     0.009 A 
ATOM     21  C   UNL A   1      31.930  29.920  25.773  1.00  0.00     0.001 A 
ATOM     22  C   UNL A   1      33.849  29.729  27.216  1.00  0.00     0.001 A 
ATOM     23  C   UNL A   1      32.762  30.463  26.744  1.00  0.00     0.000 A 
ENDBRANCH  13  18
ENDBRANCH   4   7
ENDBRANCH   2   3
ENDBRANCH   1   2
BRANCH   1  24
ATOM     24  C   UNL A   1      37.852  20.116  25.001  1.00  0.00     0.023 C 
BRANCH  24  25
ATOM     25  C   UNL A   1      39.024  20.269  25.963  1.00  0.00     0.116 C 
BRANCH  25  26
ATOM     26  N   UNL A   1      40.037  19.227  25.865  1.00  0.00    -0.352 N 
ATOM     27  C   UNL A   1      41.400  19.260  26.062  1.00  0.00     0.251 C 
ATOM     28  H   UNL A   1      39.685  18.342  25.614  1.00  0.00     0.163 HD
ATOM     29  O   UNL A   1      42.061  18.241  25.903  1.00  0.00    -0.269 OA
BRANCH  27  30
ATOM     30  C   UNL A   1      42.079  20.530  26.405  1.00  0.00     0.039 A 
ATOM     31  C   UNL A   1      42.565  21.331  25.366  1.00  0.00     0.014 A 
ATOM     32  C   UNL A   1      42.201  20.954  27.727  1.00  0.00     0.014 A 
ATOM     33  C   UNL A   1      43.053  22.610  25.647  1.00  0.00     0.010 A 
ATOM     34  C   UNL A   1      42.593  22.261  27.996  1.00  0.00     0.010 A 
ATOM     35  C   UNL A   1      43.005  23.111  26.958  1.00  0.00    -0.014 A 
BRANCH  35  36
ATOM     36  C   UNL A   1      43.352  24.523  27.267  1.00  0.00     0.031 A 
ATOM     37  C   UNL A   1      44.784  24.976  27.233  1.00  0.00     0.074 A 
ATOM     38  C   UNL A   1      42.389  25.373  27.679  1.00  0.00     0.049 A 
ATOM     39  N   UNL A   1      45.298  26.126  27.587  1.00  0.00    -0.248 NA
ATOM     40  C   UNL A   1      45.776  23.991  26.774  1.00  0.00     0.031 C 
ATOM     41  C   UNL A   1      40.967  25.046  27.813  1.00  0.00     0.029 A 
ATOM     42  N   UNL A   1      42.463  26.686  28.074  1.00  0.00    -0.354 N 
ATOM     43  C   UNL A   1      46.671  25.992  27.422  1.00  0.00     0.074 A 
ATOM     44  C   UNL A   1      46.913  24.634  26.988  1.00  0.00     0.031 C 
ATOM     45  C   UNL A   1      40.301  26.137  28.226  1.00  0.00     0.029 A 
ATOM     46  C   UNL A   1      41.250  27.226  28.426  1.00  0.00     0.049 A 
ATOM     47  H   UNL A   1      43.307  27.192  28.102  1.00  0.00     0.167 HD
ATOM     48  C   UNL A   1      47.641  26.923  27.592  1.00  0.00     0.037 A 
ATOM     49  C   UNL A   1      40.938  28.460  28.865  1.00  0.00     0.037 A 
ATOM     50  C   UNL A   1      47.396  28.285  27.984  1.00  0.00     0.049 A 
ATOM     51  C   UNL A   1      42.030  29.479  29.034  1.00  0.00     0.074 A 
ATOM     52  C   UNL A   1      48.303  29.323  28.113  1.00  0.00     0.029 A 
ATOM     53  N   UNL A   1      46.149  28.800  28.305  1.00  0.00    -0.354 N 
ATOM     54  N   UNL A   1      43.316  29.356  28.813  1.00  0.00    -0.248 NA
ATOM     55  C   UNL A   1      41.625  30.809  29.513  1.00  0.00     0.031 C 
ATOM     56  C   UNL A   1      47.608  30.459  28.543  1.00  0.00     0.029 A 
ATOM     57  C   UNL A   1      46.264  30.137  28.645  1.00  0.00     0.049 A 
ATOM     58  H   UNL A   1      45.307  28.291  28.292  1.00  0.00     0.167 HD
ATOM     59  C   UNL A   1      43.870  30.597  29.096  1.00  0.00     0.074 A 
ATOM     60  C   UNL A   1      42.778  31.461  29.497  1.00  0.00     0.031 C 
ATOM     61  C   UNL A   1      45.166  30.986  29.029  1.00  0.00     0.037 A 
BRANCH  48  62
ATOM     62  C   UNL A   1      49.056  26.489  27.344  1.00  0.00     0.057 A 
ATOM     63  C   UNL A   1      49.608  26.477  26.056  1.00  0.00     0.134 A 
ATOM     64  C   UNL A   1      49.878  26.084  28.403  1.00  0.00     0.134 A 
ATOM     65  F   UNL A   1      48.869  26.841  24.997  1.00  0.00    -0.206 F 
ATOM     66  C   UNL A   1      50.914  26.044  25.825  1.00  0.00     0.040 A 
ATOM     67  C   UNL A   1      51.195  25.674  28.187  1.00  0.00     0.040 A 
ATOM     68  F   UNL A   1      49.415  26.076  29.661  1.00  0.00    -0.206 F 
ATOM     69  C   UNL A   1      51.713  25.644  26.894  1.00  0.00     0.006 A 
ENDBRANCH  48  62
BRANCH  49  70
ATOM     70  C   UNL A   1      39.524  28.819  29.135  1.00  0.00     0.057 A 
ATOM     71  C   UNL A   1      38.976  28.649  30.413  1.00  0.00     0.134 A 
ATOM     72  C   UNL A   1      38.687  29.329  28.137  1.00  0.00     0.134 A 
ATOM     73  F   UNL A   1      39.725  28.146  31.405  1.00  0.00    -0.206 F 
ATOM     74  C   UNL A   1      37.643  28.958  30.684  1.00  0.00     0.040 A 
ATOM     75  C   UNL A   1      37.357  29.661  28.399  1.00  0.00     0.040 A 
ATOM     76  F   UNL A   1      39.153  29.520  26.894  1.00  0.00    -0.206 F 
ATOM     77  C   UNL A   1      36.830  29.471  29.675  1.00  0.00     0.006 A 
ENDBRANCH  49  70
BRANCH  61  78
ATOM     78  C   UNL A   1      45.469  32.418  29.357  1.00  0.00     0.057 A 
ATOM     79  C   UNL A   1      45.829  32.819  30.650  1.00  0.00     0.134 A 
ATOM     80  C   UNL A   1      45.434  33.399  28.358  1.00  0.00     0.134 A 
ATOM     81  F   UNL A   1      45.866  31.929  31.653  1.00  0.00    -0.206 F 
ATOM     82  C   UNL A   1      46.127  34.151  30.941  1.00  0.00     0.040 A 
ATOM     83  C   UNL A   1      45.751  34.730  28.633  1.00  0.00     0.040 A 
ATOM     84  F   UNL A   1      45.102  33.077  27.099  1.00  0.00    -0.206 F 
ATOM     85  C   UNL A   1      46.094  35.109  29.929  1.00  0.00     0.006 A 
ENDBRANCH  61  78
ENDBRANCH  35  36
ENDBRANCH  27  30
ENDBRANCH  25  26
ENDBRANCH  24  25
ENDBRANCH   1  24
TORSDOF 14
ENDMDL
MODEL 2
REMARK VINA RESULT:     -11.8      0.493      6.203
REMARK SMILES CC(=O)Oc1c(Cl)cc(-c2ccccc2)cc1C(=O)NCCCCNC(=O)c1ccc(-c2c3nc(c(-c4c(F)cccc4F)c4ccc([nH]4)c(-c4c(F)cccc4F)c4nc(c(-c5c(F)cccc5F)c5ccc2[nH]5)C=C4)C=C3)cc1
REMARK SMILES IDX 22 1 21 2 20 3 18 4 19 5 17 7 5 8 6 9 7 10 8 11 16 12 9 13
REMARK SMILES IDX 4 14 2 15 1 16 3 17 10 18 11 19 15 20 12 21 14 22 13 23
REMARK SMILES IDX 23 24 24 25 25 26 26 27 27 29 28 30 29 31 81 32 30 33 80 34
REMARK SMILES IDX 31 35 32 36 33 37 74 38 34 39 79 40 73 41 75 42 35 43 78 44
REMARK SMILES IDX 72 45 71 46 36 48 62 49 45 50 61 51 46 52 49 53 60 54 76 55
REMARK SMILES IDX 47 56 48 57 59 59 77 60 50 61 37 62 38 63 43 64 39 65 40 66
REMARK SMILES IDX 42 67 44 68 41 69 63 70 64 71 69 72 65 73 66 74 68 75 70 76
REMARK SMILES IDX 67 77 51 78 52 79 57 80 53 81 54 82 56 83 58 84 55 85
REMARK H PARENT 20 6 25 28 75 47 49 58
REMARK Flexibility Score: inf
ROOT
ATOM      1  C   UNL A   1      37.132  21.663  24.510  1.00  0.00     0.023 C 
ENDROOT
BRANCH   1   2
ATOM      2  C   UNL A   1      36.957  22.799  25.507  1.00  0.00     0.116 C 
BRANCH   2   3
ATOM      3  N   UNL A   1      35.818  22.731  26.379  1.00  0.00    -0.352 N 
ATOM      4  C   UNL A   1      34.604  23.368  26.282  1.00  0.00     0.255 C 
ATOM      5  O   UNL A   1      33.764  23.090  27.142  1.00  0.00    -0.269 OA
ATOM      6  H   UNL A   1      35.921  22.140  27.160  1.00  0.00     0.163 HD
BRANCH   4   7
ATOM      7  C   UNL A   1      34.245  24.409  25.263  1.00  0.00     0.084 A 
ATOM      8  C   UNL A   1      33.960  24.219  23.899  1.00  0.00     0.162 A 
ATOM      9  C   UNL A   1      33.426  25.281  23.141  1.00  0.00     0.085 A 
ATOM     10  Cl  UNL A   1      32.876  25.072  21.508  1.00  0.00    -0.080 Cl
ATOM     11  C   UNL A   1      33.245  26.543  23.702  1.00  0.00     0.033 A 
ATOM     12  C   UNL A   1      34.027  25.701  25.812  1.00  0.00     0.026 A 
ATOM     13  C   UNL A   1      33.534  26.777  25.049  1.00  0.00    -0.016 A 
BRANCH   8  14
ATOM     14  O   UNL A   1      34.083  22.969  23.275  1.00  0.00    -0.424 OA
BRANCH  14  15
ATOM     15  C   UNL A   1      32.989  22.131  23.523  1.00  0.00     0.308 C 
ATOM     16  C   UNL A   1      33.444  20.882  24.215  1.00  0.00     0.139 C 
ATOM     17  O   UNL A   1      31.841  22.314  23.136  1.00  0.00    -0.252 OA
ENDBRANCH  14  15
ENDBRANCH   8  14
BRANCH  13  18
ATOM     18  C   UNL A   1      33.261  28.103  25.631  1.00  0.00    -0.018 A 
ATOM     19  C   UNL A   1      34.098  28.625  26.635  1.00  0.00     0.009 A 
ATOM     20  C   UNL A   1      32.143  28.861  25.249  1.00  0.00     0.009 A 
ATOM     21  C   UNL A   1      33.819  29.847  27.251  1.00  0.00     0.001 A 
ATOM     22  C   UNL A   1      31.862  30.085  25.867  1.00  0.00     0.001 A 
ATOM     23  C   UNL A   1      32.697  30.574  26.870  1.00  0.00     0.000 A 
ENDBRANCH  13  18
ENDBRANCH   4   7
ENDBRANCH   2   3
ENDBRANCH   1   2
BRANCH   1  24
ATOM     24  C   UNL A   1      37.801  20.382  25.001  1.00  0.00     0.023 C 
BRANCH  24  25
ATOM     25  C   UNL A   1      39.056  20.521  25.856  1.00  0.00     0.116 C 
BRANCH  25  26
ATOM     26  N   UNL A   1      39.976  19.395  25.779  1.00  0.00    -0.352 N 
ATOM     27  C   UNL A   1      41.330  19.308  26.017  1.00  0.00     0.251 C 
ATOM     28  H   UNL A   1      39.557  18.545  25.509  1.00  0.00     0.163 HD
ATOM     29  O   UNL A   1      41.905  18.237  25.867  1.00  0.00    -0.269 OA
BRANCH  27  30
ATOM     30  C   UNL A   1      42.106  20.512  26.392  1.00  0.00     0.039 A 
ATOM     31  C   UNL A   1      42.691  21.275  25.376  1.00  0.00     0.014 A 
ATOM     32  C   UNL A   1      42.224  20.914  27.721  1.00  0.00     0.014 A 
ATOM     33  C   UNL A   1      43.279  22.505  25.684  1.00  0.00     0.010 A 
ATOM     34  C   UNL A   1      42.719  22.181  28.014  1.00  0.00     0.010 A 
ATOM     35  C   UNL A   1      43.235  22.999  26.997  1.00  0.00    -0.014 A 
BRANCH  35  36
ATOM     36  C   UNL A   1      43.693  24.374  27.330  1.00  0.00     0.031 A 
ATOM     37  C   UNL A   1      42.699  25.426  27.734  1.00  0.00     0.074 A 
ATOM     38  C   UNL A   1      44.991  24.703  27.171  1.00  0.00     0.049 A 
ATOM     39  N   UNL A   1      42.884  26.704  27.943  1.00  0.00    -0.248 NA
ATOM     40  C   UNL A   1      41.302  24.989  27.885  1.00  0.00     0.031 C 
ATOM     41  C   UNL A   1      46.051  23.793  26.729  1.00  0.00     0.029 A 
ATOM     42  N   UNL A   1      45.639  25.900  27.350  1.00  0.00    -0.354 N 
ATOM     43  C   UNL A   1      41.627  27.226  28.221  1.00  0.00     0.074 A 
ATOM     44  C   UNL A   1      40.682  26.138  28.101  1.00  0.00     0.031 C 
ATOM     45  C   UNL A   1      47.219  24.455  26.705  1.00  0.00     0.029 A 
ATOM     46  C   UNL A   1      46.986  25.844  27.088  1.00  0.00     0.049 A 
ATOM     47  H   UNL A   1      45.181  26.721  27.640  1.00  0.00     0.167 HD
ATOM     48  C   UNL A   1      41.292  28.492  28.570  1.00  0.00     0.037 A 
ATOM     49  C   UNL A   1      47.928  26.804  27.144  1.00  0.00     0.037 A 
ATOM     50  C   UNL A   1      42.238  29.565  28.730  1.00  0.00     0.049 A 
ATOM     51  C   UNL A   1      47.535  28.198  27.546  1.00  0.00     0.074 A 
ATOM     52  C   UNL A   1      42.007  30.863  29.151  1.00  0.00     0.029 A 
ATOM     53  N   UNL A   1      43.598  29.459  28.481  1.00  0.00    -0.354 N 
ATOM     54  N   UNL A   1      46.352  28.662  27.867  1.00  0.00    -0.248 NA
ATOM     55  C   UNL A   1      48.609  29.201  27.592  1.00  0.00     0.031 C 
ATOM     56  C   UNL A   1      43.225  31.552  29.126  1.00  0.00     0.029 A 
ATOM     57  C   UNL A   1      44.218  30.673  28.725  1.00  0.00     0.049 A 
ATOM     58  H   UNL A   1      44.055  28.642  28.176  1.00  0.00     0.167 HD
ATOM     59  C   UNL A   1      46.542  30.001  28.183  1.00  0.00     0.074 A 
ATOM     60  C   UNL A   1      47.957  30.271  28.022  1.00  0.00     0.031 C 
ATOM     61  C   UNL A   1      45.628  30.922  28.572  1.00  0.00     0.037 A 
BRANCH  48  62
ATOM     62  C   UNL A   1      39.838  28.774  28.808  1.00  0.00     0.057 A 
ATOM     63  C   UNL A   1      38.985  29.171  27.770  1.00  0.00     0.134 A 
ATOM     64  C   UNL A   1      39.282  28.644  30.087  1.00  0.00     0.134 A 
ATOM     65  F   UNL A   1      39.457  29.329  26.524  1.00  0.00    -0.206 F 
ATOM     66  C   UNL A   1      37.640  29.463  28.001  1.00  0.00     0.040 A 
ATOM     67  C   UNL A   1      37.932  28.906  30.325  1.00  0.00     0.040 A 
ATOM     68  F   UNL A   1      40.042  28.263  31.125  1.00  0.00    -0.206 F 
ATOM     69  C   UNL A   1      37.109  29.327  29.283  1.00  0.00     0.006 A 
ENDBRANCH  48  62
BRANCH  49  70
ATOM     70  C   UNL A   1      49.345  26.475  26.855  1.00  0.00     0.057 A 
ATOM     71  C   UNL A   1      49.835  26.515  25.544  1.00  0.00     0.134 A 
ATOM     72  C   UNL A   1      50.240  26.108  27.867  1.00  0.00     0.134 A 
ATOM     73  F   UNL A   1      49.020  26.842  24.531  1.00  0.00    -0.206 F 
ATOM     74  C   UNL A   1      51.158  26.188  25.247  1.00  0.00     0.040 A 
ATOM     75  C   UNL A   1      51.572  25.797  27.586  1.00  0.00     0.040 A 
ATOM     76  F   UNL A   1      49.834  26.055  29.144  1.00  0.00    -0.206 F 
ATOM     77  C   UNL A   1      52.032  25.832  26.271  1.00  0.00     0.006 A 
ENDBRANCH  49  70
BRANCH  61  78
ATOM     78  C   UNL A   1      46.135  32.297  28.891  1.00  0.00     0.057 A 
ATOM     79  C   UNL A   1      46.578  32.640  30.174  1.00  0.00     0.134 A 
ATOM     80  C   UNL A   1      46.215  33.275  27.892  1.00  0.00     0.134 A 
ATOM     81  F   UNL A   1      46.512  31.752  31.177  1.00  0.00    -0.206 F 
ATOM     82  C   UNL A   1      47.066  33.918  30.457  1.00  0.00     0.040 A 
ATOM     83  C   UNL A   1      46.722  34.548  28.158  1.00  0.00     0.040 A 
ATOM     84  F   UNL A   1      45.813  33.006  26.641  1.00  0.00    -0.206 F 
ATOM     85  C   UNL A   1      47.145  34.873  29.445  1.00  0.00     0.006 A 
ENDBRANCH  61  78
ENDBRANCH  35  36
ENDBRANCH  27  30
ENDBRANCH  25  26
ENDBRANCH  24  25
ENDBRANCH   1  24
TORSDOF 14
ENDMDL
MODEL 3
REMARK VINA RESULT:     -11.7      1.741      7.317
REMARK SMILES CC(=O)Oc1c(Cl)cc(-c2ccccc2)cc1C(=O)NCCCCNC(=O)c1ccc(-c2c3nc(c(-c4c(F)cccc4F)c4ccc([nH]4)c(-c4c(F)cccc4F)c4nc(c(-c5c(F)cccc5F)c5ccc2[nH]5)C=C4)C=C3)cc1
REMARK SMILES IDX 22 1 21 2 20 3 18 4 19 5 17 7 5 8 6 9 7 10 8 11 16 12 9 13
REMARK SMILES IDX 4 14 2 15 1 16 3 17 10 18 11 19 15 20 12 21 14 22 13 23
REMARK SMILES IDX 23 24 24 25 25 26 26 27 27 29 28 30 29 31 81 32 30 33 80 34
REMARK SMILES IDX 31 35 32 36 33 37 74 38 34 39 79 40 73 41 75 42 35 43 78 44
REMARK SMILES IDX 72 45 71 46 36 48 62 49 45 50 61 51 46 52 49 53 60 54 76 55
REMARK SMILES IDX 47 56 48 57 59 59 77 60 50 61 37 62 38 63 43 64 39 65 40 66
REMARK SMILES IDX 42 67 44 68 41 69 63 70 64 71 69 72 65 73 66 74 68 75 70 76
REMARK SMILES IDX 67 77 51 78 52 79 57 80 53 81 54 82 56 83 58 84 55 85
REMARK H PARENT 20 6 25 28 75 47 49 58
REMARK Flexibility Score: inf
ROOT
ATOM      1  C   UNL A   1      36.794  22.058  24.245  1.00  0.00     0.023 C 
ENDROOT
BRANCH   1   2
ATOM      2  C   UNL A   1      36.603  23.361  25.006  1.00  0.00     0.116 C 
BRANCH   2   3
ATOM      3  N   UNL A   1      36.111  23.265  26.351  1.00  0.00    -0.352 N 
ATOM      4  C   UNL A   1      34.944  22.707  26.817  1.00  0.00     0.255 C 
ATOM      5  O   UNL A   1      34.784  22.704  28.040  1.00  0.00    -0.269 OA
ATOM      6  H   UNL A   1      36.695  23.655  27.041  1.00  0.00     0.163 HD
BRANCH   4   7
ATOM      7  C   UNL A   1      33.836  22.166  25.964  1.00  0.00     0.084 A 
ATOM      8  C   UNL A   1      32.892  22.890  25.214  1.00  0.00     0.162 A 
ATOM      9  C   UNL A   1      32.061  22.216  24.295  1.00  0.00     0.085 A 
ATOM     10  Cl  UNL A   1      31.009  23.059  23.203  1.00  0.00    -0.080 Cl
ATOM     11  C   UNL A   1      32.106  20.829  24.172  1.00  0.00     0.033 A 
ATOM     12  C   UNL A   1      33.872  20.755  25.797  1.00  0.00     0.026 A 
ATOM     13  C   UNL A   1      33.016  20.071  24.913  1.00  0.00    -0.016 A 
BRANCH   8  14
ATOM     14  O   UNL A   1      32.814  24.290  25.258  1.00  0.00    -0.424 OA
BRANCH  14  15
ATOM     15  C   UNL A   1      31.808  24.748  26.118  1.00  0.00     0.308 C 
ATOM     16  C   UNL A   1      31.173  25.982  25.556  1.00  0.00     0.139 C 
ATOM     17  O   UNL A   1      31.548  24.294  27.227  1.00  0.00    -0.252 OA
ENDBRANCH  14  15
ENDBRANCH   8  14
BRANCH  13  18
ATOM     18  C   UNL A   1      33.089  18.615  24.705  1.00  0.00    -0.018 A 
ATOM     19  C   UNL A   1      32.589  17.731  25.680  1.00  0.00     0.009 A 
ATOM     20  C   UNL A   1      33.698  18.061  23.568  1.00  0.00     0.009 A 
ATOM     21  C   UNL A   1      32.712  16.347  25.537  1.00  0.00     0.001 A 
ATOM     22  C   UNL A   1      33.822  16.675  23.425  1.00  0.00     0.001 A 
ATOM     23  C   UNL A   1      33.333  15.820  24.411  1.00  0.00     0.000 A 
ENDBRANCH  13  18
ENDBRANCH   4   7
ENDBRANCH   2   3
ENDBRANCH   1   2
BRANCH   1  24
ATOM     24  C   UNL A   1      37.395  20.875  24.999  1.00  0.00     0.023 C 
BRANCH  24  25
ATOM     25  C   UNL A   1      38.699  21.106  25.755  1.00  0.00     0.116 C 
BRANCH  25  26
ATOM     26  N   UNL A   1      39.650  20.005  25.686  1.00  0.00    -0.352 N 
ATOM     27  C   UNL A   1      40.968  19.914  26.076  1.00  0.00     0.251 C 
ATOM     28  H   UNL A   1      39.286  19.179  25.291  1.00  0.00     0.163 HD
ATOM     29  O   UNL A   1      41.582  18.869  25.899  1.00  0.00    -0.269 OA
BRANCH  27  30
ATOM     30  C   UNL A   1      41.664  21.087  26.650  1.00  0.00     0.039 A 
ATOM     31  C   UNL A   1      42.191  22.046  25.779  1.00  0.00     0.014 A 
ATOM     32  C   UNL A   1      41.764  21.269  28.028  1.00  0.00     0.014 A 
ATOM     33  C   UNL A   1      42.697  23.244  26.290  1.00  0.00     0.010 A 
ATOM     34  C   UNL A   1      42.176  22.499  28.531  1.00  0.00     0.010 A 
ATOM     35  C   UNL A   1      42.630  23.508  27.667  1.00  0.00    -0.014 A 
BRANCH  35  36
ATOM     36  C   UNL A   1      42.997  24.835  28.227  1.00  0.00     0.031 A 
ATOM     37  C   UNL A   1      41.940  25.877  28.462  1.00  0.00     0.074 A 
ATOM     38  C   UNL A   1      44.296  25.139  28.428  1.00  0.00     0.049 A 
ATOM     39  N   UNL A   1      42.074  27.127  28.826  1.00  0.00    -0.248 NA
ATOM     40  C   UNL A   1      40.547  25.468  28.219  1.00  0.00     0.031 C 
ATOM     41  C   UNL A   1      45.427  24.240  28.185  1.00  0.00     0.029 A 
ATOM     42  N   UNL A   1      44.885  26.297  28.871  1.00  0.00    -0.354 N 
ATOM     43  C   UNL A   1      40.791  27.659  28.827  1.00  0.00     0.074 A 
ATOM     44  C   UNL A   1      39.900  26.613  28.376  1.00  0.00     0.031 C 
ATOM     45  C   UNL A   1      46.568  24.869  28.514  1.00  0.00     0.029 A 
ATOM     46  C   UNL A   1      46.254  26.225  28.950  1.00  0.00     0.049 A 
ATOM     47  H   UNL A   1      44.373  27.103  29.110  1.00  0.00     0.167 HD
ATOM     48  C   UNL A   1      40.387  28.899  29.194  1.00  0.00     0.037 A 
ATOM     49  C   UNL A   1      47.158  27.150  29.327  1.00  0.00     0.037 A 
ATOM     50  C   UNL A   1      41.268  29.926  29.682  1.00  0.00     0.049 A 
ATOM     51  C   UNL A   1      46.685  28.515  29.742  1.00  0.00     0.074 A 
ATOM     52  C   UNL A   1      40.948  31.189  30.147  1.00  0.00     0.029 A 
ATOM     53  N   UNL A   1      42.647  29.803  29.772  1.00  0.00    -0.354 N 
ATOM     54  N   UNL A   1      45.462  28.983  29.797  1.00  0.00    -0.248 NA
ATOM     55  C   UNL A   1      47.718  29.478  30.146  1.00  0.00     0.031 C 
ATOM     56  C   UNL A   1      42.137  31.843  30.489  1.00  0.00     0.029 A 
ATOM     57  C   UNL A   1      43.193  30.973  30.272  1.00  0.00     0.049 A 
ATOM     58  H   UNL A   1      43.161  29.003  29.519  1.00  0.00     0.167 HD
ATOM     59  C   UNL A   1      45.574  30.284  30.271  1.00  0.00     0.074 A 
ATOM     60  C   UNL A   1      46.986  30.527  30.494  1.00  0.00     0.031 C 
ATOM     61  C   UNL A   1      44.598  31.194  30.500  1.00  0.00     0.037 A 
BRANCH  48  62
ATOM     62  C   UNL A   1      38.922  29.201  29.085  1.00  0.00     0.057 A 
ATOM     63  C   UNL A   1      38.067  29.113  30.192  1.00  0.00     0.134 A 
ATOM     64  C   UNL A   1      38.358  29.589  27.864  1.00  0.00     0.134 A 
ATOM     65  F   UNL A   1      38.541  28.732  31.389  1.00  0.00    -0.206 F 
ATOM     66  C   UNL A   1      36.699  29.364  30.081  1.00  0.00     0.040 A 
ATOM     67  C   UNL A   1      36.995  29.870  27.746  1.00  0.00     0.040 A 
ATOM     68  F   UNL A   1      39.119  29.699  26.765  1.00  0.00    -0.206 F 
ATOM     69  C   UNL A   1      36.160  29.747  28.855  1.00  0.00     0.006 A 
ENDBRANCH  48  62
BRANCH  49  70
ATOM     70  C   UNL A   1      48.600  26.806  29.373  1.00  0.00     0.057 A 
ATOM     71  C   UNL A   1      49.419  27.010  28.256  1.00  0.00     0.134 A 
ATOM     72  C   UNL A   1      49.195  26.264  30.519  1.00  0.00     0.134 A 
ATOM     73  F   UNL A   1      48.902  27.509  27.124  1.00  0.00    -0.206 F 
ATOM     74  C   UNL A   1      50.773  26.673  28.270  1.00  0.00     0.040 A 
ATOM     75  C   UNL A   1      50.552  25.941  30.553  1.00  0.00     0.040 A 
ATOM     76  F   UNL A   1      48.465  26.050  31.623  1.00  0.00    -0.206 F 
ATOM     77  C   UNL A   1      51.344  26.141  29.424  1.00  0.00     0.006 A 
ENDBRANCH  49  70
BRANCH  61  78
ATOM     78  C   UNL A   1      45.017  32.521  31.059  1.00  0.00     0.057 A 
ATOM     79  C   UNL A   1      45.131  32.738  32.438  1.00  0.00     0.134 A 
ATOM     80  C   UNL A   1      45.345  33.581  30.204  1.00  0.00     0.134 A 
ATOM     81  F   UNL A   1      44.817  31.767  33.308  1.00  0.00    -0.206 F 
ATOM     82  C   UNL A   1      45.540  33.972  32.948  1.00  0.00     0.040 A 
ATOM     83  C   UNL A   1      45.776  34.811  30.702  1.00  0.00     0.040 A 
ATOM     84  F   UNL A   1      45.261  33.434  28.873  1.00  0.00    -0.206 F 
ATOM     85  C   UNL A   1      45.870  35.010  32.078  1.00  0.00     0.006 A 
ENDBRANCH  61  78
ENDBRANCH  35  36
ENDBRANCH  27  30
ENDBRANCH  25  26
ENDBRANCH  24  25
ENDBRANCH   1  24
TORSDOF 14
ENDMDL
