MODEL 1
REMARK VINA RESULT:     -12.1      0.000      0.000
REMARK SMILES C[C@@H]1C[C@H](C)C[C@H]([N@H+]2[C@@H](C(=O)NCCCCNC(=O)c3ccc(-c4c5nc(c(-c6c(F)cccc6F)c6ccc([nH]6)c(-c6c(F)cccc6F)c6nc(c(-c7c(F)cccc7F)c7ccc4[nH]7)C=C6)C=C5)cc3)CC[C@@H]3CCCC[C@@H]32)C1
REMARK SMILES IDX 15 1 14 2 13 3 12 4 10 5 11 6 9 8 8 9 81 10 74 12 76 13
REMARK SMILES IDX 80 14 75 15 77 16 79 17 78 18 7 19 5 20 4 21 6 22 3 23 2 24
REMARK SMILES IDX 82 25 1 26 16 27 17 28 18 29 19 31 20 32 21 33 73 34 22 35
REMARK SMILES IDX 72 36 23 37 24 38 25 39 66 40 26 41 71 42 65 43 67 44 27 45
REMARK SMILES IDX 70 46 64 47 63 48 28 50 54 51 37 52 53 53 38 54 41 55 52 56
REMARK SMILES IDX 68 57 39 58 40 59 51 61 69 62 42 63 29 64 30 65 35 66 31 67
REMARK SMILES IDX 32 68 34 69 36 70 33 71 55 72 56 73 61 74 57 75 58 76 60 77
REMARK SMILES IDX 62 78 59 79 43 80 44 81 49 82 45 83 46 84 48 85 50 86 47 87
REMARK H PARENT 12 7 8 11 17 30 67 49 41 60
REMARK Flexibility Score: inf
ROOT
ATOM      1  C   UNL A   1      37.465  20.527  24.639  1.00  0.00     0.023 C 
ENDROOT
BRANCH   1   2
ATOM      2  C   UNL A   1      36.939  21.854  24.103  1.00  0.00     0.023 C 
BRANCH   2   3
ATOM      3  C   UNL A   1      37.110  23.023  25.060  1.00  0.00     0.116 C 
BRANCH   3   4
ATOM      4  N   UNL A   1      35.988  23.202  25.947  1.00  0.00    -0.351 N 
ATOM      5  C   UNL A   1      34.773  23.790  25.798  1.00  0.00     0.278 C 
ATOM      6  O   UNL A   1      34.051  23.719  26.804  1.00  0.00    -0.268 OA
ATOM      7  H   UNL A   1      36.132  22.819  26.843  1.00  0.00     0.163 HD
BRANCH   5   8
ATOM      8  C   UNL A   1      34.299  24.585  24.526  1.00  0.00     0.274 C 
ATOM      9  N   UNL A   1      33.250  25.632  24.886  1.00  0.00    -0.320 N 
ATOM     10  C   UNL A   1      32.001  24.931  25.300  1.00  0.00     0.188 C 
ATOM     11  H   UNL A   1      32.664  26.220  24.293  1.00  0.00     0.349 HD
ATOM     12  C   UNL A   1      33.823  23.918  23.249  1.00  0.00     0.076 C 
ATOM     13  C   UNL A   1      31.426  24.114  24.088  1.00  0.00     0.048 C 
ATOM     14  C   UNL A   1      30.723  25.468  25.990  1.00  0.00     0.065 C 
ATOM     15  C   UNL A   1      32.456  23.271  23.352  1.00  0.00     0.016 C 
ATOM     16  C   UNL A   1      30.661  24.971  23.079  1.00  0.00     0.010 C 
ATOM     17  C   UNL A   1      29.510  25.956  25.182  1.00  0.00     0.006 C 
ATOM     18  C   UNL A   1      29.484  25.722  23.676  1.00  0.00     0.001 C 
BRANCH   9  19
ATOM     19  C   UNL A   1      33.953  26.877  25.311  1.00  0.00     0.185 C 
ATOM     20  C   UNL A   1      31.664  28.289  23.630  1.00  0.00     0.008 C 
ATOM     21  C   UNL A   1      32.965  28.912  24.061  1.00  0.00    -0.008 C 
ATOM     22  C   UNL A   1      34.067  27.860  24.122  1.00  0.00     0.068 C 
ATOM     23  C   UNL A   1      32.780  29.676  25.380  1.00  0.00     0.007 C 
ATOM     24  C   UNL A   1      32.951  28.887  26.695  1.00  0.00    -0.008 C 
ATOM     25  C   UNL A   1      33.891  27.685  26.616  1.00  0.00     0.068 C 
ATOM     26  C   UNL A   1      31.668  28.511  27.424  1.00  0.00     0.008 C 
ENDBRANCH   9  19
ENDBRANCH   5   8
ENDBRANCH   3   4
ENDBRANCH   2   3
ENDBRANCH   1   2
BRANCH   1  27
ATOM     27  C   UNL A   1      38.533  20.647  25.723  1.00  0.00     0.116 C 
BRANCH  27  28
ATOM     28  N   UNL A   1      39.573  19.632  25.630  1.00  0.00    -0.352 N 
ATOM     29  C   UNL A   1      40.898  19.734  25.964  1.00  0.00     0.251 C 
ATOM     30  H   UNL A   1      39.287  18.757  25.282  1.00  0.00     0.163 HD
ATOM     31  O   UNL A   1      41.674  18.810  25.721  1.00  0.00    -0.269 OA
BRANCH  29  32
ATOM     32  C   UNL A   1      41.396  20.978  26.580  1.00  0.00     0.039 A 
ATOM     33  C   UNL A   1      41.934  21.966  25.754  1.00  0.00     0.014 A 
ATOM     34  C   UNL A   1      41.294  21.183  27.959  1.00  0.00     0.014 A 
ATOM     35  C   UNL A   1      42.316  23.186  26.307  1.00  0.00     0.010 A 
ATOM     36  C   UNL A   1      41.595  22.431  28.493  1.00  0.00     0.010 A 
ATOM     37  C   UNL A   1      42.115  23.443  27.675  1.00  0.00    -0.014 A 
BRANCH  37  38
ATOM     38  C   UNL A   1      42.442  24.772  28.247  1.00  0.00     0.031 A 
ATOM     39  C   UNL A   1      43.848  25.096  28.666  1.00  0.00     0.074 A 
ATOM     40  C   UNL A   1      41.459  25.677  28.413  1.00  0.00     0.049 A 
ATOM     41  N   UNL A   1      44.326  26.212  29.157  1.00  0.00    -0.248 NA
ATOM     42  C   UNL A   1      44.846  24.021  28.543  1.00  0.00     0.031 C 
ATOM     43  C   UNL A   1      40.044  25.457  28.105  1.00  0.00     0.029 A 
ATOM     44  N   UNL A   1      41.500  26.968  28.876  1.00  0.00    -0.354 N 
ATOM     45  C   UNL A   1      45.673  25.971  29.400  1.00  0.00     0.074 A 
ATOM     46  C   UNL A   1      45.921  24.586  29.069  1.00  0.00     0.031 C 
ATOM     47  C   UNL A   1      39.361  26.586  28.345  1.00  0.00     0.029 A 
ATOM     48  C   UNL A   1      40.280  27.599  28.857  1.00  0.00     0.049 A 
ATOM     49  H   UNL A   1      42.326  27.401  29.192  1.00  0.00     0.167 HD
ATOM     50  C   UNL A   1      46.623  26.836  29.831  1.00  0.00     0.037 A 
ATOM     51  C   UNL A   1      39.942  28.853  29.206  1.00  0.00     0.037 A 
ATOM     52  C   UNL A   1      46.371  28.217  30.151  1.00  0.00     0.049 A 
ATOM     53  C   UNL A   1      41.015  29.791  29.686  1.00  0.00     0.074 A 
ATOM     54  C   UNL A   1      47.273  29.189  30.547  1.00  0.00     0.029 A 
ATOM     55  N   UNL A   1      45.122  28.820  30.118  1.00  0.00    -0.354 N 
ATOM     56  N   UNL A   1      42.300  29.576  29.831  1.00  0.00    -0.248 NA
ATOM     57  C   UNL A   1      40.590  31.152  30.038  1.00  0.00     0.031 C 
ATOM     58  C   UNL A   1      46.562  30.366  30.805  1.00  0.00     0.029 A 
ATOM     59  C   UNL A   1      45.226  30.145  30.512  1.00  0.00     0.049 A 
ATOM     60  H   UNL A   1      44.286  28.374  29.854  1.00  0.00     0.167 HD
ATOM     61  C   UNL A   1      42.841  30.779  30.265  1.00  0.00     0.074 A 
ATOM     62  C   UNL A   1      41.747  31.726  30.333  1.00  0.00     0.031 C 
ATOM     63  C   UNL A   1      44.126  31.074  30.580  1.00  0.00     0.037 A 
BRANCH  50  64
ATOM     64  C   UNL A   1      48.022  26.308  29.978  1.00  0.00     0.057 A 
ATOM     65  C   UNL A   1      48.945  26.356  28.923  1.00  0.00     0.134 A 
ATOM     66  C   UNL A   1      48.463  25.774  31.195  1.00  0.00     0.134 A 
ATOM     67  F   UNL A   1      48.585  26.842  27.726  1.00  0.00    -0.206 F 
ATOM     68  C   UNL A   1      50.245  25.865  29.065  1.00  0.00     0.040 A 
ATOM     69  C   UNL A   1      49.769  25.308  31.359  1.00  0.00     0.040 A 
ATOM     70  F   UNL A   1      47.635  25.702  32.248  1.00  0.00    -0.206 F 
ATOM     71  C   UNL A   1      50.661  25.346  30.289  1.00  0.00     0.006 A 
ENDBRANCH  50  64
BRANCH  51  72
ATOM     72  C   UNL A   1      38.533  29.308  29.086  1.00  0.00     0.057 A 
ATOM     73  C   UNL A   1      37.677  29.317  30.193  1.00  0.00     0.134 A 
ATOM     74  C   UNL A   1      38.005  29.731  27.859  1.00  0.00     0.134 A 
ATOM     75  F   UNL A   1      38.118  28.909  31.391  1.00  0.00    -0.206 F 
ATOM     76  C   UNL A   1      36.340  29.704  30.082  1.00  0.00     0.040 A 
ATOM     77  C   UNL A   1      36.678  30.148  27.740  1.00  0.00     0.040 A 
ATOM     78  F   UNL A   1      38.774  29.757  26.762  1.00  0.00    -0.206 F 
ATOM     79  C   UNL A   1      35.839  30.126  28.853  1.00  0.00     0.006 A 
ENDBRANCH  51  72
BRANCH  63  80
ATOM     80  C   UNL A   1      44.417  32.489  30.996  1.00  0.00     0.057 A 
ATOM     81  C   UNL A   1      44.393  32.889  32.338  1.00  0.00     0.134 A 
ATOM     82  C   UNL A   1      44.733  33.462  30.038  1.00  0.00     0.134 A 
ATOM     83  F   UNL A   1      44.087  32.010  33.305  1.00  0.00    -0.206 F 
ATOM     84  C   UNL A   1      44.630  34.213  32.710  1.00  0.00     0.040 A 
ATOM     85  C   UNL A   1      45.006  34.782  30.400  1.00  0.00     0.040 A 
ATOM     86  F   UNL A   1      44.787  33.147  28.735  1.00  0.00    -0.206 F 
ATOM     87  C   UNL A   1      44.943  35.163  31.739  1.00  0.00     0.006 A 
ENDBRANCH  63  80
ENDBRANCH  37  38
ENDBRANCH  29  32
ENDBRANCH  27  28
ENDBRANCH   1  27
TORSDOF 12
ENDMDL
MODEL 2
REMARK VINA RESULT:     -11.9      0.471      6.210
REMARK SMILES C[C@@H]1C[C@H](C)C[C@H]([N@H+]2[C@@H](C(=O)NCCCCNC(=O)c3ccc(-c4c5nc(c(-c6c(F)cccc6F)c6ccc([nH]6)c(-c6c(F)cccc6F)c6nc(c(-c7c(F)cccc7F)c7ccc4[nH]7)C=C6)C=C5)cc3)CC[C@@H]3CCCC[C@@H]32)C1
REMARK SMILES IDX 15 1 14 2 13 3 12 4 10 5 11 6 9 8 8 9 81 10 74 12 76 13
REMARK SMILES IDX 80 14 75 15 77 16 79 17 78 18 7 19 5 20 4 21 6 22 3 23 2 24
REMARK SMILES IDX 82 25 1 26 16 27 17 28 18 29 19 31 20 32 21 33 73 34 22 35
REMARK SMILES IDX 72 36 23 37 24 38 25 39 66 40 26 41 71 42 65 43 67 44 27 45
REMARK SMILES IDX 70 46 64 47 63 48 28 50 54 51 37 52 53 53 38 54 41 55 52 56
REMARK SMILES IDX 68 57 39 58 40 59 51 61 69 62 42 63 29 64 30 65 35 66 31 67
REMARK SMILES IDX 32 68 34 69 36 70 33 71 55 72 56 73 61 74 57 75 58 76 60 77
REMARK SMILES IDX 62 78 59 79 43 80 44 81 49 82 45 83 46 84 48 85 50 86 47 87
REMARK H PARENT 12 7 8 11 17 30 67 49 41 60
REMARK Flexibility Score: inf
ROOT
ATOM      1  C   UNL A   1      37.561  20.306  24.847  1.00  0.00     0.023 C 
ENDROOT
BRANCH   1   2
ATOM      2  C   UNL A   1      36.833  21.529  24.298  1.00  0.00     0.023 C 
BRANCH   2   3
ATOM      3  C   UNL A   1      37.015  22.787  25.132  1.00  0.00     0.116 C 
BRANCH   3   4
ATOM      4  N   UNL A   1      35.914  23.042  26.026  1.00  0.00    -0.351 N 
ATOM      5  C   UNL A   1      34.722  23.674  25.872  1.00  0.00     0.278 C 
ATOM      6  O   UNL A   1      34.011  23.668  26.889  1.00  0.00    -0.268 OA
ATOM      7  H   UNL A   1      36.054  22.685  26.933  1.00  0.00     0.163 HD
BRANCH   5   8
ATOM      8  C   UNL A   1      34.262  24.444  24.579  1.00  0.00     0.274 C 
ATOM      9  N   UNL A   1      33.231  25.517  24.910  1.00  0.00    -0.320 N 
ATOM     10  C   UNL A   1      31.970  24.849  25.339  1.00  0.00     0.188 C 
ATOM     11  H   UNL A   1      32.656  26.099  24.300  1.00  0.00     0.349 HD
ATOM     12  C   UNL A   1      33.776  23.751  23.319  1.00  0.00     0.076 C 
ATOM     13  C   UNL A   1      31.382  24.010  24.149  1.00  0.00     0.048 C 
ATOM     14  C   UNL A   1      30.701  25.425  26.013  1.00  0.00     0.065 C 
ATOM     15  C   UNL A   1      32.399  23.130  23.436  1.00  0.00     0.016 C 
ATOM     16  C   UNL A   1      30.634  24.852  23.116  1.00  0.00     0.010 C 
ATOM     17  C   UNL A   1      29.497  25.912  25.191  1.00  0.00     0.006 C 
ATOM     18  C   UNL A   1      29.469  25.639  23.692  1.00  0.00     0.001 C 
BRANCH   9  19
ATOM     19  C   UNL A   1      33.954  26.761  25.302  1.00  0.00     0.185 C 
ATOM     20  C   UNL A   1      31.693  28.167  23.580  1.00  0.00     0.008 C 
ATOM     21  C   UNL A   1      33.004  28.779  23.997  1.00  0.00    -0.008 C 
ATOM     22  C   UNL A   1      34.087  27.709  24.089  1.00  0.00     0.068 C 
ATOM     23  C   UNL A   1      32.830  29.580  25.295  1.00  0.00     0.007 C 
ATOM     24  C   UNL A   1      32.985  28.824  26.631  1.00  0.00    -0.008 C 
ATOM     25  C   UNL A   1      33.904  27.604  26.586  1.00  0.00     0.068 C 
ATOM     26  C   UNL A   1      31.694  28.489  27.367  1.00  0.00     0.008 C 
ENDBRANCH   9  19
ENDBRANCH   5   8
ENDBRANCH   3   4
ENDBRANCH   2   3
ENDBRANCH   1   2
BRANCH   1  27
ATOM     27  C   UNL A   1      38.766  20.615  25.731  1.00  0.00     0.116 C 
BRANCH  27  28
ATOM     28  N   UNL A   1      39.753  19.545  25.764  1.00  0.00    -0.352 N 
ATOM     29  C   UNL A   1      41.071  19.610  26.132  1.00  0.00     0.251 C 
ATOM     30  H   UNL A   1      39.431  18.657  25.486  1.00  0.00     0.163 HD
ATOM     31  O   UNL A   1      41.804  18.629  25.999  1.00  0.00    -0.269 OA
BRANCH  29  32
ATOM     32  C   UNL A   1      41.616  20.878  26.651  1.00  0.00     0.039 A 
ATOM     33  C   UNL A   1      42.145  21.800  25.745  1.00  0.00     0.014 A 
ATOM     34  C   UNL A   1      41.569  21.172  28.017  1.00  0.00     0.014 A 
ATOM     35  C   UNL A   1      42.572  23.043  26.207  1.00  0.00     0.010 A 
ATOM     36  C   UNL A   1      41.915  22.443  28.460  1.00  0.00     0.010 A 
ATOM     37  C   UNL A   1      42.426  23.389  27.562  1.00  0.00    -0.014 A 
BRANCH  37  38
ATOM     38  C   UNL A   1      42.801  24.743  28.037  1.00  0.00     0.031 A 
ATOM     39  C   UNL A   1      41.748  25.796  28.245  1.00  0.00     0.074 A 
ATOM     40  C   UNL A   1      44.099  25.030  28.253  1.00  0.00     0.049 A 
ATOM     41  N   UNL A   1      41.884  27.022  28.683  1.00  0.00    -0.248 NA
ATOM     42  C   UNL A   1      40.365  25.435  27.895  1.00  0.00     0.031 C 
ATOM     43  C   UNL A   1      45.218  24.114  28.024  1.00  0.00     0.029 A 
ATOM     44  N   UNL A   1      44.697  26.173  28.721  1.00  0.00    -0.354 N 
ATOM     45  C   UNL A   1      40.609  27.575  28.657  1.00  0.00     0.074 A 
ATOM     46  C   UNL A   1      39.726  26.576  28.099  1.00  0.00     0.031 C 
ATOM     47  C   UNL A   1      46.360  24.713  28.393  1.00  0.00     0.029 A 
ATOM     48  C   UNL A   1      46.060  26.067  28.850  1.00  0.00     0.049 A 
ATOM     49  H   UNL A   1      44.196  26.991  28.943  1.00  0.00     0.167 HD
ATOM     50  C   UNL A   1      40.207  28.794  29.090  1.00  0.00     0.037 A 
ATOM     51  C   UNL A   1      46.965  26.958  29.294  1.00  0.00     0.037 A 
ATOM     52  C   UNL A   1      41.089  29.782  29.654  1.00  0.00     0.049 A 
ATOM     53  C   UNL A   1      46.492  28.305  29.764  1.00  0.00     0.074 A 
ATOM     54  C   UNL A   1      40.774  31.027  30.170  1.00  0.00     0.029 A 
ATOM     55  N   UNL A   1      42.464  29.638  29.771  1.00  0.00    -0.354 N 
ATOM     56  N   UNL A   1      45.273  28.785  29.814  1.00  0.00    -0.248 NA
ATOM     57  C   UNL A   1      47.523  29.231  30.252  1.00  0.00     0.031 C 
ATOM     58  C   UNL A   1      41.964  31.658  30.548  1.00  0.00     0.029 A 
ATOM     59  C   UNL A   1      43.015  30.782  30.326  1.00  0.00     0.049 A 
ATOM     60  H   UNL A   1      42.974  28.841  29.499  1.00  0.00     0.167 HD
ATOM     61  C   UNL A   1      45.386  30.056  30.362  1.00  0.00     0.074 A 
ATOM     62  C   UNL A   1      46.791  30.260  30.652  1.00  0.00     0.031 C 
ATOM     63  C   UNL A   1      44.417  30.973  30.604  1.00  0.00     0.037 A 
BRANCH  50  64
ATOM     64  C   UNL A   1      38.745  29.123  28.970  1.00  0.00     0.057 A 
ATOM     65  C   UNL A   1      37.871  29.016  30.061  1.00  0.00     0.134 A 
ATOM     66  C   UNL A   1      38.210  29.579  27.759  1.00  0.00     0.134 A 
ATOM     67  F   UNL A   1      38.314  28.571  31.247  1.00  0.00    -0.206 F 
ATOM     68  C   UNL A   1      36.514  29.323  29.945  1.00  0.00     0.040 A 
ATOM     69  C   UNL A   1      36.861  29.919  27.638  1.00  0.00     0.040 A 
ATOM     70  F   UNL A   1      38.990  29.711  26.675  1.00  0.00    -0.206 F 
ATOM     71  C   UNL A   1      36.007  29.783  28.731  1.00  0.00     0.006 A 
ENDBRANCH  50  64
BRANCH  51  72
ATOM     72  C   UNL A   1      48.405  26.597  29.347  1.00  0.00     0.057 A 
ATOM     73  C   UNL A   1      49.269  26.904  28.289  1.00  0.00     0.134 A 
ATOM     74  C   UNL A   1      48.949  25.924  30.449  1.00  0.00     0.134 A 
ATOM     75  F   UNL A   1      48.806  27.533  27.200  1.00  0.00    -0.206 F 
ATOM     76  C   UNL A   1      50.615  26.533  28.312  1.00  0.00     0.040 A 
ATOM     77  C   UNL A   1      50.300  25.573  30.497  1.00  0.00     0.040 A 
ATOM     78  F   UNL A   1      48.179  25.610  31.499  1.00  0.00    -0.206 F 
ATOM     79  C   UNL A   1      51.134  25.869  29.421  1.00  0.00     0.006 A 
ENDBRANCH  51  72
BRANCH  63  80
ATOM     80  C   UNL A   1      44.844  32.265  31.240  1.00  0.00     0.057 A 
ATOM     81  C   UNL A   1      44.893  32.429  32.630  1.00  0.00     0.134 A 
ATOM     82  C   UNL A   1      45.219  33.358  30.448  1.00  0.00     0.134 A 
ATOM     83  F   UNL A   1      44.536  31.425  33.447  1.00  0.00    -0.206 F 
ATOM     84  C   UNL A   1      45.257  33.645  33.210  1.00  0.00     0.040 A 
ATOM     85  C   UNL A   1      45.618  34.569  31.016  1.00  0.00     0.040 A 
ATOM     86  F   UNL A   1      45.208  33.269  29.110  1.00  0.00    -0.206 F 
ATOM     87  C   UNL A   1      45.627  34.718  32.401  1.00  0.00     0.006 A 
ENDBRANCH  63  80
ENDBRANCH  37  38
ENDBRANCH  29  32
ENDBRANCH  27  28
ENDBRANCH   1  27
TORSDOF 12
ENDMDL
MODEL 3
REMARK VINA RESULT:     -11.8      1.385      1.849
REMARK SMILES C[C@@H]1C[C@H](C)C[C@H]([N@H+]2[C@@H](C(=O)NCCCCNC(=O)c3ccc(-c4c5nc(c(-c6c(F)cccc6F)c6ccc([nH]6)c(-c6c(F)cccc6F)c6nc(c(-c7c(F)cccc7F)c7ccc4[nH]7)C=C6)C=C5)cc3)CC[C@@H]3CCCC[C@@H]32)C1
REMARK SMILES IDX 15 1 14 2 13 3 12 4 10 5 11 6 9 8 8 9 81 10 74 12 76 13
REMARK SMILES IDX 80 14 75 15 77 16 79 17 78 18 7 19 5 20 4 21 6 22 3 23 2 24
REMARK SMILES IDX 82 25 1 26 16 27 17 28 18 29 19 31 20 32 21 33 73 34 22 35
REMARK SMILES IDX 72 36 23 37 24 38 25 39 66 40 26 41 71 42 65 43 67 44 27 45
REMARK SMILES IDX 70 46 64 47 63 48 28 50 54 51 37 52 53 53 38 54 41 55 52 56
REMARK SMILES IDX 68 57 39 58 40 59 51 61 69 62 42 63 29 64 30 65 35 66 31 67
REMARK SMILES IDX 32 68 34 69 36 70 33 71 55 72 56 73 61 74 57 75 58 76 60 77
REMARK SMILES IDX 62 78 59 79 43 80 44 81 49 82 45 83 46 84 48 85 50 86 47 87
REMARK H PARENT 12 7 8 11 17 30 67 49 41 60
REMARK Flexibility Score: inf
ROOT
ATOM      1  C   UNL A   1      37.783  19.975  24.708  1.00  0.00     0.023 C 
ENDROOT
BRANCH   1   2
ATOM      2  C   UNL A   1      36.466  20.679  25.022  1.00  0.00     0.023 C 
BRANCH   2   3
ATOM      3  C   UNL A   1      36.605  22.172  25.275  1.00  0.00     0.116 C 
BRANCH   3   4
ATOM      4  N   UNL A   1      35.614  22.690  26.184  1.00  0.00    -0.351 N 
ATOM      5  C   UNL A   1      34.534  23.496  26.016  1.00  0.00     0.278 C 
ATOM      6  O   UNL A   1      33.892  23.704  27.057  1.00  0.00    -0.268 OA
ATOM      7  H   UNL A   1      35.746  22.400  27.115  1.00  0.00     0.163 HD
BRANCH   5   8
ATOM      8  C   UNL A   1      34.132  24.209  24.672  1.00  0.00     0.274 C 
ATOM      9  N   UNL A   1      33.153  25.350  24.922  1.00  0.00    -0.320 N 
ATOM     10  C   UNL A   1      31.853  24.772  25.368  1.00  0.00     0.188 C 
ATOM     11  H   UNL A   1      32.616  25.923  24.269  1.00  0.00     0.349 HD
ATOM     12  C   UNL A   1      33.630  23.467  23.448  1.00  0.00     0.076 C 
ATOM     13  C   UNL A   1      31.240  23.894  24.220  1.00  0.00     0.048 C 
ATOM     14  C   UNL A   1      30.605  25.451  25.985  1.00  0.00     0.065 C 
ATOM     15  C   UNL A   1      32.221  22.924  23.578  1.00  0.00     0.016 C 
ATOM     16  C   UNL A   1      30.550  24.709  23.126  1.00  0.00     0.010 C 
ATOM     17  C   UNL A   1      29.439  25.946  25.116  1.00  0.00     0.006 C 
ATOM     18  C   UNL A   1      29.418  25.586  23.634  1.00  0.00     0.001 C 
BRANCH   9  19
ATOM     19  C   UNL A   1      33.932  26.578  25.252  1.00  0.00     0.185 C 
ATOM     20  C   UNL A   1      31.704  28.005  23.504  1.00  0.00     0.008 C 
ATOM     21  C   UNL A   1      33.045  28.578  23.878  1.00  0.00    -0.008 C 
ATOM     22  C   UNL A   1      34.085  27.469  23.998  1.00  0.00     0.068 C 
ATOM     23  C   UNL A   1      32.925  29.439  25.143  1.00  0.00     0.007 C 
ATOM     24  C   UNL A   1      33.069  28.732  26.507  1.00  0.00    -0.008 C 
ATOM     25  C   UNL A   1      33.937  27.474  26.500  1.00  0.00     0.068 C 
ATOM     26  C   UNL A   1      31.778  28.481  27.274  1.00  0.00     0.008 C 
ENDBRANCH   9  19
ENDBRANCH   5   8
ENDBRANCH   3   4
ENDBRANCH   2   3
ENDBRANCH   1   2
BRANCH   1  27
ATOM     27  C   UNL A   1      38.892  20.193  25.733  1.00  0.00     0.116 C 
BRANCH  27  28
ATOM     28  N   UNL A   1      39.884  19.127  25.751  1.00  0.00    -0.352 N 
ATOM     29  C   UNL A   1      41.227  19.215  26.011  1.00  0.00     0.251 C 
ATOM     30  H   UNL A   1      39.547  18.225  25.551  1.00  0.00     0.163 HD
ATOM     31  O   UNL A   1      41.953  18.229  25.878  1.00  0.00    -0.269 OA
BRANCH  29  32
ATOM     32  C   UNL A   1      41.804  20.512  26.410  1.00  0.00     0.039 A 
ATOM     33  C   UNL A   1      42.198  21.406  25.413  1.00  0.00     0.014 A 
ATOM     34  C   UNL A   1      41.917  20.860  27.759  1.00  0.00     0.014 A 
ATOM     35  C   UNL A   1      42.652  22.674  25.771  1.00  0.00     0.010 A 
ATOM     36  C   UNL A   1      42.286  22.153  28.109  1.00  0.00     0.010 A 
ATOM     37  C   UNL A   1      42.664  23.071  27.120  1.00  0.00    -0.014 A 
BRANCH  37  38
ATOM     38  C   UNL A   1      43.064  24.450  27.494  1.00  0.00     0.031 A 
ATOM     39  C   UNL A   1      44.505  24.872  27.417  1.00  0.00     0.074 A 
ATOM     40  C   UNL A   1      42.127  25.313  27.930  1.00  0.00     0.049 A 
ATOM     41  N   UNL A   1      45.037  26.040  27.675  1.00  0.00    -0.248 NA
ATOM     42  C   UNL A   1      45.482  23.844  27.025  1.00  0.00     0.031 C 
ATOM     43  C   UNL A   1      40.707  25.001  28.109  1.00  0.00     0.029 A 
ATOM     44  N   UNL A   1      42.225  26.632  28.295  1.00  0.00    -0.354 N 
ATOM     45  C   UNL A   1      46.403  25.885  27.478  1.00  0.00     0.074 A 
ATOM     46  C   UNL A   1      46.627  24.496  27.146  1.00  0.00     0.031 C 
ATOM     47  C   UNL A   1      40.061  26.108  28.507  1.00  0.00     0.029 A 
ATOM     48  C   UNL A   1      41.023  27.197  28.645  1.00  0.00     0.049 A 
ATOM     49  H   UNL A   1      43.077  27.126  28.305  1.00  0.00     0.167 HD
ATOM     50  C   UNL A   1      47.379  26.823  27.536  1.00  0.00     0.037 A 
ATOM     51  C   UNL A   1      40.730  28.452  29.028  1.00  0.00     0.037 A 
ATOM     52  C   UNL A   1      47.148  28.207  27.858  1.00  0.00     0.049 A 
ATOM     53  C   UNL A   1      41.832  29.473  29.090  1.00  0.00     0.074 A 
ATOM     54  C   UNL A   1      48.060  29.248  27.895  1.00  0.00     0.029 A 
ATOM     55  N   UNL A   1      45.917  28.743  28.206  1.00  0.00    -0.354 N 
ATOM     56  N   UNL A   1      43.107  29.333  28.819  1.00  0.00    -0.248 NA
ATOM     57  C   UNL A   1      41.450  30.831  29.499  1.00  0.00     0.031 C 
ATOM     58  C   UNL A   1      47.390  30.402  28.317  1.00  0.00     0.029 A 
ATOM     59  C   UNL A   1      46.050  30.095  28.484  1.00  0.00     0.049 A 
ATOM     60  H   UNL A   1      45.073  28.238  28.249  1.00  0.00     0.167 HD
ATOM     61  C   UNL A   1      43.675  30.588  28.998  1.00  0.00     0.074 A 
ATOM     62  C   UNL A   1      42.597  31.481  29.376  1.00  0.00     0.031 C 
ATOM     63  C   UNL A   1      44.969  30.969  28.864  1.00  0.00     0.037 A 
BRANCH  50  64
ATOM     64  C   UNL A   1      48.784  26.378  27.244  1.00  0.00     0.057 A 
ATOM     65  C   UNL A   1      49.307  26.386  25.943  1.00  0.00     0.134 A 
ATOM     66  C   UNL A   1      49.635  25.965  28.277  1.00  0.00     0.134 A 
ATOM     67  F   UNL A   1      48.542  26.756  24.905  1.00  0.00    -0.206 F 
ATOM     68  C   UNL A   1      50.614  25.973  25.676  1.00  0.00     0.040 A 
ATOM     69  C   UNL A   1      50.953  25.579  28.027  1.00  0.00     0.040 A 
ATOM     70  F   UNL A   1      49.203  25.938  29.547  1.00  0.00    -0.206 F 
ATOM     71  C   UNL A   1      51.443  25.575  26.722  1.00  0.00     0.006 A 
ENDBRANCH  50  64
BRANCH  51  72
ATOM     72  C   UNL A   1      39.329  28.826  29.352  1.00  0.00     0.057 A 
ATOM     73  C   UNL A   1      38.809  28.643  30.639  1.00  0.00     0.134 A 
ATOM     74  C   UNL A   1      38.473  29.362  28.381  1.00  0.00     0.134 A 
ATOM     75  F   UNL A   1      39.573  28.120  31.608  1.00  0.00    -0.206 F 
ATOM     76  C   UNL A   1      37.482  28.953  30.943  1.00  0.00     0.040 A 
ATOM     77  C   UNL A   1      37.152  29.703  28.679  1.00  0.00     0.040 A 
ATOM     78  F   UNL A   1      38.912  29.572  27.132  1.00  0.00    -0.206 F 
ATOM     79  C   UNL A   1      36.651  29.489  29.962  1.00  0.00     0.006 A 
ENDBRANCH  51  72
BRANCH  63  80
ATOM     80  C   UNL A   1      45.279  32.420  29.098  1.00  0.00     0.057 A 
ATOM     81  C   UNL A   1      45.190  33.374  28.077  1.00  0.00     0.134 A 
ATOM     82  C   UNL A   1      45.668  32.869  30.368  1.00  0.00     0.134 A 
ATOM     83  F   UNL A   1      44.834  33.010  26.835  1.00  0.00    -0.206 F 
ATOM     84  C   UNL A   1      45.515  34.714  28.298  1.00  0.00     0.040 A 
ATOM     85  C   UNL A   1      45.963  34.211  30.610  1.00  0.00     0.040 A 
ATOM     86  F   UNL A   1      45.763  32.012  31.396  1.00  0.00    -0.206 F 
ATOM     87  C   UNL A   1      45.899  35.136  29.569  1.00  0.00     0.006 A 
ENDBRANCH  63  80
ENDBRANCH  37  38
ENDBRANCH  29  32
ENDBRANCH  27  28
ENDBRANCH   1  27
TORSDOF 12
ENDMDL
