MODEL 1
REMARK VINA RESULT:     -10.3      0.000      0.000
REMARK SMILES CSCC[C@@H]([NH2+]Cc1cccnc1)C(=O)NCCCCNC(=O)c1ccc(-c2c3nc(c(-c4c(F)cccc4F)c4ccc([nH]4)c(-c4c(F)cccc4F)c4nc(c(-c5c(F)cccc5F)c5ccc2[nH]5)C=C4)C=C3)cc1
REMARK SMILES IDX 18 1 17 2 16 3 14 4 15 5 5 7 4 8 3 9 2 10 1 11 6 12 7 15
REMARK SMILES IDX 8 16 9 17 13 18 10 19 12 20 11 21 19 22 20 23 21 24 22 25
REMARK SMILES IDX 23 27 24 28 25 29 77 30 26 31 76 32 27 33 28 34 29 35 70 36
REMARK SMILES IDX 30 37 75 38 69 39 71 40 31 41 74 42 68 43 67 44 32 46 58 47
REMARK SMILES IDX 41 48 57 49 42 50 45 51 56 52 72 53 43 54 44 55 55 57 73 58
REMARK SMILES IDX 46 59 33 60 34 61 39 62 35 63 36 64 38 65 40 66 37 67 59 68
REMARK SMILES IDX 60 69 65 70 61 71 62 72 64 73 66 74 63 75 47 76 48 77 53 78
REMARK SMILES IDX 49 79 50 80 52 81 54 82 51 83
REMARK H PARENT 16 6 6 13 6 14 21 26 71 45 45 56
REMARK Flexibility Score: inf
ROOT
ATOM      1  C   UNL A   1      31.474  30.862  25.760  1.00  0.00     0.023 C 
ENDROOT
BRANCH   1   2
ATOM      2  C   UNL A   1      32.660  29.906  25.881  1.00  0.00     0.116 C 
BRANCH   2   3
ATOM      3  N   UNL A   1      33.270  29.656  24.589  1.00  0.00    -0.351 N 
ATOM      4  C   UNL A   1      33.225  28.545  23.801  1.00  0.00     0.278 C 
ATOM      5  O   UNL A   1      33.817  28.590  22.717  1.00  0.00    -0.268 OA
ATOM      6  H   UNL A   1      33.798  30.404  24.226  1.00  0.00     0.163 HD
BRANCH   4   7
ATOM      7  C   UNL A   1      32.436  27.281  24.217  1.00  0.00     0.273 C 
BRANCH   7   8
ATOM      8  C   UNL A   1      32.978  26.725  25.548  1.00  0.00     0.086 C 
BRANCH   8   9
ATOM      9  C   UNL A   1      34.033  25.622  25.456  1.00  0.00     0.076 C 
BRANCH   9  10
ATOM     10  S   UNL A   1      33.426  23.953  25.862  1.00  0.00    -0.165 SA
ATOM     11  C   UNL A   1      31.767  24.339  26.469  1.00  0.00     0.085 C 
ENDBRANCH   9  10
ENDBRANCH   8   9
ENDBRANCH   7   8
BRANCH   7  12
ATOM     12  N   UNL A   1      30.977  27.558  24.250  1.00  0.00    -0.332 N 
ATOM     13  H   UNL A   1      30.830  28.466  24.693  1.00  0.00     0.347 HD
ATOM     14  H   UNL A   1      30.540  26.798  24.772  1.00  0.00     0.347 HD
BRANCH  12  15
ATOM     15  C   UNL A   1      30.352  27.584  22.919  1.00  0.00     0.299 C 
BRANCH  15  16
ATOM     16  C   UNL A   1      29.457  28.771  22.702  1.00  0.00     0.024 A 
ATOM     17  C   UNL A   1      29.902  29.912  22.028  1.00  0.00     0.013 A 
ATOM     18  C   UNL A   1      28.132  28.758  23.128  1.00  0.00     0.120 A 
ATOM     19  C   UNL A   1      29.020  30.963  21.794  1.00  0.00     0.021 A 
ATOM     20  N   UNL A   1      27.248  29.756  22.899  1.00  0.00    -0.264 NA
ATOM     21  C   UNL A   1      27.715  30.837  22.239  1.00  0.00     0.111 A 
ENDBRANCH  15  16
ENDBRANCH  12  15
ENDBRANCH   7  12
ENDBRANCH   4   7
ENDBRANCH   2   3
ENDBRANCH   1   2
BRANCH   1  22
ATOM     22  C   UNL A   1      31.393  31.914  26.867  1.00  0.00     0.023 C 
BRANCH  22  23
ATOM     23  C   UNL A   1      32.693  32.656  27.149  1.00  0.00     0.116 C 
BRANCH  23  24
ATOM     24  N   UNL A   1      32.486  34.044  27.534  1.00  0.00    -0.352 N 
ATOM     25  C   UNL A   1      33.139  34.775  28.494  1.00  0.00     0.251 C 
ATOM     26  H   UNL A   1      31.782  34.523  27.037  1.00  0.00     0.163 HD
ATOM     27  O   UNL A   1      32.759  35.905  28.783  1.00  0.00    -0.269 OA
BRANCH  25  28
ATOM     28  C   UNL A   1      34.283  34.172  29.207  1.00  0.00     0.039 A 
ATOM     29  C   UNL A   1      34.035  33.359  30.315  1.00  0.00     0.014 A 
ATOM     30  C   UNL A   1      35.591  34.384  28.761  1.00  0.00     0.014 A 
ATOM     31  C   UNL A   1      35.097  32.701  30.937  1.00  0.00     0.010 A 
ATOM     32  C   UNL A   1      36.638  33.672  29.338  1.00  0.00     0.010 A 
ATOM     33  C   UNL A   1      36.401  32.825  30.431  1.00  0.00    -0.014 A 
BRANCH  33  34
ATOM     34  C   UNL A   1      37.530  32.070  31.027  1.00  0.00     0.031 A 
ATOM     35  C   UNL A   1      38.019  32.413  32.406  1.00  0.00     0.074 A 
ATOM     36  C   UNL A   1      38.156  31.123  30.302  1.00  0.00     0.049 A 
ATOM     37  N   UNL A   1      39.034  31.918  33.070  1.00  0.00    -0.248 NA
ATOM     38  C   UNL A   1      37.291  33.471  33.122  1.00  0.00     0.031 C 
ATOM     39  C   UNL A   1      37.807  30.733  28.935  1.00  0.00     0.029 A 
ATOM     40  N   UNL A   1      39.226  30.323  30.612  1.00  0.00    -0.354 N 
ATOM     41  C   UNL A   1      39.071  32.612  34.273  1.00  0.00     0.074 A 
ATOM     42  C   UNL A   1      38.013  33.598  34.226  1.00  0.00     0.031 C 
ATOM     43  C   UNL A   1      38.632  29.754  28.533  1.00  0.00     0.029 A 
ATOM     44  C   UNL A   1      39.589  29.470  29.598  1.00  0.00     0.049 A 
ATOM     45  H   UNL A   1      39.691  30.355  31.480  1.00  0.00     0.167 HD
ATOM     46  C   UNL A   1      39.896  32.427  35.329  1.00  0.00     0.037 A 
ATOM     47  C   UNL A   1      40.586  28.568  29.531  1.00  0.00     0.037 A 
ATOM     48  C   UNL A   1      40.930  31.428  35.385  1.00  0.00     0.049 A 
ATOM     49  C   UNL A   1      41.491  28.385  30.718  1.00  0.00     0.074 A 
ATOM     50  C   UNL A   1      41.779  31.122  36.433  1.00  0.00     0.029 A 
ATOM     51  N   UNL A   1      41.257  30.573  34.342  1.00  0.00    -0.354 N 
ATOM     52  N   UNL A   1      41.472  29.001  31.874  1.00  0.00    -0.248 NA
ATOM     53  C   UNL A   1      42.553  27.377  30.591  1.00  0.00     0.031 C 
ATOM     54  C   UNL A   1      42.646  30.107  36.013  1.00  0.00     0.029 A 
ATOM     55  C   UNL A   1      42.307  29.751  34.717  1.00  0.00     0.049 A 
ATOM     56  H   UNL A   1      40.807  30.552  33.466  1.00  0.00     0.167 HD
ATOM     57  C   UNL A   1      42.500  28.440  32.622  1.00  0.00     0.074 A 
ATOM     58  C   UNL A   1      43.112  27.423  31.791  1.00  0.00     0.031 C 
ATOM     59  C   UNL A   1      42.901  28.740  33.881  1.00  0.00     0.037 A 
BRANCH  46  60
ATOM     60  C   UNL A   1      39.706  33.324  36.518  1.00  0.00     0.057 A 
ATOM     61  C   UNL A   1      40.404  34.531  36.648  1.00  0.00     0.134 A 
ATOM     62  C   UNL A   1      38.795  32.992  37.527  1.00  0.00     0.134 A 
ATOM     63  F   UNL A   1      41.302  34.901  35.723  1.00  0.00    -0.206 F 
ATOM     64  C   UNL A   1      40.221  35.364  37.753  1.00  0.00     0.040 A 
ATOM     65  C   UNL A   1      38.584  33.830  38.624  1.00  0.00     0.040 A 
ATOM     66  F   UNL A   1      38.089  31.853  37.463  1.00  0.00    -0.206 F 
ATOM     67  C   UNL A   1      39.304  35.017  38.742  1.00  0.00     0.006 A 
ENDBRANCH  46  60
BRANCH  47  68
ATOM     68  C   UNL A   1      40.768  27.747  28.308  1.00  0.00     0.057 A 
ATOM     69  C   UNL A   1      41.571  28.196  27.253  1.00  0.00     0.134 A 
ATOM     70  C   UNL A   1      40.140  26.505  28.159  1.00  0.00     0.134 A 
ATOM     71  F   UNL A   1      42.184  29.387  27.331  1.00  0.00    -0.206 F 
ATOM     72  C   UNL A   1      41.727  27.450  26.084  1.00  0.00     0.040 A 
ATOM     73  C   UNL A   1      40.307  25.736  27.006  1.00  0.00     0.040 A 
ATOM     74  F   UNL A   1      39.365  26.017  29.138  1.00  0.00    -0.206 F 
ATOM     75  C   UNL A   1      41.096  26.213  25.961  1.00  0.00     0.006 A 
ENDBRANCH  47  68
BRANCH  59  76
ATOM     76  C   UNL A   1      44.034  27.939  34.448  1.00  0.00     0.057 A 
ATOM     77  C   UNL A   1      43.830  26.691  35.048  1.00  0.00     0.134 A 
ATOM     78  C   UNL A   1      45.352  28.406  34.357  1.00  0.00     0.134 A 
ATOM     79  F   UNL A   1      42.590  26.194  35.178  1.00  0.00    -0.206 F 
ATOM     80  C   UNL A   1      44.893  25.944  35.558  1.00  0.00     0.040 A 
ATOM     81  C   UNL A   1      46.426  27.658  34.839  1.00  0.00     0.040 A 
ATOM     82  F   UNL A   1      45.617  29.591  33.785  1.00  0.00    -0.206 F 
ATOM     83  C   UNL A   1      46.197  26.425  35.447  1.00  0.00     0.006 A 
ENDBRANCH  59  76
ENDBRANCH  33  34
ENDBRANCH  25  28
ENDBRANCH  23  24
ENDBRANCH  22  23
ENDBRANCH   1  22
TORSDOF 17
ENDMDL
MODEL 2
REMARK VINA RESULT:     -10.2      1.133      6.491
REMARK SMILES CSCC[C@@H]([NH2+]Cc1cccnc1)C(=O)NCCCCNC(=O)c1ccc(-c2c3nc(c(-c4c(F)cccc4F)c4ccc([nH]4)c(-c4c(F)cccc4F)c4nc(c(-c5c(F)cccc5F)c5ccc2[nH]5)C=C4)C=C3)cc1
REMARK SMILES IDX 18 1 17 2 16 3 14 4 15 5 5 7 4 8 3 9 2 10 1 11 6 12 7 15
REMARK SMILES IDX 8 16 9 17 13 18 10 19 12 20 11 21 19 22 20 23 21 24 22 25
REMARK SMILES IDX 23 27 24 28 25 29 77 30 26 31 76 32 27 33 28 34 29 35 70 36
REMARK SMILES IDX 30 37 75 38 69 39 71 40 31 41 74 42 68 43 67 44 32 46 58 47
REMARK SMILES IDX 41 48 57 49 42 50 45 51 56 52 72 53 43 54 44 55 55 57 73 58
REMARK SMILES IDX 46 59 33 60 34 61 39 62 35 63 36 64 38 65 40 66 37 67 59 68
REMARK SMILES IDX 60 69 65 70 61 71 62 72 64 73 66 74 63 75 47 76 48 77 53 78
REMARK SMILES IDX 49 79 50 80 52 81 54 82 51 83
REMARK H PARENT 16 6 6 13 6 14 21 26 71 45 45 56
REMARK Flexibility Score: inf
ROOT
ATOM      1  C   UNL A   1      31.895  30.450  26.634  1.00  0.00     0.023 C 
ENDROOT
BRANCH   1   2
ATOM      2  C   UNL A   1      31.681  29.879  25.233  1.00  0.00     0.116 C 
BRANCH   2   3
ATOM      3  N   UNL A   1      32.943  29.680  24.546  1.00  0.00    -0.351 N 
ATOM      4  C   UNL A   1      33.250  28.862  23.499  1.00  0.00     0.278 C 
ATOM      5  O   UNL A   1      34.409  28.893  23.072  1.00  0.00    -0.268 OA
ATOM      6  H   UNL A   1      33.693  30.218  24.888  1.00  0.00     0.163 HD
BRANCH   4   7
ATOM      7  C   UNL A   1      32.188  27.952  22.838  1.00  0.00     0.273 C 
BRANCH   7   8
ATOM      8  C   UNL A   1      31.477  27.095  23.903  1.00  0.00     0.086 C 
BRANCH   8   9
ATOM      9  C   UNL A   1      32.026  25.687  24.135  1.00  0.00     0.076 C 
BRANCH   9  10
ATOM     10  S   UNL A   1      32.815  25.436  25.757  1.00  0.00    -0.165 SA
ATOM     11  C   UNL A   1      31.920  26.649  26.755  1.00  0.00     0.085 C 
ENDBRANCH   9  10
ENDBRANCH   8   9
ENDBRANCH   7   8
BRANCH   7  12
ATOM     12  N   UNL A   1      31.250  28.752  22.009  1.00  0.00    -0.332 N 
ATOM     13  H   UNL A   1      31.313  28.427  21.044  1.00  0.00     0.347 HD
ATOM     14  H   UNL A   1      31.524  29.730  22.107  1.00  0.00     0.347 HD
BRANCH  12  15
ATOM     15  C   UNL A   1      29.848  28.651  22.443  1.00  0.00     0.299 C 
BRANCH  15  16
ATOM     16  C   UNL A   1      29.110  29.959  22.388  1.00  0.00     0.024 A 
ATOM     17  C   UNL A   1      28.471  30.488  23.513  1.00  0.00     0.013 A 
ATOM     18  C   UNL A   1      29.075  30.715  21.220  1.00  0.00     0.120 A 
ATOM     19  C   UNL A   1      27.853  31.733  23.434  1.00  0.00     0.021 A 
ATOM     20  N   UNL A   1      28.499  31.934  21.118  1.00  0.00    -0.264 NA
ATOM     21  C   UNL A   1      27.899  32.413  22.229  1.00  0.00     0.111 A 
ENDBRANCH  15  16
ENDBRANCH  12  15
ENDBRANCH   7  12
ENDBRANCH   4   7
ENDBRANCH   2   3
ENDBRANCH   1   2
BRANCH   1  22
ATOM     22  C   UNL A   1      31.618  31.949  26.756  1.00  0.00     0.023 C 
BRANCH  22  23
ATOM     23  C   UNL A   1      32.797  32.786  27.235  1.00  0.00     0.116 C 
BRANCH  23  24
ATOM     24  N   UNL A   1      32.423  34.148  27.585  1.00  0.00    -0.352 N 
ATOM     25  C   UNL A   1      32.964  34.966  28.546  1.00  0.00     0.251 C 
ATOM     26  H   UNL A   1      31.683  34.535  27.062  1.00  0.00     0.163 HD
ATOM     27  O   UNL A   1      32.451  36.050  28.802  1.00  0.00    -0.269 OA
BRANCH  25  28
ATOM     28  C   UNL A   1      34.149  34.510  29.299  1.00  0.00     0.039 A 
ATOM     29  C   UNL A   1      33.967  33.915  30.549  1.00  0.00     0.014 A 
ATOM     30  C   UNL A   1      35.431  34.641  28.755  1.00  0.00     0.014 A 
ATOM     31  C   UNL A   1      35.067  33.387  31.227  1.00  0.00     0.010 A 
ATOM     32  C   UNL A   1      36.515  34.053  29.400  1.00  0.00     0.010 A 
ATOM     33  C   UNL A   1      36.343  33.420  30.640  1.00  0.00    -0.014 A 
BRANCH  33  34
ATOM     34  C   UNL A   1      37.510  32.794  31.307  1.00  0.00     0.031 A 
ATOM     35  C   UNL A   1      38.178  31.598  30.689  1.00  0.00     0.074 A 
ATOM     36  C   UNL A   1      37.927  33.261  32.500  1.00  0.00     0.049 A 
ATOM     37  N   UNL A   1      39.164  30.871  31.152  1.00  0.00    -0.248 NA
ATOM     38  C   UNL A   1      37.650  31.141  29.394  1.00  0.00     0.031 C 
ATOM     39  C   UNL A   1      37.331  34.385  33.225  1.00  0.00     0.029 A 
ATOM     40  N   UNL A   1      38.945  32.841  33.318  1.00  0.00    -0.354 N 
ATOM     41  C   UNL A   1      39.364  29.867  30.213  1.00  0.00     0.074 A 
ATOM     42  C   UNL A   1      38.364  30.046  29.182  1.00  0.00     0.031 C 
ATOM     43  C   UNL A   1      38.007  34.578  34.369  1.00  0.00     0.029 A 
ATOM     44  C   UNL A   1      39.061  33.574  34.475  1.00  0.00     0.049 A 
ATOM     45  H   UNL A   1      39.537  32.086  33.097  1.00  0.00     0.167 HD
ATOM     46  C   UNL A   1      40.310  28.899  30.199  1.00  0.00     0.037 A 
ATOM     47  C   UNL A   1      39.915  33.445  35.507  1.00  0.00     0.037 A 
ATOM     48  C   UNL A   1      41.319  28.739  31.212  1.00  0.00     0.049 A 
ATOM     49  C   UNL A   1      40.955  32.358  35.468  1.00  0.00     0.074 A 
ATOM     50  C   UNL A   1      42.359  27.827  31.257  1.00  0.00     0.029 A 
ATOM     51  N   UNL A   1      41.413  29.511  32.360  1.00  0.00    -0.354 N 
ATOM     52  N   UNL A   1      41.175  31.458  34.542  1.00  0.00    -0.248 NA
ATOM     53  C   UNL A   1      41.867  32.274  36.617  1.00  0.00     0.031 C 
ATOM     54  C   UNL A   1      43.060  28.022  32.452  1.00  0.00     0.029 A 
ATOM     55  C   UNL A   1      42.483  29.083  33.130  1.00  0.00     0.049 A 
ATOM     56  H   UNL A   1      40.810  30.254  32.593  1.00  0.00     0.167 HD
ATOM     57  C   UNL A   1      42.264  30.718  34.982  1.00  0.00     0.074 A 
ATOM     58  C   UNL A   1      42.668  31.285  36.252  1.00  0.00     0.031 C 
ATOM     59  C   UNL A   1      42.875  29.663  34.389  1.00  0.00     0.037 A 
BRANCH  46  60
ATOM     60  C   UNL A   1      40.300  27.941  29.044  1.00  0.00     0.057 A 
ATOM     61  C   UNL A   1      39.549  26.758  29.075  1.00  0.00     0.134 A 
ATOM     62  C   UNL A   1      41.022  28.217  27.878  1.00  0.00     0.134 A 
ATOM     63  F   UNL A   1      38.845  26.428  30.168  1.00  0.00    -0.206 F 
ATOM     64  C   UNL A   1      39.539  25.872  27.997  1.00  0.00     0.040 A 
ATOM     65  C   UNL A   1      40.999  27.351  26.783  1.00  0.00     0.040 A 
ATOM     66  F   UNL A   1      41.758  29.334  27.779  1.00  0.00    -0.206 F 
ATOM     67  C   UNL A   1      40.260  26.171  26.844  1.00  0.00     0.006 A 
ENDBRANCH  46  60
BRANCH  47  68
ATOM     68  C   UNL A   1      39.844  34.382  36.655  1.00  0.00     0.057 A 
ATOM     69  C   UNL A   1      40.507  35.615  36.620  1.00  0.00     0.134 A 
ATOM     70  C   UNL A   1      39.125  34.068  37.814  1.00  0.00     0.134 A 
ATOM     71  F   UNL A   1      41.227  35.963  35.543  1.00  0.00    -0.206 F 
ATOM     72  C   UNL A   1      40.475  36.494  37.703  1.00  0.00     0.040 A 
ATOM     73  C   UNL A   1      39.064  34.949  38.896  1.00  0.00     0.040 A 
ATOM     74  F   UNL A   1      38.463  32.907  37.906  1.00  0.00    -0.206 F 
ATOM     75  C   UNL A   1      39.747  36.162  38.845  1.00  0.00     0.006 A 
ENDBRANCH  47  68
BRANCH  59  76
ATOM     76  C   UNL A   1      44.061  29.075  35.092  1.00  0.00     0.057 A 
ATOM     77  C   UNL A   1      45.363  29.531  34.853  1.00  0.00     0.134 A 
ATOM     78  C   UNL A   1      43.894  28.064  36.047  1.00  0.00     0.134 A 
ATOM     79  F   UNL A   1      45.591  30.488  33.941  1.00  0.00    -0.206 F 
ATOM     80  C   UNL A   1      46.460  28.989  35.526  1.00  0.00     0.040 A 
ATOM     81  C   UNL A   1      44.979  27.532  36.744  1.00  0.00     0.040 A 
ATOM     82  F   UNL A   1      42.671  27.587  36.328  1.00  0.00    -0.206 F 
ATOM     83  C   UNL A   1      46.268  27.991  36.480  1.00  0.00     0.006 A 
ENDBRANCH  59  76
ENDBRANCH  33  34
ENDBRANCH  25  28
ENDBRANCH  23  24
ENDBRANCH  22  23
ENDBRANCH   1  22
TORSDOF 17
ENDMDL
MODEL 3
REMARK VINA RESULT:     -10.2      1.642      6.960
REMARK SMILES CSCC[C@@H]([NH2+]Cc1cccnc1)C(=O)NCCCCNC(=O)c1ccc(-c2c3nc(c(-c4c(F)cccc4F)c4ccc([nH]4)c(-c4c(F)cccc4F)c4nc(c(-c5c(F)cccc5F)c5ccc2[nH]5)C=C4)C=C3)cc1
REMARK SMILES IDX 18 1 17 2 16 3 14 4 15 5 5 7 4 8 3 9 2 10 1 11 6 12 7 15
REMARK SMILES IDX 8 16 9 17 13 18 10 19 12 20 11 21 19 22 20 23 21 24 22 25
REMARK SMILES IDX 23 27 24 28 25 29 77 30 26 31 76 32 27 33 28 34 29 35 70 36
REMARK SMILES IDX 30 37 75 38 69 39 71 40 31 41 74 42 68 43 67 44 32 46 58 47
REMARK SMILES IDX 41 48 57 49 42 50 45 51 56 52 72 53 43 54 44 55 55 57 73 58
REMARK SMILES IDX 46 59 33 60 34 61 39 62 35 63 36 64 38 65 40 66 37 67 59 68
REMARK SMILES IDX 60 69 65 70 61 71 62 72 64 73 66 74 63 75 47 76 48 77 53 78
REMARK SMILES IDX 49 79 50 80 52 81 54 82 51 83
REMARK H PARENT 16 6 6 13 6 14 21 26 71 45 45 56
REMARK Flexibility Score: inf
ROOT
ATOM      1  C   UNL A   1      31.939  30.563  26.533  1.00  0.00     0.023 C 
ENDROOT
BRANCH   1   2
ATOM      2  C   UNL A   1      31.343  30.105  25.203  1.00  0.00     0.116 C 
BRANCH   2   3
ATOM      3  N   UNL A   1      32.366  29.576  24.321  1.00  0.00    -0.351 N 
ATOM      4  C   UNL A   1      32.345  28.473  23.520  1.00  0.00     0.278 C 
ATOM      5  O   UNL A   1      33.349  28.246  22.835  1.00  0.00    -0.268 OA
ATOM      6  H   UNL A   1      33.204  30.093  24.297  1.00  0.00     0.163 HD
BRANCH   4   7
ATOM      7  C   UNL A   1      31.106  27.552  23.433  1.00  0.00     0.273 C 
BRANCH   7   8
ATOM      8  C   UNL A   1      30.109  28.090  22.389  1.00  0.00     0.086 C 
BRANCH   8   9
ATOM      9  C   UNL A   1      28.806  28.688  22.923  1.00  0.00     0.076 C 
BRANCH   9  10
ATOM     10  S   UNL A   1      28.272  30.216  22.089  1.00  0.00    -0.165 SA
ATOM     11  C   UNL A   1      27.675  31.176  23.500  1.00  0.00     0.085 C 
ENDBRANCH   9  10
ENDBRANCH   8   9
ENDBRANCH   7   8
BRANCH   7  12
ATOM     12  N   UNL A   1      31.511  26.145  23.182  1.00  0.00    -0.332 N 
ATOM     13  H   UNL A   1      32.358  25.952  23.718  1.00  0.00     0.347 HD
ATOM     14  H   UNL A   1      31.658  26.050  22.177  1.00  0.00     0.347 HD
BRANCH  12  15
ATOM     15  C   UNL A   1      30.487  25.160  23.564  1.00  0.00     0.299 C 
BRANCH  15  16
ATOM     16  C   UNL A   1      30.880  24.316  24.744  1.00  0.00     0.024 A 
ATOM     17  C   UNL A   1      31.383  23.021  24.584  1.00  0.00     0.013 A 
ATOM     18  C   UNL A   1      30.800  24.813  26.041  1.00  0.00     0.120 A 
ATOM     19  C   UNL A   1      31.794  22.298  25.700  1.00  0.00     0.021 A 
ATOM     20  N   UNL A   1      31.209  24.142  27.141  1.00  0.00    -0.264 NA
ATOM     21  C   UNL A   1      31.695  22.898  26.944  1.00  0.00     0.111 A 
ENDBRANCH  15  16
ENDBRANCH  12  15
ENDBRANCH   7  12
ENDBRANCH   4   7
ENDBRANCH   2   3
ENDBRANCH   1   2
BRANCH   1  22
ATOM     22  C   UNL A   1      31.611  32.009  26.910  1.00  0.00     0.023 C 
BRANCH  22  23
ATOM     23  C   UNL A   1      32.812  32.865  27.290  1.00  0.00     0.116 C 
BRANCH  23  24
ATOM     24  N   UNL A   1      32.451  34.231  27.637  1.00  0.00    -0.352 N 
ATOM     25  C   UNL A   1      32.997  35.045  28.598  1.00  0.00     0.251 C 
ATOM     26  H   UNL A   1      31.716  34.624  27.112  1.00  0.00     0.163 HD
ATOM     27  O   UNL A   1      32.494  36.135  28.850  1.00  0.00    -0.269 OA
BRANCH  25  28
ATOM     28  C   UNL A   1      34.176  34.580  29.354  1.00  0.00     0.039 A 
ATOM     29  C   UNL A   1      33.990  34.027  30.623  1.00  0.00     0.014 A 
ATOM     30  C   UNL A   1      35.456  34.660  28.796  1.00  0.00     0.014 A 
ATOM     31  C   UNL A   1      35.081  33.490  31.307  1.00  0.00     0.010 A 
ATOM     32  C   UNL A   1      36.529  34.062  29.450  1.00  0.00     0.010 A 
ATOM     33  C   UNL A   1      36.352  33.471  30.710  1.00  0.00    -0.014 A 
BRANCH  33  34
ATOM     34  C   UNL A   1      37.508  32.834  31.386  1.00  0.00     0.031 A 
ATOM     35  C   UNL A   1      38.170  31.632  30.772  1.00  0.00     0.074 A 
ATOM     36  C   UNL A   1      37.919  33.296  32.582  1.00  0.00     0.049 A 
ATOM     37  N   UNL A   1      39.144  30.895  31.242  1.00  0.00    -0.248 NA
ATOM     38  C   UNL A   1      37.648  31.182  29.472  1.00  0.00     0.031 C 
ATOM     39  C   UNL A   1      37.327  34.424  33.304  1.00  0.00     0.029 A 
ATOM     40  N   UNL A   1      38.926  32.865  33.408  1.00  0.00    -0.354 N 
ATOM     41  C   UNL A   1      39.343  29.891  30.303  1.00  0.00     0.074 A 
ATOM     42  C   UNL A   1      38.354  30.080  29.264  1.00  0.00     0.031 C 
ATOM     43  C   UNL A   1      37.996  34.610  34.453  1.00  0.00     0.029 A 
ATOM     44  C   UNL A   1      39.039  33.595  34.567  1.00  0.00     0.049 A 
ATOM     45  H   UNL A   1      39.513  32.105  33.191  1.00  0.00     0.167 HD
ATOM     46  C   UNL A   1      40.280  28.915  30.296  1.00  0.00     0.037 A 
ATOM     47  C   UNL A   1      39.883  33.457  35.606  1.00  0.00     0.037 A 
ATOM     48  C   UNL A   1      41.280  28.744  31.317  1.00  0.00     0.049 A 
ATOM     49  C   UNL A   1      40.913  32.361  35.574  1.00  0.00     0.074 A 
ATOM     50  C   UNL A   1      42.310  27.822  31.370  1.00  0.00     0.029 A 
ATOM     51  N   UNL A   1      41.372  29.514  32.467  1.00  0.00    -0.354 N 
ATOM     52  N   UNL A   1      41.133  31.461  34.649  1.00  0.00    -0.248 NA
ATOM     53  C   UNL A   1      41.814  32.268  36.731  1.00  0.00     0.031 C 
ATOM     54  C   UNL A   1      43.004  28.009  32.571  1.00  0.00     0.029 A 
ATOM     55  C   UNL A   1      42.431  29.076  33.245  1.00  0.00     0.049 A 
ATOM     56  H   UNL A   1      40.773  30.262  32.696  1.00  0.00     0.167 HD
ATOM     57  C   UNL A   1      42.212  30.710  35.097  1.00  0.00     0.074 A 
ATOM     58  C   UNL A   1      42.610  31.271  36.372  1.00  0.00     0.031 C 
ATOM     59  C   UNL A   1      42.818  29.650  34.508  1.00  0.00     0.037 A 
BRANCH  46  60
ATOM     60  C   UNL A   1      40.271  27.957  29.139  1.00  0.00     0.057 A 
ATOM     61  C   UNL A   1      41.040  28.184  27.991  1.00  0.00     0.134 A 
ATOM     62  C   UNL A   1      39.511  26.784  29.187  1.00  0.00     0.134 A 
ATOM     63  F   UNL A   1      41.780  29.297  27.876  1.00  0.00    -0.206 F 
ATOM     64  C   UNL A   1      41.032  27.290  26.919  1.00  0.00     0.040 A 
ATOM     65  C   UNL A   1      39.515  25.868  28.133  1.00  0.00     0.040 A 
ATOM     66  F   UNL A   1      38.756  26.502  30.260  1.00  0.00    -0.206 F 
ATOM     67  C   UNL A   1      40.273  26.124  26.992  1.00  0.00     0.006 A 
ENDBRANCH  46  60
BRANCH  47  68
ATOM     68  C   UNL A   1      39.811  34.395  36.754  1.00  0.00     0.057 A 
ATOM     69  C   UNL A   1      40.476  35.626  36.721  1.00  0.00     0.134 A 
ATOM     70  C   UNL A   1      39.090  34.081  37.912  1.00  0.00     0.134 A 
ATOM     71  F   UNL A   1      41.198  35.975  35.646  1.00  0.00    -0.206 F 
ATOM     72  C   UNL A   1      40.442  36.504  37.805  1.00  0.00     0.040 A 
ATOM     73  C   UNL A   1      39.028  34.960  38.994  1.00  0.00     0.040 A 
ATOM     74  F   UNL A   1      38.426  32.919  38.002  1.00  0.00    -0.206 F 
ATOM     75  C   UNL A   1      39.713  36.173  38.946  1.00  0.00     0.006 A 
ENDBRANCH  47  68
BRANCH  59  76
ATOM     76  C   UNL A   1      43.992  29.050  35.220  1.00  0.00     0.057 A 
ATOM     77  C   UNL A   1      45.303  29.472  34.968  1.00  0.00     0.134 A 
ATOM     78  C   UNL A   1      43.805  28.064  36.197  1.00  0.00     0.134 A 
ATOM     79  F   UNL A   1      45.551  30.403  34.035  1.00  0.00    -0.206 F 
ATOM     80  C   UNL A   1      46.390  28.919  35.649  1.00  0.00     0.040 A 
ATOM     81  C   UNL A   1      44.880  27.523  36.902  1.00  0.00     0.040 A 
ATOM     82  F   UNL A   1      42.573  27.621  36.492  1.00  0.00    -0.206 F 
ATOM     83  C   UNL A   1      46.179  27.947  36.625  1.00  0.00     0.006 A 
ENDBRANCH  59  76
ENDBRANCH  33  34
ENDBRANCH  25  28
ENDBRANCH  23  24
ENDBRANCH  22  23
ENDBRANCH   1  22
TORSDOF 17
ENDMDL
