MODEL 1
REMARK VINA RESULT:     -10.9      0.000      0.000
REMARK SMILES CN(C(=O)CC(=O)NCCCCNC(=O)c1ccc(-c2c3nc(c(-c4c(F)cccc4F)c4ccc([nH]4)c(-c4c(F)cccc4F)c4nc(c(-c5c(F)cccc5F)c5ccc2[nH]5)C=C4)C=C3)cc1)C1CCC(C)(C)CC1
REMARK SMILES IDX 10 1 9 2 8 3 6 4 7 5 5 7 3 8 4 9 2 10 1 11 70 12 71 13 77 14
REMARK SMILES IDX 72 15 76 16 73 17 74 18 75 19 11 20 12 21 13 22 14 23 15 25
REMARK SMILES IDX 16 26 17 27 69 28 18 29 68 30 19 31 20 32 21 33 62 34 22 35
REMARK SMILES IDX 67 36 61 37 63 38 23 39 66 40 60 41 59 42 24 44 50 45 33 46
REMARK SMILES IDX 49 47 34 48 37 49 48 50 64 51 35 52 36 53 47 55 65 56 38 57
REMARK SMILES IDX 25 58 26 59 31 60 27 61 28 62 30 63 32 64 29 65 51 66 52 67
REMARK SMILES IDX 57 68 53 69 54 70 56 71 58 72 55 73 39 74 40 75 45 76 41 77
REMARK SMILES IDX 42 78 44 79 46 80 43 81
REMARK H PARENT 8 6 13 24 63 43 37 54
REMARK Flexibility Score: inf
ROOT
ATOM      1  C   UNL A   1      37.121  21.684  24.275  1.00  0.00     0.023 C 
ENDROOT
BRANCH   1   2
ATOM      2  C   UNL A   1      35.663  21.992  24.590  1.00  0.00     0.116 C 
BRANCH   2   3
ATOM      3  N   UNL A   1      35.155  22.982  23.658  1.00  0.00    -0.356 N 
ATOM      4  C   UNL A   1      33.982  22.969  22.959  1.00  0.00     0.229 C 
ATOM      5  O   UNL A   1      33.847  23.794  22.052  1.00  0.00    -0.275 OA
ATOM      6  H   UNL A   1      35.732  23.765  23.511  1.00  0.00     0.163 HD
BRANCH   4   7
ATOM      7  C   UNL A   1      32.862  22.028  23.331  1.00  0.00     0.200 C 
BRANCH   7   8
ATOM      8  C   UNL A   1      31.953  22.474  24.457  1.00  0.00     0.231 C 
ATOM      9  O   UNL A   1      31.673  21.635  25.316  1.00  0.00    -0.274 OA
BRANCH   8  10
ATOM     10  N   UNL A   1      31.493  23.786  24.511  1.00  0.00    -0.342 N 
ATOM     11  C   UNL A   1      30.607  24.332  23.482  1.00  0.00     0.147 C 
BRANCH  10  12
ATOM     12  C   UNL A   1      31.685  24.667  25.705  1.00  0.00     0.084 C 
ATOM     13  C   UNL A   1      33.158  24.843  26.077  1.00  0.00     0.025 C 
ATOM     14  C   UNL A   1      30.934  26.013  25.744  1.00  0.00     0.025 C 
ATOM     15  C   UNL A   1      33.820  25.937  25.263  1.00  0.00     0.008 C 
ATOM     16  C   UNL A   1      31.649  27.255  25.190  1.00  0.00     0.008 C 
ATOM     17  C   UNL A   1      33.184  27.323  25.375  1.00  0.00    -0.035 C 
ATOM     18  C   UNL A   1      33.780  28.204  24.251  1.00  0.00     0.011 C 
ATOM     19  C   UNL A   1      33.562  27.950  26.724  1.00  0.00     0.011 C 
ENDBRANCH  10  12
ENDBRANCH   8  10
ENDBRANCH   7   8
ENDBRANCH   4   7
ENDBRANCH   2   3
ENDBRANCH   1   2
BRANCH   1  20
ATOM     20  C   UNL A   1      37.696  20.399  24.844  1.00  0.00     0.023 C 
BRANCH  20  21
ATOM     21  C   UNL A   1      38.851  20.590  25.810  1.00  0.00     0.116 C 
BRANCH  21  22
ATOM     22  N   UNL A   1      39.870  19.549  25.743  1.00  0.00    -0.352 N 
ATOM     23  C   UNL A   1      41.205  19.606  26.079  1.00  0.00     0.251 C 
ATOM     24  H   UNL A   1      39.558  18.677  25.409  1.00  0.00     0.163 HD
ATOM     25  O   UNL A   1      41.930  18.632  25.905  1.00  0.00    -0.269 OA
BRANCH  23  26
ATOM     26  C   UNL A   1      41.778  20.868  26.599  1.00  0.00     0.039 A 
ATOM     27  C   UNL A   1      42.264  21.817  25.696  1.00  0.00     0.014 A 
ATOM     28  C   UNL A   1      41.767  21.146  27.965  1.00  0.00     0.014 A 
ATOM     29  C   UNL A   1      42.633  23.084  26.157  1.00  0.00     0.010 A 
ATOM     30  C   UNL A   1      42.010  22.439  28.404  1.00  0.00     0.010 A 
ATOM     31  C   UNL A   1      42.450  23.425  27.506  1.00  0.00    -0.014 A 
BRANCH  31  32
ATOM     32  C   UNL A   1      42.715  24.793  28.018  1.00  0.00     0.031 A 
ATOM     33  C   UNL A   1      44.111  25.180  28.426  1.00  0.00     0.074 A 
ATOM     34  C   UNL A   1      41.696  25.652  28.213  1.00  0.00     0.049 A 
ATOM     35  N   UNL A   1      44.530  26.269  29.019  1.00  0.00    -0.248 NA
ATOM     36  C   UNL A   1      45.169  24.187  28.178  1.00  0.00     0.031 C 
ATOM     37  C   UNL A   1      40.286  25.382  27.920  1.00  0.00     0.029 A 
ATOM     38  N   UNL A   1      41.689  26.929  28.716  1.00  0.00    -0.354 N 
ATOM     39  C   UNL A   1      45.886  26.071  29.249  1.00  0.00     0.074 A 
ATOM     40  C   UNL A   1      46.204  24.737  28.791  1.00  0.00     0.031 C 
ATOM     41  C   UNL A   1      39.559  26.474  28.207  1.00  0.00     0.029 A 
ATOM     42  C   UNL A   1      40.442  27.505  28.743  1.00  0.00     0.049 A 
ATOM     43  H   UNL A   1      42.502  27.389  29.028  1.00  0.00     0.167 HD
ATOM     44  C   UNL A   1      46.795  26.934  29.764  1.00  0.00     0.037 A 
ATOM     45  C   UNL A   1      40.057  28.728  29.151  1.00  0.00     0.037 A 
ATOM     46  C   UNL A   1      46.490  28.280  30.164  1.00  0.00     0.049 A 
ATOM     47  C   UNL A   1      41.084  29.681  29.691  1.00  0.00     0.074 A 
ATOM     48  C   UNL A   1      47.350  29.261  30.621  1.00  0.00     0.029 A 
ATOM     49  N   UNL A   1      45.220  28.837  30.143  1.00  0.00    -0.354 N 
ATOM     50  N   UNL A   1      42.374  29.505  29.847  1.00  0.00    -0.248 NA
ATOM     51  C   UNL A   1      40.603  31.006  30.109  1.00  0.00     0.031 C 
ATOM     52  C   UNL A   1      46.596  30.406  30.905  1.00  0.00     0.029 A 
ATOM     53  C   UNL A   1      45.271  30.146  30.591  1.00  0.00     0.049 A 
ATOM     54  H   UNL A   1      44.402  28.370  29.853  1.00  0.00     0.167 HD
ATOM     55  C   UNL A   1      42.863  30.701  30.356  1.00  0.00     0.074 A 
ATOM     56  C   UNL A   1      41.732  31.598  30.474  1.00  0.00     0.031 C 
ATOM     57  C   UNL A   1      44.135  31.026  30.694  1.00  0.00     0.037 A 
BRANCH  44  58
ATOM     58  C   UNL A   1      48.203  26.434  29.905  1.00  0.00     0.057 A 
ATOM     59  C   UNL A   1      49.134  26.541  28.862  1.00  0.00     0.134 A 
ATOM     60  C   UNL A   1      48.631  25.826  31.091  1.00  0.00     0.134 A 
ATOM     61  F   UNL A   1      48.782  27.099  27.692  1.00  0.00    -0.206 F 
ATOM     62  C   UNL A   1      50.423  26.021  28.977  1.00  0.00     0.040 A 
ATOM     63  C   UNL A   1      49.929  25.328  31.228  1.00  0.00     0.040 A 
ATOM     64  F   UNL A   1      47.794  25.696  32.132  1.00  0.00    -0.206 F 
ATOM     65  C   UNL A   1      50.824  25.415  30.165  1.00  0.00     0.006 A 
ENDBRANCH  44  58
BRANCH  45  66
ATOM     66  C   UNL A   1      38.639  29.141  29.010  1.00  0.00     0.057 A 
ATOM     67  C   UNL A   1      38.147  29.590  27.780  1.00  0.00     0.134 A 
ATOM     68  C   UNL A   1      37.743  29.085  30.084  1.00  0.00     0.134 A 
ATOM     69  F   UNL A   1      38.964  29.681  26.721  1.00  0.00    -0.206 F 
ATOM     70  C   UNL A   1      36.816  29.980  27.621  1.00  0.00     0.040 A 
ATOM     71  C   UNL A   1      36.404  29.454  29.935  1.00  0.00     0.040 A 
ATOM     72  F   UNL A   1      38.152  28.657  31.286  1.00  0.00    -0.206 F 
ATOM     73  C   UNL A   1      35.939  29.907  28.702  1.00  0.00     0.006 A 
ENDBRANCH  45  66
BRANCH  57  74
ATOM     74  C   UNL A   1      44.375  32.420  31.188  1.00  0.00     0.057 A 
ATOM     75  C   UNL A   1      44.351  32.732  32.553  1.00  0.00     0.134 A 
ATOM     76  C   UNL A   1      44.676  33.452  30.291  1.00  0.00     0.134 A 
ATOM     77  F   UNL A   1      44.054  31.791  33.461  1.00  0.00    -0.206 F 
ATOM     78  C   UNL A   1      44.601  34.028  33.006  1.00  0.00     0.040 A 
ATOM     79  C   UNL A   1      44.950  34.745  30.733  1.00  0.00     0.040 A 
ATOM     80  F   UNL A   1      44.721  33.214  28.971  1.00  0.00    -0.206 F 
ATOM     81  C   UNL A   1      44.908  35.037  32.095  1.00  0.00     0.006 A 
ENDBRANCH  57  74
ENDBRANCH  31  32
ENDBRANCH  23  26
ENDBRANCH  21  22
ENDBRANCH  20  21
ENDBRANCH   1  20
TORSDOF 14
ENDMDL
MODEL 2
REMARK VINA RESULT:     -10.8      0.929      1.952
REMARK SMILES CN(C(=O)CC(=O)NCCCCNC(=O)c1ccc(-c2c3nc(c(-c4c(F)cccc4F)c4ccc([nH]4)c(-c4c(F)cccc4F)c4nc(c(-c5c(F)cccc5F)c5ccc2[nH]5)C=C4)C=C3)cc1)C1CCC(C)(C)CC1
REMARK SMILES IDX 10 1 9 2 8 3 6 4 7 5 5 7 3 8 4 9 2 10 1 11 70 12 71 13 77 14
REMARK SMILES IDX 72 15 76 16 73 17 74 18 75 19 11 20 12 21 13 22 14 23 15 25
REMARK SMILES IDX 16 26 17 27 69 28 18 29 68 30 19 31 20 32 21 33 62 34 22 35
REMARK SMILES IDX 67 36 61 37 63 38 23 39 66 40 60 41 59 42 24 44 50 45 33 46
REMARK SMILES IDX 49 47 34 48 37 49 48 50 64 51 35 52 36 53 47 55 65 56 38 57
REMARK SMILES IDX 25 58 26 59 31 60 27 61 28 62 30 63 32 64 29 65 51 66 52 67
REMARK SMILES IDX 57 68 53 69 54 70 56 71 58 72 55 73 39 74 40 75 45 76 41 77
REMARK SMILES IDX 42 78 44 79 46 80 43 81
REMARK H PARENT 8 6 13 24 63 43 37 54
REMARK Flexibility Score: inf
ROOT
ATOM      1  C   UNL A   1      37.035  21.799  24.464  1.00  0.00     0.023 C 
ENDROOT
BRANCH   1   2
ATOM      2  C   UNL A   1      35.516  21.805  24.362  1.00  0.00     0.116 C 
BRANCH   2   3
ATOM      3  N   UNL A   1      34.936  21.330  25.605  1.00  0.00    -0.356 N 
ATOM      4  C   UNL A   1      34.506  22.058  26.676  1.00  0.00     0.229 C 
ATOM      5  O   UNL A   1      34.257  21.450  27.720  1.00  0.00    -0.275 OA
ATOM      6  H   UNL A   1      34.840  20.353  25.684  1.00  0.00     0.163 HD
BRANCH   4   7
ATOM      7  C   UNL A   1      34.274  23.546  26.566  1.00  0.00     0.200 C 
BRANCH   7   8
ATOM      8  C   UNL A   1      32.890  23.982  26.129  1.00  0.00     0.231 C 
ATOM      9  O   UNL A   1      32.014  24.015  26.996  1.00  0.00    -0.274 OA
BRANCH   8  10
ATOM     10  N   UNL A   1      32.654  24.351  24.808  1.00  0.00    -0.342 N 
ATOM     11  C   UNL A   1      32.099  23.409  23.836  1.00  0.00     0.147 C 
BRANCH  10  12
ATOM     12  C   UNL A   1      32.745  25.766  24.330  1.00  0.00     0.084 C 
ATOM     13  C   UNL A   1      31.383  26.458  24.275  1.00  0.00     0.025 C 
ATOM     14  C   UNL A   1      33.812  26.680  24.965  1.00  0.00     0.025 C 
ATOM     15  C   UNL A   1      30.981  27.023  25.624  1.00  0.00     0.008 C 
ATOM     16  C   UNL A   1      33.408  27.521  26.186  1.00  0.00     0.008 C 
ATOM     17  C   UNL A   1      31.950  28.037  26.232  1.00  0.00    -0.035 C 
ATOM     18  C   UNL A   1      31.545  28.243  27.711  1.00  0.00     0.011 C 
ATOM     19  C   UNL A   1      31.805  29.381  25.506  1.00  0.00     0.011 C 
ENDBRANCH  10  12
ENDBRANCH   8  10
ENDBRANCH   7   8
ENDBRANCH   4   7
ENDBRANCH   2   3
ENDBRANCH   1   2
BRANCH   1  20
ATOM     20  C   UNL A   1      37.700  20.483  24.828  1.00  0.00     0.023 C 
BRANCH  20  21
ATOM     21  C   UNL A   1      38.794  20.589  25.874  1.00  0.00     0.116 C 
BRANCH  21  22
ATOM     22  N   UNL A   1      39.817  19.553  25.783  1.00  0.00    -0.352 N 
ATOM     23  C   UNL A   1      41.157  19.614  26.100  1.00  0.00     0.251 C 
ATOM     24  H   UNL A   1      39.504  18.683  25.445  1.00  0.00     0.163 HD
ATOM     25  O   UNL A   1      41.883  18.645  25.906  1.00  0.00    -0.269 OA
BRANCH  23  26
ATOM     26  C   UNL A   1      41.731  20.873  26.624  1.00  0.00     0.039 A 
ATOM     27  C   UNL A   1      42.220  21.824  25.724  1.00  0.00     0.014 A 
ATOM     28  C   UNL A   1      41.719  21.148  27.991  1.00  0.00     0.014 A 
ATOM     29  C   UNL A   1      42.590  23.089  26.189  1.00  0.00     0.010 A 
ATOM     30  C   UNL A   1      41.964  22.440  28.433  1.00  0.00     0.010 A 
ATOM     31  C   UNL A   1      42.406  23.427  27.539  1.00  0.00    -0.014 A 
BRANCH  31  32
ATOM     32  C   UNL A   1      42.673  24.793  28.055  1.00  0.00     0.031 A 
ATOM     33  C   UNL A   1      44.068  25.175  28.471  1.00  0.00     0.074 A 
ATOM     34  C   UNL A   1      41.655  25.655  28.245  1.00  0.00     0.049 A 
ATOM     35  N   UNL A   1      44.487  26.261  29.068  1.00  0.00    -0.248 NA
ATOM     36  C   UNL A   1      45.124  24.179  28.226  1.00  0.00     0.031 C 
ATOM     37  C   UNL A   1      40.247  25.390  27.944  1.00  0.00     0.029 A 
ATOM     38  N   UNL A   1      41.650  26.931  28.750  1.00  0.00    -0.354 N 
ATOM     39  C   UNL A   1      45.842  26.059  29.304  1.00  0.00     0.074 A 
ATOM     40  C   UNL A   1      46.158  24.724  28.846  1.00  0.00     0.031 C 
ATOM     41  C   UNL A   1      39.522  26.485  28.229  1.00  0.00     0.029 A 
ATOM     42  C   UNL A   1      40.406  27.512  28.771  1.00  0.00     0.049 A 
ATOM     43  H   UNL A   1      42.464  27.388  29.068  1.00  0.00     0.167 HD
ATOM     44  C   UNL A   1      46.750  26.917  29.826  1.00  0.00     0.037 A 
ATOM     45  C   UNL A   1      40.022  28.735  29.180  1.00  0.00     0.037 A 
ATOM     46  C   UNL A   1      46.448  28.263  30.227  1.00  0.00     0.049 A 
ATOM     47  C   UNL A   1      41.050  29.684  29.727  1.00  0.00     0.074 A 
ATOM     48  C   UNL A   1      47.309  29.241  30.691  1.00  0.00     0.029 A 
ATOM     49  N   UNL A   1      45.179  28.825  30.200  1.00  0.00    -0.354 N 
ATOM     50  N   UNL A   1      42.338  29.503  29.890  1.00  0.00    -0.248 NA
ATOM     51  C   UNL A   1      40.571  31.009  30.144  1.00  0.00     0.031 C 
ATOM     52  C   UNL A   1      46.557  30.388  30.972  1.00  0.00     0.029 A 
ATOM     53  C   UNL A   1      45.233  30.133  30.651  1.00  0.00     0.049 A 
ATOM     54  H   UNL A   1      44.362  28.361  29.905  1.00  0.00     0.167 HD
ATOM     55  C   UNL A   1      42.828  30.696  30.403  1.00  0.00     0.074 A 
ATOM     56  C   UNL A   1      41.699  31.597  30.517  1.00  0.00     0.031 C 
ATOM     57  C   UNL A   1      44.099  31.017  30.749  1.00  0.00     0.037 A 
BRANCH  44  58
ATOM     58  C   UNL A   1      48.156  26.413  29.974  1.00  0.00     0.057 A 
ATOM     59  C   UNL A   1      48.601  25.798  31.153  1.00  0.00     0.134 A 
ATOM     60  C   UNL A   1      49.082  26.558  28.933  1.00  0.00     0.134 A 
ATOM     61  F   UNL A   1      47.768  25.643  32.194  1.00  0.00    -0.206 F 
ATOM     62  C   UNL A   1      49.925  25.386  31.307  1.00  0.00     0.040 A 
ATOM     63  C   UNL A   1      50.402  26.122  29.066  1.00  0.00     0.040 A 
ATOM     64  F   UNL A   1      48.722  27.133  27.775  1.00  0.00    -0.206 F 
ATOM     65  C   UNL A   1      50.829  25.545  30.259  1.00  0.00     0.006 A 
ENDBRANCH  44  58
BRANCH  45  66
ATOM     66  C   UNL A   1      38.606  29.153  29.032  1.00  0.00     0.057 A 
ATOM     67  C   UNL A   1      38.121  29.598  27.798  1.00  0.00     0.134 A 
ATOM     68  C   UNL A   1      37.706  29.106  30.103  1.00  0.00     0.134 A 
ATOM     69  F   UNL A   1      38.941  29.681  26.741  1.00  0.00    -0.206 F 
ATOM     70  C   UNL A   1      36.792  29.993  27.633  1.00  0.00     0.040 A 
ATOM     71  C   UNL A   1      36.370  29.479  29.948  1.00  0.00     0.040 A 
ATOM     72  F   UNL A   1      38.109  28.682  31.309  1.00  0.00    -0.206 F 
ATOM     73  C   UNL A   1      35.910  29.928  28.711  1.00  0.00     0.006 A 
ENDBRANCH  45  66
BRANCH  57  74
ATOM     74  C   UNL A   1      44.341  32.409  31.247  1.00  0.00     0.057 A 
ATOM     75  C   UNL A   1      44.619  33.467  30.373  1.00  0.00     0.134 A 
ATOM     76  C   UNL A   1      44.250  32.702  32.614  1.00  0.00     0.134 A 
ATOM     77  F   UNL A   1      44.733  33.247  29.055  1.00  0.00    -0.206 F 
ATOM     78  C   UNL A   1      44.817  34.766  30.844  1.00  0.00     0.040 A 
ATOM     79  C   UNL A   1      44.423  33.999  33.094  1.00  0.00     0.040 A 
ATOM     80  F   UNL A   1      43.979  31.732  33.501  1.00  0.00    -0.206 F 
ATOM     81  C   UNL A   1      44.712  35.035  32.207  1.00  0.00     0.006 A 
ENDBRANCH  57  74
ENDBRANCH  31  32
ENDBRANCH  23  26
ENDBRANCH  21  22
ENDBRANCH  20  21
ENDBRANCH   1  20
TORSDOF 14
ENDMDL
MODEL 3
REMARK VINA RESULT:     -10.8      0.991      6.536
REMARK SMILES CN(C(=O)CC(=O)NCCCCNC(=O)c1ccc(-c2c3nc(c(-c4c(F)cccc4F)c4ccc([nH]4)c(-c4c(F)cccc4F)c4nc(c(-c5c(F)cccc5F)c5ccc2[nH]5)C=C4)C=C3)cc1)C1CCC(C)(C)CC1
REMARK SMILES IDX 10 1 9 2 8 3 6 4 7 5 5 7 3 8 4 9 2 10 1 11 70 12 71 13 77 14
REMARK SMILES IDX 72 15 76 16 73 17 74 18 75 19 11 20 12 21 13 22 14 23 15 25
REMARK SMILES IDX 16 26 17 27 69 28 18 29 68 30 19 31 20 32 21 33 62 34 22 35
REMARK SMILES IDX 67 36 61 37 63 38 23 39 66 40 60 41 59 42 24 44 50 45 33 46
REMARK SMILES IDX 49 47 34 48 37 49 48 50 64 51 35 52 36 53 47 55 65 56 38 57
REMARK SMILES IDX 25 58 26 59 31 60 27 61 28 62 30 63 32 64 29 65 51 66 52 67
REMARK SMILES IDX 57 68 53 69 54 70 56 71 58 72 55 73 39 74 40 75 45 76 41 77
REMARK SMILES IDX 42 78 44 79 46 80 43 81
REMARK H PARENT 8 6 13 24 63 43 37 54
REMARK Flexibility Score: inf
ROOT
ATOM      1  C   UNL A   1      36.960  22.504  24.162  1.00  0.00     0.023 C 
ENDROOT
BRANCH   1   2
ATOM      2  C   UNL A   1      35.532  22.966  24.421  1.00  0.00     0.116 C 
BRANCH   2   3
ATOM      3  N   UNL A   1      34.790  21.918  25.099  1.00  0.00    -0.356 N 
ATOM      4  C   UNL A   1      34.082  21.994  26.263  1.00  0.00     0.229 C 
ATOM      5  O   UNL A   1      33.716  20.937  26.783  1.00  0.00    -0.275 OA
ATOM      6  H   UNL A   1      34.800  21.037  24.661  1.00  0.00     0.163 HD
BRANCH   4   7
ATOM      7  C   UNL A   1      33.697  23.328  26.857  1.00  0.00     0.200 C 
BRANCH   7   8
ATOM      8  C   UNL A   1      32.368  23.904  26.414  1.00  0.00     0.231 C 
ATOM      9  O   UNL A   1      31.523  24.100  27.290  1.00  0.00    -0.274 OA
BRANCH   8  10
ATOM     10  N   UNL A   1      32.149  24.217  25.075  1.00  0.00    -0.342 N 
ATOM     11  C   UNL A   1      31.313  23.375  24.217  1.00  0.00     0.147 C 
BRANCH  10  12
ATOM     12  C   UNL A   1      32.562  25.520  24.466  1.00  0.00     0.084 C 
ATOM     13  C   UNL A   1      31.390  26.485  24.287  1.00  0.00     0.025 C 
ATOM     14  C   UNL A   1      33.794  26.238  25.053  1.00  0.00     0.025 C 
ATOM     15  C   UNL A   1      31.098  27.262  25.556  1.00  0.00     0.008 C 
ATOM     16  C   UNL A   1      33.564  27.270  26.169  1.00  0.00     0.008 C 
ATOM     17  C   UNL A   1      32.257  28.095  26.103  1.00  0.00    -0.035 C 
ATOM     18  C   UNL A   1      31.879  28.538  27.537  1.00  0.00     0.011 C 
ATOM     19  C   UNL A   1      32.429  29.356  25.244  1.00  0.00     0.011 C 
ENDBRANCH  10  12
ENDBRANCH   8  10
ENDBRANCH   7   8
ENDBRANCH   4   7
ENDBRANCH   2   3
ENDBRANCH   1   2
BRANCH   1  20
ATOM     20  C   UNL A   1      37.357  21.141  24.701  1.00  0.00     0.023 C 
BRANCH  20  21
ATOM     21  C   UNL A   1      38.492  21.158  25.708  1.00  0.00     0.116 C 
BRANCH  21  22
ATOM     22  N   UNL A   1      39.396  20.017  25.616  1.00  0.00    -0.352 N 
ATOM     23  C   UNL A   1      40.718  19.915  25.990  1.00  0.00     0.251 C 
ATOM     24  H   UNL A   1      39.004  19.201  25.228  1.00  0.00     0.163 HD
ATOM     25  O   UNL A   1      41.341  18.877  25.785  1.00  0.00    -0.269 OA
BRANCH  23  26
ATOM     26  C   UNL A   1      41.404  21.081  26.589  1.00  0.00     0.039 A 
ATOM     27  C   UNL A   1      41.958  22.050  25.749  1.00  0.00     0.014 A 
ATOM     28  C   UNL A   1      41.436  21.255  27.972  1.00  0.00     0.014 A 
ATOM     29  C   UNL A   1      42.441  23.243  26.294  1.00  0.00     0.010 A 
ATOM     30  C   UNL A   1      41.796  22.487  28.499  1.00  0.00     0.010 A 
ATOM     31  C   UNL A   1      42.306  23.496  27.669  1.00  0.00    -0.014 A 
BRANCH  31  32
ATOM     32  C   UNL A   1      42.695  24.795  28.274  1.00  0.00     0.031 A 
ATOM     33  C   UNL A   1      41.653  25.858  28.495  1.00  0.00     0.074 A 
ATOM     34  C   UNL A   1      43.991  25.060  28.531  1.00  0.00     0.049 A 
ATOM     35  N   UNL A   1      41.803  27.099  28.882  1.00  0.00    -0.248 NA
ATOM     36  C   UNL A   1      40.261  25.487  28.193  1.00  0.00     0.031 C 
ATOM     37  C   UNL A   1      45.110  24.143  28.304  1.00  0.00     0.029 A 
ATOM     38  N   UNL A   1      44.587  26.190  29.032  1.00  0.00    -0.354 N 
ATOM     39  C   UNL A   1      40.534  27.663  28.828  1.00  0.00     0.074 A 
ATOM     40  C   UNL A   1      39.641  26.650  28.312  1.00  0.00     0.031 C 
ATOM     41  C   UNL A   1      46.249  24.730  28.706  1.00  0.00     0.029 A 
ATOM     42  C   UNL A   1      45.948  26.078  29.177  1.00  0.00     0.049 A 
ATOM     43  H   UNL A   1      44.086  27.006  29.266  1.00  0.00     0.167 HD
ATOM     44  C   UNL A   1      40.140  28.902  29.206  1.00  0.00     0.037 A 
ATOM     45  C   UNL A   1      46.851  26.962  29.642  1.00  0.00     0.037 A 
ATOM     46  C   UNL A   1      41.018  29.889  29.773  1.00  0.00     0.049 A 
ATOM     47  C   UNL A   1      46.389  28.321  30.084  1.00  0.00     0.074 A 
ATOM     48  C   UNL A   1      40.706  31.144  30.264  1.00  0.00     0.029 A 
ATOM     49  N   UNL A   1      42.385  29.723  29.935  1.00  0.00    -0.354 N 
ATOM     50  N   UNL A   1      45.177  28.822  30.085  1.00  0.00    -0.248 NA
ATOM     51  C   UNL A   1      47.420  29.237  30.593  1.00  0.00     0.031 C 
ATOM     52  C   UNL A   1      41.890  31.750  30.698  1.00  0.00     0.029 A 
ATOM     53  C   UNL A   1      42.934  30.858  30.508  1.00  0.00     0.049 A 
ATOM     54  H   UNL A   1      42.891  28.917  29.680  1.00  0.00     0.167 HD
ATOM     55  C   UNL A   1      45.295  30.099  30.617  1.00  0.00     0.074 A 
ATOM     56  C   UNL A   1      46.695  30.293  30.935  1.00  0.00     0.031 C 
ATOM     57  C   UNL A   1      44.329  31.028  30.824  1.00  0.00     0.037 A 
BRANCH  44  58
ATOM     58  C   UNL A   1      38.689  29.240  29.022  1.00  0.00     0.057 A 
ATOM     59  C   UNL A   1      37.780  29.206  30.089  1.00  0.00     0.134 A 
ATOM     60  C   UNL A   1      38.190  29.588  27.760  1.00  0.00     0.134 A 
ATOM     61  F   UNL A   1      38.191  28.863  31.320  1.00  0.00    -0.206 F 
ATOM     62  C   UNL A   1      36.422  29.462  29.900  1.00  0.00     0.040 A 
ATOM     63  C   UNL A   1      36.837  29.876  27.566  1.00  0.00     0.040 A 
ATOM     64  F   UNL A   1      39.005  29.646  26.696  1.00  0.00    -0.206 F 
ATOM     65  C   UNL A   1      35.948  29.801  28.635  1.00  0.00     0.006 A 
ENDBRANCH  44  58
BRANCH  45  66
ATOM     66  C   UNL A   1      48.276  26.567  29.766  1.00  0.00     0.057 A 
ATOM     67  C   UNL A   1      49.191  26.881  28.755  1.00  0.00     0.134 A 
ATOM     68  C   UNL A   1      48.760  25.889  30.890  1.00  0.00     0.134 A 
ATOM     69  F   UNL A   1      48.781  27.515  27.647  1.00  0.00    -0.206 F 
ATOM     70  C   UNL A   1      50.537  26.524  28.850  1.00  0.00     0.040 A 
ATOM     71  C   UNL A   1      50.107  25.543  31.007  1.00  0.00     0.040 A 
ATOM     72  F   UNL A   1      47.934  25.567  31.895  1.00  0.00    -0.206 F 
ATOM     73  C   UNL A   1      51.000  25.857  29.983  1.00  0.00     0.006 A 
ENDBRANCH  45  66
BRANCH  57  74
ATOM     74  C   UNL A   1      44.749  32.321  31.455  1.00  0.00     0.057 A 
ATOM     75  C   UNL A   1      45.131  33.426  30.686  1.00  0.00     0.134 A 
ATOM     76  C   UNL A   1      44.728  32.474  32.847  1.00  0.00     0.134 A 
ATOM     77  F   UNL A   1      45.185  33.338  29.348  1.00  0.00    -0.206 F 
ATOM     78  C   UNL A   1      45.496  34.635  31.281  1.00  0.00     0.040 A 
ATOM     79  C   UNL A   1      45.068  33.683  33.452  1.00  0.00     0.040 A 
ATOM     80  F   UNL A   1      44.364  31.453  33.638  1.00  0.00    -0.206 F 
ATOM     81  C   UNL A   1      45.458  34.767  32.668  1.00  0.00     0.006 A 
ENDBRANCH  57  74
ENDBRANCH  31  32
ENDBRANCH  23  26
ENDBRANCH  21  22
ENDBRANCH  20  21
ENDBRANCH   1  20
TORSDOF 14
ENDMDL
