MODEL 1
REMARK VINA RESULT:     -10.6      0.000      0.000
REMARK SMILES C[C@H](Nc1cncc(C(=O)NCCCCNC(=O)c2ccc(-c3c4nc(c(-c5c(F)cccc5F)c5ccc([nH]5)c(-c5c(F)cccc5F)c5nc(c(-c6c(F)cccc6F)c6ccc3[nH]6)C=C5)C=C4)cc2)n1)C(N)=O
REMARK SMILES IDX 13 1 12 2 11 3 9 4 10 5 8 7 4 8 5 9 73 10 6 11 7 12 3 13
REMARK SMILES IDX 2 15 1 16 74 17 75 18 76 19 14 22 15 23 16 24 17 25 18 27
REMARK SMILES IDX 19 28 20 29 72 30 21 31 71 32 22 33 23 34 24 35 65 36 25 37
REMARK SMILES IDX 70 38 64 39 66 40 26 41 69 42 63 43 62 44 27 46 53 47 36 48
REMARK SMILES IDX 52 49 37 50 40 51 51 52 67 53 38 54 39 55 50 57 68 58 41 59
REMARK SMILES IDX 28 60 29 61 34 62 30 63 31 64 33 65 35 66 32 67 54 68 55 69
REMARK SMILES IDX 60 70 56 71 57 72 59 73 61 74 58 75 42 76 43 77 48 78 44 79
REMARK SMILES IDX 45 80 47 81 49 82 46 83
REMARK H PARENT 11 6 3 14 75 20 75 21 16 26 66 45 40 56
REMARK Flexibility Score: inf
ROOT
ATOM      1  C   UNL A   1      36.905  33.330  28.707  1.00  0.00     0.023 C 
ENDROOT
BRANCH   1   2
ATOM      2  C   UNL A   1      37.069  32.910  30.167  1.00  0.00     0.116 C 
BRANCH   2   3
ATOM      3  N   UNL A   1      38.140  33.639  30.826  1.00  0.00    -0.351 N 
ATOM      4  C   UNL A   1      38.215  34.235  32.068  1.00  0.00     0.271 C 
ATOM      5  O   UNL A   1      39.262  34.816  32.360  1.00  0.00    -0.267 OA
ATOM      6  H   UNL A   1      38.961  33.723  30.290  1.00  0.00     0.163 HD
BRANCH   4   7
ATOM      7  C   UNL A   1      37.093  34.228  33.051  1.00  0.00     0.148 A 
ATOM      8  C   UNL A   1      35.110  35.096  33.832  1.00  0.00     0.146 A 
ATOM      9  C   UNL A   1      35.184  34.236  34.924  1.00  0.00     0.157 A 
ATOM     10  N   UNL A   1      36.059  35.088  32.884  1.00  0.00    -0.223 NA
ATOM     11  N   UNL A   1      36.195  33.352  35.107  1.00  0.00    -0.258 NA
ATOM     12  C   UNL A   1      37.149  33.368  34.140  1.00  0.00     0.145 A 
BRANCH   8  13
ATOM     13  N   UNL A   1      34.123  36.051  33.675  1.00  0.00    -0.357 N 
ATOM     14  H   UNL A   1      33.925  36.719  34.371  1.00  0.00     0.162 HD
BRANCH  13  15
ATOM     15  C   UNL A   1      33.386  36.008  32.403  1.00  0.00     0.166 C 
ATOM     16  C   UNL A   1      31.916  35.695  32.682  1.00  0.00     0.041 C 
BRANCH  15  17
ATOM     17  C   UNL A   1      33.504  37.358  31.678  1.00  0.00     0.239 C 
ATOM     18  N   UNL A   1      34.215  38.320  32.342  1.00  0.00    -0.368 N 
ATOM     19  O   UNL A   1      33.000  37.606  30.586  1.00  0.00    -0.273 OA
ATOM     20  H   UNL A   1      34.619  38.117  33.218  1.00  0.00     0.159 HD
ATOM     21  H   UNL A   1      34.325  39.214  31.945  1.00  0.00     0.159 HD
ENDBRANCH  15  17
ENDBRANCH  13  15
ENDBRANCH   8  13
ENDBRANCH   4   7
ENDBRANCH   2   3
ENDBRANCH   1   2
BRANCH   1  22
ATOM     22  C   UNL A   1      35.502  33.103  28.137  1.00  0.00     0.023 C 
BRANCH  22  23
ATOM     23  C   UNL A   1      34.569  32.260  29.004  1.00  0.00     0.116 C 
BRANCH  23  24
ATOM     24  N   UNL A   1      34.048  31.084  28.321  1.00  0.00    -0.352 N 
ATOM     25  C   UNL A   1      34.716  29.944  27.940  1.00  0.00     0.251 C 
ATOM     26  H   UNL A   1      33.088  31.108  28.103  1.00  0.00     0.163 HD
ATOM     27  O   UNL A   1      34.147  29.078  27.284  1.00  0.00    -0.269 OA
BRANCH  25  28
ATOM     28  C   UNL A   1      36.143  29.791  28.291  1.00  0.00     0.039 A 
ATOM     29  C   UNL A   1      36.476  29.338  29.569  1.00  0.00     0.014 A 
ATOM     30  C   UNL A   1      37.140  30.046  27.346  1.00  0.00     0.014 A 
ATOM     31  C   UNL A   1      37.809  29.053  29.873  1.00  0.00     0.010 A 
ATOM     32  C   UNL A   1      38.458  29.702  27.629  1.00  0.00     0.010 A 
ATOM     33  C   UNL A   1      38.803  29.189  28.889  1.00  0.00    -0.014 A 
BRANCH  33  34
ATOM     34  C   UNL A   1      40.202  28.766  29.143  1.00  0.00     0.031 A 
ATOM     35  C   UNL A   1      41.179  29.720  29.768  1.00  0.00     0.074 A 
ATOM     36  C   UNL A   1      40.614  27.553  28.725  1.00  0.00     0.049 A 
ATOM     37  N   UNL A   1      42.463  29.573  29.968  1.00  0.00    -0.248 NA
ATOM     38  C   UNL A   1      40.647  31.021  30.198  1.00  0.00     0.031 C 
ATOM     39  C   UNL A   1      39.775  26.555  28.059  1.00  0.00     0.029 A 
ATOM     40  N   UNL A   1      41.851  26.961  28.781  1.00  0.00    -0.354 N 
ATOM     41  C   UNL A   1      42.895  30.767  30.529  1.00  0.00     0.074 A 
ATOM     42  C   UNL A   1      41.746  31.643  30.598  1.00  0.00     0.031 C 
ATOM     43  C   UNL A   1      40.517  25.470  27.782  1.00  0.00     0.029 A 
ATOM     44  C   UNL A   1      41.890  25.710  28.215  1.00  0.00     0.049 A 
ATOM     45  H   UNL A   1      42.637  27.393  29.190  1.00  0.00     0.167 HD
ATOM     46  C   UNL A   1      44.135  31.096  30.965  1.00  0.00     0.037 A 
ATOM     47  C   UNL A   1      42.919  24.857  28.050  1.00  0.00     0.037 A 
ATOM     48  C   UNL A   1      45.271  30.214  30.921  1.00  0.00     0.049 A 
ATOM     49  C   UNL A   1      44.284  25.246  28.544  1.00  0.00     0.074 A 
ATOM     50  C   UNL A   1      46.550  30.432  31.403  1.00  0.00     0.029 A 
ATOM     51  N   UNL A   1      45.264  28.945  30.363  1.00  0.00    -0.354 N 
ATOM     52  N   UNL A   1      44.664  26.354  29.133  1.00  0.00    -0.248 NA
ATOM     53  C   UNL A   1      45.363  24.267  28.349  1.00  0.00     0.031 C 
ATOM     54  C   UNL A   1      47.328  29.308  31.103  1.00  0.00     0.029 A 
ATOM     55  C   UNL A   1      46.522  28.376  30.469  1.00  0.00     0.049 A 
ATOM     56  H   UNL A   1      44.482  28.513  29.951  1.00  0.00     0.167 HD
ATOM     57  C   UNL A   1      46.017  26.196  29.401  1.00  0.00     0.074 A 
ATOM     58  C   UNL A   1      46.389  24.881  28.922  1.00  0.00     0.031 C 
ATOM     59  C   UNL A   1      46.875  27.064  29.990  1.00  0.00     0.037 A 
BRANCH  46  60
ATOM     60  C   UNL A   1      44.324  32.472  31.530  1.00  0.00     0.057 A 
ATOM     61  C   UNL A   1      44.144  32.739  32.894  1.00  0.00     0.134 A 
ATOM     62  C   UNL A   1      44.722  33.535  30.710  1.00  0.00     0.134 A 
ATOM     63  F   UNL A   1      43.751  31.767  33.730  1.00  0.00    -0.206 F 
ATOM     64  C   UNL A   1      44.330  34.020  33.417  1.00  0.00     0.040 A 
ATOM     65  C   UNL A   1      44.936  34.814  31.226  1.00  0.00     0.040 A 
ATOM     66  F   UNL A   1      44.918  33.345  29.396  1.00  0.00    -0.206 F 
ATOM     67  C   UNL A   1      44.733  35.061  32.582  1.00  0.00     0.006 A 
ENDBRANCH  46  60
BRANCH  47  68
ATOM     68  C   UNL A   1      42.697  23.542  27.401  1.00  0.00     0.057 A 
ATOM     69  C   UNL A   1      42.887  23.378  26.025  1.00  0.00     0.134 A 
ATOM     70  C   UNL A   1      42.285  22.423  28.134  1.00  0.00     0.134 A 
ATOM     71  F   UNL A   1      43.263  24.419  25.267  1.00  0.00    -0.206 F 
ATOM     72  C   UNL A   1      42.658  22.153  25.396  1.00  0.00     0.040 A 
ATOM     73  C   UNL A   1      42.074  21.186  27.523  1.00  0.00     0.040 A 
ATOM     74  F   UNL A   1      42.093  22.515  29.459  1.00  0.00    -0.206 F 
ATOM     75  C   UNL A   1      42.254  21.051  26.147  1.00  0.00     0.006 A 
ENDBRANCH  47  68
BRANCH  59  76
ATOM     76  C   UNL A   1      48.292  26.609  30.172  1.00  0.00     0.057 A 
ATOM     77  C   UNL A   1      48.694  25.887  31.302  1.00  0.00     0.134 A 
ATOM     78  C   UNL A   1      49.255  26.863  29.187  1.00  0.00     0.134 A 
ATOM     79  F   UNL A   1      47.822  25.624  32.287  1.00  0.00    -0.206 F 
ATOM     80  C   UNL A   1      50.011  25.448  31.455  1.00  0.00     0.040 A 
ATOM     81  C   UNL A   1      50.568  26.410  29.319  1.00  0.00     0.040 A 
ATOM     82  F   UNL A   1      48.932  27.544  28.078  1.00  0.00    -0.206 F 
ATOM     83  C   UNL A   1      50.950  25.704  30.458  1.00  0.00     0.006 A 
ENDBRANCH  59  76
ENDBRANCH  33  34
ENDBRANCH  25  28
ENDBRANCH  23  24
ENDBRANCH  22  23
ENDBRANCH   1  22
TORSDOF 14
ENDMDL
MODEL 2
REMARK VINA RESULT:     -10.5      5.524     11.328
REMARK SMILES C[C@H](Nc1cncc(C(=O)NCCCCNC(=O)c2ccc(-c3c4nc(c(-c5c(F)cccc5F)c5ccc([nH]5)c(-c5c(F)cccc5F)c5nc(c(-c6c(F)cccc6F)c6ccc3[nH]6)C=C5)C=C4)cc2)n1)C(N)=O
REMARK SMILES IDX 13 1 12 2 11 3 9 4 10 5 8 7 4 8 5 9 73 10 6 11 7 12 3 13
REMARK SMILES IDX 2 15 1 16 74 17 75 18 76 19 14 22 15 23 16 24 17 25 18 27
REMARK SMILES IDX 19 28 20 29 72 30 21 31 71 32 22 33 23 34 24 35 65 36 25 37
REMARK SMILES IDX 70 38 64 39 66 40 26 41 69 42 63 43 62 44 27 46 53 47 36 48
REMARK SMILES IDX 52 49 37 50 40 51 51 52 67 53 38 54 39 55 50 57 68 58 41 59
REMARK SMILES IDX 28 60 29 61 34 62 30 63 31 64 33 65 35 66 32 67 54 68 55 69
REMARK SMILES IDX 60 70 56 71 57 72 59 73 61 74 58 75 42 76 43 77 48 78 44 79
REMARK SMILES IDX 45 80 47 81 49 82 46 83
REMARK H PARENT 11 6 3 14 75 20 75 21 16 26 66 45 40 56
REMARK Flexibility Score: inf
ROOT
ATOM      1  C   UNL A   1      37.001  22.315  24.161  1.00  0.00     0.023 C 
ENDROOT
BRANCH   1   2
ATOM      2  C   UNL A   1      35.513  22.470  23.850  1.00  0.00     0.116 C 
BRANCH   2   3
ATOM      3  N   UNL A   1      34.724  22.679  25.053  1.00  0.00    -0.351 N 
ATOM      4  C   UNL A   1      33.716  21.934  25.629  1.00  0.00     0.271 C 
ATOM      5  O   UNL A   1      33.199  22.374  26.659  1.00  0.00    -0.267 OA
ATOM      6  H   UNL A   1      34.950  23.500  25.546  1.00  0.00     0.163 HD
BRANCH   4   7
ATOM      7  C   UNL A   1      33.213  20.651  25.059  1.00  0.00     0.148 A 
ATOM      8  C   UNL A   1      32.980  18.364  25.174  1.00  0.00     0.146 A 
ATOM      9  C   UNL A   1      32.394  18.379  23.911  1.00  0.00     0.157 A 
ATOM     10  N   UNL A   1      33.382  19.503  25.759  1.00  0.00    -0.223 NA
ATOM     11  N   UNL A   1      32.193  19.514  23.197  1.00  0.00    -0.258 NA
ATOM     12  C   UNL A   1      32.617  20.652  23.805  1.00  0.00     0.145 A 
BRANCH   8  13
ATOM     13  N   UNL A   1      33.255  17.207  25.877  1.00  0.00    -0.357 N 
ATOM     14  H   UNL A   1      33.151  17.151  26.854  1.00  0.00     0.162 HD
BRANCH  13  15
ATOM     15  C   UNL A   1      33.713  16.062  25.074  1.00  0.00     0.166 C 
ATOM     16  C   UNL A   1      35.207  15.843  25.316  1.00  0.00     0.041 C 
BRANCH  15  17
ATOM     17  C   UNL A   1      32.930  14.798  25.461  1.00  0.00     0.239 C 
ATOM     18  N   UNL A   1      31.595  14.984  25.695  1.00  0.00    -0.368 N 
ATOM     19  O   UNL A   1      33.428  13.682  25.579  1.00  0.00    -0.273 OA
ATOM     20  H   UNL A   1      31.198  15.881  25.600  1.00  0.00     0.159 HD
ATOM     21  H   UNL A   1      31.030  14.223  25.959  1.00  0.00     0.159 HD
ENDBRANCH  15  17
ENDBRANCH  13  15
ENDBRANCH   8  13
ENDBRANCH   4   7
ENDBRANCH   2   3
ENDBRANCH   1   2
BRANCH   1  22
ATOM     22  C   UNL A   1      37.409  20.911  24.615  1.00  0.00     0.023 C 
BRANCH  22  23
ATOM     23  C   UNL A   1      38.375  20.856  25.797  1.00  0.00     0.116 C 
BRANCH  23  24
ATOM     24  N   UNL A   1      39.351  19.780  25.700  1.00  0.00    -0.352 N 
ATOM     25  C   UNL A   1      40.694  19.806  25.998  1.00  0.00     0.251 C 
ATOM     26  H   UNL A   1      39.003  18.917  25.377  1.00  0.00     0.163 HD
ATOM     27  O   UNL A   1      41.402  18.831  25.769  1.00  0.00    -0.269 OA
BRANCH  25  28
ATOM     28  C   UNL A   1      41.286  21.038  26.557  1.00  0.00     0.039 A 
ATOM     29  C   UNL A   1      41.888  21.950  25.687  1.00  0.00     0.014 A 
ATOM     30  C   UNL A   1      41.199  21.313  27.924  1.00  0.00     0.014 A 
ATOM     31  C   UNL A   1      42.328  23.181  26.177  1.00  0.00     0.010 A 
ATOM     32  C   UNL A   1      41.579  22.565  28.399  1.00  0.00     0.010 A 
ATOM     33  C   UNL A   1      42.133  23.516  27.527  1.00  0.00    -0.014 A 
BRANCH  33  34
ATOM     34  C   UNL A   1      42.465  24.866  28.043  1.00  0.00     0.031 A 
ATOM     35  C   UNL A   1      43.865  25.184  28.483  1.00  0.00     0.074 A 
ATOM     36  C   UNL A   1      41.484  25.776  28.201  1.00  0.00     0.049 A 
ATOM     37  N   UNL A   1      44.325  26.265  29.058  1.00  0.00    -0.248 NA
ATOM     38  C   UNL A   1      44.877  24.137  28.272  1.00  0.00     0.031 C 
ATOM     39  C   UNL A   1      40.075  25.572  27.860  1.00  0.00     0.029 A 
ATOM     40  N   UNL A   1      41.521  27.051  28.710  1.00  0.00    -0.354 N 
ATOM     41  C   UNL A   1      45.671  26.022  29.296  1.00  0.00     0.074 A 
ATOM     42  C   UNL A   1      45.945  24.676  28.841  1.00  0.00     0.031 C 
ATOM     43  C   UNL A   1      39.385  26.685  28.156  1.00  0.00     0.029 A 
ATOM     44  C   UNL A   1      40.293  27.667  28.740  1.00  0.00     0.049 A 
ATOM     45  H   UNL A   1      42.349  27.482  29.022  1.00  0.00     0.167 HD
ATOM     46  C   UNL A   1      46.599  26.853  29.828  1.00  0.00     0.037 A 
ATOM     47  C   UNL A   1      39.937  28.881  29.200  1.00  0.00     0.037 A 
ATOM     48  C   UNL A   1      46.332  28.201  30.254  1.00  0.00     0.049 A 
ATOM     49  C   UNL A   1      40.986  29.784  29.784  1.00  0.00     0.074 A 
ATOM     50  C   UNL A   1      47.221  29.144  30.739  1.00  0.00     0.029 A 
ATOM     51  N   UNL A   1      45.081  28.798  30.245  1.00  0.00    -0.354 N 
ATOM     52  N   UNL A   1      42.269  29.566  29.942  1.00  0.00    -0.248 NA
ATOM     53  C   UNL A   1      40.538  31.103  30.255  1.00  0.00     0.031 C 
ATOM     54  C   UNL A   1      46.502  30.300  31.060  1.00  0.00     0.029 A 
ATOM     55  C   UNL A   1      45.171  30.090  30.737  1.00  0.00     0.049 A 
ATOM     56  H   UNL A   1      44.251  28.368  29.937  1.00  0.00     0.167 HD
ATOM     57  C   UNL A   1      42.785  30.724  30.506  1.00  0.00     0.074 A 
ATOM     58  C   UNL A   1      41.679  31.649  30.651  1.00  0.00     0.031 C 
ATOM     59  C   UNL A   1      44.061  30.998  30.872  1.00  0.00     0.037 A 
BRANCH  46  60
ATOM     60  C   UNL A   1      47.995  26.324  29.975  1.00  0.00     0.057 A 
ATOM     61  C   UNL A   1      48.440  25.743  31.170  1.00  0.00     0.134 A 
ATOM     62  C   UNL A   1      48.893  26.365  28.902  1.00  0.00     0.134 A 
ATOM     63  F   UNL A   1      47.632  25.684  32.239  1.00  0.00    -0.206 F 
ATOM     64  C   UNL A   1      49.737  25.244  31.299  1.00  0.00     0.040 A 
ATOM     65  C   UNL A   1      50.185  25.847  29.011  1.00  0.00     0.040 A 
ATOM     66  F   UNL A   1      48.528  26.903  27.728  1.00  0.00    -0.206 F 
ATOM     67  C   UNL A   1      50.612  25.290  30.215  1.00  0.00     0.006 A 
ENDBRANCH  46  60
BRANCH  47  68
ATOM     68  C   UNL A   1      38.523  29.322  29.114  1.00  0.00     0.057 A 
ATOM     69  C   UNL A   1      37.978  29.757  27.901  1.00  0.00     0.134 A 
ATOM     70  C   UNL A   1      37.687  29.327  30.236  1.00  0.00     0.134 A 
ATOM     71  F   UNL A   1      38.737  29.793  26.795  1.00  0.00    -0.206 F 
ATOM     72  C   UNL A   1      36.657  30.198  27.809  1.00  0.00     0.040 A 
ATOM     73  C   UNL A   1      36.357  29.744  30.154  1.00  0.00     0.040 A 
ATOM     74  F   UNL A   1      38.149  28.914  31.426  1.00  0.00    -0.206 F 
ATOM     75  C   UNL A   1      35.841  30.188  28.938  1.00  0.00     0.006 A 
ENDBRANCH  47  68
BRANCH  59  76
ATOM     76  C   UNL A   1      44.333  32.358  31.440  1.00  0.00     0.057 A 
ATOM     77  C   UNL A   1      44.752  33.423  30.634  1.00  0.00     0.134 A 
ATOM     78  C   UNL A   1      44.137  32.614  32.804  1.00  0.00     0.134 A 
ATOM     79  F   UNL A   1      44.972  33.238  29.324  1.00  0.00    -0.206 F 
ATOM     80  C   UNL A   1      44.984  34.693  31.167  1.00  0.00     0.040 A 
ATOM     81  C   UNL A   1      44.344  33.884  33.343  1.00  0.00     0.040 A 
ATOM     82  F   UNL A   1      43.729  31.638  33.628  1.00  0.00    -0.206 F 
ATOM     83  C   UNL A   1      44.773  34.927  32.524  1.00  0.00     0.006 A 
ENDBRANCH  59  76
ENDBRANCH  33  34
ENDBRANCH  25  28
ENDBRANCH  23  24
ENDBRANCH  22  23
ENDBRANCH   1  22
TORSDOF 14
ENDMDL
MODEL 3
REMARK VINA RESULT:     -10.4      5.675     11.182
REMARK SMILES C[C@H](Nc1cncc(C(=O)NCCCCNC(=O)c2ccc(-c3c4nc(c(-c5c(F)cccc5F)c5ccc([nH]5)c(-c5c(F)cccc5F)c5nc(c(-c6c(F)cccc6F)c6ccc3[nH]6)C=C5)C=C4)cc2)n1)C(N)=O
REMARK SMILES IDX 13 1 12 2 11 3 9 4 10 5 8 7 4 8 5 9 73 10 6 11 7 12 3 13
REMARK SMILES IDX 2 15 1 16 74 17 75 18 76 19 14 22 15 23 16 24 17 25 18 27
REMARK SMILES IDX 19 28 20 29 72 30 21 31 71 32 22 33 23 34 24 35 65 36 25 37
REMARK SMILES IDX 70 38 64 39 66 40 26 41 69 42 63 43 62 44 27 46 53 47 36 48
REMARK SMILES IDX 52 49 37 50 40 51 51 52 67 53 38 54 39 55 50 57 68 58 41 59
REMARK SMILES IDX 28 60 29 61 34 62 30 63 31 64 33 65 35 66 32 67 54 68 55 69
REMARK SMILES IDX 60 70 56 71 57 72 59 73 61 74 58 75 42 76 43 77 48 78 44 79
REMARK SMILES IDX 45 80 47 81 49 82 46 83
REMARK H PARENT 11 6 3 14 75 20 75 21 16 26 66 45 40 56
REMARK Flexibility Score: inf
ROOT
ATOM      1  C   UNL A   1      36.676  21.623  24.876  1.00  0.00     0.023 C 
ENDROOT
BRANCH   1   2
ATOM      2  C   UNL A   1      35.782  21.455  26.105  1.00  0.00     0.116 C 
BRANCH   2   3
ATOM      3  N   UNL A   1      34.650  22.366  26.082  1.00  0.00    -0.351 N 
ATOM      4  C   UNL A   1      33.390  22.250  25.531  1.00  0.00     0.271 C 
ATOM      5  O   UNL A   1      32.625  23.209  25.648  1.00  0.00    -0.267 OA
ATOM      6  H   UNL A   1      34.809  23.220  26.543  1.00  0.00     0.163 HD
BRANCH   4   7
ATOM      7  C   UNL A   1      32.926  21.040  24.791  1.00  0.00     0.148 A 
ATOM      8  C   UNL A   1      32.526  18.776  24.705  1.00  0.00     0.146 A 
ATOM      9  C   UNL A   1      32.200  18.902  23.358  1.00  0.00     0.157 A 
ATOM     10  N   UNL A   1      32.880  19.848  25.432  1.00  0.00    -0.223 NA
ATOM     11  N   UNL A   1      32.217  20.086  22.697  1.00  0.00    -0.258 NA
ATOM     12  C   UNL A   1      32.588  21.154  23.449  1.00  0.00     0.145 A 
BRANCH   8  13
ATOM     13  N   UNL A   1      32.582  17.565  25.370  1.00  0.00    -0.357 N 
ATOM     14  H   UNL A   1      32.229  17.451  26.281  1.00  0.00     0.162 HD
BRANCH  13  15
ATOM     15  C   UNL A   1      33.201  16.455  24.628  1.00  0.00     0.166 C 
ATOM     16  C   UNL A   1      34.717  16.655  24.594  1.00  0.00     0.041 C 
BRANCH  15  17
ATOM     17  C   UNL A   1      32.866  15.117  25.304  1.00  0.00     0.239 C 
ATOM     18  N   UNL A   1      31.574  14.984  25.734  1.00  0.00    -0.368 N 
ATOM     19  O   UNL A   1      33.672  14.208  25.481  1.00  0.00    -0.273 OA
ATOM     20  H   UNL A   1      30.929  15.715  25.590  1.00  0.00     0.159 HD
ATOM     21  H   UNL A   1      31.287  14.158  26.187  1.00  0.00     0.159 HD
ENDBRANCH  15  17
ENDBRANCH  13  15
ENDBRANCH   8  13
ENDBRANCH   4   7
ENDBRANCH   2   3
ENDBRANCH   1   2
BRANCH   1  22
ATOM     22  C   UNL A   1      37.785  20.574  24.753  1.00  0.00     0.023 C 
BRANCH  22  23
ATOM     23  C   UNL A   1      38.896  20.665  25.797  1.00  0.00     0.116 C 
BRANCH  23  24
ATOM     24  N   UNL A   1      39.771  19.501  25.817  1.00  0.00    -0.352 N 
ATOM     25  C   UNL A   1      41.115  19.440  26.099  1.00  0.00     0.251 C 
ATOM     26  H   UNL A   1      39.342  18.642  25.598  1.00  0.00     0.163 HD
ATOM     27  O   UNL A   1      41.730  18.386  25.979  1.00  0.00    -0.269 OA
BRANCH  25  28
ATOM     28  C   UNL A   1      41.824  20.669  26.508  1.00  0.00     0.039 A 
ATOM     29  C   UNL A   1      42.285  21.541  25.518  1.00  0.00     0.014 A 
ATOM     30  C   UNL A   1      41.986  20.982  27.860  1.00  0.00     0.014 A 
ATOM     31  C   UNL A   1      42.831  22.772  25.884  1.00  0.00     0.010 A 
ATOM     32  C   UNL A   1      42.472  22.235  28.222  1.00  0.00     0.010 A 
ATOM     33  C   UNL A   1      42.885  23.147  27.237  1.00  0.00    -0.014 A 
BRANCH  33  34
ATOM     34  C   UNL A   1      43.334  24.501  27.645  1.00  0.00     0.031 A 
ATOM     35  C   UNL A   1      42.328  25.548  28.030  1.00  0.00     0.074 A 
ATOM     36  C   UNL A   1      44.643  24.813  27.580  1.00  0.00     0.049 A 
ATOM     37  N   UNL A   1      42.518  26.812  28.310  1.00  0.00    -0.248 NA
ATOM     38  C   UNL A   1      40.921  25.124  28.079  1.00  0.00     0.031 C 
ATOM     39  C   UNL A   1      45.713  23.901  27.172  1.00  0.00     0.029 A 
ATOM     40  N   UNL A   1      45.294  25.994  27.837  1.00  0.00    -0.354 N 
ATOM     41  C   UNL A   1      41.255  27.337  28.549  1.00  0.00     0.074 A 
ATOM     42  C   UNL A   1      40.304  26.267  28.341  1.00  0.00     0.031 C 
ATOM     43  C   UNL A   1      46.887  24.551  27.220  1.00  0.00     0.029 A 
ATOM     44  C   UNL A   1      46.650  25.932  27.624  1.00  0.00     0.049 A 
ATOM     45  H   UNL A   1      44.833  26.807  28.145  1.00  0.00     0.167 HD
ATOM     46  C   UNL A   1      40.920  28.594  28.927  1.00  0.00     0.037 A 
ATOM     47  C   UNL A   1      47.594  26.887  27.730  1.00  0.00     0.037 A 
ATOM     48  C   UNL A   1      41.869  29.650  29.162  1.00  0.00     0.049 A 
ATOM     49  C   UNL A   1      47.197  28.273  28.153  1.00  0.00     0.074 A 
ATOM     50  C   UNL A   1      41.632  30.936  29.616  1.00  0.00     0.029 A 
ATOM     51  N   UNL A   1      43.236  29.542  28.960  1.00  0.00    -0.354 N 
ATOM     52  N   UNL A   1      46.006  28.738  28.441  1.00  0.00    -0.248 NA
ATOM     53  C   UNL A   1      48.275  29.266  28.265  1.00  0.00     0.031 C 
ATOM     54  C   UNL A   1      42.853  31.618  29.653  1.00  0.00     0.029 A 
ATOM     55  C   UNL A   1      43.854  30.745  29.260  1.00  0.00     0.049 A 
ATOM     56  H   UNL A   1      43.700  28.731  28.649  1.00  0.00     0.167 HD
ATOM     57  C   UNL A   1      46.193  30.068  28.790  1.00  0.00     0.074 A 
ATOM     58  C   UNL A   1      47.614  30.333  28.692  1.00  0.00     0.031 C 
ATOM     59  C   UNL A   1      45.271  30.990  29.159  1.00  0.00     0.037 A 
BRANCH  46  60
ATOM     60  C   UNL A   1      39.462  28.893  29.114  1.00  0.00     0.057 A 
ATOM     61  C   UNL A   1      38.657  29.324  28.052  1.00  0.00     0.134 A 
ATOM     62  C   UNL A   1      38.850  28.716  30.361  1.00  0.00     0.134 A 
ATOM     63  F   UNL A   1      39.186  29.524  26.836  1.00  0.00    -0.206 F 
ATOM     64  C   UNL A   1      37.299  29.593  28.229  1.00  0.00     0.040 A 
ATOM     65  C   UNL A   1      37.487  28.958  30.545  1.00  0.00     0.040 A 
ATOM     66  F   UNL A   1      39.563  28.300  31.418  1.00  0.00    -0.206 F 
ATOM     67  C   UNL A   1      36.709  29.403  29.478  1.00  0.00     0.006 A 
ENDBRANCH  46  60
BRANCH  47  68
ATOM     68  C   UNL A   1      49.014  26.561  27.445  1.00  0.00     0.057 A 
ATOM     69  C   UNL A   1      49.558  26.769  26.174  1.00  0.00     0.134 A 
ATOM     70  C   UNL A   1      49.855  26.031  28.429  1.00  0.00     0.134 A 
ATOM     71  F   UNL A   1      48.795  27.258  25.184  1.00  0.00    -0.206 F 
ATOM     72  C   UNL A   1      50.885  26.445  25.884  1.00  0.00     0.040 A 
ATOM     73  C   UNL A   1      51.190  25.723  28.161  1.00  0.00     0.040 A 
ATOM     74  F   UNL A   1      49.394  25.815  29.671  1.00  0.00    -0.206 F 
ATOM     75  C   UNL A   1      51.706  25.924  26.882  1.00  0.00     0.006 A 
ENDBRANCH  47  68
BRANCH  59  76
ATOM     76  C   UNL A   1      45.771  32.359  29.508  1.00  0.00     0.057 A 
ATOM     77  C   UNL A   1      45.810  33.392  28.565  1.00  0.00     0.134 A 
ATOM     78  C   UNL A   1      46.184  32.656  30.814  1.00  0.00     0.134 A 
ATOM     79  F   UNL A   1      45.442  33.167  27.295  1.00  0.00    -0.206 F 
ATOM     80  C   UNL A   1      46.258  34.671  28.903  1.00  0.00     0.040 A 
ATOM     81  C   UNL A   1      46.612  33.936  31.169  1.00  0.00     0.040 A 
ATOM     82  F   UNL A   1      46.165  31.712  31.766  1.00  0.00    -0.206 F 
ATOM     83  C   UNL A   1      46.654  34.946  30.210  1.00  0.00     0.006 A 
ENDBRANCH  59  76
ENDBRANCH  33  34
ENDBRANCH  25  28
ENDBRANCH  23  24
ENDBRANCH  22  23
ENDBRANCH   1  22
TORSDOF 14
ENDMDL
