MODEL 1
REMARK VINA RESULT:     -11.4      0.000      0.000
REMARK SMILES C[C@@H]1[C@H](C(=O)NCCCCNC(=O)c2ccc(-c3c4nc(c(-c5c(F)cccc5F)c5ccc([nH]5)c(-c5c(F)cccc5F)c5nc(c(-c6c(F)cccc6F)c6ccc3[nH]6)C=C5)C=C4)cc2)CC[N@@H+]1[C@@H](C)c1cc(F)cc(F)c1
REMARK SMILES IDX 8 1 7 2 6 3 4 4 5 5 3 7 1 8 2 9 70 10 68 11 69 12 71 14
REMARK SMILES IDX 72 15 73 16 74 17 80 18 75 19 78 20 76 21 77 22 79 23 9 24
REMARK SMILES IDX 10 25 11 26 12 27 13 29 14 30 15 31 67 32 16 33 66 34 17 35
REMARK SMILES IDX 18 36 19 37 60 38 20 39 65 40 59 41 61 42 21 43 64 44 58 45
REMARK SMILES IDX 57 46 22 48 48 49 31 50 47 51 32 52 35 53 46 54 62 55 33 56
REMARK SMILES IDX 34 57 45 59 63 60 36 61 23 62 24 63 29 64 25 65 26 66 28 67
REMARK SMILES IDX 30 68 27 69 49 70 50 71 55 72 51 73 52 74 54 75 56 76 53 77
REMARK SMILES IDX 37 78 38 79 43 80 39 81 40 82 42 83 44 84 41 85
REMARK H PARENT 6 6 70 13 11 28 61 47 35 58
REMARK Flexibility Score: inf
ROOT
ATOM      1  C   UNL A   1      31.856  29.160  25.644  1.00  0.00     0.023 C 
ENDROOT
BRANCH   1   2
ATOM      2  C   UNL A   1      31.296  28.922  24.242  1.00  0.00     0.116 C 
BRANCH   2   3
ATOM      3  N   UNL A   1      30.436  27.763  24.199  1.00  0.00    -0.356 N 
ATOM      4  C   UNL A   1      30.709  26.469  23.890  1.00  0.00     0.229 C 
ATOM      5  O   UNL A   1      29.745  25.696  23.861  1.00  0.00    -0.275 OA
ATOM      6  H   UNL A   1      29.495  27.940  24.433  1.00  0.00     0.163 HD
BRANCH   4   7
ATOM      7  C   UNL A   1      32.111  25.941  23.600  1.00  0.00     0.142 C 
ATOM      8  C   UNL A   1      32.335  25.264  26.127  1.00  0.00     0.076 C 
ATOM      9  C   UNL A   1      32.946  25.315  24.733  1.00  0.00     0.194 C 
ATOM     10  N   UNL A   1      33.501  24.083  24.171  1.00  0.00    -0.326 N 
ATOM     11  C   UNL A   1      32.215  24.988  22.411  1.00  0.00     0.081 C 
ATOM     12  C   UNL A   1      33.405  24.096  22.724  1.00  0.00     0.264 C 
ATOM     13  H   UNL A   1      34.472  24.121  24.481  1.00  0.00     0.348 HD
BRANCH  10  14
ATOM     14  C   UNL A   1      33.611  22.822  24.893  1.00  0.00     0.212 C 
ATOM     15  C   UNL A   1      32.759  21.696  24.291  1.00  0.00     0.081 C 
BRANCH  14  16
ATOM     16  C   UNL A   1      35.073  22.415  25.085  1.00  0.00     0.015 A 
ATOM     17  C   UNL A   1      36.091  23.326  25.415  1.00  0.00     0.049 A 
ATOM     18  C   UNL A   1      35.434  21.069  24.899  1.00  0.00     0.049 A 
ATOM     19  C   UNL A   1      37.416  22.904  25.518  1.00  0.00     0.126 A 
ATOM     20  C   UNL A   1      36.764  20.668  25.016  1.00  0.00     0.126 A 
ATOM     21  F   UNL A   1      38.366  23.802  25.809  1.00  0.00    -0.207 F 
ATOM     22  C   UNL A   1      37.765  21.579  25.316  1.00  0.00     0.078 A 
ATOM     23  F   UNL A   1      37.081  19.382  24.823  1.00  0.00    -0.207 F 
ENDBRANCH  14  16
ENDBRANCH  10  14
ENDBRANCH   4   7
ENDBRANCH   2   3
ENDBRANCH   1   2
BRANCH   1  24
ATOM     24  C   UNL A   1      33.340  28.864  25.807  1.00  0.00     0.023 C 
BRANCH  24  25
ATOM     25  C   UNL A   1      33.833  28.846  27.245  1.00  0.00     0.116 C 
BRANCH  25  26
ATOM     26  N   UNL A   1      33.825  30.156  27.885  1.00  0.00    -0.352 N 
ATOM     27  C   UNL A   1      34.844  30.789  28.557  1.00  0.00     0.251 C 
ATOM     28  H   UNL A   1      32.978  30.653  27.830  1.00  0.00     0.163 HD
ATOM     29  O   UNL A   1      34.652  31.860  29.124  1.00  0.00    -0.269 OA
BRANCH  27  30
ATOM     30  C   UNL A   1      36.167  30.139  28.620  1.00  0.00     0.039 A 
ATOM     31  C   UNL A   1      36.996  30.170  27.495  1.00  0.00     0.014 A 
ATOM     32  C   UNL A   1      36.612  29.573  29.816  1.00  0.00     0.014 A 
ATOM     33  C   UNL A   1      38.308  29.706  27.600  1.00  0.00     0.010 A 
ATOM     34  C   UNL A   1      37.944  29.205  29.944  1.00  0.00     0.010 A 
ATOM     35  C   UNL A   1      38.804  29.261  28.836  1.00  0.00    -0.014 A 
BRANCH  35  36
ATOM     36  C   UNL A   1      40.208  28.817  28.999  1.00  0.00     0.031 A 
ATOM     37  C   UNL A   1      41.227  29.778  29.549  1.00  0.00     0.074 A 
ATOM     38  C   UNL A   1      40.585  27.597  28.573  1.00  0.00     0.049 A 
ATOM     39  N   UNL A   1      42.522  29.639  29.657  1.00  0.00    -0.248 NA
ATOM     40  C   UNL A   1      40.723  31.087  29.997  1.00  0.00     0.031 C 
ATOM     41  C   UNL A   1      39.704  26.598  27.966  1.00  0.00     0.029 A 
ATOM     42  N   UNL A   1      41.817  26.994  28.576  1.00  0.00    -0.354 N 
ATOM     43  C   UNL A   1      42.988  30.852  30.149  1.00  0.00     0.074 A 
ATOM     44  C   UNL A   1      41.847  31.731  30.265  1.00  0.00     0.031 C 
ATOM     45  C   UNL A   1      40.419  25.496  27.681  1.00  0.00     0.029 A 
ATOM     46  C   UNL A   1      41.812  25.724  28.055  1.00  0.00     0.049 A 
ATOM     47  H   UNL A   1      42.630  27.432  28.919  1.00  0.00     0.167 HD
ATOM     48  C   UNL A   1      44.250  31.194  30.500  1.00  0.00     0.037 A 
ATOM     49  C   UNL A   1      42.819  24.843  27.898  1.00  0.00     0.037 A 
ATOM     50  C   UNL A   1      45.373  30.299  30.436  1.00  0.00     0.049 A 
ATOM     51  C   UNL A   1      44.203  25.228  28.342  1.00  0.00     0.074 A 
ATOM     52  C   UNL A   1      46.680  30.522  30.829  1.00  0.00     0.029 A 
ATOM     53  N   UNL A   1      45.314  28.998  29.957  1.00  0.00    -0.354 N 
ATOM     54  N   UNL A   1      44.621  26.358  28.857  1.00  0.00    -0.248 NA
ATOM     55  C   UNL A   1      45.252  24.210  28.191  1.00  0.00     0.031 C 
ATOM     56  C   UNL A   1      47.417  29.362  30.568  1.00  0.00     0.029 A 
ATOM     57  C   UNL A   1      46.562  28.407  30.043  1.00  0.00     0.049 A 
ATOM     58  H   UNL A   1      44.503  28.561  29.606  1.00  0.00     0.167 HD
ATOM     59  C   UNL A   1      45.972  26.179  29.120  1.00  0.00     0.074 A 
ATOM     60  C   UNL A   1      46.302  24.828  28.715  1.00  0.00     0.031 C 
ATOM     61  C   UNL A   1      46.862  27.054  29.651  1.00  0.00     0.037 A 
BRANCH  48  62
ATOM     62  C   UNL A   1      44.468  32.591  30.998  1.00  0.00     0.057 A 
ATOM     63  C   UNL A   1      44.341  32.919  32.355  1.00  0.00     0.134 A 
ATOM     64  C   UNL A   1      44.806  33.622  30.113  1.00  0.00     0.134 A 
ATOM     65  F   UNL A   1      43.999  31.981  33.251  1.00  0.00    -0.206 F 
ATOM     66  C   UNL A   1      44.510  34.228  32.808  1.00  0.00     0.040 A 
ATOM     67  C   UNL A   1      45.006  34.930  30.559  1.00  0.00     0.040 A 
ATOM     68  F   UNL A   1      44.946  33.377  28.802  1.00  0.00    -0.206 F 
ATOM     69  C   UNL A   1      44.849  35.237  31.910  1.00  0.00     0.006 A 
ENDBRANCH  48  62
BRANCH  49  70
ATOM     70  C   UNL A   1      42.547  23.496  27.341  1.00  0.00     0.057 A 
ATOM     71  C   UNL A   1      42.632  23.262  25.963  1.00  0.00     0.134 A 
ATOM     72  C   UNL A   1      42.196  22.417  28.159  1.00  0.00     0.134 A 
ATOM     73  F   UNL A   1      42.948  24.262  25.127  1.00  0.00    -0.206 F 
ATOM     74  C   UNL A   1      42.361  22.006  25.416  1.00  0.00     0.040 A 
ATOM     75  C   UNL A   1      41.941  21.151  27.628  1.00  0.00     0.040 A 
ATOM     76  F   UNL A   1      42.105  22.576  29.487  1.00  0.00    -0.206 F 
ATOM     77  C   UNL A   1      42.018  20.946  26.251  1.00  0.00     0.006 A 
ENDBRANCH  49  70
BRANCH  61  78
ATOM     78  C   UNL A   1      48.260  26.562  29.865  1.00  0.00     0.057 A 
ATOM     79  C   UNL A   1      48.645  25.922  31.048  1.00  0.00     0.134 A 
ATOM     80  C   UNL A   1      49.220  26.694  28.853  1.00  0.00     0.134 A 
ATOM     81  F   UNL A   1      47.774  25.777  32.057  1.00  0.00    -0.206 F 
ATOM     82  C   UNL A   1      49.944  25.444  31.225  1.00  0.00     0.040 A 
ATOM     83  C   UNL A   1      50.516  26.201  29.011  1.00  0.00     0.040 A 
ATOM     84  F   UNL A   1      48.910  27.291  27.693  1.00  0.00    -0.206 F 
ATOM     85  C   UNL A   1      50.881  25.578  30.202  1.00  0.00     0.006 A 
ENDBRANCH  61  78
ENDBRANCH  35  36
ENDBRANCH  27  30
ENDBRANCH  25  26
ENDBRANCH  24  25
ENDBRANCH   1  24
TORSDOF 13
ENDMDL
MODEL 2
REMARK VINA RESULT:     -11.4      2.774      7.686
REMARK SMILES C[C@@H]1[C@H](C(=O)NCCCCNC(=O)c2ccc(-c3c4nc(c(-c5c(F)cccc5F)c5ccc([nH]5)c(-c5c(F)cccc5F)c5nc(c(-c6c(F)cccc6F)c6ccc3[nH]6)C=C5)C=C4)cc2)CC[N@@H+]1[C@@H](C)c1cc(F)cc(F)c1
REMARK SMILES IDX 8 1 7 2 6 3 4 4 5 5 3 7 1 8 2 9 70 10 68 11 69 12 71 14
REMARK SMILES IDX 72 15 73 16 74 17 80 18 75 19 78 20 76 21 77 22 79 23 9 24
REMARK SMILES IDX 10 25 11 26 12 27 13 29 14 30 15 31 67 32 16 33 66 34 17 35
REMARK SMILES IDX 18 36 19 37 60 38 20 39 65 40 59 41 61 42 21 43 64 44 58 45
REMARK SMILES IDX 57 46 22 48 48 49 31 50 47 51 32 52 35 53 46 54 62 55 33 56
REMARK SMILES IDX 34 57 45 59 63 60 36 61 23 62 24 63 29 64 25 65 26 66 28 67
REMARK SMILES IDX 30 68 27 69 49 70 50 71 55 72 51 73 52 74 54 75 56 76 53 77
REMARK SMILES IDX 37 78 38 79 43 80 39 81 40 82 42 83 44 84 41 85
REMARK H PARENT 6 6 70 13 11 28 61 47 35 58
REMARK Flexibility Score: inf
ROOT
ATOM      1  C   UNL A   1      36.692  19.585  24.963  1.00  0.00     0.023 C 
ENDROOT
BRANCH   1   2
ATOM      2  C   UNL A   1      35.397  20.395  24.993  1.00  0.00     0.116 C 
BRANCH   2   3
ATOM      3  N   UNL A   1      34.238  19.548  25.148  1.00  0.00    -0.356 N 
ATOM      4  C   UNL A   1      32.914  19.846  25.128  1.00  0.00     0.229 C 
ATOM      5  O   UNL A   1      32.137  18.916  25.368  1.00  0.00    -0.275 OA
ATOM      6  H   UNL A   1      34.442  18.595  25.293  1.00  0.00     0.163 HD
BRANCH   4   7
ATOM      7  C   UNL A   1      32.359  21.234  24.816  1.00  0.00     0.142 C 
ATOM      8  C   UNL A   1      33.091  22.020  27.212  1.00  0.00     0.076 C 
ATOM      9  C   UNL A   1      32.453  22.354  25.870  1.00  0.00     0.194 C 
ATOM     10  N   UNL A   1      32.934  23.530  25.144  1.00  0.00    -0.326 N 
ATOM     11  C   UNL A   1      32.832  21.843  23.497  1.00  0.00     0.081 C 
ATOM     12  C   UNL A   1      32.775  23.346  23.715  1.00  0.00     0.264 C 
ATOM     13  H   UNL A   1      32.323  24.267  25.496  1.00  0.00     0.348 HD
BRANCH  10  14
ATOM     14  C   UNL A   1      33.912  24.478  25.663  1.00  0.00     0.212 C 
ATOM     15  C   UNL A   1      35.312  24.306  25.056  1.00  0.00     0.081 C 
BRANCH  14  16
ATOM     16  C   UNL A   1      33.401  25.916  25.565  1.00  0.00     0.015 A 
ATOM     17  C   UNL A   1      33.838  26.826  24.587  1.00  0.00     0.049 A 
ATOM     18  C   UNL A   1      32.467  26.371  26.512  1.00  0.00     0.049 A 
ATOM     19  C   UNL A   1      33.379  28.142  24.587  1.00  0.00     0.126 A 
ATOM     20  C   UNL A   1      32.015  27.690  26.487  1.00  0.00     0.126 A 
ATOM     21  F   UNL A   1      33.835  28.992  23.656  1.00  0.00    -0.207 F 
ATOM     22  C   UNL A   1      32.472  28.587  25.533  1.00  0.00     0.078 A 
ATOM     23  F   UNL A   1      31.134  28.100  27.407  1.00  0.00    -0.207 F 
ENDBRANCH  14  16
ENDBRANCH  10  14
ENDBRANCH   4   7
ENDBRANCH   2   3
ENDBRANCH   1   2
BRANCH   1  24
ATOM     24  C   UNL A   1      37.951  20.386  24.664  1.00  0.00     0.023 C 
BRANCH  24  25
ATOM     25  C   UNL A   1      38.939  20.475  25.815  1.00  0.00     0.116 C 
BRANCH  25  26
ATOM     26  N   UNL A   1      39.975  19.450  25.781  1.00  0.00    -0.352 N 
ATOM     27  C   UNL A   1      41.307  19.565  26.103  1.00  0.00     0.251 C 
ATOM     28  H   UNL A   1      39.682  18.557  25.489  1.00  0.00     0.163 HD
ATOM     29  O   UNL A   1      42.076  18.624  25.933  1.00  0.00    -0.269 OA
BRANCH  27  30
ATOM     30  C   UNL A   1      41.806  20.854  26.619  1.00  0.00     0.039 A 
ATOM     31  C   UNL A   1      42.278  21.811  25.718  1.00  0.00     0.014 A 
ATOM     32  C   UNL A   1      41.728  21.138  27.983  1.00  0.00     0.014 A 
ATOM     33  C   UNL A   1      42.594  23.089  26.182  1.00  0.00     0.010 A 
ATOM     34  C   UNL A   1      41.947  22.435  28.425  1.00  0.00     0.010 A 
ATOM     35  C   UNL A   1      42.389  23.422  27.530  1.00  0.00    -0.014 A 
BRANCH  35  36
ATOM     36  C   UNL A   1      42.656  24.786  28.046  1.00  0.00     0.031 A 
ATOM     37  C   UNL A   1      44.052  25.156  28.467  1.00  0.00     0.074 A 
ATOM     38  C   UNL A   1      41.641  25.652  28.222  1.00  0.00     0.049 A 
ATOM     39  N   UNL A   1      44.478  26.241  29.057  1.00  0.00    -0.248 NA
ATOM     40  C   UNL A   1      45.100  24.148  28.231  1.00  0.00     0.031 C 
ATOM     41  C   UNL A   1      40.234  25.391  27.911  1.00  0.00     0.029 A 
ATOM     42  N   UNL A   1      41.637  26.930  28.721  1.00  0.00    -0.354 N 
ATOM     43  C   UNL A   1      45.831  26.032  29.293  1.00  0.00     0.074 A 
ATOM     44  C   UNL A   1      46.141  24.696  28.835  1.00  0.00     0.031 C 
ATOM     45  C   UNL A   1      39.509  26.485  28.198  1.00  0.00     0.029 A 
ATOM     46  C   UNL A   1      40.393  27.510  28.744  1.00  0.00     0.049 A 
ATOM     47  H   UNL A   1      42.451  27.389  29.032  1.00  0.00     0.167 HD
ATOM     48  C   UNL A   1      46.741  26.885  29.819  1.00  0.00     0.037 A 
ATOM     49  C   UNL A   1      40.011  28.733  29.159  1.00  0.00     0.037 A 
ATOM     50  C   UNL A   1      46.441  28.232  30.221  1.00  0.00     0.049 A 
ATOM     51  C   UNL A   1      41.048  29.682  29.692  1.00  0.00     0.074 A 
ATOM     52  C   UNL A   1      47.300  29.203  30.702  1.00  0.00     0.029 A 
ATOM     53  N   UNL A   1      45.177  28.802  30.173  1.00  0.00    -0.354 N 
ATOM     54  N   UNL A   1      42.333  29.492  29.859  1.00  0.00    -0.248 NA
ATOM     55  C   UNL A   1      40.581  31.019  30.085  1.00  0.00     0.031 C 
ATOM     56  C   UNL A   1      46.553  30.354  30.967  1.00  0.00     0.029 A 
ATOM     57  C   UNL A   1      45.234  30.112  30.619  1.00  0.00     0.049 A 
ATOM     58  H   UNL A   1      44.361  28.343  29.868  1.00  0.00     0.167 HD
ATOM     59  C   UNL A   1      42.835  30.691  30.346  1.00  0.00     0.074 A 
ATOM     60  C   UNL A   1      41.716  31.605  30.442  1.00  0.00     0.031 C 
ATOM     61  C   UNL A   1      44.109  31.008  30.686  1.00  0.00     0.037 A 
BRANCH  48  62
ATOM     62  C   UNL A   1      48.146  26.383  29.968  1.00  0.00     0.057 A 
ATOM     63  C   UNL A   1      48.588  25.769  31.148  1.00  0.00     0.134 A 
ATOM     64  C   UNL A   1      49.068  26.515  28.923  1.00  0.00     0.134 A 
ATOM     65  F   UNL A   1      47.759  25.630  32.193  1.00  0.00    -0.206 F 
ATOM     66  C   UNL A   1      49.906  25.334  31.294  1.00  0.00     0.040 A 
ATOM     67  C   UNL A   1      50.382  26.058  29.048  1.00  0.00     0.040 A 
ATOM     68  F   UNL A   1      48.710  27.091  27.766  1.00  0.00    -0.206 F 
ATOM     69  C   UNL A   1      50.806  25.474  30.240  1.00  0.00     0.006 A 
ENDBRANCH  48  62
BRANCH  49  70
ATOM     70  C   UNL A   1      38.591  29.148  29.041  1.00  0.00     0.057 A 
ATOM     71  C   UNL A   1      38.082  29.614  27.824  1.00  0.00     0.134 A 
ATOM     72  C   UNL A   1      37.715  29.092  30.130  1.00  0.00     0.134 A 
ATOM     73  F   UNL A   1      38.878  29.705  26.749  1.00  0.00    -0.206 F 
ATOM     74  C   UNL A   1      36.754  30.028  27.697  1.00  0.00     0.040 A 
ATOM     75  C   UNL A   1      36.380  29.484  30.014  1.00  0.00     0.040 A 
ATOM     76  F   UNL A   1      38.142  28.648  31.321  1.00  0.00    -0.206 F 
ATOM     77  C   UNL A   1      35.899  29.960  28.794  1.00  0.00     0.006 A 
ENDBRANCH  49  70
BRANCH  61  78
ATOM     78  C   UNL A   1      44.365  32.411  31.144  1.00  0.00     0.057 A 
ATOM     79  C   UNL A   1      44.661  33.440  30.244  1.00  0.00     0.134 A 
ATOM     80  C   UNL A   1      44.270  32.741  32.503  1.00  0.00     0.134 A 
ATOM     81  F   UNL A   1      44.777  33.184  28.932  1.00  0.00    -0.206 F 
ATOM     82  C   UNL A   1      44.872  34.749  30.680  1.00  0.00     0.040 A 
ATOM     83  C   UNL A   1      44.457  34.050  32.948  1.00  0.00     0.040 A 
ATOM     84  F   UNL A   1      43.982  31.800  33.414  1.00  0.00    -0.206 F 
ATOM     85  C   UNL A   1      44.764  35.057  32.035  1.00  0.00     0.006 A 
ENDBRANCH  61  78
ENDBRANCH  35  36
ENDBRANCH  27  30
ENDBRANCH  25  26
ENDBRANCH  24  25
ENDBRANCH   1  24
TORSDOF 13
ENDMDL
MODEL 3
REMARK VINA RESULT:     -11.4      1.489      2.440
REMARK SMILES C[C@@H]1[C@H](C(=O)NCCCCNC(=O)c2ccc(-c3c4nc(c(-c5c(F)cccc5F)c5ccc([nH]5)c(-c5c(F)cccc5F)c5nc(c(-c6c(F)cccc6F)c6ccc3[nH]6)C=C5)C=C4)cc2)CC[N@@H+]1[C@@H](C)c1cc(F)cc(F)c1
REMARK SMILES IDX 8 1 7 2 6 3 4 4 5 5 3 7 1 8 2 9 70 10 68 11 69 12 71 14
REMARK SMILES IDX 72 15 73 16 74 17 80 18 75 19 78 20 76 21 77 22 79 23 9 24
REMARK SMILES IDX 10 25 11 26 12 27 13 29 14 30 15 31 67 32 16 33 66 34 17 35
REMARK SMILES IDX 18 36 19 37 60 38 20 39 65 40 59 41 61 42 21 43 64 44 58 45
REMARK SMILES IDX 57 46 22 48 48 49 31 50 47 51 32 52 35 53 46 54 62 55 33 56
REMARK SMILES IDX 34 57 45 59 63 60 36 61 23 62 24 63 29 64 25 65 26 66 28 67
REMARK SMILES IDX 30 68 27 69 49 70 50 71 55 72 51 73 52 74 54 75 56 76 53 77
REMARK SMILES IDX 37 78 38 79 43 80 39 81 40 82 42 83 44 84 41 85
REMARK H PARENT 6 6 70 13 11 28 61 47 35 58
REMARK Flexibility Score: inf
ROOT
ATOM      1  C   UNL A   1      32.991  29.627  25.101  1.00  0.00     0.023 C 
ENDROOT
BRANCH   1   2
ATOM      2  C   UNL A   1      31.522  29.262  24.894  1.00  0.00     0.116 C 
BRANCH   2   3
ATOM      3  N   UNL A   1      31.033  29.717  23.614  1.00  0.00    -0.356 N 
ATOM      4  C   UNL A   1      30.517  29.023  22.566  1.00  0.00     0.229 C 
ATOM      5  O   UNL A   1      30.248  29.677  21.553  1.00  0.00    -0.275 OA
ATOM      6  H   UNL A   1      31.082  30.691  23.477  1.00  0.00     0.163 HD
BRANCH   4   7
ATOM      7  C   UNL A   1      30.249  27.520  22.590  1.00  0.00     0.142 C 
ATOM      8  C   UNL A   1      32.828  27.098  22.336  1.00  0.00     0.076 C 
ATOM      9  C   UNL A   1      31.424  26.529  22.483  1.00  0.00     0.194 C 
ATOM     10  N   UNL A   1      31.183  25.529  23.524  1.00  0.00    -0.326 N 
ATOM     11  C   UNL A   1      29.377  27.032  23.745  1.00  0.00     0.081 C 
ATOM     12  C   UNL A   1      29.810  25.595  23.985  1.00  0.00     0.264 C 
ATOM     13  H   UNL A   1      31.369  24.654  23.032  1.00  0.00     0.348 HD
BRANCH  10  14
ATOM     14  C   UNL A   1      32.219  24.951  24.369  1.00  0.00     0.212 C 
ATOM     15  C   UNL A   1      32.123  25.386  25.839  1.00  0.00     0.081 C 
BRANCH  14  16
ATOM     16  C   UNL A   1      32.286  23.431  24.209  1.00  0.00     0.015 A 
ATOM     17  C   UNL A   1      32.562  22.554  25.273  1.00  0.00     0.049 A 
ATOM     18  C   UNL A   1      32.090  22.872  22.934  1.00  0.00     0.049 A 
ATOM     19  C   UNL A   1      32.668  21.182  25.052  1.00  0.00     0.126 A 
ATOM     20  C   UNL A   1      32.194  21.496  22.739  1.00  0.00     0.126 A 
ATOM     21  F   UNL A   1      32.957  20.376  26.082  1.00  0.00    -0.207 F 
ATOM     22  C   UNL A   1      32.491  20.642  23.789  1.00  0.00     0.078 A 
ATOM     23  F   UNL A   1      32.014  20.992  21.512  1.00  0.00    -0.207 F 
ENDBRANCH  14  16
ENDBRANCH  10  14
ENDBRANCH   4   7
ENDBRANCH   2   3
ENDBRANCH   1   2
BRANCH   1  24
ATOM     24  C   UNL A   1      33.819  28.587  25.842  1.00  0.00     0.023 C 
BRANCH  24  25
ATOM     25  C   UNL A   1      33.747  28.675  27.358  1.00  0.00     0.116 C 
BRANCH  25  26
ATOM     26  N   UNL A   1      33.752  30.041  27.868  1.00  0.00    -0.352 N 
ATOM     27  C   UNL A   1      34.786  30.738  28.446  1.00  0.00     0.251 C 
ATOM     28  H   UNL A   1      32.901  30.530  27.787  1.00  0.00     0.163 HD
ATOM     29  O   UNL A   1      34.605  31.858  28.912  1.00  0.00    -0.269 OA
BRANCH  27  30
ATOM     30  C   UNL A   1      36.113  30.098  28.536  1.00  0.00     0.039 A 
ATOM     31  C   UNL A   1      36.986  30.184  27.448  1.00  0.00     0.014 A 
ATOM     32  C   UNL A   1      36.516  29.488  29.725  1.00  0.00     0.014 A 
ATOM     33  C   UNL A   1      38.297  29.729  27.586  1.00  0.00     0.010 A 
ATOM     34  C   UNL A   1      37.845  29.127  29.892  1.00  0.00     0.010 A 
ATOM     35  C   UNL A   1      38.748  29.237  28.822  1.00  0.00    -0.014 A 
BRANCH  35  36
ATOM     36  C   UNL A   1      40.150  28.801  29.024  1.00  0.00     0.031 A 
ATOM     37  C   UNL A   1      41.143  29.759  29.622  1.00  0.00     0.074 A 
ATOM     38  C   UNL A   1      40.550  27.590  28.590  1.00  0.00     0.049 A 
ATOM     39  N   UNL A   1      42.435  29.628  29.770  1.00  0.00    -0.248 NA
ATOM     40  C   UNL A   1      40.615  31.057  30.075  1.00  0.00     0.031 C 
ATOM     41  C   UNL A   1      39.697  26.595  27.938  1.00  0.00     0.029 A 
ATOM     42  N   UNL A   1      41.786  26.996  28.623  1.00  0.00    -0.354 N 
ATOM     43  C   UNL A   1      42.876  30.835  30.297  1.00  0.00     0.074 A 
ATOM     44  C   UNL A   1      41.725  31.704  30.390  1.00  0.00     0.031 C 
ATOM     45  C   UNL A   1      40.429  25.504  27.658  1.00  0.00     0.029 A 
ATOM     46  C   UNL A   1      41.806  25.735  28.081  1.00  0.00     0.049 A 
ATOM     47  H   UNL A   1      42.584  27.434  29.000  1.00  0.00     0.167 HD
ATOM     48  C   UNL A   1      44.123  31.180  30.694  1.00  0.00     0.037 A 
ATOM     49  C   UNL A   1      42.825  24.864  27.943  1.00  0.00     0.037 A 
ATOM     50  C   UNL A   1      45.254  30.294  30.652  1.00  0.00     0.049 A 
ATOM     51  C   UNL A   1      44.191  25.251  28.438  1.00  0.00     0.074 A 
ATOM     52  C   UNL A   1      46.546  30.519  31.091  1.00  0.00     0.029 A 
ATOM     53  N   UNL A   1      45.220  29.001  30.150  1.00  0.00    -0.354 N 
ATOM     54  N   UNL A   1      44.583  26.375  28.985  1.00  0.00    -0.248 NA
ATOM     55  C   UNL A   1      45.252  24.243  28.304  1.00  0.00     0.031 C 
ATOM     56  C   UNL A   1      47.300  29.370  30.835  1.00  0.00     0.029 A 
ATOM     57  C   UNL A   1      46.470  28.417  30.267  1.00  0.00     0.049 A 
ATOM     58  H   UNL A   1      44.425  28.565  29.766  1.00  0.00     0.167 HD
ATOM     59  C   UNL A   1      45.926  26.201  29.289  1.00  0.00     0.074 A 
ATOM     60  C   UNL A   1      46.280  24.860  28.872  1.00  0.00     0.031 C 
ATOM     61  C   UNL A   1      46.792  27.073  29.862  1.00  0.00     0.037 A 
BRANCH  48  62
ATOM     62  C   UNL A   1      44.314  32.571  31.222  1.00  0.00     0.057 A 
ATOM     63  C   UNL A   1      44.139  32.875  32.579  1.00  0.00     0.134 A 
ATOM     64  C   UNL A   1      44.675  33.618  30.366  1.00  0.00     0.134 A 
ATOM     65  F   UNL A   1      43.774  31.920  33.447  1.00  0.00    -0.206 F 
ATOM     66  C   UNL A   1      44.283  34.177  33.059  1.00  0.00     0.040 A 
ATOM     67  C   UNL A   1      44.851  34.919  30.841  1.00  0.00     0.040 A 
ATOM     68  F   UNL A   1      44.861  33.395  29.057  1.00  0.00    -0.206 F 
ATOM     69  C   UNL A   1      44.646  35.203  32.190  1.00  0.00     0.006 A 
ENDBRANCH  48  62
BRANCH  49  70
ATOM     70  C   UNL A   1      42.582  23.525  27.354  1.00  0.00     0.057 A 
ATOM     71  C   UNL A   1      42.237  22.438  28.168  1.00  0.00     0.134 A 
ATOM     72  C   UNL A   1      42.688  23.294  25.979  1.00  0.00     0.134 A 
ATOM     73  F   UNL A   1      42.136  22.595  29.495  1.00  0.00    -0.206 F 
ATOM     74  C   UNL A   1      42.024  21.165  27.636  1.00  0.00     0.040 A 
ATOM     75  C   UNL A   1      42.458  22.030  25.431  1.00  0.00     0.040 A 
ATOM     76  F   UNL A   1      43.008  24.296  25.147  1.00  0.00    -0.206 F 
ATOM     77  C   UNL A   1      42.131  20.961  26.262  1.00  0.00     0.006 A 
ENDBRANCH  49  70
BRANCH  61  78
ATOM     78  C   UNL A   1      48.186  26.588  30.113  1.00  0.00     0.057 A 
ATOM     79  C   UNL A   1      49.223  26.814  29.200  1.00  0.00     0.134 A 
ATOM     80  C   UNL A   1      48.502  25.924  31.306  1.00  0.00     0.134 A 
ATOM     81  F   UNL A   1      48.980  27.434  28.036  1.00  0.00    -0.206 F 
ATOM     82  C   UNL A   1      50.524  26.381  29.457  1.00  0.00     0.040 A 
ATOM     83  C   UNL A   1      49.804  25.505  31.582  1.00  0.00     0.040 A 
ATOM     84  F   UNL A   1      47.554  25.684  32.224  1.00  0.00    -0.206 F 
ATOM     85  C   UNL A   1      50.818  25.730  30.654  1.00  0.00     0.006 A 
ENDBRANCH  61  78
ENDBRANCH  35  36
ENDBRANCH  27  30
ENDBRANCH  25  26
ENDBRANCH  24  25
ENDBRANCH   1  24
TORSDOF 13
ENDMDL
