MODEL 1
REMARK VINA RESULT:     -10.3      0.000      0.000
REMARK SMILES CCC(CC)Oc1ccc(OC)cc1/C=C/C(=O)NCCCCNC(=O)c1ccc(-c2c3nc(c(-c4c(F)cccc4F)c4ccc([nH]4)c(-c4c(F)cccc4F)c4nc(c(-c5c(F)cccc5F)c5ccc2[nH]5)C=C4)C=C3)cc1
REMARK SMILES IDX 20 1 19 2 17 3 18 4 16 6 15 7 14 8 7 9 8 10 9 11 13 12 10 13
REMARK SMILES IDX 6 14 3 15 2 16 1 17 4 18 5 19 11 20 12 21 21 22 22 23 23 24
REMARK SMILES IDX 24 25 25 26 26 28 27 29 28 30 80 31 29 32 79 33 30 34 31 35
REMARK SMILES IDX 32 36 73 37 33 38 78 39 72 40 74 41 34 42 77 43 71 44 70 45
REMARK SMILES IDX 35 47 61 48 44 49 60 50 45 51 48 52 59 53 75 54 46 55 47 56
REMARK SMILES IDX 58 58 76 59 49 60 36 61 37 62 42 63 38 64 39 65 41 66 43 67
REMARK SMILES IDX 40 68 62 69 63 70 68 71 64 72 65 73 67 74 69 75 66 76 50 77
REMARK SMILES IDX 51 78 56 79 52 80 53 81 55 82 57 83 54 84
REMARK H PARENT 19 5 24 27 74 46 48 57
REMARK Flexibility Score: inf
ROOT
ATOM      1  C   UNL A   1      32.422  28.447  23.610  1.00  0.00     0.116 C 
ENDROOT
BRANCH   1   2
ATOM      2  N   UNL A   1      32.979  27.872  22.407  1.00  0.00    -0.353 N 
ATOM      3  C   UNL A   1      33.257  26.572  22.131  1.00  0.00     0.244 C 
ATOM      4  O   UNL A   1      33.412  26.221  20.964  1.00  0.00    -0.270 OA
ATOM      5  H   UNL A   1      33.184  28.512  21.688  1.00  0.00     0.163 HD
BRANCH   3   6
ATOM      6  C   UNL A   1      33.327  25.548  23.199  1.00  0.00     0.072 C 
ATOM      7  C   UNL A   1      34.233  25.548  24.193  1.00  0.00     0.018 C 
BRANCH   7   8
ATOM      8  C   UNL A   1      34.451  24.379  25.074  1.00  0.00     0.020 A 
ATOM      9  C   UNL A   1      33.599  24.056  26.143  1.00  0.00     0.127 A 
ATOM     10  C   UNL A   1      33.981  23.089  27.082  1.00  0.00     0.051 A 
ATOM     11  C   UNL A   1      35.155  22.359  26.903  1.00  0.00     0.050 A 
ATOM     12  C   UNL A   1      35.639  23.633  24.919  1.00  0.00     0.058 A 
ATOM     13  C   UNL A   1      35.976  22.606  25.806  1.00  0.00     0.119 A 
BRANCH   9  14
ATOM     14  O   UNL A   1      32.447  24.743  26.398  1.00  0.00    -0.490 OA
BRANCH  14  15
ATOM     15  C   UNL A   1      31.201  24.181  25.918  1.00  0.00     0.172 C 
BRANCH  15  16
ATOM     16  C   UNL A   1      30.248  25.331  25.585  1.00  0.00     0.042 C 
ATOM     17  C   UNL A   1      30.634  26.702  26.110  1.00  0.00     0.008 C 
ENDBRANCH  15  16
BRANCH  15  18
ATOM     18  C   UNL A   1      31.242  23.045  24.873  1.00  0.00     0.042 C 
ATOM     19  C   UNL A   1      30.653  23.344  23.498  1.00  0.00     0.008 C 
ENDBRANCH  15  18
ENDBRANCH  14  15
ENDBRANCH   9  14
BRANCH  13  20
ATOM     20  O   UNL A   1      37.092  21.820  25.729  1.00  0.00    -0.497 OA
ATOM     21  C   UNL A   1      37.161  20.922  24.626  1.00  0.00     0.278 C 
ENDBRANCH  13  20
ENDBRANCH   7   8
ENDBRANCH   3   6
ENDBRANCH   1   2
BRANCH   1  22
ATOM     22  C   UNL A   1      33.491  29.021  24.541  1.00  0.00     0.023 C 
BRANCH  22  23
ATOM     23  C   UNL A   1      32.927  29.485  25.884  1.00  0.00     0.023 C 
BRANCH  23  24
ATOM     24  C   UNL A   1      33.879  29.347  27.070  1.00  0.00     0.116 C 
BRANCH  24  25
ATOM     25  N   UNL A   1      33.905  30.506  27.948  1.00  0.00    -0.352 N 
ATOM     26  C   UNL A   1      34.942  30.951  28.747  1.00  0.00     0.251 C 
ATOM     27  H   UNL A   1      33.079  31.042  27.976  1.00  0.00     0.163 HD
ATOM     28  O   UNL A   1      34.805  31.917  29.475  1.00  0.00    -0.269 OA
BRANCH  26  29
ATOM     29  C   UNL A   1      36.214  30.190  28.746  1.00  0.00     0.039 A 
ATOM     30  C   UNL A   1      37.021  30.231  27.606  1.00  0.00     0.014 A 
ATOM     31  C   UNL A   1      36.649  29.529  29.898  1.00  0.00     0.014 A 
ATOM     32  C   UNL A   1      38.313  29.703  27.659  1.00  0.00     0.010 A 
ATOM     33  C   UNL A   1      37.961  29.068  29.970  1.00  0.00     0.010 A 
ATOM     34  C   UNL A   1      38.815  29.172  28.859  1.00  0.00    -0.014 A 
BRANCH  34  35
ATOM     35  C   UNL A   1      40.238  28.764  28.994  1.00  0.00     0.031 A 
ATOM     36  C   UNL A   1      41.268  29.752  29.462  1.00  0.00     0.074 A 
ATOM     37  C   UNL A   1      40.621  27.531  28.603  1.00  0.00     0.049 A 
ATOM     38  N   UNL A   1      42.569  29.622  29.527  1.00  0.00    -0.248 NA
ATOM     39  C   UNL A   1      40.772  31.070  29.885  1.00  0.00     0.031 C 
ATOM     40  C   UNL A   1      39.731  26.491  28.080  1.00  0.00     0.029 A 
ATOM     41  N   UNL A   1      41.865  26.950  28.564  1.00  0.00    -0.354 N 
ATOM     42  C   UNL A   1      43.048  30.845  29.976  1.00  0.00     0.074 A 
ATOM     43  C   UNL A   1      41.902  31.718  30.126  1.00  0.00     0.031 C 
ATOM     44  C   UNL A   1      40.454  25.398  27.790  1.00  0.00     0.029 A 
ATOM     45  C   UNL A   1      41.861  25.669  28.067  1.00  0.00     0.049 A 
ATOM     46  H   UNL A   1      42.682  27.409  28.866  1.00  0.00     0.167 HD
ATOM     47  C   UNL A   1      44.323  31.204  30.257  1.00  0.00     0.037 A 
ATOM     48  C   UNL A   1      42.878  24.813  27.847  1.00  0.00     0.037 A 
ATOM     49  C   UNL A   1      45.459  30.330  30.140  1.00  0.00     0.049 A 
ATOM     50  C   UNL A   1      44.283  25.232  28.174  1.00  0.00     0.074 A 
ATOM     51  C   UNL A   1      46.781  30.586  30.462  1.00  0.00     0.029 A 
ATOM     52  N   UNL A   1      45.408  29.028  29.665  1.00  0.00    -0.354 N 
ATOM     53  N   UNL A   1      44.714  26.373  28.653  1.00  0.00    -0.248 NA
ATOM     54  C   UNL A   1      45.345  24.245  27.930  1.00  0.00     0.031 C 
ATOM     55  C   UNL A   1      47.535  29.449  30.152  1.00  0.00     0.029 A 
ATOM     56  C   UNL A   1      46.678  28.474  29.671  1.00  0.00     0.049 A 
ATOM     57  H   UNL A   1      44.592  28.567  29.367  1.00  0.00     0.167 HD
ATOM     58  C   UNL A   1      46.088  26.234  28.793  1.00  0.00     0.074 A 
ATOM     59  C   UNL A   1      46.420  24.894  28.356  1.00  0.00     0.031 C 
ATOM     60  C   UNL A   1      46.992  27.135  29.244  1.00  0.00     0.037 A 
BRANCH  47  61
ATOM     61  C   UNL A   1      44.552  32.608  30.731  1.00  0.00     0.057 A 
ATOM     62  C   UNL A   1      44.526  32.939  32.092  1.00  0.00     0.134 A 
ATOM     63  C   UNL A   1      44.826  33.636  29.821  1.00  0.00     0.134 A 
ATOM     64  F   UNL A   1      44.256  32.002  33.014  1.00  0.00    -0.206 F 
ATOM     65  C   UNL A   1      44.737  34.247  32.530  1.00  0.00     0.040 A 
ATOM     66  C   UNL A   1      45.064  34.944  30.247  1.00  0.00     0.040 A 
ATOM     67  F   UNL A   1      44.871  33.386  28.503  1.00  0.00    -0.206 F 
ATOM     68  C   UNL A   1      45.013  35.253  31.605  1.00  0.00     0.006 A 
ENDBRANCH  47  61
BRANCH  48  69
ATOM     69  C   UNL A   1      42.603  23.461  27.301  1.00  0.00     0.057 A 
ATOM     70  C   UNL A   1      42.670  23.215  25.925  1.00  0.00     0.134 A 
ATOM     71  C   UNL A   1      42.262  22.389  28.134  1.00  0.00     0.134 A 
ATOM     72  F   UNL A   1      42.972  24.207  25.076  1.00  0.00    -0.206 F 
ATOM     73  C   UNL A   1      42.391  21.953  25.394  1.00  0.00     0.040 A 
ATOM     74  C   UNL A   1      42.002  21.118  27.619  1.00  0.00     0.040 A 
ATOM     75  F   UNL A   1      42.186  22.560  29.462  1.00  0.00    -0.206 F 
ATOM     76  C   UNL A   1      42.060  20.900  26.243  1.00  0.00     0.006 A 
ENDBRANCH  48  69
BRANCH  60  77
ATOM     77  C   UNL A   1      48.423  26.696  29.322  1.00  0.00     0.057 A 
ATOM     78  C   UNL A   1      49.321  26.923  28.273  1.00  0.00     0.134 A 
ATOM     79  C   UNL A   1      48.918  26.085  30.481  1.00  0.00     0.134 A 
ATOM     80  F   UNL A   1      48.904  27.491  27.131  1.00  0.00    -0.206 F 
ATOM     81  C   UNL A   1      50.662  26.547  28.370  1.00  0.00     0.040 A 
ATOM     82  C   UNL A   1      50.261  25.724  30.597  1.00  0.00     0.040 A 
ATOM     83  F   UNL A   1      48.108  25.846  31.524  1.00  0.00    -0.206 F 
ATOM     84  C   UNL A   1      51.137  25.952  29.537  1.00  0.00     0.006 A 
ENDBRANCH  60  77
ENDBRANCH  34  35
ENDBRANCH  26  29
ENDBRANCH  24  25
ENDBRANCH  23  24
ENDBRANCH  22  23
ENDBRANCH   1  22
TORSDOF 17
ENDMDL
MODEL 2
REMARK VINA RESULT:     -10.2      4.088      5.937
REMARK SMILES CCC(CC)Oc1ccc(OC)cc1/C=C/C(=O)NCCCCNC(=O)c1ccc(-c2c3nc(c(-c4c(F)cccc4F)c4ccc([nH]4)c(-c4c(F)cccc4F)c4nc(c(-c5c(F)cccc5F)c5ccc2[nH]5)C=C4)C=C3)cc1
REMARK SMILES IDX 20 1 19 2 17 3 18 4 16 6 15 7 14 8 7 9 8 10 9 11 13 12 10 13
REMARK SMILES IDX 6 14 3 15 2 16 1 17 4 18 5 19 11 20 12 21 21 22 22 23 23 24
REMARK SMILES IDX 24 25 25 26 26 28 27 29 28 30 80 31 29 32 79 33 30 34 31 35
REMARK SMILES IDX 32 36 73 37 33 38 78 39 72 40 74 41 34 42 77 43 71 44 70 45
REMARK SMILES IDX 35 47 61 48 44 49 60 50 45 51 48 52 59 53 75 54 46 55 47 56
REMARK SMILES IDX 58 58 76 59 49 60 36 61 37 62 42 63 38 64 39 65 41 66 43 67
REMARK SMILES IDX 40 68 62 69 63 70 68 71 64 72 65 73 67 74 69 75 66 76 50 77
REMARK SMILES IDX 51 78 56 79 52 80 53 81 55 82 57 83 54 84
REMARK H PARENT 19 5 24 27 74 46 48 57
REMARK Flexibility Score: inf
ROOT
ATOM      1  C   UNL A   1      33.409  29.731  27.036  1.00  0.00     0.116 C 
ENDROOT
BRANCH   1   2
ATOM      2  N   UNL A   1      33.982  29.516  25.728  1.00  0.00    -0.353 N 
ATOM      3  C   UNL A   1      33.968  28.395  24.962  1.00  0.00     0.244 C 
ATOM      4  O   UNL A   1      34.208  28.479  23.760  1.00  0.00    -0.270 OA
ATOM      5  H   UNL A   1      34.448  30.291  25.337  1.00  0.00     0.163 HD
BRANCH   3   6
ATOM      6  C   UNL A   1      33.617  27.071  25.528  1.00  0.00     0.072 C 
ATOM      7  C   UNL A   1      33.510  25.941  24.808  1.00  0.00     0.018 C 
BRANCH   7   8
ATOM      8  C   UNL A   1      32.897  24.707  25.346  1.00  0.00     0.020 A 
ATOM      9  C   UNL A   1      33.343  23.419  25.009  1.00  0.00     0.127 A 
ATOM     10  C   UNL A   1      32.582  22.296  25.355  1.00  0.00     0.051 A 
ATOM     11  C   UNL A   1      31.433  22.435  26.133  1.00  0.00     0.050 A 
ATOM     12  C   UNL A   1      31.725  24.824  26.126  1.00  0.00     0.058 A 
ATOM     13  C   UNL A   1      31.015  23.697  26.547  1.00  0.00     0.119 A 
BRANCH   9  14
ATOM     14  O   UNL A   1      34.442  23.203  24.229  1.00  0.00    -0.490 OA
BRANCH  14  15
ATOM     15  C   UNL A   1      35.627  22.660  24.861  1.00  0.00     0.172 C 
BRANCH  15  16
ATOM     16  C   UNL A   1      36.169  23.697  25.847  1.00  0.00     0.042 C 
ATOM     17  C   UNL A   1      37.678  23.764  25.995  1.00  0.00     0.008 C 
ENDBRANCH  15  16
BRANCH  15  18
ATOM     18  C   UNL A   1      35.598  21.210  25.391  1.00  0.00     0.042 C 
ATOM     19  C   UNL A   1      36.730  20.286  24.949  1.00  0.00     0.008 C 
ENDBRANCH  15  18
ENDBRANCH  14  15
ENDBRANCH   9  14
BRANCH  13  20
ATOM     20  O   UNL A   1      29.884  23.708  27.316  1.00  0.00    -0.497 OA
ATOM     21  C   UNL A   1      29.110  22.513  27.324  1.00  0.00     0.278 C 
ENDBRANCH  13  20
ENDBRANCH   7   8
ENDBRANCH   3   6
ENDBRANCH   1   2
BRANCH   1  22
ATOM     22  C   UNL A   1      31.937  30.142  26.976  1.00  0.00     0.023 C 
BRANCH  22  23
ATOM     23  C   UNL A   1      31.743  31.649  26.807  1.00  0.00     0.023 C 
BRANCH  23  24
ATOM     24  C   UNL A   1      32.874  32.514  27.358  1.00  0.00     0.116 C 
BRANCH  24  25
ATOM     25  N   UNL A   1      32.488  33.888  27.636  1.00  0.00    -0.352 N 
ATOM     26  C   UNL A   1      33.064  34.775  28.527  1.00  0.00     0.251 C 
ATOM     27  H   UNL A   1      31.719  34.231  27.124  1.00  0.00     0.163 HD
ATOM     28  O   UNL A   1      32.601  35.889  28.693  1.00  0.00    -0.269 OA
BRANCH  26  29
ATOM     29  C   UNL A   1      34.228  34.322  29.325  1.00  0.00     0.039 A 
ATOM     30  C   UNL A   1      33.998  33.678  30.543  1.00  0.00     0.014 A 
ATOM     31  C   UNL A   1      35.526  34.444  28.822  1.00  0.00     0.014 A 
ATOM     32  C   UNL A   1      35.060  33.056  31.204  1.00  0.00     0.010 A 
ATOM     33  C   UNL A   1      36.569  33.764  29.446  1.00  0.00     0.010 A 
ATOM     34  C   UNL A   1      36.342  33.042  30.630  1.00  0.00    -0.014 A 
BRANCH  34  35
ATOM     35  C   UNL A   1      37.450  32.245  31.220  1.00  0.00     0.031 A 
ATOM     36  C   UNL A   1      37.961  32.560  32.597  1.00  0.00     0.074 A 
ATOM     37  C   UNL A   1      38.061  31.298  30.479  1.00  0.00     0.049 A 
ATOM     38  N   UNL A   1      38.992  32.062  33.230  1.00  0.00    -0.248 NA
ATOM     39  C   UNL A   1      37.233  33.594  33.348  1.00  0.00     0.031 C 
ATOM     40  C   UNL A   1      37.698  30.926  29.109  1.00  0.00     0.029 A 
ATOM     41  N   UNL A   1      39.132  30.488  30.767  1.00  0.00    -0.354 N 
ATOM     42  C   UNL A   1      39.050  32.735  34.443  1.00  0.00     0.074 A 
ATOM     43  C   UNL A   1      37.977  33.707  34.439  1.00  0.00     0.031 C 
ATOM     44  C   UNL A   1      38.521  29.954  28.684  1.00  0.00     0.029 A 
ATOM     45  C   UNL A   1      39.492  29.659  29.733  1.00  0.00     0.049 A 
ATOM     46  H   UNL A   1      39.597  30.501  31.635  1.00  0.00     0.167 HD
ATOM     47  C   UNL A   1      39.907  32.548  35.475  1.00  0.00     0.037 A 
ATOM     48  C   UNL A   1      40.500  28.770  29.634  1.00  0.00     0.037 A 
ATOM     49  C   UNL A   1      40.954  31.562  35.495  1.00  0.00     0.049 A 
ATOM     50  C   UNL A   1      41.432  28.575  30.795  1.00  0.00     0.074 A 
ATOM     51  C   UNL A   1      41.831  31.257  36.522  1.00  0.00     0.029 A 
ATOM     52  N   UNL A   1      41.264  30.717  34.440  1.00  0.00    -0.354 N 
ATOM     53  N   UNL A   1      41.439  29.179  31.959  1.00  0.00    -0.248 NA
ATOM     54  C   UNL A   1      42.498  27.576  30.632  1.00  0.00     0.031 C 
ATOM     55  C   UNL A   1      42.693  30.248  36.076  1.00  0.00     0.029 A 
ATOM     56  C   UNL A   1      42.329  29.902  34.786  1.00  0.00     0.049 A 
ATOM     57  H   UNL A   1      40.797  30.701  33.574  1.00  0.00     0.167 HD
ATOM     58  C   UNL A   1      42.488  28.616  32.674  1.00  0.00     0.074 A 
ATOM     59  C   UNL A   1      43.091  27.617  31.818  1.00  0.00     0.031 C 
ATOM     60  C   UNL A   1      42.911  28.903  33.928  1.00  0.00     0.037 A 
BRANCH  47  61
ATOM     61  C   UNL A   1      39.737  33.429  36.676  1.00  0.00     0.057 A 
ATOM     62  C   UNL A   1      40.450  34.626  36.817  1.00  0.00     0.134 A 
ATOM     63  C   UNL A   1      38.832  33.092  37.690  1.00  0.00     0.134 A 
ATOM     64  F   UNL A   1      41.343  34.999  35.887  1.00  0.00    -0.206 F 
ATOM     65  C   UNL A   1      40.292  35.443  37.937  1.00  0.00     0.040 A 
ATOM     66  C   UNL A   1      38.645  33.913  38.804  1.00  0.00     0.040 A 
ATOM     67  F   UNL A   1      38.112  31.962  37.614  1.00  0.00    -0.206 F 
ATOM     68  C   UNL A   1      39.382  35.090  38.932  1.00  0.00     0.006 A 
ENDBRANCH  47  61
BRANCH  48  69
ATOM     69  C   UNL A   1      40.670  27.979  28.390  1.00  0.00     0.057 A 
ATOM     70  C   UNL A   1      41.440  28.469  27.327  1.00  0.00     0.134 A 
ATOM     71  C   UNL A   1      40.069  26.726  28.229  1.00  0.00     0.134 A 
ATOM     72  F   UNL A   1      42.023  29.672  27.416  1.00  0.00    -0.206 F 
ATOM     73  C   UNL A   1      41.591  27.747  26.142  1.00  0.00     0.040 A 
ATOM     74  C   UNL A   1      40.230  25.984  27.057  1.00  0.00     0.040 A 
ATOM     75  F   UNL A   1      39.325  26.200  29.213  1.00  0.00    -0.206 F 
ATOM     76  C   UNL A   1      40.987  26.498  26.007  1.00  0.00     0.006 A 
ENDBRANCH  48  69
BRANCH  60  77
ATOM     77  C   UNL A   1      44.060  28.105  34.467  1.00  0.00     0.057 A 
ATOM     78  C   UNL A   1      45.381  28.557  34.369  1.00  0.00     0.134 A 
ATOM     79  C   UNL A   1      43.834  26.895  35.135  1.00  0.00     0.134 A 
ATOM     80  F   UNL A   1      45.663  29.701  33.727  1.00  0.00    -0.206 F 
ATOM     81  C   UNL A   1      46.441  27.826  34.909  1.00  0.00     0.040 A 
ATOM     82  C   UNL A   1      44.884  26.166  35.697  1.00  0.00     0.040 A 
ATOM     83  F   UNL A   1      42.590  26.411  35.267  1.00  0.00    -0.206 F 
ATOM     84  C   UNL A   1      46.193  26.631  35.582  1.00  0.00     0.006 A 
ENDBRANCH  60  77
ENDBRANCH  34  35
ENDBRANCH  26  29
ENDBRANCH  24  25
ENDBRANCH  23  24
ENDBRANCH  22  23
ENDBRANCH   1  22
TORSDOF 17
ENDMDL
MODEL 3
REMARK VINA RESULT:     -10.1      3.405      4.875
REMARK SMILES CCC(CC)Oc1ccc(OC)cc1/C=C/C(=O)NCCCCNC(=O)c1ccc(-c2c3nc(c(-c4c(F)cccc4F)c4ccc([nH]4)c(-c4c(F)cccc4F)c4nc(c(-c5c(F)cccc5F)c5ccc2[nH]5)C=C4)C=C3)cc1
REMARK SMILES IDX 20 1 19 2 17 3 18 4 16 6 15 7 14 8 7 9 8 10 9 11 13 12 10 13
REMARK SMILES IDX 6 14 3 15 2 16 1 17 4 18 5 19 11 20 12 21 21 22 22 23 23 24
REMARK SMILES IDX 24 25 25 26 26 28 27 29 28 30 80 31 29 32 79 33 30 34 31 35
REMARK SMILES IDX 32 36 73 37 33 38 78 39 72 40 74 41 34 42 77 43 71 44 70 45
REMARK SMILES IDX 35 47 61 48 44 49 60 50 45 51 48 52 59 53 75 54 46 55 47 56
REMARK SMILES IDX 58 58 76 59 49 60 36 61 37 62 42 63 38 64 39 65 41 66 43 67
REMARK SMILES IDX 40 68 62 69 63 70 68 71 64 72 65 73 67 74 69 75 66 76 50 77
REMARK SMILES IDX 51 78 56 79 52 80 53 81 55 82 57 83 54 84
REMARK H PARENT 19 5 24 27 74 46 48 57
REMARK Flexibility Score: inf
ROOT
ATOM      1  C   UNL A   1      33.465  29.572  26.345  1.00  0.00     0.116 C 
ENDROOT
BRANCH   1   2
ATOM      2  N   UNL A   1      33.252  29.465  24.921  1.00  0.00    -0.353 N 
ATOM      3  C   UNL A   1      33.340  28.368  24.124  1.00  0.00     0.244 C 
ATOM      4  O   UNL A   1      32.813  28.383  23.013  1.00  0.00    -0.270 OA
ATOM      5  H   UNL A   1      33.009  30.302  24.465  1.00  0.00     0.163 HD
BRANCH   3   6
ATOM      6  C   UNL A   1      34.011  27.128  24.578  1.00  0.00     0.072 C 
ATOM      7  C   UNL A   1      33.680  25.891  24.168  1.00  0.00     0.018 C 
BRANCH   7   8
ATOM      8  C   UNL A   1      34.176  24.669  24.838  1.00  0.00     0.020 A 
ATOM      9  C   UNL A   1      33.613  24.161  26.021  1.00  0.00     0.127 A 
ATOM     10  C   UNL A   1      34.267  23.151  26.736  1.00  0.00     0.051 A 
ATOM     11  C   UNL A   1      35.421  22.560  26.224  1.00  0.00     0.050 A 
ATOM     12  C   UNL A   1      35.351  24.062  24.345  1.00  0.00     0.058 A 
ATOM     13  C   UNL A   1      35.953  22.992  25.012  1.00  0.00     0.119 A 
BRANCH   9  14
ATOM     14  O   UNL A   1      32.501  24.704  26.597  1.00  0.00    -0.490 OA
BRANCH  14  15
ATOM     15  C   UNL A   1      31.208  24.331  26.060  1.00  0.00     0.172 C 
BRANCH  15  16
ATOM     16  C   UNL A   1      30.796  22.992  26.678  1.00  0.00     0.042 C 
ATOM     17  C   UNL A   1      29.372  22.895  27.193  1.00  0.00     0.008 C 
ENDBRANCH  15  16
BRANCH  15  18
ATOM     18  C   UNL A   1      30.087  25.390  25.995  1.00  0.00     0.042 C 
ATOM     19  C   UNL A   1      29.928  26.154  24.683  1.00  0.00     0.008 C 
ENDBRANCH  15  18
ENDBRANCH  14  15
ENDBRANCH   9  14
BRANCH  13  20
ATOM     20  O   UNL A   1      37.078  22.329  24.605  1.00  0.00    -0.497 OA
ATOM     21  C   UNL A   1      38.052  22.056  25.607  1.00  0.00     0.278 C 
ENDBRANCH  13  20
ENDBRANCH   7   8
ENDBRANCH   3   6
ENDBRANCH   1   2
BRANCH   1  22
ATOM     22  C   UNL A   1      32.217  30.036  27.097  1.00  0.00     0.023 C 
BRANCH  22  23
ATOM     23  C   UNL A   1      31.917  31.522  26.897  1.00  0.00     0.023 C 
BRANCH  23  24
ATOM     24  C   UNL A   1      33.031  32.472  27.330  1.00  0.00     0.116 C 
BRANCH  24  25
ATOM     25  N   UNL A   1      32.571  33.808  27.676  1.00  0.00    -0.352 N 
ATOM     26  C   UNL A   1      33.134  34.702  28.567  1.00  0.00     0.251 C 
ATOM     27  H   UNL A   1      31.755  34.113  27.216  1.00  0.00     0.163 HD
ATOM     28  O   UNL A   1      32.608  35.777  28.796  1.00  0.00    -0.269 OA
BRANCH  26  29
ATOM     29  C   UNL A   1      34.366  34.304  29.288  1.00  0.00     0.039 A 
ATOM     30  C   UNL A   1      34.245  33.658  30.520  1.00  0.00     0.014 A 
ATOM     31  C   UNL A   1      35.622  34.478  28.700  1.00  0.00     0.014 A 
ATOM     32  C   UNL A   1      35.374  33.086  31.112  1.00  0.00     0.010 A 
ATOM     33  C   UNL A   1      36.732  33.847  29.256  1.00  0.00     0.010 A 
ATOM     34  C   UNL A   1      36.615  33.123  30.454  1.00  0.00    -0.014 A 
BRANCH  34  35
ATOM     35  C   UNL A   1      37.792  32.377  30.972  1.00  0.00     0.031 A 
ATOM     36  C   UNL A   1      38.572  32.908  32.140  1.00  0.00     0.074 A 
ATOM     37  C   UNL A   1      38.217  31.269  30.330  1.00  0.00     0.049 A 
ATOM     38  N   UNL A   1      39.692  32.469  32.655  1.00  0.00    -0.248 NA
ATOM     39  C   UNL A   1      38.038  34.111  32.796  1.00  0.00     0.031 C 
ATOM     40  C   UNL A   1      37.582  30.673  29.153  1.00  0.00     0.029 A 
ATOM     41  N   UNL A   1      39.299  30.457  30.567  1.00  0.00    -0.354 N 
ATOM     42  C   UNL A   1      40.008  33.351  33.680  1.00  0.00     0.074 A 
ATOM     43  C   UNL A   1      38.984  34.375  33.685  1.00  0.00     0.031 C 
ATOM     44  C   UNL A   1      38.276  29.585  28.781  1.00  0.00     0.029 A 
ATOM     45  C   UNL A   1      39.425  29.427  29.667  1.00  0.00     0.049 A 
ATOM     46  H   UNL A   1      39.925  30.601  31.313  1.00  0.00     0.167 HD
ATOM     47  C   UNL A   1      41.043  33.303  34.550  1.00  0.00     0.037 A 
ATOM     48  C   UNL A   1      40.366  28.469  29.558  1.00  0.00     0.037 A 
ATOM     49  C   UNL A   1      42.044  32.269  34.568  1.00  0.00     0.049 A 
ATOM     50  C   UNL A   1      41.501  28.432  30.541  1.00  0.00     0.074 A 
ATOM     51  C   UNL A   1      43.096  32.103  35.453  1.00  0.00     0.029 A 
ATOM     52  N   UNL A   1      42.115  31.224  33.660  1.00  0.00    -0.354 N 
ATOM     53  N   UNL A   1      41.754  29.241  31.541  1.00  0.00    -0.248 NA
ATOM     54  C   UNL A   1      42.484  27.350  30.381  1.00  0.00     0.031 C 
ATOM     55  C   UNL A   1      43.823  30.973  35.061  1.00  0.00     0.029 A 
ATOM     56  C   UNL A   1      43.203  30.417  33.955  1.00  0.00     0.049 A 
ATOM     57  H   UNL A   1      41.488  31.077  32.917  1.00  0.00     0.167 HD
ATOM     58  C   UNL A   1      42.906  28.752  32.144  1.00  0.00     0.074 A 
ATOM     59  C   UNL A   1      43.298  27.572  31.404  1.00  0.00     0.031 C 
ATOM     60  C   UNL A   1      43.575  29.238  33.216  1.00  0.00     0.037 A 
BRANCH  47  61
ATOM     61  C   UNL A   1      41.139  34.402  35.565  1.00  0.00     0.057 A 
ATOM     62  C   UNL A   1      41.871  35.571  35.318  1.00  0.00     0.134 A 
ATOM     63  C   UNL A   1      40.471  34.305  36.792  1.00  0.00     0.134 A 
ATOM     64  F   UNL A   1      42.544  35.720  34.166  1.00  0.00    -0.206 F 
ATOM     65  C   UNL A   1      41.960  36.592  36.265  1.00  0.00     0.040 A 
ATOM     66  C   UNL A   1      40.531  35.329  37.739  1.00  0.00     0.040 A 
ATOM     67  F   UNL A   1      39.748  33.215  37.090  1.00  0.00    -0.206 F 
ATOM     68  C   UNL A   1      41.284  36.474  37.478  1.00  0.00     0.006 A 
ENDBRANCH  47  61
BRANCH  48  69
ATOM     69  C   UNL A   1      40.265  27.450  28.484  1.00  0.00     0.057 A 
ATOM     70  C   UNL A   1      40.905  27.638  27.254  1.00  0.00     0.134 A 
ATOM     71  C   UNL A   1      39.528  26.273  28.656  1.00  0.00     0.134 A 
ATOM     72  F   UNL A   1      41.610  28.756  27.024  1.00  0.00    -0.206 F 
ATOM     73  C   UNL A   1      40.801  26.700  26.225  1.00  0.00     0.040 A 
ATOM     74  C   UNL A   1      39.433  25.316  27.644  1.00  0.00     0.040 A 
ATOM     75  F   UNL A   1      38.897  26.032  29.815  1.00  0.00    -0.206 F 
ATOM     76  C   UNL A   1      40.066  25.532  26.421  1.00  0.00     0.006 A 
ENDBRANCH  48  69
BRANCH  60  77
ATOM     77  C   UNL A   1      44.783  28.479  33.677  1.00  0.00     0.057 A 
ATOM     78  C   UNL A   1      46.069  28.800  33.230  1.00  0.00     0.134 A 
ATOM     79  C   UNL A   1      44.659  27.450  34.618  1.00  0.00     0.134 A 
ATOM     80  F   UNL A   1      46.251  29.766  32.317  1.00  0.00    -0.206 F 
ATOM     81  C   UNL A   1      47.193  28.113  33.695  1.00  0.00     0.040 A 
ATOM     82  C   UNL A   1      45.777  26.771  35.107  1.00  0.00     0.040 A 
ATOM     83  F   UNL A   1      43.453  27.100  35.091  1.00  0.00    -0.206 F 
ATOM     84  C   UNL A   1      47.048  27.101  34.641  1.00  0.00     0.006 A 
ENDBRANCH  60  77
ENDBRANCH  34  35
ENDBRANCH  26  29
ENDBRANCH  24  25
ENDBRANCH  23  24
ENDBRANCH  22  23
ENDBRANCH   1  22
TORSDOF 17
ENDMDL
