MODEL 1
REMARK VINA RESULT:     -11.6      0.000      0.000
REMARK SMILES Nc1nonc1C(=O)N1[C@@H]2CC[C@H]1C[C@H](CC(=O)NCCCCNC(=O)c1ccc(-c3c4nc(c(-c5c(F)cccc5F)c5ccc([nH]5)c(-c5c(F)cccc5F)c5nc(c(-c6c(F)cccc6F)c6ccc3[nH]6)C=C5)C=C4)cc1)C2
REMARK SMILES IDX 20 1 19 2 17 3 18 4 16 6 15 7 9 8 10 9 13 10 11 11 81 12
REMARK SMILES IDX 12 13 14 14 7 15 8 16 6 17 2 18 3 19 4 20 5 21 1 22 21 25
REMARK SMILES IDX 22 26 23 27 24 28 25 29 26 31 27 32 28 33 80 34 29 35 79 36
REMARK SMILES IDX 30 37 31 38 32 39 73 40 33 41 78 42 72 43 74 44 34 45 77 46
REMARK SMILES IDX 71 47 70 48 35 50 61 51 44 52 60 53 45 54 48 55 59 56 75 57
REMARK SMILES IDX 46 58 47 59 58 61 76 62 49 63 36 64 37 65 42 66 38 67 39 68
REMARK SMILES IDX 41 69 43 70 40 71 62 72 63 73 68 74 64 75 65 76 67 77 69 78
REMARK SMILES IDX 66 79 50 80 51 81 56 82 52 83 53 84 55 85 57 86 54 87
REMARK H PARENT 19 5 1 23 1 24 24 30 74 49 48 60
REMARK Flexibility Score: inf
ROOT
ATOM      1  C   UNL A   1      41.496  35.327  28.878  1.00  0.00     0.116 C 
ENDROOT
BRANCH   1   2
ATOM      2  N   UNL A   1      41.099  34.391  29.918  1.00  0.00    -0.356 N 
ATOM      3  C   UNL A   1      39.870  34.034  30.393  1.00  0.00     0.220 C 
ATOM      4  O   UNL A   1      39.826  33.271  31.360  1.00  0.00    -0.275 OA
ATOM      5  H   UNL A   1      41.851  33.933  30.360  1.00  0.00     0.163 HD
BRANCH   3   6
ATOM      6  C   UNL A   1      38.585  34.551  29.761  1.00  0.00     0.103 C 
BRANCH   6   7
ATOM      7  C   UNL A   1      37.342  33.666  30.030  1.00  0.00     0.002 C 
ATOM      8  N   UNL A   1      34.619  34.565  30.026  1.00  0.00    -0.331 N 
ATOM      9  C   UNL A   1      34.940  33.474  29.113  1.00  0.00     0.086 C 
ATOM     10  C   UNL A   1      35.081  34.088  31.311  1.00  0.00     0.086 C 
ATOM     11  C   UNL A   1      34.656  32.188  29.918  1.00  0.00     0.027 C 
ATOM     12  C   UNL A   1      36.431  33.621  28.775  1.00  0.00     0.029 C 
ATOM     13  C   UNL A   1      34.609  32.642  31.378  1.00  0.00     0.027 C 
ATOM     14  C   UNL A   1      36.607  34.156  31.291  1.00  0.00     0.029 C 
BRANCH   8  15
ATOM     15  C   UNL A   1      33.362  35.161  29.921  1.00  0.00     0.280 C 
ATOM     16  O   UNL A   1      32.640  34.940  28.949  1.00  0.00    -0.267 OA
BRANCH  15  17
ATOM     17  C   UNL A   1      33.016  36.120  30.973  1.00  0.00     0.216 A 
ATOM     18  C   UNL A   1      32.449  35.962  32.267  1.00  0.00     0.201 A 
ATOM     19  N   UNL A   1      32.372  37.146  32.870  1.00  0.00    -0.032 NA
ATOM     20  O   UNL A   1      32.856  38.058  31.949  1.00  0.00    -0.242 OA
ATOM     21  N   UNL A   1      33.243  37.430  30.779  1.00  0.00    -0.042 NA
BRANCH  18  22
ATOM     22  N   UNL A   1      32.004  34.836  32.849  1.00  0.00    -0.379 N 
ATOM     23  H   UNL A   1      31.049  34.603  32.804  1.00  0.00     0.158 HD
ATOM     24  H   UNL A   1      32.633  34.244  33.319  1.00  0.00     0.158 HD
ENDBRANCH  18  22
ENDBRANCH  15  17
ENDBRANCH   8  15
ENDBRANCH   6   7
ENDBRANCH   3   6
ENDBRANCH   1   2
BRANCH   1  25
ATOM     25  C   UNL A   1      43.013  35.285  28.645  1.00  0.00     0.023 C 
BRANCH  25  26
ATOM     26  C   UNL A   1      43.763  36.582  28.871  1.00  0.00     0.023 C 
BRANCH  26  27
ATOM     27  C   UNL A   1      45.086  36.657  28.142  1.00  0.00     0.116 C 
BRANCH  27  28
ATOM     28  N   UNL A   1      46.226  36.945  29.006  1.00  0.00    -0.352 N 
ATOM     29  C   UNL A   1      47.062  36.045  29.637  1.00  0.00     0.251 C 
ATOM     30  H   UNL A   1      46.423  37.897  29.158  1.00  0.00     0.163 HD
ATOM     31  O   UNL A   1      47.941  36.427  30.393  1.00  0.00    -0.269 OA
BRANCH  29  32
ATOM     32  C   UNL A   1      46.827  34.603  29.418  1.00  0.00     0.039 A 
ATOM     33  C   UNL A   1      46.530  33.789  30.514  1.00  0.00     0.014 A 
ATOM     34  C   UNL A   1      46.778  34.095  28.119  1.00  0.00     0.014 A 
ATOM     35  C   UNL A   1      46.090  32.483  30.294  1.00  0.00     0.010 A 
ATOM     36  C   UNL A   1      46.227  32.842  27.900  1.00  0.00     0.010 A 
ATOM     37  C   UNL A   1      45.888  32.018  28.984  1.00  0.00    -0.014 A 
BRANCH  37  38
ATOM     38  C   UNL A   1      45.364  30.659  28.709  1.00  0.00     0.031 A 
ATOM     39  C   UNL A   1      46.312  29.585  28.249  1.00  0.00     0.074 A 
ATOM     40  C   UNL A   1      44.041  30.412  28.790  1.00  0.00     0.049 A 
ATOM     41  N   UNL A   1      46.054  28.369  27.846  1.00  0.00    -0.248 NA
ATOM     42  C   UNL A   1      47.739  29.946  28.191  1.00  0.00     0.031 C 
ATOM     43  C   UNL A   1      43.013  31.385  29.161  1.00  0.00     0.029 A 
ATOM     44  N   UNL A   1      43.336  29.259  28.554  1.00  0.00    -0.354 N 
ATOM     45  C   UNL A   1      47.277  27.835  27.462  1.00  0.00     0.074 A 
ATOM     46  C   UNL A   1      48.265  28.879  27.611  1.00  0.00     0.031 C 
ATOM     47  C   UNL A   1      41.814  30.779  29.164  1.00  0.00     0.029 A 
ATOM     48  C   UNL A   1      41.984  29.387  28.762  1.00  0.00     0.049 A 
ATOM     49  H   UNL A   1      43.759  28.418  28.264  1.00  0.00     0.167 HD
ATOM     50  C   UNL A   1      47.563  26.575  27.059  1.00  0.00     0.037 A 
ATOM     51  C   UNL A   1      40.998  28.478  28.644  1.00  0.00     0.037 A 
ATOM     52  C   UNL A   1      46.588  25.523  26.966  1.00  0.00     0.049 A 
ATOM     53  C   UNL A   1      41.344  27.074  28.229  1.00  0.00     0.074 A 
ATOM     54  C   UNL A   1      46.779  24.197  26.622  1.00  0.00     0.029 A 
ATOM     55  N   UNL A   1      45.237  25.681  27.236  1.00  0.00    -0.354 N 
ATOM     56  N   UNL A   1      42.514  26.568  27.923  1.00  0.00    -0.248 NA
ATOM     57  C   UNL A   1      40.235  26.113  28.154  1.00  0.00     0.031 C 
ATOM     58  C   UNL A   1      45.537  23.555  26.664  1.00  0.00     0.029 A 
ATOM     59  C   UNL A   1      44.580  24.475  27.066  1.00  0.00     0.049 A 
ATOM     60  H   UNL A   1      44.809  26.524  27.508  1.00  0.00     0.167 HD
ATOM     61  C   UNL A   1      42.288  25.225  27.652  1.00  0.00     0.074 A 
ATOM     62  C   UNL A   1      40.870  24.994  27.840  1.00  0.00     0.031 C 
ATOM     63  C   UNL A   1      43.172  24.267  27.282  1.00  0.00     0.037 A 
BRANCH  50  64
ATOM     64  C   UNL A   1      48.992  26.272  26.718  1.00  0.00     0.057 A 
ATOM     65  C   UNL A   1      49.866  25.700  27.652  1.00  0.00     0.134 A 
ATOM     66  C   UNL A   1      49.500  26.552  25.443  1.00  0.00     0.134 A 
ATOM     67  F   UNL A   1      49.447  25.427  28.896  1.00  0.00    -0.206 F 
ATOM     68  C   UNL A   1      51.203  25.447  27.341  1.00  0.00     0.040 A 
ATOM     69  C   UNL A   1      50.827  26.276  25.112  1.00  0.00     0.040 A 
ATOM     70  F   UNL A   1      48.716  27.099  24.502  1.00  0.00    -0.206 F 
ATOM     71  C   UNL A   1      51.685  25.730  26.066  1.00  0.00     0.006 A 
ENDBRANCH  50  64
BRANCH  51  72
ATOM     72  C   UNL A   1      39.596  28.846  28.966  1.00  0.00     0.057 A 
ATOM     73  C   UNL A   1      39.086  28.664  30.258  1.00  0.00     0.134 A 
ATOM     74  C   UNL A   1      38.730  29.367  27.999  1.00  0.00     0.134 A 
ATOM     75  F   UNL A   1      39.864  28.154  31.224  1.00  0.00    -0.206 F 
ATOM     76  C   UNL A   1      37.760  28.964  30.570  1.00  0.00     0.040 A 
ATOM     77  C   UNL A   1      37.407  29.692  28.303  1.00  0.00     0.040 A 
ATOM     78  F   UNL A   1      39.160  29.573  26.745  1.00  0.00    -0.206 F 
ATOM     79  C   UNL A   1      36.915  29.482  29.591  1.00  0.00     0.006 A 
ENDBRANCH  51  72
BRANCH  63  80
ATOM     80  C   UNL A   1      42.640  22.878  27.103  1.00  0.00     0.057 A 
ATOM     81  C   UNL A   1      42.467  22.309  25.835  1.00  0.00     0.134 A 
ATOM     82  C   UNL A   1      42.336  22.087  28.218  1.00  0.00     0.134 A 
ATOM     83  F   UNL A   1      42.731  23.022  24.729  1.00  0.00    -0.206 F 
ATOM     84  C   UNL A   1      41.992  21.007  25.682  1.00  0.00     0.040 A 
ATOM     85  C   UNL A   1      41.882  20.776  28.078  1.00  0.00     0.040 A 
ATOM     86  F   UNL A   1      42.488  22.572  29.459  1.00  0.00    -0.206 F 
ATOM     87  C   UNL A   1      41.704  20.234  26.806  1.00  0.00     0.006 A 
ENDBRANCH  63  80
ENDBRANCH  37  38
ENDBRANCH  29  32
ENDBRANCH  27  28
ENDBRANCH  26  27
ENDBRANCH  25  26
ENDBRANCH   1  25
TORSDOF 15
ENDMDL
MODEL 2
REMARK VINA RESULT:     -11.5      5.923     10.889
REMARK SMILES Nc1nonc1C(=O)N1[C@@H]2CC[C@H]1C[C@H](CC(=O)NCCCCNC(=O)c1ccc(-c3c4nc(c(-c5c(F)cccc5F)c5ccc([nH]5)c(-c5c(F)cccc5F)c5nc(c(-c6c(F)cccc6F)c6ccc3[nH]6)C=C5)C=C4)cc1)C2
REMARK SMILES IDX 20 1 19 2 17 3 18 4 16 6 15 7 9 8 10 9 13 10 11 11 81 12
REMARK SMILES IDX 12 13 14 14 7 15 8 16 6 17 2 18 3 19 4 20 5 21 1 22 21 25
REMARK SMILES IDX 22 26 23 27 24 28 25 29 26 31 27 32 28 33 80 34 29 35 79 36
REMARK SMILES IDX 30 37 31 38 32 39 73 40 33 41 78 42 72 43 74 44 34 45 77 46
REMARK SMILES IDX 71 47 70 48 35 50 61 51 44 52 60 53 45 54 48 55 59 56 75 57
REMARK SMILES IDX 46 58 47 59 58 61 76 62 49 63 36 64 37 65 42 66 38 67 39 68
REMARK SMILES IDX 41 69 43 70 40 71 62 72 63 73 68 74 64 75 65 76 67 77 69 78
REMARK SMILES IDX 66 79 50 80 51 81 56 82 52 83 53 84 55 85 57 86 54 87
REMARK H PARENT 19 5 1 23 1 24 24 30 74 49 48 60
REMARK Flexibility Score: inf
ROOT
ATOM      1  C   UNL A   1      33.259  29.987  26.466  1.00  0.00     0.116 C 
ENDROOT
BRANCH   1   2
ATOM      2  N   UNL A   1      33.374  29.670  25.051  1.00  0.00    -0.356 N 
ATOM      3  C   UNL A   1      33.815  28.550  24.407  1.00  0.00     0.220 C 
ATOM      4  O   UNL A   1      33.894  28.587  23.178  1.00  0.00    -0.275 OA
ATOM      5  H   UNL A   1      33.082  30.393  24.449  1.00  0.00     0.163 HD
BRANCH   3   6
ATOM      6  C   UNL A   1      34.202  27.289  25.167  1.00  0.00     0.103 C 
BRANCH   6   7
ATOM      7  C   UNL A   1      33.083  26.219  25.236  1.00  0.00     0.002 C 
ATOM      8  N   UNL A   1      30.371  26.582  24.379  1.00  0.00    -0.331 N 
ATOM      9  C   UNL A   1      31.100  25.480  23.764  1.00  0.00     0.086 C 
ATOM     10  C   UNL A   1      30.514  26.342  25.799  1.00  0.00     0.086 C 
ATOM     11  C   UNL A   1      30.796  24.258  24.657  1.00  0.00     0.027 C 
ATOM     12  C   UNL A   1      32.585  25.869  23.810  1.00  0.00     0.029 C 
ATOM     13  C   UNL A   1      30.267  24.850  25.964  1.00  0.00     0.027 C 
ATOM     14  C   UNL A   1      31.954  26.695  26.169  1.00  0.00     0.029 C 
BRANCH   8  15
ATOM     15  C   UNL A   1      29.120  26.916  23.858  1.00  0.00     0.280 C 
ATOM     16  O   UNL A   1      28.128  26.238  24.123  1.00  0.00    -0.267 OA
BRANCH  15  17
ATOM     17  C   UNL A   1      29.094  28.039  22.917  1.00  0.00     0.216 A 
ATOM     18  C   UNL A   1      28.051  28.899  22.479  1.00  0.00     0.201 A 
ATOM     19  N   UNL A   1      28.544  29.810  21.642  1.00  0.00    -0.032 NA
ATOM     20  O   UNL A   1      29.889  29.506  21.521  1.00  0.00    -0.242 OA
ATOM     21  N   UNL A   1      30.226  28.411  22.296  1.00  0.00    -0.042 NA
BRANCH  18  22
ATOM     22  N   UNL A   1      26.745  28.849  22.787  1.00  0.00    -0.379 N 
ATOM     23  H   UNL A   1      26.334  29.576  23.309  1.00  0.00     0.158 HD
ATOM     24  H   UNL A   1      26.199  28.086  22.491  1.00  0.00     0.158 HD
ENDBRANCH  18  22
ENDBRANCH  15  17
ENDBRANCH   8  15
ENDBRANCH   6   7
ENDBRANCH   3   6
ENDBRANCH   1   2
BRANCH   1  25
ATOM     25  C   UNL A   1      31.852  30.497  26.807  1.00  0.00     0.023 C 
BRANCH  25  26
ATOM     26  C   UNL A   1      31.640  31.995  26.719  1.00  0.00     0.023 C 
BRANCH  26  27
ATOM     27  C   UNL A   1      32.740  32.806  27.367  1.00  0.00     0.116 C 
BRANCH  27  28
ATOM     28  N   UNL A   1      32.350  34.169  27.713  1.00  0.00    -0.352 N 
ATOM     29  C   UNL A   1      32.952  35.021  28.617  1.00  0.00     0.251 C 
ATOM     30  H   UNL A   1      31.561  34.523  27.244  1.00  0.00     0.163 HD
ATOM     31  O   UNL A   1      32.475  36.118  28.860  1.00  0.00    -0.269 OA
BRANCH  29  32
ATOM     32  C   UNL A   1      34.159  34.547  29.325  1.00  0.00     0.039 A 
ATOM     33  C   UNL A   1      34.014  33.886  30.546  1.00  0.00     0.014 A 
ATOM     34  C   UNL A   1      35.410  34.649  28.714  1.00  0.00     0.014 A 
ATOM     35  C   UNL A   1      35.117  33.243  31.109  1.00  0.00     0.010 A 
ATOM     36  C   UNL A   1      36.471  33.909  29.212  1.00  0.00     0.010 A 
ATOM     37  C   UNL A   1      36.341  33.208  30.420  1.00  0.00    -0.014 A 
BRANCH  37  38
ATOM     38  C   UNL A   1      37.519  32.484  30.955  1.00  0.00     0.031 A 
ATOM     39  C   UNL A   1      38.140  32.945  32.246  1.00  0.00     0.074 A 
ATOM     40  C   UNL A   1      38.075  31.479  30.251  1.00  0.00     0.049 A 
ATOM     41  N   UNL A   1      39.234  32.533  32.832  1.00  0.00    -0.248 NA
ATOM     42  C   UNL A   1      37.464  34.050  32.947  1.00  0.00     0.031 C 
ATOM     43  C   UNL A   1      37.605  30.982  28.956  1.00  0.00     0.029 A 
ATOM     44  N   UNL A   1      39.169  30.699  30.527  1.00  0.00    -0.354 N 
ATOM     45  C   UNL A   1      39.388  33.346  33.948  1.00  0.00     0.074 A 
ATOM     46  C   UNL A   1      38.320  34.318  33.919  1.00  0.00     0.031 C 
ATOM     47  C   UNL A   1      38.384  29.958  28.569  1.00  0.00     0.029 A 
ATOM     48  C   UNL A   1      39.426  29.749  29.568  1.00  0.00     0.049 A 
ATOM     49  H   UNL A   1      39.719  30.809  31.337  1.00  0.00     0.167 HD
ATOM     50  C   UNL A   1      40.313  33.266  34.932  1.00  0.00     0.037 A 
ATOM     51  C   UNL A   1      40.392  28.814  29.510  1.00  0.00     0.037 A 
ATOM     52  C   UNL A   1      41.340  32.263  34.988  1.00  0.00     0.049 A 
ATOM     53  C   UNL A   1      41.388  28.721  30.634  1.00  0.00     0.074 A 
ATOM     54  C   UNL A   1      42.294  32.057  35.967  1.00  0.00     0.029 A 
ATOM     55  N   UNL A   1      41.534  31.286  34.023  1.00  0.00    -0.354 N 
ATOM     56  N   UNL A   1      41.488  29.460  31.712  1.00  0.00    -0.248 NA
ATOM     57  C   UNL A   1      42.397  27.657  30.538  1.00  0.00     0.031 C 
ATOM     58  C   UNL A   1      43.080  30.965  35.585  1.00  0.00     0.029 A 
ATOM     59  C   UNL A   1      42.594  30.472  34.384  1.00  0.00     0.049 A 
ATOM     60  H   UNL A   1      40.997  31.185  33.204  1.00  0.00     0.167 HD
ATOM     61  C   UNL A   1      42.548  28.932  32.438  1.00  0.00     0.074 A 
ATOM     62  C   UNL A   1      43.051  27.804  31.681  1.00  0.00     0.031 C 
ATOM     63  C   UNL A   1      43.060  29.342  33.624  1.00  0.00     0.037 A 
BRANCH  50  64
ATOM     64  C   UNL A   1      40.229  34.279  36.035  1.00  0.00     0.057 A 
ATOM     65  C   UNL A   1      39.542  34.013  37.227  1.00  0.00     0.134 A 
ATOM     66  C   UNL A   1      40.841  35.532  35.907  1.00  0.00     0.134 A 
ATOM     67  F   UNL A   1      38.916  32.840  37.404  1.00  0.00    -0.206 F 
ATOM     68  C   UNL A   1      39.439  34.968  38.239  1.00  0.00     0.040 A 
ATOM     69  C   UNL A   1      40.770  36.484  36.925  1.00  0.00     0.040 A 
ATOM     70  F   UNL A   1      41.515  35.851  34.792  1.00  0.00    -0.206 F 
ATOM     71  C   UNL A   1      40.059  36.207  38.092  1.00  0.00     0.006 A 
ENDBRANCH  50  64
BRANCH  51  72
ATOM     72  C   UNL A   1      40.443  27.857  28.375  1.00  0.00     0.057 A 
ATOM     73  C   UNL A   1      39.802  26.615  28.455  1.00  0.00     0.134 A 
ATOM     74  C   UNL A   1      41.143  28.146  27.199  1.00  0.00     0.134 A 
ATOM     75  F   UNL A   1      39.129  26.274  29.565  1.00  0.00    -0.206 F 
ATOM     76  C   UNL A   1      39.873  25.686  27.417  1.00  0.00     0.040 A 
ATOM     77  C   UNL A   1      41.204  27.235  26.143  1.00  0.00     0.040 A 
ATOM     78  F   UNL A   1      41.771  29.323  27.056  1.00  0.00    -0.206 F 
ATOM     79  C   UNL A   1      40.575  25.996  26.254  1.00  0.00     0.006 A 
ENDBRANCH  51  72
BRANCH  63  80
ATOM     80  C   UNL A   1      44.188  28.538  34.195  1.00  0.00     0.057 A 
ATOM     81  C   UNL A   1      45.525  28.836  33.912  1.00  0.00     0.134 A 
ATOM     82  C   UNL A   1      43.928  27.479  35.075  1.00  0.00     0.134 A 
ATOM     83  F   UNL A   1      45.836  29.832  33.067  1.00  0.00    -0.206 F 
ATOM     84  C   UNL A   1      46.568  28.094  34.468  1.00  0.00     0.040 A 
ATOM     85  C   UNL A   1      44.963  26.745  35.655  1.00  0.00     0.040 A 
ATOM     86  F   UNL A   1      42.667  27.151  35.393  1.00  0.00    -0.206 F 
ATOM     87  C   UNL A   1      46.288  27.050  35.347  1.00  0.00     0.006 A 
ENDBRANCH  63  80
ENDBRANCH  37  38
ENDBRANCH  29  32
ENDBRANCH  27  28
ENDBRANCH  26  27
ENDBRANCH  25  26
ENDBRANCH   1  25
TORSDOF 15
ENDMDL
MODEL 3
REMARK VINA RESULT:     -11.3      5.438     10.611
REMARK SMILES Nc1nonc1C(=O)N1[C@@H]2CC[C@H]1C[C@H](CC(=O)NCCCCNC(=O)c1ccc(-c3c4nc(c(-c5c(F)cccc5F)c5ccc([nH]5)c(-c5c(F)cccc5F)c5nc(c(-c6c(F)cccc6F)c6ccc3[nH]6)C=C5)C=C4)cc1)C2
REMARK SMILES IDX 20 1 19 2 17 3 18 4 16 6 15 7 9 8 10 9 13 10 11 11 81 12
REMARK SMILES IDX 12 13 14 14 7 15 8 16 6 17 2 18 3 19 4 20 5 21 1 22 21 25
REMARK SMILES IDX 22 26 23 27 24 28 25 29 26 31 27 32 28 33 80 34 29 35 79 36
REMARK SMILES IDX 30 37 31 38 32 39 73 40 33 41 78 42 72 43 74 44 34 45 77 46
REMARK SMILES IDX 71 47 70 48 35 50 61 51 44 52 60 53 45 54 48 55 59 56 75 57
REMARK SMILES IDX 46 58 47 59 58 61 76 62 49 63 36 64 37 65 42 66 38 67 39 68
REMARK SMILES IDX 41 69 43 70 40 71 62 72 63 73 68 74 64 75 65 76 67 77 69 78
REMARK SMILES IDX 66 79 50 80 51 81 56 82 52 83 53 84 55 85 57 86 54 87
REMARK H PARENT 19 5 1 23 1 24 24 30 74 49 48 60
REMARK Flexibility Score: inf
ROOT
ATOM      1  C   UNL A   1      32.105  28.384  23.558  1.00  0.00     0.116 C 
ENDROOT
BRANCH   1   2
ATOM      2  N   UNL A   1      32.628  27.805  22.330  1.00  0.00    -0.356 N 
ATOM      3  C   UNL A   1      32.954  26.520  22.003  1.00  0.00     0.220 C 
ATOM      4  O   UNL A   1      33.472  26.321  20.902  1.00  0.00    -0.275 OA
ATOM      5  H   UNL A   1      32.773  28.456  21.606  1.00  0.00     0.163 HD
BRANCH   3   6
ATOM      6  C   UNL A   1      32.694  25.360  22.953  1.00  0.00     0.103 C 
BRANCH   6   7
ATOM      7  C   UNL A   1      33.976  24.738  23.564  1.00  0.00     0.002 C 
ATOM      8  N   UNL A   1      34.060  22.469  25.314  1.00  0.00    -0.331 N 
ATOM      9  C   UNL A   1      34.845  22.369  24.089  1.00  0.00     0.086 C 
ATOM     10  C   UNL A   1      34.520  23.699  25.920  1.00  0.00     0.086 C 
ATOM     11  C   UNL A   1      36.247  22.888  24.475  1.00  0.00     0.027 C 
ATOM     12  C   UNL A   1      34.158  23.281  23.063  1.00  0.00     0.029 C 
ATOM     13  C   UNL A   1      36.035  23.654  25.781  1.00  0.00     0.027 C 
ATOM     14  C   UNL A   1      33.937  24.848  25.099  1.00  0.00     0.029 C 
BRANCH   8  15
ATOM     15  C   UNL A   1      33.917  21.323  26.098  1.00  0.00     0.280 C 
ATOM     16  O   UNL A   1      34.238  21.331  27.286  1.00  0.00    -0.267 OA
BRANCH  15  17
ATOM     17  C   UNL A   1      33.465  20.117  25.399  1.00  0.00     0.216 A 
ATOM     18  C   UNL A   1      34.162  18.997  24.871  1.00  0.00     0.201 A 
ATOM     19  N   UNL A   1      33.292  18.127  24.363  1.00  0.00    -0.032 NA
ATOM     20  O   UNL A   1      32.049  18.709  24.536  1.00  0.00    -0.242 OA
ATOM     21  N   UNL A   1      32.155  19.938  25.163  1.00  0.00    -0.042 NA
BRANCH  18  22
ATOM     22  N   UNL A   1      35.488  18.789  24.822  1.00  0.00    -0.379 N 
ATOM     23  H   UNL A   1      36.057  19.363  24.261  1.00  0.00     0.158 HD
ATOM     24  H   UNL A   1      35.891  18.063  25.350  1.00  0.00     0.158 HD
ENDBRANCH  18  22
ENDBRANCH  15  17
ENDBRANCH   8  15
ENDBRANCH   6   7
ENDBRANCH   3   6
ENDBRANCH   1   2
BRANCH   1  25
ATOM     25  C   UNL A   1      33.194  28.473  24.636  1.00  0.00     0.023 C 
BRANCH  25  26
ATOM     26  C   UNL A   1      32.736  28.883  26.021  1.00  0.00     0.023 C 
BRANCH  26  27
ATOM     27  C   UNL A   1      33.863  29.016  27.022  1.00  0.00     0.116 C 
BRANCH  27  28
ATOM     28  N   UNL A   1      33.835  30.257  27.788  1.00  0.00    -0.352 N 
ATOM     29  C   UNL A   1      34.851  30.815  28.537  1.00  0.00     0.251 C 
ATOM     30  H   UNL A   1      32.987  30.757  27.769  1.00  0.00     0.163 HD
ATOM     31  O   UNL A   1      34.667  31.831  29.188  1.00  0.00    -0.269 OA
BRANCH  29  32
ATOM     32  C   UNL A   1      36.154  30.119  28.575  1.00  0.00     0.039 A 
ATOM     33  C   UNL A   1      37.012  30.224  27.478  1.00  0.00     0.014 A 
ATOM     34  C   UNL A   1      36.566  29.474  29.742  1.00  0.00     0.014 A 
ATOM     35  C   UNL A   1      38.323  29.761  27.591  1.00  0.00     0.010 A 
ATOM     36  C   UNL A   1      37.899  29.127  29.893  1.00  0.00     0.010 A 
ATOM     37  C   UNL A   1      38.790  29.255  28.816  1.00  0.00    -0.014 A 
BRANCH  37  38
ATOM     38  C   UNL A   1      40.192  28.810  28.995  1.00  0.00     0.031 A 
ATOM     39  C   UNL A   1      41.194  29.761  29.594  1.00  0.00     0.074 A 
ATOM     40  C   UNL A   1      40.582  27.600  28.550  1.00  0.00     0.049 A 
ATOM     41  N   UNL A   1      42.486  29.622  29.734  1.00  0.00    -0.248 NA
ATOM     42  C   UNL A   1      40.677  31.062  30.052  1.00  0.00     0.031 C 
ATOM     43  C   UNL A   1      39.722  26.613  27.894  1.00  0.00     0.029 A 
ATOM     44  N   UNL A   1      41.815  26.997  28.578  1.00  0.00    -0.354 N 
ATOM     45  C   UNL A   1      42.935  30.823  30.268  1.00  0.00     0.074 A 
ATOM     46  C   UNL A   1      41.793  31.704  30.358  1.00  0.00     0.031 C 
ATOM     47  C   UNL A   1      40.443  25.515  27.615  1.00  0.00     0.029 A 
ATOM     48  C   UNL A   1      41.822  25.732  28.039  1.00  0.00     0.049 A 
ATOM     49  H   UNL A   1      42.618  27.429  28.948  1.00  0.00     0.167 HD
ATOM     50  C   UNL A   1      44.179  31.153  30.684  1.00  0.00     0.037 A 
ATOM     51  C   UNL A   1      42.831  24.850  27.910  1.00  0.00     0.037 A 
ATOM     52  C   UNL A   1      45.301  30.255  30.645  1.00  0.00     0.049 A 
ATOM     53  C   UNL A   1      44.198  25.225  28.413  1.00  0.00     0.074 A 
ATOM     54  C   UNL A   1      46.593  30.468  31.092  1.00  0.00     0.029 A 
ATOM     55  N   UNL A   1      45.255  28.965  30.141  1.00  0.00    -0.354 N 
ATOM     56  N   UNL A   1      44.596  26.345  28.967  1.00  0.00    -0.248 NA
ATOM     57  C   UNL A   1      45.253  24.211  28.282  1.00  0.00     0.031 C 
ATOM     58  C   UNL A   1      47.335  29.310  30.839  1.00  0.00     0.029 A 
ATOM     59  C   UNL A   1      46.497  28.367  30.265  1.00  0.00     0.049 A 
ATOM     60  H   UNL A   1      44.458  28.537  29.753  1.00  0.00     0.167 HD
ATOM     61  C   UNL A   1      45.936  26.158  29.281  1.00  0.00     0.074 A 
ATOM     62  C   UNL A   1      46.279  24.814  28.864  1.00  0.00     0.031 C 
ATOM     63  C   UNL A   1      46.806  27.019  29.862  1.00  0.00     0.037 A 
BRANCH  50  64
ATOM     64  C   UNL A   1      44.374  32.533  31.239  1.00  0.00     0.057 A 
ATOM     65  C   UNL A   1      44.756  33.606  30.423  1.00  0.00     0.134 A 
ATOM     66  C   UNL A   1      44.176  32.793  32.601  1.00  0.00     0.134 A 
ATOM     67  F   UNL A   1      44.981  33.418  29.114  1.00  0.00    -0.206 F 
ATOM     68  C   UNL A   1      44.966  34.882  30.946  1.00  0.00     0.040 A 
ATOM     69  C   UNL A   1      44.354  34.072  33.130  1.00  0.00     0.040 A 
ATOM     70  F   UNL A   1      43.809  31.811  33.437  1.00  0.00    -0.206 F 
ATOM     71  C   UNL A   1      44.759  35.119  32.304  1.00  0.00     0.006 A 
ENDBRANCH  50  64
BRANCH  51  72
ATOM     72  C   UNL A   1      42.584  23.509  27.323  1.00  0.00     0.057 A 
ATOM     73  C   UNL A   1      42.224  22.426  28.136  1.00  0.00     0.134 A 
ATOM     74  C   UNL A   1      42.717  23.269  25.952  1.00  0.00     0.134 A 
ATOM     75  F   UNL A   1      42.098  22.591  29.461  1.00  0.00    -0.206 F 
ATOM     76  C   UNL A   1      42.030  21.149  27.610  1.00  0.00     0.040 A 
ATOM     77  C   UNL A   1      42.503  22.000  25.409  1.00  0.00     0.040 A 
ATOM     78  F   UNL A   1      43.050  24.265  25.118  1.00  0.00    -0.206 F 
ATOM     79  C   UNL A   1      42.167  20.933  26.240  1.00  0.00     0.006 A 
ENDBRANCH  51  72
BRANCH  63  80
ATOM     80  C   UNL A   1      48.193  26.518  30.123  1.00  0.00     0.057 A 
ATOM     81  C   UNL A   1      49.233  26.709  29.206  1.00  0.00     0.134 A 
ATOM     82  C   UNL A   1      48.498  25.872  31.328  1.00  0.00     0.134 A 
ATOM     83  F   UNL A   1      49.001  27.311  28.030  1.00  0.00    -0.206 F 
ATOM     84  C   UNL A   1      50.526  26.257  29.470  1.00  0.00     0.040 A 
ATOM     85  C   UNL A   1      49.792  25.436  31.613  1.00  0.00     0.040 A 
ATOM     86  F   UNL A   1      47.546  25.666  32.251  1.00  0.00    -0.206 F 
ATOM     87  C   UNL A   1      50.810  25.624  30.679  1.00  0.00     0.006 A 
ENDBRANCH  63  80
ENDBRANCH  37  38
ENDBRANCH  29  32
ENDBRANCH  27  28
ENDBRANCH  26  27
ENDBRANCH  25  26
ENDBRANCH   1  25
TORSDOF 15
ENDMDL
