MODEL 1
REMARK VINA RESULT:     -13.8      0.000      0.000
REMARK SMILES Cc1c(C[N@H+]2CC[C@@H](C(=O)NCCCCNC(=O)c3ccc(-c4c5nc(c(-c6c(F)cccc6F)c6ccc([nH]6)c(-c6c(F)cccc6F)c6nc(c(-c7c(F)cccc7F)c7ccc4[nH]7)C=C6)C=C5)cc3)[C@@H]2C)cccc1[N+](=O)[O-]
REMARK SMILES IDX 13 1 12 2 11 3 9 4 10 5 8 7 5 8 6 9 73 10 7 12 74 13 4 14
REMARK SMILES IDX 3 15 1 16 2 17 78 18 75 19 77 20 76 21 79 22 80 23 81 24
REMARK SMILES IDX 14 25 15 26 16 27 17 28 18 30 19 31 20 32 72 33 21 34 71 35
REMARK SMILES IDX 22 36 23 37 24 38 65 39 25 40 70 41 64 42 66 43 26 44 69 45
REMARK SMILES IDX 63 46 62 47 27 49 53 50 36 51 52 52 37 53 40 54 51 55 67 56
REMARK SMILES IDX 38 57 39 58 50 60 68 61 41 62 28 63 29 64 34 65 30 66 31 67
REMARK SMILES IDX 33 68 35 69 32 70 54 71 55 72 60 73 56 74 57 75 59 76 61 77
REMARK SMILES IDX 58 78 42 79 43 80 48 81 44 82 45 83 47 84 49 85 46 86
REMARK H PARENT 11 6 5 11 16 29 66 48 40 59
REMARK Flexibility Score: inf
ROOT
ATOM      1  C   UNL A   1      39.783  22.009  26.504  1.00  0.00     0.023 C 
ENDROOT
BRANCH   1   2
ATOM      2  C   UNL A   1      37.803  22.486  25.684  1.00  0.00     0.116 C 
BRANCH   2   3
ATOM      3  N   UNL A   1      36.542  21.602  25.301  1.00  0.00    -0.356 N 
ATOM      4  C   UNL A   1      35.208  21.697  25.540  1.00  0.00     0.229 C 
ATOM      5  O   UNL A   1      34.487  20.895  24.934  1.00  0.00    -0.275 OA
ATOM      6  H   UNL A   1      36.779  20.807  24.772  1.00  0.00     0.163 HD
BRANCH   4   7
ATOM      7  C   UNL A   1      34.581  22.692  26.506  1.00  0.00     0.142 C 
ATOM      8  N   UNL A   1      32.301  23.482  26.412  1.00  0.00    -0.328 N 
ATOM      9  C   UNL A   1      32.429  22.670  27.622  1.00  0.00     0.263 C 
ATOM     10  C   UNL A   1      33.629  23.670  25.827  1.00  0.00     0.193 C 
ATOM     11  H   UNL A   1      31.929  24.384  26.709  1.00  0.00     0.348 HD
ATOM     12  C   UNL A   1      33.819  22.050  27.652  1.00  0.00     0.081 C 
ATOM     13  C   UNL A   1      34.039  25.129  25.980  1.00  0.00     0.076 C 
BRANCH   8  14
ATOM     14  C   UNL A   1      31.252  23.107  25.454  1.00  0.00     0.299 C 
BRANCH  14  15
ATOM     15  C   UNL A   1      30.943  24.159  24.413  1.00  0.00     0.016 A 
ATOM     16  C   UNL A   1      32.752  23.015  22.524  1.00  0.00     0.052 C 
ATOM     17  C   UNL A   1      31.951  24.225  22.915  1.00  0.00     0.036 A 
ATOM     18  C   UNL A   1      31.916  25.720  21.909  1.00  0.00     0.272 A 
ATOM     19  C   UNL A   1      29.854  25.553  24.833  1.00  0.00     0.010 A 
ATOM     20  C   UNL A   1      30.887  27.135  22.361  1.00  0.00     0.086 A 
ATOM     21  C   UNL A   1      29.836  27.041  23.813  1.00  0.00     0.008 A 
BRANCH  18  22
ATOM     22  N   UNL A   1      32.997  25.981  21.022  1.00  0.00     0.062 N 
ATOM     23  O   UNL A   1      32.846  25.560  19.873  1.00  0.00    -0.258 OA
ATOM     24  O   UNL A   1      33.929  26.637  21.480  1.00  0.00    -0.258 OA
ENDBRANCH  18  22
ENDBRANCH  14  15
ENDBRANCH   8  14
ENDBRANCH   4   7
ENDBRANCH   2   3
ENDBRANCH   1   2
BRANCH   1  25
ATOM     25  C   UNL A   1      41.404  22.572  26.296  1.00  0.00     0.023 C 
BRANCH  25  26
ATOM     26  C   UNL A   1      42.517  21.548  26.500  1.00  0.00     0.116 C 
BRANCH  26  27
ATOM     27  N   UNL A   1      43.238  21.117  25.314  1.00  0.00    -0.352 N 
ATOM     28  C   UNL A   1      44.308  21.713  24.663  1.00  0.00     0.251 C 
ATOM     29  H   UNL A   1      42.919  20.275  24.914  1.00  0.00     0.163 HD
ATOM     30  O   UNL A   1      44.647  21.282  23.562  1.00  0.00    -0.269 OA
BRANCH  28  31
ATOM     31  C   UNL A   1      45.180  22.713  25.350  1.00  0.00     0.039 A 
ATOM     32  C   UNL A   1      45.238  22.627  26.751  1.00  0.00     0.014 A 
ATOM     33  C   UNL A   1      45.502  23.906  24.731  1.00  0.00     0.014 A 
ATOM     34  C   UNL A   1      45.227  23.792  27.502  1.00  0.00     0.010 A 
ATOM     35  C   UNL A   1      45.245  25.052  25.432  1.00  0.00     0.010 A 
ATOM     36  C   UNL A   1      45.070  24.982  26.814  1.00  0.00    -0.014 A 
BRANCH  36  37
ATOM     37  C   UNL A   1      44.824  26.262  27.429  1.00  0.00     0.031 A 
ATOM     38  C   UNL A   1      43.440  26.726  27.408  1.00  0.00     0.074 A 
ATOM     39  C   UNL A   1      45.812  26.832  28.142  1.00  0.00     0.049 A 
ATOM     40  N   UNL A   1      43.088  27.933  27.635  1.00  0.00    -0.248 NA
ATOM     41  C   UNL A   1      42.322  25.869  27.023  1.00  0.00     0.031 C 
ATOM     42  C   UNL A   1      45.753  27.799  29.235  1.00  0.00     0.029 A 
ATOM     43  N   UNL A   1      47.160  26.628  27.996  1.00  0.00    -0.354 N 
ATOM     44  C   UNL A   1      41.722  27.929  27.798  1.00  0.00     0.074 A 
ATOM     45  C   UNL A   1      41.284  26.677  27.242  1.00  0.00     0.031 C 
ATOM     46  C   UNL A   1      46.997  28.261  29.490  1.00  0.00     0.029 A 
ATOM     47  C   UNL A   1      47.883  27.711  28.476  1.00  0.00     0.049 A 
ATOM     48  H   UNL A   1      47.562  25.821  27.601  1.00  0.00     0.167 HD
ATOM     49  C   UNL A   1      41.182  28.923  28.554  1.00  0.00     0.037 A 
ATOM     50  C   UNL A   1      48.672  28.421  27.619  1.00  0.00     0.037 A 
ATOM     51  C   UNL A   1      42.257  29.837  28.979  1.00  0.00     0.049 A 
ATOM     52  C   UNL A   1      47.972  29.736  27.375  1.00  0.00     0.074 A 
ATOM     53  C   UNL A   1      42.985  29.935  30.154  1.00  0.00     0.029 A 
ATOM     54  N   UNL A   1      43.001  30.509  28.007  1.00  0.00    -0.354 N 
ATOM     55  N   UNL A   1      46.671  29.888  27.417  1.00  0.00    -0.248 NA
ATOM     56  C   UNL A   1      48.690  31.000  27.262  1.00  0.00     0.031 C 
ATOM     57  C   UNL A   1      44.199  30.625  29.862  1.00  0.00     0.029 A 
ATOM     58  C   UNL A   1      44.213  30.947  28.512  1.00  0.00     0.049 A 
ATOM     59  H   UNL A   1      42.702  30.653  27.080  1.00  0.00     0.167 HD
ATOM     60  C   UNL A   1      46.381  31.222  27.471  1.00  0.00     0.074 A 
ATOM     61  C   UNL A   1      47.674  31.877  27.332  1.00  0.00     0.031 C 
ATOM     62  C   UNL A   1      45.129  31.726  27.682  1.00  0.00     0.037 A 
BRANCH  49  63
ATOM     63  C   UNL A   1      39.786  28.927  29.142  1.00  0.00     0.057 A 
ATOM     64  C   UNL A   1      38.691  29.317  28.346  1.00  0.00     0.134 A 
ATOM     65  C   UNL A   1      39.430  28.592  30.464  1.00  0.00     0.134 A 
ATOM     66  F   UNL A   1      38.838  29.622  27.049  1.00  0.00    -0.206 F 
ATOM     67  C   UNL A   1      37.378  29.411  28.833  1.00  0.00     0.040 A 
ATOM     68  C   UNL A   1      38.128  28.706  30.972  1.00  0.00     0.040 A 
ATOM     69  F   UNL A   1      40.301  28.091  31.341  1.00  0.00    -0.206 F 
ATOM     70  C   UNL A   1      37.092  29.117  30.155  1.00  0.00     0.006 A 
ENDBRANCH  49  63
BRANCH  50  71
ATOM     71  C   UNL A   1      49.346  27.510  26.632  1.00  0.00     0.057 A 
ATOM     72  C   UNL A   1      48.836  27.546  25.315  1.00  0.00     0.134 A 
ATOM     73  C   UNL A   1      50.694  27.157  26.768  1.00  0.00     0.134 A 
ATOM     74  F   UNL A   1      47.540  27.827  25.104  1.00  0.00    -0.206 F 
ATOM     75  C   UNL A   1      49.672  27.479  24.193  1.00  0.00     0.040 A 
ATOM     76  C   UNL A   1      51.533  27.063  25.645  1.00  0.00     0.040 A 
ATOM     77  F   UNL A   1      51.266  27.090  27.978  1.00  0.00    -0.206 F 
ATOM     78  C   UNL A   1      51.039  27.299  24.362  1.00  0.00     0.006 A 
ENDBRANCH  50  71
BRANCH  62  79
ATOM     79  C   UNL A   1      44.686  33.074  27.167  1.00  0.00     0.057 A 
ATOM     80  C   UNL A   1      44.029  33.256  25.940  1.00  0.00     0.134 A 
ATOM     81  C   UNL A   1      44.732  34.220  27.992  1.00  0.00     0.134 A 
ATOM     82  F   UNL A   1      43.776  32.237  25.109  1.00  0.00    -0.206 F 
ATOM     83  C   UNL A   1      43.537  34.495  25.528  1.00  0.00     0.040 A 
ATOM     84  C   UNL A   1      44.165  35.440  27.625  1.00  0.00     0.040 A 
ATOM     85  F   UNL A   1      45.288  34.207  29.211  1.00  0.00    -0.206 F 
ATOM     86  C   UNL A   1      43.588  35.591  26.376  1.00  0.00     0.006 A 
ENDBRANCH  62  79
ENDBRANCH  36  37
ENDBRANCH  28  31
ENDBRANCH  26  27
ENDBRANCH  25  26
ENDBRANCH   1  25
TORSDOF 14
ENDMDL
MODEL 2
REMARK VINA RESULT:     -13.8      3.103      4.914
REMARK SMILES Cc1c(C[N@H+]2CC[C@@H](C(=O)NCCCCNC(=O)c3ccc(-c4c5nc(c(-c6c(F)cccc6F)c6ccc([nH]6)c(-c6c(F)cccc6F)c6nc(c(-c7c(F)cccc7F)c7ccc4[nH]7)C=C6)C=C5)cc3)[C@@H]2C)cccc1[N+](=O)[O-]
REMARK SMILES IDX 13 1 12 2 11 3 9 4 10 5 8 7 5 8 6 9 73 10 7 12 74 13 4 14
REMARK SMILES IDX 3 15 1 16 2 17 78 18 75 19 77 20 76 21 79 22 80 23 81 24
REMARK SMILES IDX 14 25 15 26 16 27 17 28 18 30 19 31 20 32 72 33 21 34 71 35
REMARK SMILES IDX 22 36 23 37 24 38 65 39 25 40 70 41 64 42 66 43 26 44 69 45
REMARK SMILES IDX 63 46 62 47 27 49 53 50 36 51 52 52 37 53 40 54 51 55 67 56
REMARK SMILES IDX 38 57 39 58 50 60 68 61 41 62 28 63 29 64 34 65 30 66 31 67
REMARK SMILES IDX 33 68 35 69 32 70 54 71 55 72 60 73 56 74 57 75 59 76 61 77
REMARK SMILES IDX 58 78 42 79 43 80 48 81 44 82 45 83 47 84 49 85 46 86
REMARK H PARENT 11 6 5 11 16 29 66 48 40 59
REMARK Flexibility Score: inf
ROOT
ATOM      1  C   UNL A   1      37.950  21.180  24.981  1.00  0.00     0.023 C 
ENDROOT
BRANCH   1   2
ATOM      2  C   UNL A   1      35.755  21.147  24.982  1.00  0.00     0.116 C 
BRANCH   2   3
ATOM      3  N   UNL A   1      34.656  21.841  24.071  1.00  0.00    -0.356 N 
ATOM      4  C   UNL A   1      33.390  22.287  24.283  1.00  0.00     0.229 C 
ATOM      5  O   UNL A   1      32.880  22.937  23.363  1.00  0.00    -0.275 OA
ATOM      6  H   UNL A   1      34.958  21.979  23.145  1.00  0.00     0.163 HD
BRANCH   4   7
ATOM      7  C   UNL A   1      32.588  22.011  25.546  1.00  0.00     0.142 C 
ATOM      8  N   UNL A   1      31.649  23.697  26.999  1.00  0.00    -0.328 N 
ATOM      9  C   UNL A   1      30.531  23.004  26.360  1.00  0.00     0.263 C 
ATOM     10  C   UNL A   1      32.890  22.991  26.675  1.00  0.00     0.193 C 
ATOM     11  H   UNL A   1      31.482  23.647  28.004  1.00  0.00     0.348 HD
ATOM     12  C   UNL A   1      31.084  22.017  25.341  1.00  0.00     0.081 C 
ATOM     13  C   UNL A   1      33.428  22.325  27.935  1.00  0.00     0.076 C 
BRANCH   8  14
ATOM     14  C   UNL A   1      31.713  25.157  26.852  1.00  0.00     0.299 C 
BRANCH  14  15
ATOM     15  C   UNL A   1      31.416  25.664  25.458  1.00  0.00     0.016 A 
ATOM     16  C   UNL A   1      34.185  25.828  24.781  1.00  0.00     0.052 C 
ATOM     17  C   UNL A   1      32.784  26.250  24.434  1.00  0.00     0.036 A 
ATOM     18  C   UNL A   1      32.418  27.272  22.996  1.00  0.00     0.272 A 
ATOM     19  C   UNL A   1      29.702  26.038  24.980  1.00  0.00     0.010 A 
ATOM     20  C   UNL A   1      30.719  27.704  22.556  1.00  0.00     0.086 A 
ATOM     21  C   UNL A   1      29.358  27.065  23.538  1.00  0.00     0.008 A 
BRANCH  18  22
ATOM     22  N   UNL A   1      33.441  28.101  22.460  1.00  0.00     0.062 N 
ATOM     23  O   UNL A   1      33.566  29.200  23.005  1.00  0.00    -0.258 OA
ATOM     24  O   UNL A   1      34.116  27.615  21.556  1.00  0.00    -0.258 OA
ENDBRANCH  18  22
ENDBRANCH  14  15
ENDBRANCH   8  14
ENDBRANCH   4   7
ENDBRANCH   2   3
ENDBRANCH   1   2
BRANCH   1  25
ATOM     25  C   UNL A   1      39.208  21.496  26.125  1.00  0.00     0.023 C 
BRANCH  25  26
ATOM     26  C   UNL A   1      39.309  22.922  26.657  1.00  0.00     0.116 C 
BRANCH  26  27
ATOM     27  N   UNL A   1      40.421  23.216  27.544  1.00  0.00    -0.352 N 
ATOM     28  C   UNL A   1      40.900  24.440  27.988  1.00  0.00     0.251 C 
ATOM     29  H   UNL A   1      40.908  22.429  27.880  1.00  0.00     0.163 HD
ATOM     30  O   UNL A   1      41.976  24.476  28.583  1.00  0.00    -0.269 OA
BRANCH  28  31
ATOM     31  C   UNL A   1      40.052  25.670  27.949  1.00  0.00     0.039 A 
ATOM     32  C   UNL A   1      40.386  26.623  26.972  1.00  0.00     0.014 A 
ATOM     33  C   UNL A   1      39.338  26.066  29.064  1.00  0.00     0.014 A 
ATOM     34  C   UNL A   1      40.353  27.969  27.299  1.00  0.00     0.010 A 
ATOM     35  C   UNL A   1      39.528  27.350  29.493  1.00  0.00     0.010 A 
ATOM     36  C   UNL A   1      40.072  28.289  28.615  1.00  0.00    -0.014 A 
BRANCH  36  37
ATOM     37  C   UNL A   1      40.200  29.606  29.188  1.00  0.00     0.031 A 
ATOM     38  C   UNL A   1      39.058  30.497  29.005  1.00  0.00     0.074 A 
ATOM     39  C   UNL A   1      41.240  29.852  30.005  1.00  0.00     0.049 A 
ATOM     40  N   UNL A   1      39.103  31.761  29.181  1.00  0.00    -0.248 NA
ATOM     41  C   UNL A   1      37.766  30.037  28.502  1.00  0.00     0.031 C 
ATOM     42  C   UNL A   1      41.390  30.834  31.075  1.00  0.00     0.029 A 
ATOM     43  N   UNL A   1      42.452  29.211  30.014  1.00  0.00    -0.354 N 
ATOM     44  C   UNL A   1      37.804  32.213  29.187  1.00  0.00     0.074 A 
ATOM     45  C   UNL A   1      37.037  31.150  28.594  1.00  0.00     0.031 C 
ATOM     46  C   UNL A   1      42.682  30.874  31.467  1.00  0.00     0.029 A 
ATOM     47  C   UNL A   1      43.438  30.017  30.566  1.00  0.00     0.049 A 
ATOM     48  H   UNL A   1      42.603  28.300  29.675  1.00  0.00     0.167 HD
ATOM     49  C   UNL A   1      37.548  33.363  29.868  1.00  0.00     0.037 A 
ATOM     50  C   UNL A   1      44.503  30.390  29.799  1.00  0.00     0.037 A 
ATOM     51  C   UNL A   1      38.814  33.892  30.405  1.00  0.00     0.049 A 
ATOM     52  C   UNL A   1      44.308  31.849  29.465  1.00  0.00     0.074 A 
ATOM     53  C   UNL A   1      39.405  33.799  31.655  1.00  0.00     0.029 A 
ATOM     54  N   UNL A   1      39.835  34.238  29.520  1.00  0.00    -0.354 N 
ATOM     55  N   UNL A   1      43.133  32.421  29.357  1.00  0.00    -0.248 NA
ATOM     56  C   UNL A   1      45.411  32.802  29.425  1.00  0.00     0.031 C 
ATOM     57  C   UNL A   1      40.803  34.039  31.497  1.00  0.00     0.029 A 
ATOM     58  C   UNL A   1      41.064  34.276  30.155  1.00  0.00     0.049 A 
ATOM     59  H   UNL A   1      39.700  34.429  28.563  1.00  0.00     0.167 HD
ATOM     60  C   UNL A   1      43.298  33.777  29.367  1.00  0.00     0.074 A 
ATOM     61  C   UNL A   1      44.741  33.965  29.371  1.00  0.00     0.031 C 
ATOM     62  C   UNL A   1      42.268  34.673  29.429  1.00  0.00     0.037 A 
BRANCH  49  63
ATOM     63  C   UNL A   1      36.178  33.851  30.293  1.00  0.00     0.057 A 
ATOM     64  C   UNL A   1      35.242  34.251  29.318  1.00  0.00     0.134 A 
ATOM     65  C   UNL A   1      35.705  33.983  31.614  1.00  0.00     0.134 A 
ATOM     66  F   UNL A   1      35.505  34.147  28.007  1.00  0.00    -0.206 F 
ATOM     67  C   UNL A   1      33.979  34.776  29.630  1.00  0.00     0.040 A 
ATOM     68  C   UNL A   1      34.456  34.530  31.943  1.00  0.00     0.040 A 
ATOM     69  F   UNL A   1      36.392  33.553  32.672  1.00  0.00    -0.206 F 
ATOM     70  C   UNL A   1      33.585  34.931  30.948  1.00  0.00     0.006 A 
ENDBRANCH  49  63
BRANCH  50  71
ATOM     71  C   UNL A   1      44.937  29.264  28.902  1.00  0.00     0.057 A 
ATOM     72  C   UNL A   1      44.629  29.417  27.532  1.00  0.00     0.134 A 
ATOM     73  C   UNL A   1      46.058  28.481  29.206  1.00  0.00     0.134 A 
ATOM     74  F   UNL A   1      43.541  30.111  27.161  1.00  0.00    -0.206 F 
ATOM     75  C   UNL A   1      45.518  29.023  26.524  1.00  0.00     0.040 A 
ATOM     76  C   UNL A   1      46.940  28.062  28.196  1.00  0.00     0.040 A 
ATOM     77  F   UNL A   1      46.424  28.274  30.478  1.00  0.00    -0.206 F 
ATOM     78  C   UNL A   1      46.712  28.398  26.862  1.00  0.00     0.006 A 
ENDBRANCH  50  71
BRANCH  62  79
ATOM     79  C   UNL A   1      42.353  36.067  28.857  1.00  0.00     0.057 A 
ATOM     80  C   UNL A   1      43.002  37.131  29.504  1.00  0.00     0.134 A 
ATOM     81  C   UNL A   1      41.950  36.336  27.530  1.00  0.00     0.134 A 
ATOM     82  F   UNL A   1      43.570  36.992  30.708  1.00  0.00    -0.206 F 
ATOM     83  C   UNL A   1      43.159  38.386  28.913  1.00  0.00     0.040 A 
ATOM     84  C   UNL A   1      42.181  37.560  26.901  1.00  0.00     0.040 A 
ATOM     85  F   UNL A   1      41.351  35.417  26.759  1.00  0.00    -0.206 F 
ATOM     86  C   UNL A   1      42.763  38.601  27.602  1.00  0.00     0.006 A 
ENDBRANCH  62  79
ENDBRANCH  36  37
ENDBRANCH  28  31
ENDBRANCH  26  27
ENDBRANCH  25  26
ENDBRANCH   1  25
TORSDOF 14
ENDMDL
MODEL 3
REMARK VINA RESULT:     -13.8      5.044      9.426
REMARK SMILES Cc1c(C[N@H+]2CC[C@@H](C(=O)NCCCCNC(=O)c3ccc(-c4c5nc(c(-c6c(F)cccc6F)c6ccc([nH]6)c(-c6c(F)cccc6F)c6nc(c(-c7c(F)cccc7F)c7ccc4[nH]7)C=C6)C=C5)cc3)[C@@H]2C)cccc1[N+](=O)[O-]
REMARK SMILES IDX 13 1 12 2 11 3 9 4 10 5 8 7 5 8 6 9 73 10 7 12 74 13 4 14
REMARK SMILES IDX 3 15 1 16 2 17 78 18 75 19 77 20 76 21 79 22 80 23 81 24
REMARK SMILES IDX 14 25 15 26 16 27 17 28 18 30 19 31 20 32 72 33 21 34 71 35
REMARK SMILES IDX 22 36 23 37 24 38 65 39 25 40 70 41 64 42 66 43 26 44 69 45
REMARK SMILES IDX 63 46 62 47 27 49 53 50 36 51 52 52 37 53 40 54 51 55 67 56
REMARK SMILES IDX 38 57 39 58 50 60 68 61 41 62 28 63 29 64 34 65 30 66 31 67
REMARK SMILES IDX 33 68 35 69 32 70 54 71 55 72 60 73 56 74 57 75 59 76 61 77
REMARK SMILES IDX 58 78 42 79 43 80 48 81 44 82 45 83 47 84 49 85 46 86
REMARK H PARENT 11 6 5 11 16 29 66 48 40 59
REMARK Flexibility Score: inf
ROOT
ATOM      1  C   UNL A   1      38.155  23.804  26.108  1.00  0.00     0.023 C 
ENDROOT
BRANCH   1   2
ATOM      2  C   UNL A   1      37.722  21.785  25.366  1.00  0.00     0.116 C 
BRANCH   2   3
ATOM      3  N   UNL A   1      36.378  20.963  25.166  1.00  0.00    -0.356 N 
ATOM      4  C   UNL A   1      35.079  21.169  25.505  1.00  0.00     0.229 C 
ATOM      5  O   UNL A   1      34.259  20.374  25.032  1.00  0.00    -0.275 OA
ATOM      6  H   UNL A   1      36.517  20.113  24.689  1.00  0.00     0.163 HD
BRANCH   4   7
ATOM      7  C   UNL A   1      34.604  22.280  26.431  1.00  0.00     0.142 C 
ATOM      8  N   UNL A   1      32.422  23.313  26.365  1.00  0.00    -0.328 N 
ATOM      9  C   UNL A   1      32.508  22.560  27.616  1.00  0.00     0.263 C 
ATOM     10  C   UNL A   1      33.739  23.319  25.726  1.00  0.00     0.193 C 
ATOM     11  H   UNL A   1      32.163  24.267  26.621  1.00  0.00     0.348 HD
ATOM     12  C   UNL A   1      33.823  21.792  27.638  1.00  0.00     0.081 C 
ATOM     13  C   UNL A   1      34.312  24.730  25.780  1.00  0.00     0.076 C 
BRANCH   8  14
ATOM     14  C   UNL A   1      31.302  23.006  25.467  1.00  0.00     0.299 C 
BRANCH  14  15
ATOM     15  C   UNL A   1      30.986  24.088  24.459  1.00  0.00     0.016 A 
ATOM     16  C   UNL A   1      32.711  22.948  22.491  1.00  0.00     0.052 C 
ATOM     17  C   UNL A   1      31.950  24.166  22.933  1.00  0.00     0.036 A 
ATOM     18  C   UNL A   1      31.919  25.683  21.962  1.00  0.00     0.272 A 
ATOM     19  C   UNL A   1      29.942  25.495  24.943  1.00  0.00     0.010 A 
ATOM     20  C   UNL A   1      30.935  27.110  22.476  1.00  0.00     0.086 A 
ATOM     21  C   UNL A   1      29.926  27.006  23.958  1.00  0.00     0.008 A 
BRANCH  18  22
ATOM     22  N   UNL A   1      32.978  25.941  21.048  1.00  0.00     0.062 N 
ATOM     23  O   UNL A   1      32.798  25.518  19.904  1.00  0.00    -0.258 OA
ATOM     24  O   UNL A   1      33.921  26.596  21.482  1.00  0.00    -0.258 OA
ENDBRANCH  18  22
ENDBRANCH  14  15
ENDBRANCH   8  14
ENDBRANCH   4   7
ENDBRANCH   2   3
ENDBRANCH   1   2
BRANCH   1  25
ATOM     25  C   UNL A   1      38.975  24.503  27.461  1.00  0.00     0.023 C 
BRANCH  25  26
ATOM     26  C   UNL A   1      40.047  25.543  27.150  1.00  0.00     0.116 C 
BRANCH  26  27
ATOM     27  N   UNL A   1      41.153  25.646  28.086  1.00  0.00    -0.352 N 
ATOM     28  C   UNL A   1      41.606  26.744  28.805  1.00  0.00     0.251 C 
ATOM     29  H   UNL A   1      41.658  24.813  28.232  1.00  0.00     0.163 HD
ATOM     30  O   UNL A   1      42.680  26.663  29.397  1.00  0.00    -0.269 OA
BRANCH  28  31
ATOM     31  C   UNL A   1      40.731  27.930  29.049  1.00  0.00     0.039 A 
ATOM     32  C   UNL A   1      41.172  29.149  28.507  1.00  0.00     0.014 A 
ATOM     33  C   UNL A   1      39.845  27.943  30.111  1.00  0.00     0.014 A 
ATOM     34  C   UNL A   1      41.044  30.309  29.254  1.00  0.00     0.010 A 
ATOM     35  C   UNL A   1      39.925  29.007  30.965  1.00  0.00     0.010 A 
ATOM     36  C   UNL A   1      40.560  30.175  30.543  1.00  0.00    -0.014 A 
BRANCH  36  37
ATOM     37  C   UNL A   1      40.556  31.223  31.534  1.00  0.00     0.031 A 
ATOM     38  C   UNL A   1      41.648  31.190  32.503  1.00  0.00     0.074 A 
ATOM     39  C   UNL A   1      39.697  32.247  31.383  1.00  0.00     0.049 A 
ATOM     40  N   UNL A   1      41.649  31.843  33.601  1.00  0.00    -0.248 NA
ATOM     41  C   UNL A   1      42.814  30.322  32.356  1.00  0.00     0.031 C 
ATOM     42  C   UNL A   1      39.767  33.620  31.873  1.00  0.00     0.029 A 
ATOM     43  N   UNL A   1      38.506  32.231  30.705  1.00  0.00    -0.354 N 
ATOM     44  C   UNL A   1      42.927  31.784  34.103  1.00  0.00     0.074 A 
ATOM     45  C   UNL A   1      43.555  30.700  33.398  1.00  0.00     0.031 C 
ATOM     46  C   UNL A   1      38.576  34.227  31.675  1.00  0.00     0.029 A 
ATOM     47  C   UNL A   1      37.652  33.220  31.174  1.00  0.00     0.049 A 
ATOM     48  H   UNL A   1      38.284  31.602  29.982  1.00  0.00     0.167 HD
ATOM     49  C   UNL A   1      43.321  32.796  34.924  1.00  0.00     0.037 A 
ATOM     50  C   UNL A   1      36.461  32.864  31.736  1.00  0.00     0.037 A 
ATOM     51  C   UNL A   1      42.188  33.717  35.124  1.00  0.00     0.049 A 
ATOM     52  C   UNL A   1      36.600  33.087  33.223  1.00  0.00     0.074 A 
ATOM     53  C   UNL A   1      41.851  34.921  34.526  1.00  0.00     0.029 A 
ATOM     54  N   UNL A   1      41.016  33.235  35.709  1.00  0.00    -0.354 N 
ATOM     55  N   UNL A   1      37.735  32.994  33.871  1.00  0.00    -0.248 NA
ATOM     56  C   UNL A   1      35.518  33.618  34.043  1.00  0.00     0.031 C 
ATOM     57  C   UNL A   1      40.451  35.126  34.712  1.00  0.00     0.029 A 
ATOM     58  C   UNL A   1      39.936  34.050  35.421  1.00  0.00     0.049 A 
ATOM     59  H   UNL A   1      40.964  32.419  36.257  1.00  0.00     0.167 HD
ATOM     60  C   UNL A   1      37.587  33.554  35.108  1.00  0.00     0.074 A 
ATOM     61  C   UNL A   1      36.174  33.894  35.183  1.00  0.00     0.031 C 
ATOM     62  C   UNL A   1      38.617  33.766  35.981  1.00  0.00     0.037 A 
BRANCH  49  63
ATOM     63  C   UNL A   1      44.751  33.117  35.307  1.00  0.00     0.057 A 
ATOM     64  C   UNL A   1      45.323  32.519  36.447  1.00  0.00     0.134 A 
ATOM     65  C   UNL A   1      45.620  34.004  34.641  1.00  0.00     0.134 A 
ATOM     66  F   UNL A   1      44.657  31.611  37.174  1.00  0.00    -0.206 F 
ATOM     67  C   UNL A   1      46.616  32.813  36.906  1.00  0.00     0.040 A 
ATOM     68  C   UNL A   1      46.905  34.328  35.101  1.00  0.00     0.040 A 
ATOM     69  F   UNL A   1      45.310  34.582  33.480  1.00  0.00    -0.206 F 
ATOM     70  C   UNL A   1      47.410  33.731  36.240  1.00  0.00     0.006 A 
ENDBRANCH  49  63
BRANCH  50  71
ATOM     71  C   UNL A   1      35.851  31.700  31.007  1.00  0.00     0.057 A 
ATOM     72  C   UNL A   1      35.308  31.989  29.735  1.00  0.00     0.134 A 
ATOM     73  C   UNL A   1      36.311  30.393  31.207  1.00  0.00     0.134 A 
ATOM     74  F   UNL A   1      34.800  33.205  29.481  1.00  0.00    -0.206 F 
ATOM     75  C   UNL A   1      35.441  31.107  28.655  1.00  0.00     0.040 A 
ATOM     76  C   UNL A   1      36.424  29.496  30.131  1.00  0.00     0.040 A 
ATOM     77  F   UNL A   1      36.836  30.023  32.382  1.00  0.00    -0.206 F 
ATOM     78  C   UNL A   1      36.060  29.878  28.840  1.00  0.00     0.006 A 
ENDBRANCH  50  71
BRANCH  62  79
ATOM     79  C   UNL A   1      38.433  33.799  37.479  1.00  0.00     0.057 A 
ATOM     80  C   UNL A   1      37.983  32.699  38.228  1.00  0.00     0.134 A 
ATOM     81  C   UNL A   1      38.897  34.890  38.247  1.00  0.00     0.134 A 
ATOM     82  F   UNL A   1      37.646  31.537  37.655  1.00  0.00    -0.206 F 
ATOM     83  C   UNL A   1      37.916  32.716  39.622  1.00  0.00     0.040 A 
ATOM     84  C   UNL A   1      38.916  34.881  39.642  1.00  0.00     0.040 A 
ATOM     85  F   UNL A   1      39.396  36.002  37.689  1.00  0.00    -0.206 F 
ATOM     86  C   UNL A   1      38.398  33.802  40.336  1.00  0.00     0.006 A 
ENDBRANCH  62  79
ENDBRANCH  36  37
ENDBRANCH  28  31
ENDBRANCH  26  27
ENDBRANCH  25  26
ENDBRANCH   1  25
TORSDOF 14
ENDMDL
