MODEL 1
REMARK VINA RESULT:     -11.7      0.000      0.000
REMARK SMILES CCOc1cc2c(cc1OCC)[C@@H](C(=O)NCCCCNC(=O)c1ccc(-c3c4nc(c(-c5c(F)cccc5F)c5ccc([nH]5)c(-c5c(F)cccc5F)c5nc(c(-c6c(F)cccc6F)c6ccc3[nH]6)C=C5)C=C4)cc1)[C@H](c1ccc(F)cc1Cl)N(C)C2=O
REMARK SMILES IDX 18 1 17 2 16 3 14 4 15 5 13 7 4 8 5 9 9 10 6 11 8 12 7 13
REMARK SMILES IDX 89 14 87 15 90 16 78 17 88 18 3 19 2 20 1 21 10 22 11 23
REMARK SMILES IDX 12 24 79 25 80 26 85 27 81 28 84 29 86 30 82 31 83 32 19 33
REMARK SMILES IDX 20 34 21 35 22 36 23 38 24 39 25 40 77 41 26 42 76 43 27 44
REMARK SMILES IDX 28 45 29 46 70 47 30 48 75 49 69 50 71 51 31 52 74 53 68 54
REMARK SMILES IDX 67 55 32 57 58 58 41 59 57 60 42 61 45 62 56 63 72 64 43 65
REMARK SMILES IDX 44 66 55 68 73 69 46 70 33 71 34 72 39 73 35 74 36 75 38 76
REMARK SMILES IDX 40 77 37 78 59 79 60 80 65 81 61 82 62 83 64 84 66 85 63 86
REMARK SMILES IDX 47 87 48 88 53 89 49 90 50 91 52 92 54 93 51 94
REMARK H PARENT 16 6 21 37 71 56 45 67
REMARK Flexibility Score: inf
ROOT
ATOM      1  C   UNL A   1      35.735  23.354  23.304  1.00  0.00     0.023 C 
ENDROOT
BRANCH   1   2
ATOM      2  C   UNL A   1      34.242  23.600  23.079  1.00  0.00     0.116 C 
BRANCH   2   3
ATOM      3  N   UNL A   1      34.031  24.744  22.211  1.00  0.00    -0.355 N 
ATOM      4  C   UNL A   1      33.479  25.967  22.395  1.00  0.00     0.230 C 
ATOM      5  O   UNL A   1      33.315  26.632  21.360  1.00  0.00    -0.274 OA
ATOM      6  H   UNL A   1      34.357  24.600  21.294  1.00  0.00     0.163 HD
BRANCH   4   7
ATOM      7  C   UNL A   1      33.013  26.573  23.716  1.00  0.00     0.136 C 
ATOM      8  C   UNL A   1      30.375  24.485  26.405  1.00  0.00     0.161 A 
ATOM      9  C   UNL A   1      29.888  25.495  25.565  1.00  0.00     0.064 A 
ATOM     10  C   UNL A   1      31.729  24.130  26.367  1.00  0.00     0.161 A 
ATOM     11  C   UNL A   1      30.732  26.132  24.657  1.00  0.00     0.048 A 
ATOM     12  C   UNL A   1      32.562  24.764  25.431  1.00  0.00     0.056 A 
ATOM     13  C   UNL A   1      32.078  25.773  24.586  1.00  0.00    -0.016 A 
ATOM     14  C   UNL A   1      30.184  27.173  23.745  1.00  0.00     0.254 C 
ATOM     15  N   UNL A   1      31.103  28.052  23.173  1.00  0.00    -0.333 N 
ATOM     16  O   UNL A   1      28.981  27.178  23.500  1.00  0.00    -0.269 OA
ATOM     17  C   UNL A   1      32.509  28.044  23.580  1.00  0.00     0.134 C 
ATOM     18  C   UNL A   1      30.660  29.079  22.239  1.00  0.00     0.147 C 
BRANCH   8  19
ATOM     19  O   UNL A   1      29.504  23.959  27.321  1.00  0.00    -0.490 OA
BRANCH  19  20
ATOM     20  C   UNL A   1      29.396  22.532  27.230  1.00  0.00     0.226 C 
ATOM     21  C   UNL A   1      28.001  22.052  27.594  1.00  0.00     0.049 C 
ENDBRANCH  19  20
ENDBRANCH   8  19
BRANCH  10  22
ATOM     22  O   UNL A   1      32.420  23.242  27.142  1.00  0.00    -0.490 OA
BRANCH  22  23
ATOM     23  C   UNL A   1      33.356  22.335  26.570  1.00  0.00     0.226 C 
ATOM     24  C   UNL A   1      32.677  21.249  25.753  1.00  0.00     0.049 C 
ENDBRANCH  22  23
ENDBRANCH  10  22
BRANCH  17  25
ATOM     25  C   UNL A   1      32.837  28.871  24.853  1.00  0.00    -0.005 A 
ATOM     26  C   UNL A   1      34.063  28.538  25.489  1.00  0.00     0.010 A 
ATOM     27  C   UNL A   1      32.060  29.877  25.475  1.00  0.00     0.049 A 
ATOM     28  C   UNL A   1      34.442  29.095  26.712  1.00  0.00     0.040 A 
ATOM     29  C   UNL A   1      32.453  30.438  26.699  1.00  0.00     0.060 A 
ATOM     30  Cl  UNL A   1      30.601  30.568  24.861  1.00  0.00    -0.084 Cl
ATOM     31  C   UNL A   1      33.624  30.032  27.312  1.00  0.00     0.124 A 
ATOM     32  F   UNL A   1      33.971  30.561  28.492  1.00  0.00    -0.207 F 
ENDBRANCH  17  25
ENDBRANCH   4   7
ENDBRANCH   2   3
ENDBRANCH   1   2
BRANCH   1  33
ATOM     33  C   UNL A   1      36.118  22.885  24.699  1.00  0.00     0.023 C 
BRANCH  33  34
ATOM     34  C   UNL A   1      37.301  23.624  25.304  1.00  0.00     0.116 C 
BRANCH  34  35
ATOM     35  N   UNL A   1      38.516  22.833  25.432  1.00  0.00    -0.352 N 
ATOM     36  C   UNL A   1      39.665  23.165  26.126  1.00  0.00     0.251 C 
ATOM     37  H   UNL A   1      38.520  21.963  24.972  1.00  0.00     0.163 HD
ATOM     38  O   UNL A   1      40.647  22.445  26.121  1.00  0.00    -0.269 OA
BRANCH  36  39
ATOM     39  C   UNL A   1      39.697  24.460  26.844  1.00  0.00     0.039 A 
ATOM     40  C   UNL A   1      39.146  24.541  28.123  1.00  0.00     0.014 A 
ATOM     41  C   UNL A   1      40.360  25.555  26.287  1.00  0.00     0.014 A 
ATOM     42  C   UNL A   1      39.335  25.700  28.880  1.00  0.00     0.010 A 
ATOM     43  C   UNL A   1      40.634  26.664  27.076  1.00  0.00     0.010 A 
ATOM     44  C   UNL A   1      40.119  26.752  28.379  1.00  0.00    -0.014 A 
BRANCH  44  45
ATOM     45  C   UNL A   1      40.389  27.973  29.177  1.00  0.00     0.031 A 
ATOM     46  C   UNL A   1      41.676  28.084  29.948  1.00  0.00     0.074 A 
ATOM     47  C   UNL A   1      39.454  28.938  29.280  1.00  0.00     0.049 A 
ATOM     48  N   UNL A   1      42.060  29.005  30.795  1.00  0.00    -0.248 NA
ATOM     49  C   UNL A   1      42.641  26.984  29.781  1.00  0.00     0.031 C 
ATOM     50  C   UNL A   1      38.139  28.922  28.638  1.00  0.00     0.029 A 
ATOM     51  N   UNL A   1      39.467  30.120  29.977  1.00  0.00    -0.354 N 
ATOM     52  C   UNL A   1      43.288  28.577  31.284  1.00  0.00     0.074 A 
ATOM     53  C   UNL A   1      43.557  27.288  30.688  1.00  0.00     0.031 C 
ATOM     54  C   UNL A   1      37.485  30.055  28.945  1.00  0.00     0.029 A 
ATOM     55  C   UNL A   1      38.320  30.862  29.828  1.00  0.00     0.049 A 
ATOM     56  H   UNL A   1      40.227  30.410  30.532  1.00  0.00     0.167 HD
ATOM     57  C   UNL A   1      44.132  29.213  32.129  1.00  0.00     0.037 A 
ATOM     58  C   UNL A   1      37.987  32.061  30.343  1.00  0.00     0.037 A 
ATOM     59  C   UNL A   1      43.893  30.522  32.672  1.00  0.00     0.049 A 
ATOM     60  C   UNL A   1      38.971  32.780  31.224  1.00  0.00     0.074 A 
ATOM     61  C   UNL A   1      44.711  31.283  33.487  1.00  0.00     0.029 A 
ATOM     62  N   UNL A   1      42.751  31.272  32.437  1.00  0.00    -0.354 N 
ATOM     63  N   UNL A   1      40.153  32.388  31.636  1.00  0.00    -0.248 NA
ATOM     64  C   UNL A   1      38.580  34.114  31.702  1.00  0.00     0.031 C 
ATOM     65  C   UNL A   1      44.055  32.489  33.759  1.00  0.00     0.029 A 
ATOM     66  C   UNL A   1      42.845  32.490  33.086  1.00  0.00     0.049 A 
ATOM     67  H   UNL A   1      41.986  30.981  31.888  1.00  0.00     0.167 HD
ATOM     68  C   UNL A   1      40.662  33.439  32.387  1.00  0.00     0.074 A 
ATOM     69  C   UNL A   1      39.662  34.487  32.370  1.00  0.00     0.031 C 
ATOM     70  C   UNL A   1      41.849  33.530  33.034  1.00  0.00     0.037 A 
BRANCH  57  71
ATOM     71  C   UNL A   1      45.400  28.499  32.495  1.00  0.00     0.057 A 
ATOM     72  C   UNL A   1      45.481  27.668  33.620  1.00  0.00     0.134 A 
ATOM     73  C   UNL A   1      46.553  28.642  31.714  1.00  0.00     0.134 A 
ATOM     74  F   UNL A   1      44.417  27.504  34.421  1.00  0.00    -0.206 F 
ATOM     75  C   UNL A   1      46.671  27.033  33.976  1.00  0.00     0.040 A 
ATOM     76  C   UNL A   1      47.742  27.990  32.043  1.00  0.00     0.040 A 
ATOM     77  F   UNL A   1      46.545  29.421  30.621  1.00  0.00    -0.206 F 
ATOM     78  C   UNL A   1      47.806  27.189  33.182  1.00  0.00     0.006 A 
ENDBRANCH  57  71
BRANCH  58  79
ATOM     79  C   UNL A   1      36.687  32.686  29.996  1.00  0.00     0.057 A 
ATOM     80  C   UNL A   1      35.580  32.555  30.844  1.00  0.00     0.134 A 
ATOM     81  C   UNL A   1      36.511  33.412  28.812  1.00  0.00     0.134 A 
ATOM     82  F   UNL A   1      35.683  31.856  31.983  1.00  0.00    -0.206 F 
ATOM     83  C   UNL A   1      34.340  33.106  30.518  1.00  0.00     0.040 A 
ATOM     84  C   UNL A   1      35.282  33.986  28.484  1.00  0.00     0.040 A 
ATOM     85  F   UNL A   1      37.536  33.580  27.963  1.00  0.00    -0.206 F 
ATOM     86  C   UNL A   1      34.189  33.826  29.335  1.00  0.00     0.006 A 
ENDBRANCH  58  79
BRANCH  70  87
ATOM     87  C   UNL A   1      42.155  34.822  33.727  1.00  0.00     0.057 A 
ATOM     88  C   UNL A   1      42.860  35.853  33.095  1.00  0.00     0.134 A 
ATOM     89  C   UNL A   1      41.705  35.048  35.034  1.00  0.00     0.134 A 
ATOM     90  F   UNL A   1      43.328  35.690  31.848  1.00  0.00    -0.206 F 
ATOM     91  C   UNL A   1      43.127  37.057  33.747  1.00  0.00     0.040 A 
ATOM     92  C   UNL A   1      41.946  36.257  35.688  1.00  0.00     0.040 A 
ATOM     93  F   UNL A   1      41.017  34.103  35.691  1.00  0.00    -0.206 F 
ATOM     94  C   UNL A   1      42.663  37.264  35.045  1.00  0.00     0.006 A 
ENDBRANCH  70  87
ENDBRANCH  44  45
ENDBRANCH  36  39
ENDBRANCH  34  35
ENDBRANCH  33  34
ENDBRANCH   1  33
TORSDOF 16
ENDMDL
MODEL 2
REMARK VINA RESULT:     -11.2      2.042      2.867
REMARK SMILES CCOc1cc2c(cc1OCC)[C@@H](C(=O)NCCCCNC(=O)c1ccc(-c3c4nc(c(-c5c(F)cccc5F)c5ccc([nH]5)c(-c5c(F)cccc5F)c5nc(c(-c6c(F)cccc6F)c6ccc3[nH]6)C=C5)C=C4)cc1)[C@H](c1ccc(F)cc1Cl)N(C)C2=O
REMARK SMILES IDX 18 1 17 2 16 3 14 4 15 5 13 7 4 8 5 9 9 10 6 11 8 12 7 13
REMARK SMILES IDX 89 14 87 15 90 16 78 17 88 18 3 19 2 20 1 21 10 22 11 23
REMARK SMILES IDX 12 24 79 25 80 26 85 27 81 28 84 29 86 30 82 31 83 32 19 33
REMARK SMILES IDX 20 34 21 35 22 36 23 38 24 39 25 40 77 41 26 42 76 43 27 44
REMARK SMILES IDX 28 45 29 46 70 47 30 48 75 49 69 50 71 51 31 52 74 53 68 54
REMARK SMILES IDX 67 55 32 57 58 58 41 59 57 60 42 61 45 62 56 63 72 64 43 65
REMARK SMILES IDX 44 66 55 68 73 69 46 70 33 71 34 72 39 73 35 74 36 75 38 76
REMARK SMILES IDX 40 77 37 78 59 79 60 80 65 81 61 82 62 83 64 84 66 85 63 86
REMARK SMILES IDX 47 87 48 88 53 89 49 90 50 91 52 92 54 93 51 94
REMARK H PARENT 16 6 21 37 71 56 45 67
REMARK Flexibility Score: inf
ROOT
ATOM      1  C   UNL A   1      35.696  23.505  23.717  1.00  0.00     0.023 C 
ENDROOT
BRANCH   1   2
ATOM      2  C   UNL A   1      34.215  23.559  23.337  1.00  0.00     0.116 C 
BRANCH   2   3
ATOM      3  N   UNL A   1      33.949  24.677  22.450  1.00  0.00    -0.355 N 
ATOM      4  C   UNL A   1      33.329  25.870  22.612  1.00  0.00     0.230 C 
ATOM      5  O   UNL A   1      33.137  26.509  21.565  1.00  0.00    -0.274 OA
ATOM      6  H   UNL A   1      34.290  24.538  21.538  1.00  0.00     0.163 HD
BRANCH   4   7
ATOM      7  C   UNL A   1      32.818  26.468  23.920  1.00  0.00     0.136 C 
ATOM      8  C   UNL A   1      30.172  24.324  26.556  1.00  0.00     0.161 A 
ATOM      9  C   UNL A   1      29.679  25.320  25.701  1.00  0.00     0.064 A 
ATOM     10  C   UNL A   1      31.534  24.002  26.549  1.00  0.00     0.161 A 
ATOM     11  C   UNL A   1      30.528  25.974  24.810  1.00  0.00     0.048 A 
ATOM     12  C   UNL A   1      32.373  24.653  25.630  1.00  0.00     0.056 A 
ATOM     13  C   UNL A   1      31.884  25.648  24.771  1.00  0.00    -0.016 A 
ATOM     14  C   UNL A   1      29.975  26.999  23.883  1.00  0.00     0.254 C 
ATOM     15  N   UNL A   1      30.886  27.898  23.328  1.00  0.00    -0.333 N 
ATOM     16  O   UNL A   1      28.779  26.974  23.611  1.00  0.00    -0.269 OA
ATOM     17  C   UNL A   1      32.282  27.925  23.767  1.00  0.00     0.134 C 
ATOM     18  C   UNL A   1      30.440  28.912  22.382  1.00  0.00     0.147 C 
BRANCH   8  19
ATOM     19  O   UNL A   1      29.293  23.780  27.454  1.00  0.00    -0.490 OA
BRANCH  19  20
ATOM     20  C   UNL A   1      29.157  22.360  27.308  1.00  0.00     0.226 C 
ATOM     21  C   UNL A   1      27.737  21.902  27.592  1.00  0.00     0.049 C 
ENDBRANCH  19  20
ENDBRANCH   8  19
BRANCH  10  22
ATOM     22  O   UNL A   1      32.229  23.133  27.343  1.00  0.00    -0.490 OA
BRANCH  22  23
ATOM     23  C   UNL A   1      32.984  22.064  26.783  1.00  0.00     0.226 C 
ATOM     24  C   UNL A   1      34.170  21.683  27.652  1.00  0.00     0.049 C 
ENDBRANCH  22  23
ENDBRANCH  10  22
BRANCH  17  25
ATOM     25  C   UNL A   1      32.561  28.764  25.045  1.00  0.00    -0.005 A 
ATOM     26  C   UNL A   1      31.672  29.853  25.257  1.00  0.00     0.010 A 
ATOM     27  C   UNL A   1      33.599  28.607  25.993  1.00  0.00     0.049 A 
ATOM     28  C   UNL A   1      31.863  30.779  26.284  1.00  0.00     0.040 A 
ATOM     29  C   UNL A   1      33.777  29.538  27.028  1.00  0.00     0.060 A 
ATOM     30  Cl  UNL A   1      34.736  27.309  26.059  1.00  0.00    -0.084 Cl
ATOM     31  C   UNL A   1      32.924  30.619  27.152  1.00  0.00     0.124 A 
ATOM     32  F   UNL A   1      33.124  31.510  28.132  1.00  0.00    -0.207 F 
ENDBRANCH  17  25
ENDBRANCH   4   7
ENDBRANCH   2   3
ENDBRANCH   1   2
BRANCH   1  33
ATOM     33  C   UNL A   1      35.991  23.567  25.208  1.00  0.00     0.023 C 
BRANCH  33  34
ATOM     34  C   UNL A   1      37.439  23.882  25.545  1.00  0.00     0.116 C 
BRANCH  34  35
ATOM     35  N   UNL A   1      38.276  22.717  25.796  1.00  0.00    -0.352 N 
ATOM     36  C   UNL A   1      39.537  22.695  26.364  1.00  0.00     0.251 C 
ATOM     37  H   UNL A   1      37.902  21.846  25.531  1.00  0.00     0.163 HD
ATOM     38  O   UNL A   1      40.171  21.661  26.477  1.00  0.00    -0.269 OA
BRANCH  36  39
ATOM     39  C   UNL A   1      40.134  23.983  26.788  1.00  0.00     0.039 A 
ATOM     40  C   UNL A   1      40.274  25.007  25.851  1.00  0.00     0.014 A 
ATOM     41  C   UNL A   1      40.457  24.199  28.129  1.00  0.00     0.014 A 
ATOM     42  C   UNL A   1      40.659  26.280  26.278  1.00  0.00     0.010 A 
ATOM     43  C   UNL A   1      40.740  25.486  28.566  1.00  0.00     0.010 A 
ATOM     44  C   UNL A   1      40.851  26.539  27.645  1.00  0.00    -0.014 A 
BRANCH  44  45
ATOM     45  C   UNL A   1      41.205  27.893  28.142  1.00  0.00     0.031 A 
ATOM     46  C   UNL A   1      42.648  28.313  28.179  1.00  0.00     0.074 A 
ATOM     47  C   UNL A   1      40.250  28.705  28.634  1.00  0.00     0.049 A 
ATOM     48  N   UNL A   1      43.184  29.399  28.678  1.00  0.00    -0.248 NA
ATOM     49  C   UNL A   1      43.627  27.364  27.623  1.00  0.00     0.031 C 
ATOM     50  C   UNL A   1      38.823  28.391  28.718  1.00  0.00     0.029 A 
ATOM     51  N   UNL A   1      40.343  29.965  29.170  1.00  0.00    -0.354 N 
ATOM     52  C   UNL A   1      44.556  29.243  28.528  1.00  0.00     0.074 A 
ATOM     53  C   UNL A   1      44.775  27.936  27.949  1.00  0.00     0.031 C 
ATOM     54  C   UNL A   1      38.170  29.442  29.243  1.00  0.00     0.029 A 
ATOM     55  C   UNL A   1      39.135  30.491  29.560  1.00  0.00     0.049 A 
ATOM     56  H   UNL A   1      41.196  30.448  29.267  1.00  0.00     0.167 HD
ATOM     57  C   UNL A   1      45.546  30.120  28.818  1.00  0.00     0.037 A 
ATOM     58  C   UNL A   1      38.841  31.687  30.104  1.00  0.00     0.037 A 
ATOM     59  C   UNL A   1      45.323  31.442  29.335  1.00  0.00     0.049 A 
ATOM     60  C   UNL A   1      39.951  32.672  30.352  1.00  0.00     0.074 A 
ATOM     61  C   UNL A   1      46.251  32.432  29.604  1.00  0.00     0.029 A 
ATOM     62  N   UNL A   1      44.077  31.963  29.646  1.00  0.00    -0.354 N 
ATOM     63  N   UNL A   1      41.239  32.533  30.155  1.00  0.00    -0.248 NA
ATOM     64  C   UNL A   1      39.562  33.985  30.886  1.00  0.00     0.031 C 
ATOM     65  C   UNL A   1      45.565  33.549  30.094  1.00  0.00     0.029 A 
ATOM     66  C   UNL A   1      44.209  33.264  30.099  1.00  0.00     0.049 A 
ATOM     67  H   UNL A   1      43.223  31.480  29.558  1.00  0.00     0.167 HD
ATOM     68  C   UNL A   1      41.811  33.750  30.504  1.00  0.00     0.074 A 
ATOM     69  C   UNL A   1      40.727  34.617  30.919  1.00  0.00     0.031 C 
ATOM     70  C   UNL A   1      43.115  34.117  30.483  1.00  0.00     0.037 A 
BRANCH  57  71
ATOM     71  C   UNL A   1      46.954  29.673  28.557  1.00  0.00     0.057 A 
ATOM     72  C   UNL A   1      47.574  29.873  27.316  1.00  0.00     0.134 A 
ATOM     73  C   UNL A   1      47.701  29.038  29.556  1.00  0.00     0.134 A 
ATOM     74  F   UNL A   1      46.906  30.458  26.310  1.00  0.00    -0.206 F 
ATOM     75  C   UNL A   1      48.872  29.425  27.067  1.00  0.00     0.040 A 
ATOM     76  C   UNL A   1      49.010  28.611  29.329  1.00  0.00     0.040 A 
ATOM     77  F   UNL A   1      47.169  28.818  30.769  1.00  0.00    -0.206 F 
ATOM     78  C   UNL A   1      49.595  28.797  28.078  1.00  0.00     0.006 A 
ENDBRANCH  57  71
BRANCH  58  79
ATOM     79  C   UNL A   1      37.433  32.045  30.402  1.00  0.00     0.057 A 
ATOM     80  C   UNL A   1      36.668  32.772  29.481  1.00  0.00     0.134 A 
ATOM     81  C   UNL A   1      36.821  31.689  31.609  1.00  0.00     0.134 A 
ATOM     82  F   UNL A   1      37.205  33.157  28.315  1.00  0.00    -0.206 F 
ATOM     83  C   UNL A   1      35.353  33.149  29.757  1.00  0.00     0.040 A 
ATOM     84  C   UNL A   1      35.500  32.041  31.891  1.00  0.00     0.040 A 
ATOM     85  F   UNL A   1      37.498  30.985  32.528  1.00  0.00    -0.206 F 
ATOM     86  C   UNL A   1      34.764  32.781  30.965  1.00  0.00     0.006 A 
ENDBRANCH  58  79
BRANCH  70  87
ATOM     87  C   UNL A   1      43.435  35.530  30.866  1.00  0.00     0.057 A 
ATOM     88  C   UNL A   1      43.690  35.899  32.191  1.00  0.00     0.134 A 
ATOM     89  C   UNL A   1      43.521  36.526  29.885  1.00  0.00     0.134 A 
ATOM     90  F   UNL A   1      43.609  34.992  33.177  1.00  0.00    -0.206 F 
ATOM     91  C   UNL A   1      44.000  37.216  32.532  1.00  0.00     0.040 A 
ATOM     92  C   UNL A   1      43.853  37.842  30.211  1.00  0.00     0.040 A 
ATOM     93  F   UNL A   1      43.295  36.235  28.595  1.00  0.00    -0.206 F 
ATOM     94  C   UNL A   1      44.089  38.190  31.539  1.00  0.00     0.006 A 
ENDBRANCH  70  87
ENDBRANCH  44  45
ENDBRANCH  36  39
ENDBRANCH  34  35
ENDBRANCH  33  34
ENDBRANCH   1  33
TORSDOF 16
ENDMDL
MODEL 3
REMARK VINA RESULT:     -11.2      2.937      7.428
REMARK SMILES CCOc1cc2c(cc1OCC)[C@@H](C(=O)NCCCCNC(=O)c1ccc(-c3c4nc(c(-c5c(F)cccc5F)c5ccc([nH]5)c(-c5c(F)cccc5F)c5nc(c(-c6c(F)cccc6F)c6ccc3[nH]6)C=C5)C=C4)cc1)[C@H](c1ccc(F)cc1Cl)N(C)C2=O
REMARK SMILES IDX 18 1 17 2 16 3 14 4 15 5 13 7 4 8 5 9 9 10 6 11 8 12 7 13
REMARK SMILES IDX 89 14 87 15 90 16 78 17 88 18 3 19 2 20 1 21 10 22 11 23
REMARK SMILES IDX 12 24 79 25 80 26 85 27 81 28 84 29 86 30 82 31 83 32 19 33
REMARK SMILES IDX 20 34 21 35 22 36 23 38 24 39 25 40 77 41 26 42 76 43 27 44
REMARK SMILES IDX 28 45 29 46 70 47 30 48 75 49 69 50 71 51 31 52 74 53 68 54
REMARK SMILES IDX 67 55 32 57 58 58 41 59 57 60 42 61 45 62 56 63 72 64 43 65
REMARK SMILES IDX 44 66 55 68 73 69 46 70 33 71 34 72 39 73 35 74 36 75 38 76
REMARK SMILES IDX 40 77 37 78 59 79 60 80 65 81 61 82 62 83 64 84 66 85 63 86
REMARK SMILES IDX 47 87 48 88 53 89 49 90 50 91 52 92 54 93 51 94
REMARK H PARENT 16 6 21 37 71 56 45 67
REMARK Flexibility Score: inf
ROOT
ATOM      1  C   UNL A   1      31.935  30.162  26.292  1.00  0.00     0.023 C 
ENDROOT
BRANCH   1   2
ATOM      2  C   UNL A   1      33.353  29.608  26.442  1.00  0.00     0.116 C 
BRANCH   2   3
ATOM      3  N   UNL A   1      33.931  29.306  25.145  1.00  0.00    -0.355 N 
ATOM      4  C   UNL A   1      34.063  28.168  24.423  1.00  0.00     0.230 C 
ATOM      5  O   UNL A   1      34.777  28.266  23.412  1.00  0.00    -0.274 OA
ATOM      6  H   UNL A   1      34.307  30.096  24.695  1.00  0.00     0.163 HD
BRANCH   4   7
ATOM      7  C   UNL A   1      33.468  26.801  24.749  1.00  0.00     0.136 C 
ATOM      8  C   UNL A   1      35.624  23.131  24.089  1.00  0.00     0.161 A 
ATOM      9  C   UNL A   1      34.629  23.549  23.194  1.00  0.00     0.064 A 
ATOM     10  C   UNL A   1      35.940  23.916  25.204  1.00  0.00     0.161 A 
ATOM     11  C   UNL A   1      33.970  24.763  23.380  1.00  0.00     0.048 A 
ATOM     12  C   UNL A   1      35.285  25.147  25.366  1.00  0.00     0.056 A 
ATOM     13  C   UNL A   1      34.292  25.571  24.471  1.00  0.00    -0.016 A 
ATOM     14  C   UNL A   1      32.947  25.206  22.394  1.00  0.00     0.254 C 
ATOM     15  N   UNL A   1      32.045  26.179  22.822  1.00  0.00    -0.333 N 
ATOM     16  O   UNL A   1      32.977  24.746  21.257  1.00  0.00    -0.269 OA
ATOM     17  C   UNL A   1      32.012  26.616  24.218  1.00  0.00     0.134 C 
ATOM     18  C   UNL A   1      31.032  26.698  21.912  1.00  0.00     0.147 C 
BRANCH   8  19
ATOM     19  O   UNL A   1      36.171  21.894  23.882  1.00  0.00    -0.490 OA
BRANCH  19  20
ATOM     20  C   UNL A   1      35.934  20.992  24.972  1.00  0.00     0.226 C 
ATOM     21  C   UNL A   1      34.489  20.525  25.007  1.00  0.00     0.049 C 
ENDBRANCH  19  20
ENDBRANCH   8  19
BRANCH  10  22
ATOM     22  O   UNL A   1      36.807  23.664  26.231  1.00  0.00    -0.490 OA
BRANCH  22  23
ATOM     23  C   UNL A   1      38.171  24.063  26.159  1.00  0.00     0.226 C 
ATOM     24  C   UNL A   1      39.082  23.138  26.948  1.00  0.00     0.049 C 
ENDBRANCH  22  23
ENDBRANCH  10  22
BRANCH  17  25
ATOM     25  C   UNL A   1      31.173  25.725  25.175  1.00  0.00    -0.005 A 
ATOM     26  C   UNL A   1      31.931  24.885  26.035  1.00  0.00     0.010 A 
ATOM     27  C   UNL A   1      29.766  25.615  25.269  1.00  0.00     0.049 A 
ATOM     28  C   UNL A   1      31.331  23.932  26.861  1.00  0.00     0.040 A 
ATOM     29  C   UNL A   1      29.172  24.661  26.110  1.00  0.00     0.060 A 
ATOM     30  Cl  UNL A   1      28.606  26.595  24.446  1.00  0.00    -0.084 Cl
ATOM     31  C   UNL A   1      29.955  23.821  26.879  1.00  0.00     0.124 A 
ATOM     32  F   UNL A   1      29.371  22.901  27.657  1.00  0.00    -0.207 F 
ENDBRANCH  17  25
ENDBRANCH   4   7
ENDBRANCH   2   3
ENDBRANCH   1   2
BRANCH   1  33
ATOM     33  C   UNL A   1      31.655  31.454  27.046  1.00  0.00     0.023 C 
BRANCH  33  34
ATOM     34  C   UNL A   1      32.846  32.393  27.138  1.00  0.00     0.116 C 
BRANCH  34  35
ATOM     35  N   UNL A   1      32.520  33.758  27.527  1.00  0.00    -0.352 N 
ATOM     36  C   UNL A   1      33.146  34.530  28.487  1.00  0.00     0.251 C 
ATOM     37  H   UNL A   1      31.767  34.178  27.052  1.00  0.00     0.163 HD
ATOM     38  O   UNL A   1      32.752  35.648  28.768  1.00  0.00    -0.269 OA
BRANCH  36  39
ATOM     39  C   UNL A   1      34.292  33.941  29.219  1.00  0.00     0.039 A 
ATOM     40  C   UNL A   1      34.044  33.047  30.261  1.00  0.00     0.014 A 
ATOM     41  C   UNL A   1      35.599  34.201  28.804  1.00  0.00     0.014 A 
ATOM     42  C   UNL A   1      35.108  32.345  30.831  1.00  0.00     0.010 A 
ATOM     43  C   UNL A   1      36.641  33.430  29.301  1.00  0.00     0.010 A 
ATOM     44  C   UNL A   1      36.409  32.499  30.325  1.00  0.00    -0.014 A 
BRANCH  44  45
ATOM     45  C   UNL A   1      37.555  31.728  30.868  1.00  0.00     0.031 A 
ATOM     46  C   UNL A   1      37.951  31.906  32.307  1.00  0.00     0.074 A 
ATOM     47  C   UNL A   1      38.287  30.939  30.056  1.00  0.00     0.049 A 
ATOM     48  N   UNL A   1      38.984  31.422  32.950  1.00  0.00    -0.248 NA
ATOM     49  C   UNL A   1      37.098  32.788  33.122  1.00  0.00     0.031 C 
ATOM     50  C   UNL A   1      38.050  30.732  28.627  1.00  0.00     0.029 A 
ATOM     51  N   UNL A   1      39.393  30.171  30.323  1.00  0.00    -0.354 N 
ATOM     52  C   UNL A   1      38.921  31.967  34.226  1.00  0.00     0.074 A 
ATOM     53  C   UNL A   1      37.787  32.865  34.249  1.00  0.00     0.031 C 
ATOM     54  C   UNL A   1      38.962  29.868  28.150  1.00  0.00     0.029 A 
ATOM     55  C   UNL A   1      39.864  29.484  29.231  1.00  0.00     0.049 A 
ATOM     56  H   UNL A   1      39.809  30.116  31.214  1.00  0.00     0.167 HD
ATOM     57  C   UNL A   1      39.716  31.722  35.294  1.00  0.00     0.037 A 
ATOM     58  C   UNL A   1      40.904  28.636  29.119  1.00  0.00     0.037 A 
ATOM     59  C   UNL A   1      40.804  30.783  35.287  1.00  0.00     0.049 A 
ATOM     60  C   UNL A   1      41.731  28.325  30.336  1.00  0.00     0.074 A 
ATOM     61  C   UNL A   1      41.632  30.412  36.332  1.00  0.00     0.029 A 
ATOM     62  N   UNL A   1      41.202  30.051  34.179  1.00  0.00    -0.354 N 
ATOM     63  N   UNL A   1      41.628  28.806  31.551  1.00  0.00    -0.248 NA
ATOM     64  C   UNL A   1      42.811  27.342  30.169  1.00  0.00     0.031 C 
ATOM     65  C   UNL A   1      42.544  29.467  35.849  1.00  0.00     0.029 A 
ATOM     66  C   UNL A   1      42.261  29.227  34.515  1.00  0.00     0.049 A 
ATOM     67  H   UNL A   1      40.793  30.110  33.286  1.00  0.00     0.167 HD
ATOM     68  C   UNL A   1      42.601  28.159  32.301  1.00  0.00     0.074 A 
ATOM     69  C   UNL A   1      43.280  27.247  31.405  1.00  0.00     0.031 C 
ATOM     70  C   UNL A   1      42.906  28.307  33.613  1.00  0.00     0.037 A 
BRANCH  57  71
ATOM     71  C   UNL A   1      39.415  32.471  36.558  1.00  0.00     0.057 A 
ATOM     72  C   UNL A   1      38.439  32.030  37.463  1.00  0.00     0.134 A 
ATOM     73  C   UNL A   1      40.109  33.644  36.878  1.00  0.00     0.134 A 
ATOM     74  F   UNL A   1      37.725  30.923  37.205  1.00  0.00    -0.206 F 
ATOM     75  C   UNL A   1      38.138  32.748  38.621  1.00  0.00     0.040 A 
ATOM     76  C   UNL A   1      39.837  34.356  38.047  1.00  0.00     0.040 A 
ATOM     77  F   UNL A   1      41.058  34.120  36.058  1.00  0.00    -0.206 F 
ATOM     78  C   UNL A   1      38.843  33.913  38.918  1.00  0.00     0.006 A 
ENDBRANCH  57  71
BRANCH  58  79
ATOM     79  C   UNL A   1      41.192  27.976  27.822  1.00  0.00     0.057 A 
ATOM     80  C   UNL A   1      40.663  26.713  27.527  1.00  0.00     0.134 A 
ATOM     81  C   UNL A   1      42.008  28.575  26.856  1.00  0.00     0.134 A 
ATOM     82  F   UNL A   1      39.888  26.083  28.421  1.00  0.00    -0.206 F 
ATOM     83  C   UNL A   1      40.951  26.061  26.328  1.00  0.00     0.040 A 
ATOM     84  C   UNL A   1      42.288  27.943  25.643  1.00  0.00     0.040 A 
ATOM     85  F   UNL A   1      42.539  29.787  27.075  1.00  0.00    -0.206 F 
ATOM     86  C   UNL A   1      41.764  26.677  25.379  1.00  0.00     0.006 A 
ENDBRANCH  58  79
BRANCH  70  87
ATOM     87  C   UNL A   1      43.981  27.424  34.170  1.00  0.00     0.057 A 
ATOM     88  C   UNL A   1      45.320  27.829  34.220  1.00  0.00     0.134 A 
ATOM     89  C   UNL A   1      43.662  26.166  34.695  1.00  0.00     0.134 A 
ATOM     90  F   UNL A   1      45.689  29.018  33.720  1.00  0.00    -0.206 F 
ATOM     91  C   UNL A   1      46.310  27.002  34.754  1.00  0.00     0.040 A 
ATOM     92  C   UNL A   1      44.639  25.340  35.252  1.00  0.00     0.040 A 
ATOM     93  F   UNL A   1      42.396  25.723  34.684  1.00  0.00    -0.206 F 
ATOM     94  C   UNL A   1      45.969  25.757  35.278  1.00  0.00     0.006 A 
ENDBRANCH  70  87
ENDBRANCH  44  45
ENDBRANCH  36  39
ENDBRANCH  34  35
ENDBRANCH  33  34
ENDBRANCH   1  33
TORSDOF 16
ENDMDL
