MODEL 1
REMARK VINA RESULT:     -12.3      0.000      0.000
REMARK SMILES O=C(NCCCCNC(=O)[C@H]1C[C@H]2CCCC[C@H]2[N@@H+]1CC1(O)CCCC1)c1ccc(-c2c3nc(c(-c4c(F)cccc4F)c4ccc([nH]4)c(-c4c(F)cccc4F)c4nc(c(-c5c(F)cccc5F)c5ccc2[nH]5)C=C4)C=C3)cc1
REMARK SMILES IDX 6 1 5 2 4 3 3 4 1 5 2 6 27 8 28 9 80 10 29 11 79 12 30 13
REMARK SMILES IDX 31 14 32 15 73 16 33 17 78 18 72 19 74 20 34 21 77 22 71 23
REMARK SMILES IDX 70 24 35 26 61 27 44 28 60 29 45 30 48 31 59 32 75 33 46 34
REMARK SMILES IDX 47 35 58 37 76 38 49 39 36 40 37 41 42 42 38 43 39 44 41 45
REMARK SMILES IDX 43 46 40 47 62 48 63 49 68 50 64 51 65 52 67 53 69 54 66 55
REMARK SMILES IDX 50 56 51 57 56 58 52 59 53 60 55 61 57 62 54 63 7 64 8 65
REMARK SMILES IDX 9 66 10 68 11 69 12 70 19 71 13 72 18 73 14 75 17 76 15 77
REMARK SMILES IDX 16 78 20 79 21 80 23 81 26 82 24 83 25 84 22 85
REMARK H PARENT 3 7 74 25 48 36 8 67 19 74 22 86
REMARK Flexibility Score: inf
ROOT
ATOM      1  C   UNL A   1      36.982  20.778  24.678  1.00  0.00     0.023 C 
ENDROOT
BRANCH   1   2
ATOM      2  C   UNL A   1      37.958  19.640  24.999  1.00  0.00     0.023 C 
BRANCH   2   3
ATOM      3  C   UNL A   1      39.208  20.063  25.763  1.00  0.00     0.116 C 
BRANCH   3   4
ATOM      4  N   UNL A   1      40.229  19.030  25.811  1.00  0.00    -0.352 N 
ATOM      5  O   UNL A   1      42.347  18.245  25.956  1.00  0.00    -0.269 OA
ATOM      6  C   UNL A   1      41.575  19.184  26.054  1.00  0.00     0.251 C 
ATOM      7  H   UNL A   1      39.921  18.108  25.649  1.00  0.00     0.163 HD
BRANCH   6   8
ATOM      8  C   UNL A   1      42.076  20.531  26.400  1.00  0.00     0.039 A 
ATOM      9  C   UNL A   1      42.236  20.898  27.738  1.00  0.00     0.014 A 
ATOM     10  C   UNL A   1      42.345  21.439  25.374  1.00  0.00     0.014 A 
ATOM     11  C   UNL A   1      42.554  22.212  28.054  1.00  0.00     0.010 A 
ATOM     12  C   UNL A   1      42.730  22.742  25.694  1.00  0.00     0.010 A 
ATOM     13  C   UNL A   1      42.812  23.145  27.036  1.00  0.00    -0.014 A 
BRANCH  13  14
ATOM     14  C   UNL A   1      43.226  24.520  27.401  1.00  0.00     0.031 A 
ATOM     15  C   UNL A   1      44.656  24.960  27.283  1.00  0.00     0.074 A 
ATOM     16  C   UNL A   1      42.280  25.383  27.817  1.00  0.00     0.049 A 
ATOM     17  N   UNL A   1      45.182  26.127  27.555  1.00  0.00    -0.248 NA
ATOM     18  C   UNL A   1      45.624  23.963  26.802  1.00  0.00     0.031 C 
ATOM     19  C   UNL A   1      40.859  25.061  27.976  1.00  0.00     0.029 A 
ATOM     20  N   UNL A   1      42.363  26.705  28.166  1.00  0.00    -0.354 N 
ATOM     21  C   UNL A   1      46.541  26.004  27.294  1.00  0.00     0.074 A 
ATOM     22  C   UNL A   1      46.763  24.640  26.863  1.00  0.00     0.031 C 
ATOM     23  C   UNL A   1      40.197  26.166  28.348  1.00  0.00     0.029 A 
ATOM     24  C   UNL A   1      41.153  27.255  28.510  1.00  0.00     0.049 A 
ATOM     25  H   UNL A   1      43.207  27.212  28.169  1.00  0.00     0.167 HD
ATOM     26  C   UNL A   1      47.509  26.946  27.399  1.00  0.00     0.037 A 
ATOM     27  C   UNL A   1      40.847  28.498  28.926  1.00  0.00     0.037 A 
ATOM     28  C   UNL A   1      47.277  28.304  27.818  1.00  0.00     0.049 A 
ATOM     29  C   UNL A   1      41.942  29.512  29.052  1.00  0.00     0.074 A 
ATOM     30  C   UNL A   1      48.190  29.338  27.939  1.00  0.00     0.029 A 
ATOM     31  N   UNL A   1      46.042  28.818  28.186  1.00  0.00    -0.354 N 
ATOM     32  N   UNL A   1      43.219  29.384  28.789  1.00  0.00    -0.248 NA
ATOM     33  C   UNL A   1      41.556  30.842  29.542  1.00  0.00     0.031 C 
ATOM     34  C   UNL A   1      47.512  30.468  28.412  1.00  0.00     0.029 A 
ATOM     35  C   UNL A   1      46.170  30.149  28.549  1.00  0.00     0.049 A 
ATOM     36  H   UNL A   1      45.198  28.311  28.188  1.00  0.00     0.167 HD
ATOM     37  C   UNL A   1      43.789  30.617  29.068  1.00  0.00     0.074 A 
ATOM     38  C   UNL A   1      42.715  31.487  29.502  1.00  0.00     0.031 C 
ATOM     39  C   UNL A   1      45.088  30.994  28.980  1.00  0.00     0.037 A 
BRANCH  26  40
ATOM     40  C   UNL A   1      48.914  26.537  27.067  1.00  0.00     0.057 A 
ATOM     41  C   UNL A   1      49.768  25.982  28.029  1.00  0.00     0.134 A 
ATOM     42  C   UNL A   1      49.403  26.652  25.759  1.00  0.00     0.134 A 
ATOM     43  F   UNL A   1      49.365  25.855  29.303  1.00  0.00    -0.206 F 
ATOM     44  C   UNL A   1      51.063  25.571  27.705  1.00  0.00     0.040 A 
ATOM     45  C   UNL A   1      50.688  26.226  25.419  1.00  0.00     0.040 A 
ATOM     46  F   UNL A   1      48.635  27.168  24.788  1.00  0.00    -0.206 F 
ATOM     47  C   UNL A   1      51.524  25.686  26.395  1.00  0.00     0.006 A 
ENDBRANCH  26  40
BRANCH  27  48
ATOM     48  C   UNL A   1      39.442  28.836  29.254  1.00  0.00     0.057 A 
ATOM     49  C   UNL A   1      38.569  29.325  28.276  1.00  0.00     0.134 A 
ATOM     50  C   UNL A   1      38.934  28.661  30.547  1.00  0.00     0.134 A 
ATOM     51  F   UNL A   1      39.003  29.528  27.023  1.00  0.00    -0.206 F 
ATOM     52  C   UNL A   1      37.241  29.636  28.575  1.00  0.00     0.040 A 
ATOM     53  C   UNL A   1      37.603  28.944  30.853  1.00  0.00     0.040 A 
ATOM     54  F   UNL A   1      39.720  28.188  31.525  1.00  0.00    -0.206 F 
ATOM     55  C   UNL A   1      36.754  29.438  29.865  1.00  0.00     0.006 A 
ENDBRANCH  27  48
BRANCH  39  56
ATOM     56  C   UNL A   1      45.403  32.413  29.344  1.00  0.00     0.057 A 
ATOM     57  C   UNL A   1      45.777  32.772  30.645  1.00  0.00     0.134 A 
ATOM     58  C   UNL A   1      45.344  33.428  28.381  1.00  0.00     0.134 A 
ATOM     59  F   UNL A   1      45.835  31.848  31.615  1.00  0.00    -0.206 F 
ATOM     60  C   UNL A   1      46.059  34.097  30.981  1.00  0.00     0.040 A 
ATOM     61  C   UNL A   1      45.646  34.752  28.700  1.00  0.00     0.040 A 
ATOM     62  F   UNL A   1      44.998  33.147  27.116  1.00  0.00    -0.206 F 
ATOM     63  C   UNL A   1      45.999  35.089  30.005  1.00  0.00     0.006 A 
ENDBRANCH  39  56
ENDBRANCH  13  14
ENDBRANCH   6   8
ENDBRANCH   3   4
ENDBRANCH   2   3
ENDBRANCH   1   2
BRANCH   1  64
ATOM     64  C   UNL A   1      37.305  22.090  25.393  1.00  0.00     0.116 C 
BRANCH  64  65
ATOM     65  N   UNL A   1      36.589  23.193  24.803  1.00  0.00    -0.351 N 
ATOM     66  C   UNL A   1      35.255  23.470  24.811  1.00  0.00     0.278 C 
ATOM     67  H   UNL A   1      37.148  23.844  24.321  1.00  0.00     0.163 HD
ATOM     68  O   UNL A   1      34.915  24.444  24.128  1.00  0.00    -0.268 OA
BRANCH  66  69
ATOM     69  C   UNL A   1      34.255  22.705  25.729  1.00  0.00     0.274 C 
ATOM     70  C   UNL A   1      33.240  23.704  26.336  1.00  0.00     0.085 C 
ATOM     71  N   UNL A   1      33.433  21.696  25.000  1.00  0.00    -0.320 N 
ATOM     72  C   UNL A   1      31.872  23.077  26.091  1.00  0.00     0.054 C 
ATOM     73  C   UNL A   1      32.088  22.259  24.827  1.00  0.00     0.188 C 
ATOM     74  H   UNL A   1      33.867  21.538  24.090  1.00  0.00     0.349 HD
ATOM     75  C   UNL A   1      30.690  24.040  26.022  1.00  0.00     0.010 C 
ATOM     76  C   UNL A   1      32.017  23.110  23.545  1.00  0.00     0.065 C 
ATOM     77  C   UNL A   1      30.615  24.835  24.725  1.00  0.00     0.001 C 
ATOM     78  C   UNL A   1      30.732  23.933  23.500  1.00  0.00     0.006 C 
BRANCH  71  79
ATOM     79  C   UNL A   1      33.449  20.320  25.549  1.00  0.00     0.298 C 
BRANCH  79  80
ATOM     80  C   UNL A   1      33.093  18.975  24.835  1.00  0.00     0.113 C 
ATOM     81  C   UNL A   1      32.386  19.074  23.479  1.00  0.00     0.041 C 
ATOM     82  C   UNL A   1      34.248  17.977  24.626  1.00  0.00     0.041 C 
ATOM     83  C   UNL A   1      32.602  17.704  22.846  1.00  0.00     0.003 C 
ATOM     84  C   UNL A   1      34.023  17.343  23.249  1.00  0.00     0.003 C 
BRANCH  80  85
ATOM     85  O   UNL A   1      32.155  18.326  25.734  1.00  0.00    -0.384 OA
ATOM     86  H   UNL A   1      32.622  18.031  26.531  1.00  0.00     0.211 HD
ENDBRANCH  80  85
ENDBRANCH  79  80
ENDBRANCH  71  79
ENDBRANCH  66  69
ENDBRANCH  64  65
ENDBRANCH   1  64
TORSDOF 14
ENDMDL
MODEL 2
REMARK VINA RESULT:     -12.2      5.371     10.447
REMARK SMILES O=C(NCCCCNC(=O)[C@H]1C[C@H]2CCCC[C@H]2[N@@H+]1CC1(O)CCCC1)c1ccc(-c2c3nc(c(-c4c(F)cccc4F)c4ccc([nH]4)c(-c4c(F)cccc4F)c4nc(c(-c5c(F)cccc5F)c5ccc2[nH]5)C=C4)C=C3)cc1
REMARK SMILES IDX 6 1 5 2 4 3 3 4 1 5 2 6 27 8 28 9 80 10 29 11 79 12 30 13
REMARK SMILES IDX 31 14 32 15 73 16 33 17 78 18 72 19 74 20 34 21 77 22 71 23
REMARK SMILES IDX 70 24 35 26 61 27 44 28 60 29 45 30 48 31 59 32 75 33 46 34
REMARK SMILES IDX 47 35 58 37 76 38 49 39 36 40 37 41 42 42 38 43 39 44 41 45
REMARK SMILES IDX 43 46 40 47 62 48 63 49 68 50 64 51 65 52 67 53 69 54 66 55
REMARK SMILES IDX 50 56 51 57 56 58 52 59 53 60 55 61 57 62 54 63 7 64 8 65
REMARK SMILES IDX 9 66 10 68 11 69 12 70 19 71 13 72 18 73 14 75 17 76 15 77
REMARK SMILES IDX 16 78 20 79 21 80 23 81 26 82 24 83 25 84 22 85
REMARK H PARENT 3 7 74 25 48 36 8 67 19 74 22 86
REMARK Flexibility Score: inf
ROOT
ATOM      1  C   UNL A   1      31.536  30.600  26.463  1.00  0.00     0.023 C 
ENDROOT
BRANCH   1   2
ATOM      2  C   UNL A   1      31.423  32.126  26.555  1.00  0.00     0.023 C 
BRANCH   2   3
ATOM      3  C   UNL A   1      32.608  32.818  27.218  1.00  0.00     0.116 C 
BRANCH   3   4
ATOM      4  N   UNL A   1      32.317  34.180  27.636  1.00  0.00    -0.352 N 
ATOM      5  O   UNL A   1      32.573  36.033  28.910  1.00  0.00    -0.269 OA
ATOM      6  C   UNL A   1      32.987  34.938  28.570  1.00  0.00     0.251 C 
ATOM      7  H   UNL A   1      31.549  34.613  27.197  1.00  0.00     0.163 HD
BRANCH   6   8
ATOM      8  C   UNL A   1      34.206  34.374  29.187  1.00  0.00     0.039 A 
ATOM      9  C   UNL A   1      35.446  34.538  28.566  1.00  0.00     0.014 A 
ATOM     10  C   UNL A   1      34.092  33.644  30.372  1.00  0.00     0.014 A 
ATOM     11  C   UNL A   1      36.557  33.872  29.069  1.00  0.00     0.010 A 
ATOM     12  C   UNL A   1      35.224  33.031  30.913  1.00  0.00     0.010 A 
ATOM     13  C   UNL A   1      36.458  33.120  30.251  1.00  0.00    -0.014 A 
BRANCH  13  14
ATOM     14  C   UNL A   1      37.675  32.484  30.808  1.00  0.00     0.031 A 
ATOM     15  C   UNL A   1      38.302  32.982  32.078  1.00  0.00     0.074 A 
ATOM     16  C   UNL A   1      38.195  31.423  30.163  1.00  0.00     0.049 A 
ATOM     17  N   UNL A   1      39.362  32.536  32.702  1.00  0.00    -0.248 NA
ATOM     18  C   UNL A   1      37.661  34.133  32.733  1.00  0.00     0.031 C 
ATOM     19  C   UNL A   1      37.671  30.858  28.917  1.00  0.00     0.029 A 
ATOM     20  N   UNL A   1      39.264  30.622  30.469  1.00  0.00    -0.354 N 
ATOM     21  C   UNL A   1      39.526  33.355  33.812  1.00  0.00     0.074 A 
ATOM     22  C   UNL A   1      38.468  34.342  33.764  1.00  0.00     0.031 C 
ATOM     23  C   UNL A   1      38.392  29.776  28.588  1.00  0.00     0.029 A 
ATOM     24  C   UNL A   1      39.461  29.608  29.565  1.00  0.00     0.049 A 
ATOM     25  H   UNL A   1      39.834  30.760  31.260  1.00  0.00     0.167 HD
ATOM     26  C   UNL A   1      40.469  33.283  34.782  1.00  0.00     0.037 A 
ATOM     27  C   UNL A   1      40.409  28.654  29.519  1.00  0.00     0.037 A 
ATOM     28  C   UNL A   1      41.512  32.290  34.828  1.00  0.00     0.049 A 
ATOM     29  C   UNL A   1      41.451  28.612  30.595  1.00  0.00     0.074 A 
ATOM     30  C   UNL A   1      42.504  32.123  35.779  1.00  0.00     0.029 A 
ATOM     31  N   UNL A   1      41.697  31.295  33.879  1.00  0.00    -0.354 N 
ATOM     32  N   UNL A   1      41.585  29.386  31.645  1.00  0.00    -0.248 NA
ATOM     33  C   UNL A   1      42.480  27.571  30.477  1.00  0.00     0.031 C 
ATOM     34  C   UNL A   1      43.309  31.047  35.388  1.00  0.00     0.029 A 
ATOM     35  C   UNL A   1      42.796  30.520  34.213  1.00  0.00     0.049 A 
ATOM     36  H   UNL A   1      41.130  31.159  33.085  1.00  0.00     0.167 HD
ATOM     37  C   UNL A   1      42.704  28.919  32.319  1.00  0.00     0.074 A 
ATOM     38  C   UNL A   1      43.199  27.782  31.571  1.00  0.00     0.031 C 
ATOM     39  C   UNL A   1      43.273  29.395  33.452  1.00  0.00     0.037 A 
BRANCH  26  40
ATOM     40  C   UNL A   1      40.427  34.316  35.870  1.00  0.00     0.057 A 
ATOM     41  C   UNL A   1      41.072  35.552  35.739  1.00  0.00     0.134 A 
ATOM     42  C   UNL A   1      39.689  34.092  37.039  1.00  0.00     0.134 A 
ATOM     43  F   UNL A   1      41.804  35.825  34.649  1.00  0.00    -0.206 F 
ATOM     44  C   UNL A   1      40.998  36.523  36.741  1.00  0.00     0.040 A 
ATOM     45  C   UNL A   1      39.591  35.062  38.038  1.00  0.00     0.040 A 
ATOM     46  F   UNL A   1      39.041  32.932  37.225  1.00  0.00    -0.206 F 
ATOM     47  C   UNL A   1      40.250  36.282  37.892  1.00  0.00     0.006 A 
ENDBRANCH  26  40
BRANCH  27  48
ATOM     48  C   UNL A   1      40.408  27.671  28.410  1.00  0.00     0.057 A 
ATOM     49  C   UNL A   1      41.104  27.921  27.222  1.00  0.00     0.134 A 
ATOM     50  C   UNL A   1      39.729  26.452  28.519  1.00  0.00     0.134 A 
ATOM     51  F   UNL A   1      41.761  29.078  27.055  1.00  0.00    -0.206 F 
ATOM     52  C   UNL A   1      41.117  26.996  26.178  1.00  0.00     0.040 A 
ATOM     53  C   UNL A   1      39.754  25.507  27.492  1.00  0.00     0.040 A 
ATOM     54  F   UNL A   1      39.050  26.152  29.636  1.00  0.00    -0.206 F 
ATOM     55  C   UNL A   1      40.446  25.782  26.314  1.00  0.00     0.006 A 
ENDBRANCH  27  48
BRANCH  39  56
ATOM     56  C   UNL A   1      44.484  28.667  33.953  1.00  0.00     0.057 A 
ATOM     57  C   UNL A   1      45.778  29.055  33.584  1.00  0.00     0.134 A 
ATOM     58  C   UNL A   1      44.355  27.578  34.823  1.00  0.00     0.134 A 
ATOM     59  F   UNL A   1      45.966  30.080  32.740  1.00  0.00    -0.206 F 
ATOM     60  C   UNL A   1      46.902  28.367  34.045  1.00  0.00     0.040 A 
ATOM     61  C   UNL A   1      45.471  26.897  35.309  1.00  0.00     0.040 A 
ATOM     62  F   UNL A   1      43.142  27.162  35.218  1.00  0.00    -0.206 F 
ATOM     63  C   UNL A   1      46.749  27.289  34.914  1.00  0.00     0.006 A 
ENDBRANCH  39  56
ENDBRANCH  13  14
ENDBRANCH   6   8
ENDBRANCH   3   4
ENDBRANCH   2   3
ENDBRANCH   1   2
BRANCH   1  64
ATOM     64  C   UNL A   1      32.946  30.068  26.717  1.00  0.00     0.116 C 
BRANCH  64  65
ATOM     65  N   UNL A   1      32.932  28.643  26.933  1.00  0.00    -0.351 N 
ATOM     66  C   UNL A   1      32.776  27.627  26.038  1.00  0.00     0.278 C 
ATOM     67  H   UNL A   1      33.054  28.361  27.868  1.00  0.00     0.163 HD
ATOM     68  O   UNL A   1      32.707  26.496  26.533  1.00  0.00    -0.268 OA
BRANCH  66  69
ATOM     69  C   UNL A   1      32.829  27.863  24.499  1.00  0.00     0.274 C 
ATOM     70  C   UNL A   1      33.556  26.679  23.817  1.00  0.00     0.085 C 
ATOM     71  N   UNL A   1      31.482  27.923  23.862  1.00  0.00    -0.320 N 
ATOM     72  C   UNL A   1      32.645  26.262  22.668  1.00  0.00     0.054 C 
ATOM     73  C   UNL A   1      31.261  26.648  23.167  1.00  0.00     0.188 C 
ATOM     74  H   UNL A   1      30.791  28.044  24.602  1.00  0.00     0.349 HD
ATOM     75  C   UNL A   1      32.764  24.815  22.202  1.00  0.00     0.010 C 
ATOM     76  C   UNL A   1      30.660  25.605  24.127  1.00  0.00     0.065 C 
ATOM     77  C   UNL A   1      32.120  23.806  23.145  1.00  0.00     0.001 C 
ATOM     78  C   UNL A   1      30.696  24.207  23.515  1.00  0.00     0.006 C 
BRANCH  71  79
ATOM     79  C   UNL A   1      31.203  29.120  23.035  1.00  0.00     0.298 C 
BRANCH  79  80
ATOM     80  C   UNL A   1      29.822  29.731  22.627  1.00  0.00     0.113 C 
ATOM     81  C   UNL A   1      28.597  28.819  22.746  1.00  0.00     0.041 C 
ATOM     82  C   UNL A   1      29.422  31.052  23.312  1.00  0.00     0.041 C 
ATOM     83  C   UNL A   1      27.415  29.782  22.751  1.00  0.00     0.003 C 
ATOM     84  C   UNL A   1      27.914  30.958  23.575  1.00  0.00     0.003 C 
BRANCH  80  85
ATOM     85  O   UNL A   1      29.965  30.034  21.214  1.00  0.00    -0.384 OA
ATOM     86  H   UNL A   1      30.843  29.757  20.911  1.00  0.00     0.211 HD
ENDBRANCH  80  85
ENDBRANCH  79  80
ENDBRANCH  71  79
ENDBRANCH  66  69
ENDBRANCH  64  65
ENDBRANCH   1  64
TORSDOF 14
ENDMDL
MODEL 3
REMARK VINA RESULT:     -12.1      1.234      6.343
REMARK SMILES O=C(NCCCCNC(=O)[C@H]1C[C@H]2CCCC[C@H]2[N@@H+]1CC1(O)CCCC1)c1ccc(-c2c3nc(c(-c4c(F)cccc4F)c4ccc([nH]4)c(-c4c(F)cccc4F)c4nc(c(-c5c(F)cccc5F)c5ccc2[nH]5)C=C4)C=C3)cc1
REMARK SMILES IDX 6 1 5 2 4 3 3 4 1 5 2 6 27 8 28 9 80 10 29 11 79 12 30 13
REMARK SMILES IDX 31 14 32 15 73 16 33 17 78 18 72 19 74 20 34 21 77 22 71 23
REMARK SMILES IDX 70 24 35 26 61 27 44 28 60 29 45 30 48 31 59 32 75 33 46 34
REMARK SMILES IDX 47 35 58 37 76 38 49 39 36 40 37 41 42 42 38 43 39 44 41 45
REMARK SMILES IDX 43 46 40 47 62 48 63 49 68 50 64 51 65 52 67 53 69 54 66 55
REMARK SMILES IDX 50 56 51 57 56 58 52 59 53 60 55 61 57 62 54 63 7 64 8 65
REMARK SMILES IDX 9 66 10 68 11 69 12 70 19 71 13 72 18 73 14 75 17 76 15 77
REMARK SMILES IDX 16 78 20 79 21 80 23 81 26 82 24 83 25 84 22 85
REMARK H PARENT 3 7 74 25 48 36 8 67 19 74 22 86
REMARK Flexibility Score: inf
ROOT
ATOM      1  C   UNL A   1      37.239  20.856  24.556  1.00  0.00     0.023 C 
ENDROOT
BRANCH   1   2
ATOM      2  C   UNL A   1      38.119  19.651  24.908  1.00  0.00     0.023 C 
BRANCH   2   3
ATOM      3  C   UNL A   1      39.157  19.911  25.993  1.00  0.00     0.116 C 
BRANCH   3   4
ATOM      4  N   UNL A   1      40.373  19.132  25.823  1.00  0.00    -0.352 N 
ATOM      5  O   UNL A   1      42.613  18.822  25.723  1.00  0.00    -0.269 OA
ATOM      6  C   UNL A   1      41.673  19.545  26.007  1.00  0.00     0.251 C 
ATOM      7  H   UNL A   1      40.252  18.196  25.542  1.00  0.00     0.163 HD
BRANCH   6   8
ATOM      8  C   UNL A   1      41.909  20.910  26.524  1.00  0.00     0.039 A 
ATOM      9  C   UNL A   1      42.191  21.956  25.642  1.00  0.00     0.014 A 
ATOM     10  C   UNL A   1      41.885  21.127  27.903  1.00  0.00     0.014 A 
ATOM     11  C   UNL A   1      42.565  23.194  26.147  1.00  0.00     0.010 A 
ATOM     12  C   UNL A   1      42.196  22.391  28.406  1.00  0.00     0.010 A 
ATOM     13  C   UNL A   1      42.563  23.427  27.533  1.00  0.00    -0.014 A 
BRANCH  13  14
ATOM     14  C   UNL A   1      42.890  24.779  28.040  1.00  0.00     0.031 A 
ATOM     15  C   UNL A   1      41.817  25.802  28.278  1.00  0.00     0.074 A 
ATOM     16  C   UNL A   1      44.177  25.066  28.314  1.00  0.00     0.049 A 
ATOM     17  N   UNL A   1      41.933  27.027  28.724  1.00  0.00    -0.248 NA
ATOM     18  C   UNL A   1      40.435  25.404  27.973  1.00  0.00     0.031 C 
ATOM     19  C   UNL A   1      45.302  24.149  28.115  1.00  0.00     0.029 A 
ATOM     20  N   UNL A   1      44.754  26.196  28.831  1.00  0.00    -0.354 N 
ATOM     21  C   UNL A   1      40.647  27.552  28.740  1.00  0.00     0.074 A 
ATOM     22  C   UNL A   1      39.767  26.519  28.237  1.00  0.00     0.031 C 
ATOM     23  C   UNL A   1      46.428  24.737  28.546  1.00  0.00     0.029 A 
ATOM     24  C   UNL A   1      46.113  26.087  28.995  1.00  0.00     0.049 A 
ATOM     25  H   UNL A   1      44.244  27.006  29.063  1.00  0.00     0.167 HD
ATOM     26  C   UNL A   1      40.242  28.779  29.145  1.00  0.00     0.037 A 
ATOM     27  C   UNL A   1      47.010  26.984  29.444  1.00  0.00     0.037 A 
ATOM     28  C   UNL A   1      41.124  29.798  29.655  1.00  0.00     0.049 A 
ATOM     29  C   UNL A   1      46.535  28.341  29.865  1.00  0.00     0.074 A 
ATOM     30  C   UNL A   1      40.807  31.068  30.107  1.00  0.00     0.029 A 
ATOM     31  N   UNL A   1      42.499  29.662  29.780  1.00  0.00    -0.354 N 
ATOM     32  N   UNL A   1      45.314  28.817  29.887  1.00  0.00    -0.248 NA
ATOM     33  C   UNL A   1      47.562  29.289  30.314  1.00  0.00     0.031 C 
ATOM     34  C   UNL A   1      41.994  31.711  30.474  1.00  0.00     0.029 A 
ATOM     35  C   UNL A   1      43.047  30.829  30.287  1.00  0.00     0.049 A 
ATOM     36  H   UNL A   1      43.010  28.855  29.543  1.00  0.00     0.167 HD
ATOM     37  C   UNL A   1      45.422  30.115  30.363  1.00  0.00     0.074 A 
ATOM     38  C   UNL A   1      46.826  30.344  30.638  1.00  0.00     0.031 C 
ATOM     39  C   UNL A   1      44.447  31.037  30.550  1.00  0.00     0.037 A 
BRANCH  26  40
ATOM     40  C   UNL A   1      38.779  29.097  29.040  1.00  0.00     0.057 A 
ATOM     41  C   UNL A   1      37.921  28.995  30.142  1.00  0.00     0.134 A 
ATOM     42  C   UNL A   1      38.233  29.562  27.836  1.00  0.00     0.134 A 
ATOM     43  F   UNL A   1      38.379  28.546  31.320  1.00  0.00    -0.206 F 
ATOM     44  C   UNL A   1      36.568  29.328  30.046  1.00  0.00     0.040 A 
ATOM     45  C   UNL A   1      36.887  29.916  27.734  1.00  0.00     0.040 A 
ATOM     46  F   UNL A   1      39.001  29.690  26.744  1.00  0.00    -0.206 F 
ATOM     47  C   UNL A   1      36.048  29.797  28.841  1.00  0.00     0.006 A 
ENDBRANCH  26  40
BRANCH  27  48
ATOM     48  C   UNL A   1      48.445  26.616  29.509  1.00  0.00     0.057 A 
ATOM     49  C   UNL A   1      48.972  25.958  30.626  1.00  0.00     0.134 A 
ATOM     50  C   UNL A   1      49.316  26.895  28.449  1.00  0.00     0.134 A 
ATOM     51  F   UNL A   1      48.188  25.678  31.677  1.00  0.00    -0.206 F 
ATOM     52  C   UNL A   1      50.319  25.599  30.690  1.00  0.00     0.040 A 
ATOM     53  C   UNL A   1      50.659  26.519  28.490  1.00  0.00     0.040 A 
ATOM     54  F   UNL A   1      48.867  27.516  27.349  1.00  0.00    -0.206 F 
ATOM     55  C   UNL A   1      51.165  25.873  29.617  1.00  0.00     0.006 A 
ENDBRANCH  27  48
BRANCH  39  56
ATOM     56  C   UNL A   1      44.873  32.367  31.094  1.00  0.00     0.057 A 
ATOM     57  C   UNL A   1      45.265  33.414  30.250  1.00  0.00     0.134 A 
ATOM     58  C   UNL A   1      44.879  32.606  32.473  1.00  0.00     0.134 A 
ATOM     59  F   UNL A   1      45.296  33.240  28.921  1.00  0.00    -0.206 F 
ATOM     60  C   UNL A   1      45.671  34.647  30.763  1.00  0.00     0.040 A 
ATOM     61  C   UNL A   1      45.261  33.841  32.996  1.00  0.00     0.040 A 
ATOM     62  F   UNL A   1      44.510  31.644  33.333  1.00  0.00    -0.206 F 
ATOM     63  C   UNL A   1      45.664  34.864  32.139  1.00  0.00     0.006 A 
ENDBRANCH  39  56
ENDBRANCH  13  14
ENDBRANCH   6   8
ENDBRANCH   3   4
ENDBRANCH   2   3
ENDBRANCH   1   2
BRANCH   1  64
ATOM     64  C   UNL A   1      37.423  22.051  25.491  1.00  0.00     0.116 C 
BRANCH  64  65
ATOM     65  N   UNL A   1      36.703  23.203  25.010  1.00  0.00    -0.351 N 
ATOM     66  C   UNL A   1      35.367  23.473  25.043  1.00  0.00     0.278 C 
ATOM     67  H   UNL A   1      37.259  23.900  24.594  1.00  0.00     0.163 HD
ATOM     68  O   UNL A   1      35.024  24.506  24.458  1.00  0.00    -0.268 OA
BRANCH  66  69
ATOM     69  C   UNL A   1      34.370  22.618  25.882  1.00  0.00     0.274 C 
ATOM     70  C   UNL A   1      33.307  23.542  26.524  1.00  0.00     0.085 C 
ATOM     71  N   UNL A   1      33.601  21.634  25.067  1.00  0.00    -0.320 N 
ATOM     72  C   UNL A   1      31.967  22.891  26.201  1.00  0.00     0.054 C 
ATOM     73  C   UNL A   1      32.243  22.164  24.893  1.00  0.00     0.188 C 
ATOM     74  H   UNL A   1      34.063  21.549  24.161  1.00  0.00     0.349 HD
ATOM     75  C   UNL A   1      30.757  23.818  26.161  1.00  0.00     0.010 C 
ATOM     76  C   UNL A   1      32.176  23.094  23.667  1.00  0.00     0.065 C 
ATOM     77  C   UNL A   1      30.688  24.694  24.917  1.00  0.00     0.001 C 
ATOM     78  C   UNL A   1      30.867  23.878  23.640  1.00  0.00     0.006 C 
BRANCH  71  79
ATOM     79  C   UNL A   1      33.648  20.226  25.526  1.00  0.00     0.298 C 
BRANCH  79  80
ATOM     80  C   UNL A   1      33.171  18.935  24.782  1.00  0.00     0.113 C 
ATOM     81  C   UNL A   1      32.520  19.125  23.409  1.00  0.00     0.041 C 
ATOM     82  C   UNL A   1      34.218  17.821  24.592  1.00  0.00     0.041 C 
ATOM     83  C   UNL A   1      32.606  17.747  22.762  1.00  0.00     0.003 C 
ATOM     84  C   UNL A   1      33.967  17.230  23.200  1.00  0.00     0.003 C 
BRANCH  80  85
ATOM     85  O   UNL A   1      32.142  18.381  25.645  1.00  0.00    -0.384 OA
ATOM     86  H   UNL A   1      32.288  18.683  26.555  1.00  0.00     0.211 HD
ENDBRANCH  80  85
ENDBRANCH  79  80
ENDBRANCH  71  79
ENDBRANCH  66  69
ENDBRANCH  64  65
ENDBRANCH   1  64
TORSDOF 14
ENDMDL
