MODEL 1
REMARK VINA RESULT:     -10.6      0.000      0.000
REMARK SMILES CCN(C(=O)[C@H]1C=C[C@@H]([NH3+])C1)[C@H](C)CC(=O)NCCCCNC(=O)c1ccc(-c2c3nc(c(-c4c(F)cccc4F)c4ccc([nH]4)c(-c4c(F)cccc4F)c4nc(c(-c5c(F)cccc5F)c5ccc2[nH]5)C=C4)C=C3)cc1
REMARK SMILES IDX 18 1 17 2 15 3 16 4 14 6 12 7 13 8 3 9 2 10 1 11 4 12 5 13
REMARK SMILES IDX 6 14 7 15 11 16 8 17 9 18 10 19 19 23 20 24 21 25 22 26
REMARK SMILES IDX 23 27 24 29 25 30 26 31 78 32 27 33 77 34 28 35 29 36 30 37
REMARK SMILES IDX 71 38 31 39 76 40 70 41 72 42 32 43 75 44 69 45 68 46 33 48
REMARK SMILES IDX 59 49 42 50 58 51 43 52 46 53 57 54 73 55 44 56 45 57 56 59
REMARK SMILES IDX 74 60 47 61 34 62 35 63 40 64 36 65 37 66 39 67 41 68 38 69
REMARK SMILES IDX 60 70 61 71 66 72 62 73 63 74 65 75 67 76 64 77 48 78 49 79
REMARK SMILES IDX 54 80 50 81 51 82 53 83 55 84 52 85
REMARK H PARENT 17 5 10 20 10 21 10 22 22 28 72 47 46 58
REMARK Flexibility Score: inf
ROOT
ATOM      1  C   UNL A   1      35.780  21.013  24.973  1.00  0.00     0.116 C 
ENDROOT
BRANCH   1   2
ATOM      2  N   UNL A   1      35.430  21.465  26.306  1.00  0.00    -0.356 N 
ATOM      3  C   UNL A   1      34.418  22.288  26.708  1.00  0.00     0.222 C 
ATOM      4  O   UNL A   1      34.360  22.610  27.894  1.00  0.00    -0.275 OA
ATOM      5  H   UNL A   1      36.007  21.129  27.028  1.00  0.00     0.163 HD
BRANCH   3   6
ATOM      6  C   UNL A   1      33.415  22.791  25.697  1.00  0.00     0.124 C 
BRANCH   6   7
ATOM      7  C   UNL A   1      33.736  24.191  25.152  1.00  0.00     0.091 C 
ATOM      8  C   UNL A   1      35.214  24.574  25.176  1.00  0.00     0.031 C 
BRANCH   7   9
ATOM      9  N   UNL A   1      33.130  24.342  23.799  1.00  0.00    -0.339 N 
BRANCH   9  10
ATOM     10  C   UNL A   1      32.210  23.299  23.308  1.00  0.00     0.116 C 
ATOM     11  C   UNL A   1      30.753  23.735  23.263  1.00  0.00     0.027 C 
ENDBRANCH   9  10
BRANCH   9  12
ATOM     12  C   UNL A   1      33.330  25.576  23.170  1.00  0.00     0.229 C 
ATOM     13  O   UNL A   1      33.856  25.642  22.054  1.00  0.00    -0.274 OA
BRANCH  12  14
ATOM     14  C   UNL A   1      32.854  26.854  23.875  1.00  0.00     0.107 C 
ATOM     15  C   UNL A   1      33.879  27.950  23.781  1.00  0.00    -0.012 C 
ATOM     16  C   UNL A   1      31.648  27.454  23.143  1.00  0.00     0.087 C 
ATOM     17  C   UNL A   1      33.346  29.100  23.358  1.00  0.00     0.033 C 
ATOM     18  C   UNL A   1      31.882  28.971  23.116  1.00  0.00     0.205 C 
BRANCH  18  19
ATOM     19  N   UNL A   1      31.484  29.549  21.847  1.00  0.00    -0.352 N 
ATOM     20  H   UNL A   1      30.614  29.118  21.535  1.00  0.00     0.345 HD
ATOM     21  H   UNL A   1      32.214  29.383  21.154  1.00  0.00     0.345 HD
ATOM     22  H   UNL A   1      31.345  30.553  21.959  1.00  0.00     0.345 HD
ENDBRANCH  18  19
ENDBRANCH  12  14
ENDBRANCH   9  12
ENDBRANCH   7   9
ENDBRANCH   6   7
ENDBRANCH   3   6
ENDBRANCH   1   2
BRANCH   1  23
ATOM     23  C   UNL A   1      37.270  21.189  24.688  1.00  0.00     0.023 C 
BRANCH  23  24
ATOM     24  C   UNL A   1      38.127  19.968  24.996  1.00  0.00     0.023 C 
BRANCH  24  25
ATOM     25  C   UNL A   1      39.308  20.248  25.906  1.00  0.00     0.116 C 
BRANCH  25  26
ATOM     26  N   UNL A   1      40.263  19.147  25.958  1.00  0.00    -0.352 N 
ATOM     27  C   UNL A   1      41.627  19.210  26.122  1.00  0.00     0.251 C 
ATOM     28  H   UNL A   1      39.883  18.244  25.862  1.00  0.00     0.163 HD
ATOM     29  O   UNL A   1      42.325  18.210  26.023  1.00  0.00    -0.269 OA
BRANCH  27  30
ATOM     30  C   UNL A   1      42.232  20.528  26.387  1.00  0.00     0.039 A 
ATOM     31  C   UNL A   1      42.666  21.311  25.314  1.00  0.00     0.014 A 
ATOM     32  C   UNL A   1      42.249  21.023  27.693  1.00  0.00     0.014 A 
ATOM     33  C   UNL A   1      43.041  22.634  25.544  1.00  0.00     0.010 A 
ATOM     34  C   UNL A   1      42.531  22.363  27.902  1.00  0.00     0.010 A 
ATOM     35  C   UNL A   1      42.930  23.181  26.832  1.00  0.00    -0.014 A 
BRANCH  35  36
ATOM     36  C   UNL A   1      43.244  24.600  27.122  1.00  0.00     0.031 A 
ATOM     37  C   UNL A   1      44.679  25.041  27.111  1.00  0.00     0.074 A 
ATOM     38  C   UNL A   1      42.274  25.443  27.523  1.00  0.00     0.049 A 
ATOM     39  N   UNL A   1      45.210  26.149  27.555  1.00  0.00    -0.248 NA
ATOM     40  C   UNL A   1      45.654  24.075  26.579  1.00  0.00     0.031 C 
ATOM     41  C   UNL A   1      40.850  25.116  27.627  1.00  0.00     0.029 A 
ATOM     42  N   UNL A   1      42.349  26.743  27.952  1.00  0.00    -0.354 N 
ATOM     43  C   UNL A   1      46.581  25.991  27.402  1.00  0.00     0.074 A 
ATOM     44  C   UNL A   1      46.802  24.666  26.869  1.00  0.00     0.031 C 
ATOM     45  C   UNL A   1      40.187  26.189  28.087  1.00  0.00     0.029 A 
ATOM     46  C   UNL A   1      41.140  27.262  28.348  1.00  0.00     0.049 A 
ATOM     47  H   UNL A   1      43.189  27.256  27.973  1.00  0.00     0.167 HD
ATOM     48  C   UNL A   1      47.566  26.880  27.666  1.00  0.00     0.037 A 
ATOM     49  C   UNL A   1      40.841  28.462  28.882  1.00  0.00     0.037 A 
ATOM     50  C   UNL A   1      47.335  28.217  28.140  1.00  0.00     0.049 A 
ATOM     51  C   UNL A   1      41.943  29.457  29.113  1.00  0.00     0.074 A 
ATOM     52  C   UNL A   1      48.253  29.226  28.363  1.00  0.00     0.029 A 
ATOM     53  N   UNL A   1      46.084  28.734  28.449  1.00  0.00    -0.354 N 
ATOM     54  N   UNL A   1      43.233  29.316  28.921  1.00  0.00    -0.248 NA
ATOM     55  C   UNL A   1      41.553  30.775  29.631  1.00  0.00     0.031 C 
ATOM     56  C   UNL A   1      47.560  30.349  28.829  1.00  0.00     0.029 A 
ATOM     57  C   UNL A   1      46.207  30.047  28.866  1.00  0.00     0.049 A 
ATOM     58  H   UNL A   1      45.235  28.239  28.382  1.00  0.00     0.167 HD
ATOM     59  C   UNL A   1      43.805  30.532  29.271  1.00  0.00     0.074 A 
ATOM     60  C   UNL A   1      42.722  31.401  29.683  1.00  0.00     0.031 C 
ATOM     61  C   UNL A   1      45.110  30.896  29.253  1.00  0.00     0.037 A 
BRANCH  48  62
ATOM     62  C   UNL A   1      48.976  26.424  27.440  1.00  0.00     0.057 A 
ATOM     63  C   UNL A   1      49.742  25.851  28.466  1.00  0.00     0.134 A 
ATOM     64  C   UNL A   1      49.583  26.572  26.188  1.00  0.00     0.134 A 
ATOM     65  F   UNL A   1      49.226  25.699  29.695  1.00  0.00    -0.206 F 
ATOM     66  C   UNL A   1      51.072  25.479  28.264  1.00  0.00     0.040 A 
ATOM     67  C   UNL A   1      50.903  26.178  25.965  1.00  0.00     0.040 A 
ATOM     68  F   UNL A   1      48.906  27.110  25.162  1.00  0.00    -0.206 F 
ATOM     69  C   UNL A   1      51.654  25.639  27.008  1.00  0.00     0.006 A 
ENDBRANCH  48  62
BRANCH  49  70
ATOM     70  C   UNL A   1      39.433  28.789  29.214  1.00  0.00     0.057 A 
ATOM     71  C   UNL A   1      38.575  29.327  28.250  1.00  0.00     0.134 A 
ATOM     72  C   UNL A   1      38.906  28.546  30.487  1.00  0.00     0.134 A 
ATOM     73  F   UNL A   1      39.029  29.594  27.017  1.00  0.00    -0.206 F 
ATOM     74  C   UNL A   1      37.242  29.622  28.541  1.00  0.00     0.040 A 
ATOM     75  C   UNL A   1      37.570  28.818  30.787  1.00  0.00     0.040 A 
ATOM     76  F   UNL A   1      39.676  28.021  31.451  1.00  0.00    -0.206 F 
ATOM     77  C   UNL A   1      36.735  29.361  29.812  1.00  0.00     0.006 A 
ENDBRANCH  49  70
BRANCH  61  78
ATOM     78  C   UNL A   1      45.439  32.301  29.653  1.00  0.00     0.057 A 
ATOM     79  C   UNL A   1      45.418  33.352  28.730  1.00  0.00     0.134 A 
ATOM     80  C   UNL A   1      45.705  32.613  30.992  1.00  0.00     0.134 A 
ATOM     81  F   UNL A   1      45.181  33.112  27.431  1.00  0.00    -0.206 F 
ATOM     82  C   UNL A   1      45.654  34.669  29.126  1.00  0.00     0.040 A 
ATOM     83  C   UNL A   1      45.924  33.928  31.403  1.00  0.00     0.040 A 
ATOM     84  F   UNL A   1      45.731  31.648  31.924  1.00  0.00    -0.206 F 
ATOM     85  C   UNL A   1      45.899  34.960  30.467  1.00  0.00     0.006 A 
ENDBRANCH  61  78
ENDBRANCH  35  36
ENDBRANCH  27  30
ENDBRANCH  25  26
ENDBRANCH  24  25
ENDBRANCH  23  24
ENDBRANCH   1  23
TORSDOF 17
ENDMDL
MODEL 2
REMARK VINA RESULT:     -10.5      4.831     10.039
REMARK SMILES CCN(C(=O)[C@H]1C=C[C@@H]([NH3+])C1)[C@H](C)CC(=O)NCCCCNC(=O)c1ccc(-c2c3nc(c(-c4c(F)cccc4F)c4ccc([nH]4)c(-c4c(F)cccc4F)c4nc(c(-c5c(F)cccc5F)c5ccc2[nH]5)C=C4)C=C3)cc1
REMARK SMILES IDX 18 1 17 2 15 3 16 4 14 6 12 7 13 8 3 9 2 10 1 11 4 12 5 13
REMARK SMILES IDX 6 14 7 15 11 16 8 17 9 18 10 19 19 23 20 24 21 25 22 26
REMARK SMILES IDX 23 27 24 29 25 30 26 31 78 32 27 33 77 34 28 35 29 36 30 37
REMARK SMILES IDX 71 38 31 39 76 40 70 41 72 42 32 43 75 44 69 45 68 46 33 48
REMARK SMILES IDX 59 49 42 50 58 51 43 52 46 53 57 54 73 55 44 56 45 57 56 59
REMARK SMILES IDX 74 60 47 61 34 62 35 63 40 64 36 65 37 66 39 67 41 68 38 69
REMARK SMILES IDX 60 70 61 71 66 72 62 73 63 74 65 75 67 76 64 77 48 78 49 79
REMARK SMILES IDX 54 80 50 81 51 82 53 83 55 84 52 85
REMARK H PARENT 17 5 10 20 10 21 10 22 22 28 72 47 46 58
REMARK Flexibility Score: inf
ROOT
ATOM      1  C   UNL A   1      32.375  29.707  27.180  1.00  0.00     0.116 C 
ENDROOT
BRANCH   1   2
ATOM      2  N   UNL A   1      31.530  28.534  27.293  1.00  0.00    -0.356 N 
ATOM      3  C   UNL A   1      31.678  27.298  26.733  1.00  0.00     0.222 C 
ATOM      4  O   UNL A   1      30.784  26.468  26.897  1.00  0.00    -0.275 OA
ATOM      5  H   UNL A   1      30.731  28.645  27.857  1.00  0.00     0.163 HD
BRANCH   3   6
ATOM      6  C   UNL A   1      32.915  26.986  25.924  1.00  0.00     0.124 C 
BRANCH   6   7
ATOM      7  C   UNL A   1      32.745  27.238  24.417  1.00  0.00     0.091 C 
ATOM      8  C   UNL A   1      33.894  27.992  23.751  1.00  0.00     0.031 C 
BRANCH   7   9
ATOM      9  N   UNL A   1      32.438  25.948  23.736  1.00  0.00    -0.339 N 
BRANCH   9  10
ATOM     10  C   UNL A   1      31.065  25.701  23.261  1.00  0.00     0.116 C 
ATOM     11  C   UNL A   1      30.574  24.282  23.507  1.00  0.00     0.027 C 
ENDBRANCH   9  10
BRANCH   9  12
ATOM     12  C   UNL A   1      33.539  25.143  23.420  1.00  0.00     0.229 C 
ATOM     13  O   UNL A   1      34.143  25.284  22.352  1.00  0.00    -0.274 OA
BRANCH  12  14
ATOM     14  C   UNL A   1      34.009  24.097  24.441  1.00  0.00     0.107 C 
ATOM     15  C   UNL A   1      34.328  22.785  23.777  1.00  0.00    -0.012 C 
ATOM     16  C   UNL A   1      35.357  24.505  25.046  1.00  0.00     0.087 C 
ATOM     17  C   UNL A   1      35.525  22.317  24.142  1.00  0.00     0.033 C 
ATOM     18  C   UNL A   1      36.196  23.222  25.116  1.00  0.00     0.205 C 
BRANCH  18  19
ATOM     19  N   UNL A   1      37.581  23.472  24.765  1.00  0.00    -0.352 N 
ATOM     20  H   UNL A   1      37.899  24.325  25.225  1.00  0.00     0.345 HD
ATOM     21  H   UNL A   1      37.662  23.580  23.754  1.00  0.00     0.345 HD
ATOM     22  H   UNL A   1      38.156  22.687  25.071  1.00  0.00     0.345 HD
ENDBRANCH  18  19
ENDBRANCH  12  14
ENDBRANCH   9  12
ENDBRANCH   7   9
ENDBRANCH   6   7
ENDBRANCH   3   6
ENDBRANCH   1   2
BRANCH   1  23
ATOM     23  C   UNL A   1      31.832  30.698  26.151  1.00  0.00     0.023 C 
BRANCH  23  24
ATOM     24  C   UNL A   1      31.499  32.076  26.707  1.00  0.00     0.023 C 
BRANCH  24  25
ATOM     25  C   UNL A   1      32.672  32.786  27.357  1.00  0.00     0.116 C 
BRANCH  25  26
ATOM     26  N   UNL A   1      32.413  34.198  27.615  1.00  0.00    -0.352 N 
ATOM     27  C   UNL A   1      33.020  35.020  28.535  1.00  0.00     0.251 C 
ATOM     28  H   UNL A   1      31.715  34.616  27.061  1.00  0.00     0.163 HD
ATOM     29  O   UNL A   1      32.618  36.159  28.732  1.00  0.00    -0.269 OA
BRANCH  27  30
ATOM     30  C   UNL A   1      34.151  34.477  29.310  1.00  0.00     0.039 A 
ATOM     31  C   UNL A   1      33.900  33.783  30.495  1.00  0.00     0.014 A 
ATOM     32  C   UNL A   1      35.442  34.558  28.783  1.00  0.00     0.014 A 
ATOM     33  C   UNL A   1      34.941  33.092  31.114  1.00  0.00     0.010 A 
ATOM     34  C   UNL A   1      36.450  33.794  29.347  1.00  0.00     0.010 A 
ATOM     35  C   UNL A   1      36.211  33.055  30.517  1.00  0.00    -0.014 A 
BRANCH  35  36
ATOM     36  C   UNL A   1      37.334  32.277  31.090  1.00  0.00     0.031 A 
ATOM     37  C   UNL A   1      37.964  32.749  32.369  1.00  0.00     0.074 A 
ATOM     38  C   UNL A   1      37.869  31.249  30.404  1.00  0.00     0.049 A 
ATOM     39  N   UNL A   1      39.087  32.379  32.925  1.00  0.00    -0.248 NA
ATOM     40  C   UNL A   1      37.259  33.824  33.085  1.00  0.00     0.031 C 
ATOM     41  C   UNL A   1      37.380  30.732  29.124  1.00  0.00     0.029 A 
ATOM     42  N   UNL A   1      38.969  30.476  30.677  1.00  0.00    -0.354 N 
ATOM     43  C   UNL A   1      39.246  33.211  34.027  1.00  0.00     0.074 A 
ATOM     44  C   UNL A   1      38.131  34.130  34.032  1.00  0.00     0.031 C 
ATOM     45  C   UNL A   1      38.174  29.726  28.726  1.00  0.00     0.029 A 
ATOM     46  C   UNL A   1      39.249  29.554  29.698  1.00  0.00     0.049 A 
ATOM     47  H   UNL A   1      39.505  30.572  31.497  1.00  0.00     0.167 HD
ATOM     48  C   UNL A   1      40.225  33.195  34.960  1.00  0.00     0.037 A 
ATOM     49  C   UNL A   1      40.272  28.684  29.589  1.00  0.00     0.037 A 
ATOM     50  C   UNL A   1      41.297  32.239  34.981  1.00  0.00     0.049 A 
ATOM     51  C   UNL A   1      41.318  28.644  30.666  1.00  0.00     0.074 A 
ATOM     52  C   UNL A   1      42.297  32.082  35.924  1.00  0.00     0.029 A 
ATOM     53  N   UNL A   1      41.499  31.265  34.014  1.00  0.00    -0.354 N 
ATOM     54  N   UNL A   1      41.434  29.402  31.730  1.00  0.00    -0.248 NA
ATOM     55  C   UNL A   1      42.372  27.628  30.534  1.00  0.00     0.031 C 
ATOM     56  C   UNL A   1      43.117  31.025  35.516  1.00  0.00     0.029 A 
ATOM     57  C   UNL A   1      42.609  30.505  34.335  1.00  0.00     0.049 A 
ATOM     58  H   UNL A   1      40.934  31.134  33.217  1.00  0.00     0.167 HD
ATOM     59  C   UNL A   1      42.558  28.943  32.405  1.00  0.00     0.074 A 
ATOM     60  C   UNL A   1      43.085  27.836  31.633  1.00  0.00     0.031 C 
ATOM     61  C   UNL A   1      43.102  29.396  33.559  1.00  0.00     0.037 A 
BRANCH  48  62
ATOM     62  C   UNL A   1      40.166  34.245  36.029  1.00  0.00     0.057 A 
ATOM     63  C   UNL A   1      40.752  35.507  35.860  1.00  0.00     0.134 A 
ATOM     64  C   UNL A   1      39.529  33.986  37.249  1.00  0.00     0.134 A 
ATOM     65  F   UNL A   1      41.394  35.811  34.722  1.00  0.00    -0.206 F 
ATOM     66  C   UNL A   1      40.742  36.460  36.880  1.00  0.00     0.040 A 
ATOM     67  C   UNL A   1      39.488  34.941  38.266  1.00  0.00     0.040 A 
ATOM     68  F   UNL A   1      38.946  32.800  37.476  1.00  0.00    -0.206 F 
ATOM     69  C   UNL A   1      40.104  36.178  38.086  1.00  0.00     0.006 A 
ENDBRANCH  48  62
BRANCH  49  70
ATOM     70  C   UNL A   1      40.339  27.771  28.422  1.00  0.00     0.057 A 
ATOM     71  C   UNL A   1      41.034  28.136  27.264  1.00  0.00     0.134 A 
ATOM     72  C   UNL A   1      39.737  26.508  28.445  1.00  0.00     0.134 A 
ATOM     73  F   UNL A   1      41.617  29.340  27.179  1.00  0.00    -0.206 F 
ATOM     74  C   UNL A   1      41.122  27.280  26.164  1.00  0.00     0.040 A 
ATOM     75  C   UNL A   1      39.833  25.635  27.360  1.00  0.00     0.040 A 
ATOM     76  F   UNL A   1      39.066  26.097  29.531  1.00  0.00    -0.206 F 
ATOM     77  C   UNL A   1      40.525  26.022  26.214  1.00  0.00     0.006 A 
ENDBRANCH  49  70
BRANCH  61  78
ATOM     78  C   UNL A   1      44.308  28.677  34.081  1.00  0.00     0.057 A 
ATOM     79  C   UNL A   1      44.193  27.550  34.903  1.00  0.00     0.134 A 
ATOM     80  C   UNL A   1      45.593  29.073  33.692  1.00  0.00     0.134 A 
ATOM     81  F   UNL A   1      42.988  27.130  35.317  1.00  0.00    -0.206 F 
ATOM     82  C   UNL A   1      45.319  26.843  35.325  1.00  0.00     0.040 A 
ATOM     83  C   UNL A   1      46.725  28.364  34.093  1.00  0.00     0.040 A 
ATOM     84  F   UNL A   1      45.766  30.142  32.899  1.00  0.00    -0.206 F 
ATOM     85  C   UNL A   1      46.589  27.244  34.912  1.00  0.00     0.006 A 
ENDBRANCH  61  78
ENDBRANCH  35  36
ENDBRANCH  27  30
ENDBRANCH  25  26
ENDBRANCH  24  25
ENDBRANCH  23  24
ENDBRANCH   1  23
TORSDOF 17
ENDMDL
MODEL 3
REMARK VINA RESULT:     -10.5      1.486      6.519
REMARK SMILES CCN(C(=O)[C@H]1C=C[C@@H]([NH3+])C1)[C@H](C)CC(=O)NCCCCNC(=O)c1ccc(-c2c3nc(c(-c4c(F)cccc4F)c4ccc([nH]4)c(-c4c(F)cccc4F)c4nc(c(-c5c(F)cccc5F)c5ccc2[nH]5)C=C4)C=C3)cc1
REMARK SMILES IDX 18 1 17 2 15 3 16 4 14 6 12 7 13 8 3 9 2 10 1 11 4 12 5 13
REMARK SMILES IDX 6 14 7 15 11 16 8 17 9 18 10 19 19 23 20 24 21 25 22 26
REMARK SMILES IDX 23 27 24 29 25 30 26 31 78 32 27 33 77 34 28 35 29 36 30 37
REMARK SMILES IDX 71 38 31 39 76 40 70 41 72 42 32 43 75 44 69 45 68 46 33 48
REMARK SMILES IDX 59 49 42 50 58 51 43 52 46 53 57 54 73 55 44 56 45 57 56 59
REMARK SMILES IDX 74 60 47 61 34 62 35 63 40 64 36 65 37 66 39 67 41 68 38 69
REMARK SMILES IDX 60 70 61 71 66 72 62 73 63 74 65 75 67 76 64 77 48 78 49 79
REMARK SMILES IDX 54 80 50 81 51 82 53 83 55 84 52 85
REMARK H PARENT 17 5 10 20 10 21 10 22 22 28 72 47 46 58
REMARK Flexibility Score: inf
ROOT
ATOM      1  C   UNL A   1      35.353  20.867  25.400  1.00  0.00     0.116 C 
ENDROOT
BRANCH   1   2
ATOM      2  N   UNL A   1      34.868  21.372  26.671  1.00  0.00    -0.356 N 
ATOM      3  C   UNL A   1      33.662  21.928  26.983  1.00  0.00     0.222 C 
ATOM      4  O   UNL A   1      33.496  22.372  28.119  1.00  0.00    -0.275 OA
ATOM      5  H   UNL A   1      35.504  21.305  27.419  1.00  0.00     0.163 HD
BRANCH   3   6
ATOM      6  C   UNL A   1      32.576  21.998  25.936  1.00  0.00     0.124 C 
BRANCH   6   7
ATOM      7  C   UNL A   1      32.695  23.214  25.004  1.00  0.00     0.091 C 
ATOM      8  C   UNL A   1      31.988  23.074  23.658  1.00  0.00     0.031 C 
BRANCH   7   9
ATOM      9  N   UNL A   1      32.278  24.440  25.742  1.00  0.00    -0.339 N 
BRANCH   9  10
ATOM     10  C   UNL A   1      31.043  24.404  26.545  1.00  0.00     0.116 C 
ATOM     11  C   UNL A   1      29.882  25.169  25.925  1.00  0.00     0.027 C 
ENDBRANCH   9  10
BRANCH   9  12
ATOM     12  C   UNL A   1      33.209  25.485  25.773  1.00  0.00     0.229 C 
ATOM     13  O   UNL A   1      34.419  25.261  25.656  1.00  0.00    -0.274 OA
BRANCH  12  14
ATOM     14  C   UNL A   1      32.702  26.926  25.922  1.00  0.00     0.107 C 
ATOM     15  C   UNL A   1      33.764  27.827  26.491  1.00  0.00    -0.012 C 
ATOM     16  C   UNL A   1      32.435  27.546  24.546  1.00  0.00     0.087 C 
ATOM     17  C   UNL A   1      33.914  28.943  25.770  1.00  0.00     0.033 C 
ATOM     18  C   UNL A   1      32.972  28.983  24.617  1.00  0.00     0.205 C 
BRANCH  18  19
ATOM     19  N   UNL A   1      33.634  29.365  23.384  1.00  0.00    -0.352 N 
ATOM     20  H   UNL A   1      32.954  29.779  22.747  1.00  0.00     0.345 HD
ATOM     21  H   UNL A   1      34.048  28.540  22.950  1.00  0.00     0.345 HD
ATOM     22  H   UNL A   1      34.367  30.044  23.588  1.00  0.00     0.345 HD
ENDBRANCH  18  19
ENDBRANCH  12  14
ENDBRANCH   9  12
ENDBRANCH   7   9
ENDBRANCH   6   7
ENDBRANCH   3   6
ENDBRANCH   1   2
BRANCH   1  23
ATOM     23  C   UNL A   1      36.172  21.915  24.649  1.00  0.00     0.023 C 
BRANCH  23  24
ATOM     24  C   UNL A   1      37.632  21.546  24.429  1.00  0.00     0.023 C 
BRANCH  24  25
ATOM     25  C   UNL A   1      38.399  21.251  25.705  1.00  0.00     0.116 C 
BRANCH  25  26
ATOM     26  N   UNL A   1      39.206  20.039  25.618  1.00  0.00    -0.352 N 
ATOM     27  C   UNL A   1      40.536  19.877  25.932  1.00  0.00     0.251 C 
ATOM     28  H   UNL A   1      38.742  19.235  25.292  1.00  0.00     0.163 HD
ATOM     29  O   UNL A   1      41.122  18.831  25.694  1.00  0.00    -0.269 OA
BRANCH  27  30
ATOM     30  C   UNL A   1      41.248  21.020  26.534  1.00  0.00     0.039 A 
ATOM     31  C   UNL A   1      41.824  21.983  25.703  1.00  0.00     0.014 A 
ATOM     32  C   UNL A   1      41.230  21.183  27.921  1.00  0.00     0.014 A 
ATOM     33  C   UNL A   1      42.310  23.163  26.265  1.00  0.00     0.010 A 
ATOM     34  C   UNL A   1      41.627  22.394  28.463  1.00  0.00     0.010 A 
ATOM     35  C   UNL A   1      42.171  23.395  27.642  1.00  0.00    -0.014 A 
BRANCH  35  36
ATOM     36  C   UNL A   1      42.603  24.660  28.282  1.00  0.00     0.031 A 
ATOM     37  C   UNL A   1      41.581  25.732  28.531  1.00  0.00     0.074 A 
ATOM     38  C   UNL A   1      43.909  24.897  28.506  1.00  0.00     0.049 A 
ATOM     39  N   UNL A   1      41.756  26.986  28.852  1.00  0.00    -0.248 NA
ATOM     40  C   UNL A   1      40.174  25.349  28.333  1.00  0.00     0.031 C 
ATOM     41  C   UNL A   1      45.002  23.955  28.254  1.00  0.00     0.029 A 
ATOM     42  N   UNL A   1      44.541  26.023  28.968  1.00  0.00    -0.354 N 
ATOM     43  C   UNL A   1      40.488  27.551  28.845  1.00  0.00     0.074 A 
ATOM     44  C   UNL A   1      39.561  26.517  28.444  1.00  0.00     0.031 C 
ATOM     45  C   UNL A   1      46.168  24.542  28.568  1.00  0.00     0.029 A 
ATOM     46  C   UNL A   1      45.910  25.911  29.003  1.00  0.00     0.049 A 
ATOM     47  H   UNL A   1      44.059  26.834  29.250  1.00  0.00     0.167 HD
ATOM     48  C   UNL A   1      40.127  28.816  29.164  1.00  0.00     0.037 A 
ATOM     49  C   UNL A   1      46.849  26.820  29.328  1.00  0.00     0.037 A 
ATOM     50  C   UNL A   1      41.046  29.821  29.620  1.00  0.00     0.049 A 
ATOM     51  C   UNL A   1      46.423  28.202  29.735  1.00  0.00     0.074 A 
ATOM     52  C   UNL A   1      40.777  31.109  30.045  1.00  0.00     0.029 A 
ATOM     53  N   UNL A   1      42.418  29.641  29.722  1.00  0.00    -0.354 N 
ATOM     54  N   UNL A   1      45.216  28.714  29.771  1.00  0.00    -0.248 NA
ATOM     55  C   UNL A   1      47.484  29.131  30.148  1.00  0.00     0.031 C 
ATOM     56  C   UNL A   1      41.991  31.717  30.385  1.00  0.00     0.029 A 
ATOM     57  C   UNL A   1      43.011  30.796  30.200  1.00  0.00     0.049 A 
ATOM     58  H   UNL A   1      42.899  28.813  29.488  1.00  0.00     0.167 HD
ATOM     59  C   UNL A   1      45.368  30.015  30.232  1.00  0.00     0.074 A 
ATOM     60  C   UNL A   1      46.784  30.213  30.466  1.00  0.00     0.031 C 
ATOM     61  C   UNL A   1      44.421  30.960  30.442  1.00  0.00     0.037 A 
BRANCH  48  62
ATOM     62  C   UNL A   1      38.675  29.165  29.030  1.00  0.00     0.057 A 
ATOM     63  C   UNL A   1      38.130  29.610  27.817  1.00  0.00     0.134 A 
ATOM     64  C   UNL A   1      37.814  29.072  30.129  1.00  0.00     0.134 A 
ATOM     65  F   UNL A   1      38.907  29.740  26.731  1.00  0.00    -0.206 F 
ATOM     66  C   UNL A   1      36.791  29.987  27.713  1.00  0.00     0.040 A 
ATOM     67  C   UNL A   1      36.465  29.419  30.030  1.00  0.00     0.040 A 
ATOM     68  F   UNL A   1      38.269  28.651  31.319  1.00  0.00    -0.206 F 
ATOM     69  C   UNL A   1      35.953  29.887  28.822  1.00  0.00     0.006 A 
ENDBRANCH  48  62
BRANCH  49  70
ATOM     70  C   UNL A   1      48.282  26.438  29.298  1.00  0.00     0.057 A 
ATOM     71  C   UNL A   1      49.075  26.713  28.179  1.00  0.00     0.134 A 
ATOM     72  C   UNL A   1      48.898  25.818  30.391  1.00  0.00     0.134 A 
ATOM     73  F   UNL A   1      48.536  27.292  27.096  1.00  0.00    -0.206 F 
ATOM     74  C   UNL A   1      50.430  26.377  28.143  1.00  0.00     0.040 A 
ATOM     75  C   UNL A   1      50.255  25.493  30.376  1.00  0.00     0.040 A 
ATOM     76  F   UNL A   1      48.193  25.539  31.497  1.00  0.00    -0.206 F 
ATOM     77  C   UNL A   1      51.024  25.770  29.247  1.00  0.00     0.006 A 
ENDBRANCH  49  70
BRANCH  61  78
ATOM     78  C   UNL A   1      44.873  32.280  30.986  1.00  0.00     0.057 A 
ATOM     79  C   UNL A   1      44.992  32.507  32.361  1.00  0.00     0.134 A 
ATOM     80  C   UNL A   1      45.266  33.307  30.118  1.00  0.00     0.134 A 
ATOM     81  F   UNL A   1      44.621  31.564  33.241  1.00  0.00    -0.206 F 
ATOM     82  C   UNL A   1      45.484  33.715  32.857  1.00  0.00     0.040 A 
ATOM     83  C   UNL A   1      45.776  34.512  30.601  1.00  0.00     0.040 A 
ATOM     84  F   UNL A   1      45.181  33.145  28.789  1.00  0.00    -0.206 F 
ATOM     85  C   UNL A   1      45.886  34.718  31.976  1.00  0.00     0.006 A 
ENDBRANCH  61  78
ENDBRANCH  35  36
ENDBRANCH  27  30
ENDBRANCH  25  26
ENDBRANCH  24  25
ENDBRANCH  23  24
ENDBRANCH   1  23
TORSDOF 17
ENDMDL
