MODEL 1
REMARK VINA RESULT:      -9.2      0.000      0.000
REMARK SMILES CS(=O)(=O)c1ccc(/C=C(/C(=O)NCCCCNC(=O)c2ccc(-c3c4nc(c(-c5c(F)cccc5F)c5ccc([nH]5)c(-c5c(F)cccc5F)c5nc(c(-c6c(F)cccc6F)c6ccc3[nH]6)C=C5)C=C4)cc2)c2cccc(Br)c2)cc1
REMARK SMILES IDX 15 1 14 2 13 3 11 4 12 5 10 7 9 8 8 9 5 10 6 11 83 12 7 13
REMARK SMILES IDX 82 14 2 15 1 16 3 17 4 18 75 19 76 20 81 21 77 22 79 23
REMARK SMILES IDX 78 24 80 25 16 26 17 27 18 28 19 29 20 31 21 32 22 33 74 34
REMARK SMILES IDX 23 35 73 36 24 37 25 38 26 39 67 40 27 41 72 42 66 43 68 44
REMARK SMILES IDX 28 45 71 46 65 47 64 48 29 50 55 51 38 52 54 53 39 54 42 55
REMARK SMILES IDX 53 56 69 57 40 58 41 59 52 61 70 62 43 63 30 64 31 65 36 66
REMARK SMILES IDX 32 67 33 68 35 69 37 70 34 71 56 72 57 73 62 74 58 75 59 76
REMARK SMILES IDX 61 77 63 78 60 79 44 80 45 81 50 82 46 83 47 84 49 85 51 86
REMARK SMILES IDX 48 87
REMARK H PARENT 13 6 18 30 68 49 42 60
REMARK Flexibility Score: inf
ROOT
ATOM      1  C   UNL A   1      36.126  33.486  30.632  1.00  0.00     0.023 C 
ENDROOT
BRANCH   1   2
ATOM      2  C   UNL A   1      35.397  32.487  31.534  1.00  0.00     0.116 C 
BRANCH   2   3
ATOM      3  N   UNL A   1      35.257  33.027  32.872  1.00  0.00    -0.352 N 
ATOM      4  C   UNL A   1      36.027  32.986  33.991  1.00  0.00     0.251 C 
ATOM      5  O   UNL A   1      35.554  33.539  34.987  1.00  0.00    -0.269 OA
ATOM      6  H   UNL A   1      34.421  33.533  32.998  1.00  0.00     0.163 HD
BRANCH   4   7
ATOM      7  C   UNL A   1      37.419  32.390  34.038  1.00  0.00     0.047 C 
ATOM      8  C   UNL A   1      37.630  31.057  34.140  1.00  0.00     0.022 C 
BRANCH   8   9
ATOM      9  C   UNL A   1      38.890  30.283  34.095  1.00  0.00    -0.025 A 
ATOM     10  C   UNL A   1      41.260  28.795  33.805  1.00  0.00     0.067 A 
ATOM     11  C   UNL A   1      41.133  29.714  34.848  1.00  0.00     0.021 A 
ATOM     12  C   UNL A   1      40.200  28.579  32.926  1.00  0.00     0.021 A 
ATOM     13  C   UNL A   1      39.942  30.428  35.007  1.00  0.00     0.009 A 
ATOM     14  C   UNL A   1      39.025  29.326  33.072  1.00  0.00     0.009 A 
BRANCH  10  15
ATOM     15  S   UNL A   1      42.791  27.914  33.616  1.00  0.00     0.175 S 
ATOM     16  C   UNL A   1      42.657  26.468  34.633  1.00  0.00     0.163 C 
ATOM     17  O   UNL A   1      43.827  28.763  34.168  1.00  0.00    -0.224 OA
ATOM     18  O   UNL A   1      42.851  27.453  32.240  1.00  0.00    -0.224 OA
ENDBRANCH  10  15
ENDBRANCH   8   9
BRANCH   7  19
ATOM     19  C   UNL A   1      38.552  33.345  34.145  1.00  0.00    -0.012 A 
ATOM     20  C   UNL A   1      39.320  33.609  32.997  1.00  0.00     0.009 A 
ATOM     21  C   UNL A   1      38.824  34.055  35.321  1.00  0.00     0.024 A 
ATOM     22  C   UNL A   1      40.321  34.579  33.009  1.00  0.00     0.002 A 
ATOM     23  C   UNL A   1      39.813  35.042  35.320  1.00  0.00     0.018 A 
ATOM     24  C   UNL A   1      40.559  35.309  34.171  1.00  0.00     0.016 A 
ATOM     25  Br  UNL A   1      40.112  36.067  36.880  1.00  0.00    -0.051 Br
ENDBRANCH   7  19
ENDBRANCH   4   7
ENDBRANCH   2   3
ENDBRANCH   1   2
BRANCH   1  26
ATOM     26  C   UNL A   1      35.304  33.974  29.430  1.00  0.00     0.023 C 
BRANCH  26  27
ATOM     27  C   UNL A   1      35.472  33.160  28.150  1.00  0.00     0.116 C 
BRANCH  27  28
ATOM     28  N   UNL A   1      34.460  32.128  27.993  1.00  0.00    -0.352 N 
ATOM     29  C   UNL A   1      34.610  30.763  27.992  1.00  0.00     0.251 C 
ATOM     30  H   UNL A   1      33.538  32.453  27.869  1.00  0.00     0.163 HD
ATOM     31  O   UNL A   1      33.653  30.038  27.740  1.00  0.00    -0.269 OA
BRANCH  29  32
ATOM     32  C   UNL A   1      35.938  30.172  28.255  1.00  0.00     0.039 A 
ATOM     33  C   UNL A   1      36.860  30.106  27.207  1.00  0.00     0.014 A 
ATOM     34  C   UNL A   1      36.278  29.701  29.525  1.00  0.00     0.014 A 
ATOM     35  C   UNL A   1      38.151  29.635  27.451  1.00  0.00     0.010 A 
ATOM     36  C   UNL A   1      37.581  29.284  29.781  1.00  0.00     0.010 A 
ATOM     37  C   UNL A   1      38.532  29.256  28.749  1.00  0.00    -0.014 A 
BRANCH  37  38
ATOM     38  C   UNL A   1      39.929  28.857  29.050  1.00  0.00     0.031 A 
ATOM     39  C   UNL A   1      40.859  29.812  29.741  1.00  0.00     0.074 A 
ATOM     40  C   UNL A   1      40.377  27.658  28.632  1.00  0.00     0.049 A 
ATOM     41  N   UNL A   1      42.130  29.668  30.023  1.00  0.00    -0.248 NA
ATOM     42  C   UNL A   1      40.296  31.109  30.148  1.00  0.00     0.031 C 
ATOM     43  C   UNL A   1      39.584  26.664  27.906  1.00  0.00     0.029 A 
ATOM     44  N   UNL A   1      41.615  27.077  28.746  1.00  0.00    -0.354 N 
ATOM     45  C   UNL A   1      42.520  30.857  30.624  1.00  0.00     0.074 A 
ATOM     46  C   UNL A   1      41.364  31.728  30.629  1.00  0.00     0.031 C 
ATOM     47  C   UNL A   1      40.350  25.589  27.657  1.00  0.00     0.029 A 
ATOM     48  C   UNL A   1      41.692  25.831  28.173  1.00  0.00     0.049 A 
ATOM     49  H   UNL A   1      42.376  27.512  29.195  1.00  0.00     0.167 HD
ATOM     50  C   UNL A   1      43.727  31.186  31.141  1.00  0.00     0.037 A 
ATOM     51  C   UNL A   1      42.732  24.981  28.072  1.00  0.00     0.037 A 
ATOM     52  C   UNL A   1      44.868  30.309  31.161  1.00  0.00     0.049 A 
ATOM     53  C   UNL A   1      44.060  25.369  28.660  1.00  0.00     0.074 A 
ATOM     54  C   UNL A   1      46.114  30.526  31.722  1.00  0.00     0.029 A 
ATOM     55  N   UNL A   1      44.901  29.045  30.591  1.00  0.00    -0.354 N 
ATOM     56  N   UNL A   1      44.395  26.470  29.286  1.00  0.00    -0.248 NA
ATOM     57  C   UNL A   1      45.151  24.393  28.531  1.00  0.00     0.031 C 
ATOM     58  C   UNL A   1      46.914  29.408  31.461  1.00  0.00     0.029 A 
ATOM     59  C   UNL A   1      46.153  28.478  30.770  1.00  0.00     0.049 A 
ATOM     60  H   UNL A   1      44.148  28.614  30.127  1.00  0.00     0.167 HD
ATOM     61  C   UNL A   1      45.726  26.310  29.648  1.00  0.00     0.074 A 
ATOM     62  C   UNL A   1      46.132  25.000  29.182  1.00  0.00     0.031 C 
ATOM     63  C   UNL A   1      46.539  27.171  30.307  1.00  0.00     0.037 A 
BRANCH  50  64
ATOM     64  C   UNL A   1      43.875  32.554  31.737  1.00  0.00     0.057 A 
ATOM     65  C   UNL A   1      43.733  32.776  33.113  1.00  0.00     0.134 A 
ATOM     66  C   UNL A   1      44.203  33.654  30.934  1.00  0.00     0.134 A 
ATOM     67  F   UNL A   1      43.408  31.767  33.935  1.00  0.00    -0.206 F 
ATOM     68  C   UNL A   1      43.890  34.048  33.668  1.00  0.00     0.040 A 
ATOM     69  C   UNL A   1      44.386  34.925  31.480  1.00  0.00     0.040 A 
ATOM     70  F   UNL A   1      44.358  33.508  29.610  1.00  0.00    -0.206 F 
ATOM     71  C   UNL A   1      44.225  35.127  32.850  1.00  0.00     0.006 A 
ENDBRANCH  50  64
BRANCH  51  72
ATOM     72  C   UNL A   1      42.554  23.667  27.408  1.00  0.00     0.057 A 
ATOM     73  C   UNL A   1      42.704  23.536  26.022  1.00  0.00     0.134 A 
ATOM     74  C   UNL A   1      42.223  22.517  28.134  1.00  0.00     0.134 A 
ATOM     75  F   UNL A   1      43.001  24.606  25.272  1.00  0.00    -0.206 F 
ATOM     76  C   UNL A   1      42.514  22.312  25.380  1.00  0.00     0.040 A 
ATOM     77  C   UNL A   1      42.052  21.282  27.506  1.00  0.00     0.040 A 
ATOM     78  F   UNL A   1      42.074  22.576  29.465  1.00  0.00    -0.206 F 
ATOM     79  C   UNL A   1      42.191  21.179  26.123  1.00  0.00     0.006 A 
ENDBRANCH  51  72
BRANCH  63  80
ATOM     80  C   UNL A   1      47.937  26.710  30.591  1.00  0.00     0.057 A 
ATOM     81  C   UNL A   1      48.249  25.961  31.732  1.00  0.00     0.134 A 
ATOM     82  C   UNL A   1      48.975  26.989  29.692  1.00  0.00     0.134 A 
ATOM     83  F   UNL A   1      47.302  25.674  32.637  1.00  0.00    -0.206 F 
ATOM     84  C   UNL A   1      49.551  25.522  31.979  1.00  0.00     0.040 A 
ATOM     85  C   UNL A   1      50.275  26.536  29.918  1.00  0.00     0.040 A 
ATOM     86  F   UNL A   1      48.739  27.696  28.576  1.00  0.00    -0.206 F 
ATOM     87  C   UNL A   1      50.566  25.804  31.067  1.00  0.00     0.006 A 
ENDBRANCH  63  80
ENDBRANCH  37  38
ENDBRANCH  29  32
ENDBRANCH  27  28
ENDBRANCH  26  27
ENDBRANCH   1  26
TORSDOF 14
ENDMDL
MODEL 2
REMARK VINA RESULT:      -9.0      3.562      9.918
REMARK SMILES CS(=O)(=O)c1ccc(/C=C(/C(=O)NCCCCNC(=O)c2ccc(-c3c4nc(c(-c5c(F)cccc5F)c5ccc([nH]5)c(-c5c(F)cccc5F)c5nc(c(-c6c(F)cccc6F)c6ccc3[nH]6)C=C5)C=C4)cc2)c2cccc(Br)c2)cc1
REMARK SMILES IDX 15 1 14 2 13 3 11 4 12 5 10 7 9 8 8 9 5 10 6 11 83 12 7 13
REMARK SMILES IDX 82 14 2 15 1 16 3 17 4 18 75 19 76 20 81 21 77 22 79 23
REMARK SMILES IDX 78 24 80 25 16 26 17 27 18 28 19 29 20 31 21 32 22 33 74 34
REMARK SMILES IDX 23 35 73 36 24 37 25 38 26 39 67 40 27 41 72 42 66 43 68 44
REMARK SMILES IDX 28 45 71 46 65 47 64 48 29 50 55 51 38 52 54 53 39 54 42 55
REMARK SMILES IDX 53 56 69 57 40 58 41 59 52 61 70 62 43 63 30 64 31 65 36 66
REMARK SMILES IDX 32 67 33 68 35 69 37 70 34 71 56 72 57 73 62 74 58 75 59 76
REMARK SMILES IDX 61 77 63 78 60 79 44 80 45 81 50 82 46 83 47 84 49 85 51 86
REMARK SMILES IDX 48 87
REMARK H PARENT 13 6 18 30 68 49 42 60
REMARK Flexibility Score: inf
ROOT
ATOM      1  C   UNL A   1      43.608  21.307  25.725  1.00  0.00     0.023 C 
ENDROOT
BRANCH   1   2
ATOM      2  C   UNL A   1      43.615  22.695  25.079  1.00  0.00     0.116 C 
BRANCH   2   3
ATOM      3  N   UNL A   1      44.921  22.983  24.519  1.00  0.00    -0.352 N 
ATOM      4  C   UNL A   1      45.778  24.034  24.615  1.00  0.00     0.251 C 
ATOM      5  O   UNL A   1      46.811  23.945  23.946  1.00  0.00    -0.269 OA
ATOM      6  H   UNL A   1      45.261  22.260  23.943  1.00  0.00     0.163 HD
BRANCH   4   7
ATOM      7  C   UNL A   1      45.564  25.216  25.537  1.00  0.00     0.047 C 
ATOM      8  C   UNL A   1      45.386  26.474  25.069  1.00  0.00     0.022 C 
BRANCH   8   9
ATOM      9  C   UNL A   1      45.063  27.725  25.789  1.00  0.00    -0.025 A 
ATOM     10  C   UNL A   1      44.610  30.193  27.063  1.00  0.00     0.067 A 
ATOM     11  C   UNL A   1      43.547  29.320  26.828  1.00  0.00     0.021 A 
ATOM     12  C   UNL A   1      45.908  29.830  26.705  1.00  0.00     0.021 A 
ATOM     13  C   UNL A   1      43.781  28.081  26.223  1.00  0.00     0.009 A 
ATOM     14  C   UNL A   1      46.126  28.604  26.067  1.00  0.00     0.009 A 
BRANCH  10  15
ATOM     15  S   UNL A   1      44.281  31.767  27.816  1.00  0.00     0.175 S 
ATOM     16  C   UNL A   1      45.796  32.272  28.586  1.00  0.00     0.163 C 
ATOM     17  O   UNL A   1      43.300  31.530  28.856  1.00  0.00    -0.224 OA
ATOM     18  O   UNL A   1      44.024  32.709  26.741  1.00  0.00    -0.224 OA
ENDBRANCH  10  15
ENDBRANCH   8   9
BRANCH   7  19
ATOM     19  C   UNL A   1      45.733  24.969  26.992  1.00  0.00    -0.012 A 
ATOM     20  C   UNL A   1      46.828  25.558  27.651  1.00  0.00     0.009 A 
ATOM     21  C   UNL A   1      44.797  24.247  27.744  1.00  0.00     0.024 A 
ATOM     22  C   UNL A   1      46.974  25.456  29.034  1.00  0.00     0.002 A 
ATOM     23  C   UNL A   1      44.938  24.168  29.131  1.00  0.00     0.018 A 
ATOM     24  C   UNL A   1      46.018  24.770  29.779  1.00  0.00     0.016 A 
ATOM     25  Br  UNL A   1      43.621  23.276  30.154  1.00  0.00    -0.051 Br
ENDBRANCH   7  19
ENDBRANCH   4   7
ENDBRANCH   2   3
ENDBRANCH   1   2
BRANCH   1  26
ATOM     26  C   UNL A   1      42.371  21.013  26.585  1.00  0.00     0.023 C 
BRANCH  26  27
ATOM     27  C   UNL A   1      41.497  22.223  26.906  1.00  0.00     0.116 C 
BRANCH  27  28
ATOM     28  N   UNL A   1      40.201  22.183  26.249  1.00  0.00    -0.352 N 
ATOM     29  C   UNL A   1      39.203  23.127  26.247  1.00  0.00     0.251 C 
ATOM     30  H   UNL A   1      40.013  21.365  25.732  1.00  0.00     0.163 HD
ATOM     31  O   UNL A   1      38.124  22.880  25.719  1.00  0.00    -0.269 OA
BRANCH  29  32
ATOM     32  C   UNL A   1      39.420  24.423  26.920  1.00  0.00     0.039 A 
ATOM     33  C   UNL A   1      38.950  24.586  28.227  1.00  0.00     0.014 A 
ATOM     34  C   UNL A   1      40.094  25.465  26.278  1.00  0.00     0.014 A 
ATOM     35  C   UNL A   1      39.221  25.768  28.916  1.00  0.00     0.010 A 
ATOM     36  C   UNL A   1      40.412  26.621  26.985  1.00  0.00     0.010 A 
ATOM     37  C   UNL A   1      39.986  26.779  28.313  1.00  0.00    -0.014 A 
BRANCH  37  38
ATOM     38  C   UNL A   1      40.377  27.996  29.067  1.00  0.00     0.031 A 
ATOM     39  C   UNL A   1      41.731  28.088  29.711  1.00  0.00     0.074 A 
ATOM     40  C   UNL A   1      39.480  28.986  29.232  1.00  0.00     0.049 A 
ATOM     41  N   UNL A   1      42.221  29.038  30.467  1.00  0.00    -0.248 NA
ATOM     42  C   UNL A   1      42.645  26.956  29.498  1.00  0.00     0.031 C 
ATOM     43  C   UNL A   1      38.116  28.991  28.698  1.00  0.00     0.029 A 
ATOM     44  N   UNL A   1      39.575  30.177  29.908  1.00  0.00    -0.354 N 
ATOM     45  C   UNL A   1      43.491  28.612  30.832  1.00  0.00     0.074 A 
ATOM     46  C   UNL A   1      43.680  27.300  30.249  1.00  0.00     0.031 C 
ATOM     47  C   UNL A   1      37.510  30.136  29.051  1.00  0.00     0.029 A 
ATOM     48  C   UNL A   1      38.428  30.930  29.862  1.00  0.00     0.049 A 
ATOM     49  H   UNL A   1      40.390  30.464  30.382  1.00  0.00     0.167 HD
ATOM     50  C   UNL A   1      44.422  29.262  31.568  1.00  0.00     0.037 A 
ATOM     51  C   UNL A   1      38.146  32.123  30.417  1.00  0.00     0.037 A 
ATOM     52  C   UNL A   1      44.244  30.578  32.124  1.00  0.00     0.049 A 
ATOM     53  C   UNL A   1      39.199  32.827  31.226  1.00  0.00     0.074 A 
ATOM     54  C   UNL A   1      45.152  31.348  32.828  1.00  0.00     0.029 A 
ATOM     55  N   UNL A   1      43.074  31.319  32.037  1.00  0.00    -0.354 N 
ATOM     56  N   UNL A   1      40.420  32.440  31.505  1.00  0.00    -0.248 NA
ATOM     57  C   UNL A   1      38.836  34.133  31.793  1.00  0.00     0.031 C 
ATOM     58  C   UNL A   1      44.522  32.540  33.199  1.00  0.00     0.029 A 
ATOM     59  C   UNL A   1      43.232  32.530  32.691  1.00  0.00     0.049 A 
ATOM     60  H   UNL A   1      42.253  31.027  31.578  1.00  0.00     0.167 HD
ATOM     61  C   UNL A   1      40.978  33.465  32.257  1.00  0.00     0.074 A 
ATOM     62  C   UNL A   1      39.967  34.495  32.379  1.00  0.00     0.031 C 
ATOM     63  C   UNL A   1      42.219  33.546  32.797  1.00  0.00     0.037 A 
BRANCH  50  64
ATOM     64  C   UNL A   1      45.725  28.561  31.813  1.00  0.00     0.057 A 
ATOM     65  C   UNL A   1      45.905  27.705  32.908  1.00  0.00     0.134 A 
ATOM     66  C   UNL A   1      46.797  28.709  30.924  1.00  0.00     0.134 A 
ATOM     67  F   UNL A   1      44.922  27.529  33.803  1.00  0.00    -0.206 F 
ATOM     68  C   UNL A   1      47.113  27.039  33.123  1.00  0.00     0.040 A 
ATOM     69  C   UNL A   1      48.001  28.030  31.115  1.00  0.00     0.040 A 
ATOM     70  F   UNL A   1      46.688  29.509  29.854  1.00  0.00    -0.206 F 
ATOM     71  C   UNL A   1      48.164  27.195  32.220  1.00  0.00     0.006 A 
ENDBRANCH  50  64
BRANCH  51  72
ATOM     72  C   UNL A   1      36.815  32.744  30.206  1.00  0.00     0.057 A 
ATOM     73  C   UNL A   1      36.574  33.570  29.102  1.00  0.00     0.134 A 
ATOM     74  C   UNL A   1      35.758  32.536  31.100  1.00  0.00     0.134 A 
ATOM     75  F   UNL A   1      37.553  33.821  28.221  1.00  0.00    -0.206 F 
ATOM     76  C   UNL A   1      35.336  34.181  28.904  1.00  0.00     0.040 A 
ATOM     77  C   UNL A   1      34.508  33.124  30.903  1.00  0.00     0.040 A 
ATOM     78  F   UNL A   1      35.925  31.748  32.173  1.00  0.00    -0.206 F 
ATOM     79  C   UNL A   1      34.297  33.956  29.804  1.00  0.00     0.006 A 
ENDBRANCH  51  72
BRANCH  63  80
ATOM     80  C   UNL A   1      42.560  34.802  33.542  1.00  0.00     0.057 A 
ATOM     81  C   UNL A   1      43.070  35.931  32.888  1.00  0.00     0.134 A 
ATOM     82  C   UNL A   1      42.340  34.895  34.922  1.00  0.00     0.134 A 
ATOM     83  F   UNL A   1      43.316  35.900  31.570  1.00  0.00    -0.206 F 
ATOM     84  C   UNL A   1      43.370  37.102  33.587  1.00  0.00     0.040 A 
ATOM     85  C   UNL A   1      42.614  36.068  35.626  1.00  0.00     0.040 A 
ATOM     86  F   UNL A   1      41.846  33.850  35.605  1.00  0.00    -0.206 F 
ATOM     87  C   UNL A   1      43.135  37.174  34.958  1.00  0.00     0.006 A 
ENDBRANCH  63  80
ENDBRANCH  37  38
ENDBRANCH  29  32
ENDBRANCH  27  28
ENDBRANCH  26  27
ENDBRANCH   1  26
TORSDOF 14
ENDMDL
MODEL 3
REMARK VINA RESULT:      -8.7      4.121     10.171
REMARK SMILES CS(=O)(=O)c1ccc(/C=C(/C(=O)NCCCCNC(=O)c2ccc(-c3c4nc(c(-c5c(F)cccc5F)c5ccc([nH]5)c(-c5c(F)cccc5F)c5nc(c(-c6c(F)cccc6F)c6ccc3[nH]6)C=C5)C=C4)cc2)c2cccc(Br)c2)cc1
REMARK SMILES IDX 15 1 14 2 13 3 11 4 12 5 10 7 9 8 8 9 5 10 6 11 83 12 7 13
REMARK SMILES IDX 82 14 2 15 1 16 3 17 4 18 75 19 76 20 81 21 77 22 79 23
REMARK SMILES IDX 78 24 80 25 16 26 17 27 18 28 19 29 20 31 21 32 22 33 74 34
REMARK SMILES IDX 23 35 73 36 24 37 25 38 26 39 67 40 27 41 72 42 66 43 68 44
REMARK SMILES IDX 28 45 71 46 65 47 64 48 29 50 55 51 38 52 54 53 39 54 42 55
REMARK SMILES IDX 53 56 69 57 40 58 41 59 52 61 70 62 43 63 30 64 31 65 36 66
REMARK SMILES IDX 32 67 33 68 35 69 37 70 34 71 56 72 57 73 62 74 58 75 59 76
REMARK SMILES IDX 61 77 63 78 60 79 44 80 45 81 50 82 46 83 47 84 49 85 51 86
REMARK SMILES IDX 48 87
REMARK H PARENT 13 6 18 30 68 49 42 60
REMARK Flexibility Score: inf
ROOT
ATOM      1  C   UNL A   1      42.826  23.102  28.710  1.00  0.00     0.023 C 
ENDROOT
BRANCH   1   2
ATOM      2  C   UNL A   1      44.225  23.352  28.142  1.00  0.00     0.116 C 
BRANCH   2   3
ATOM      3  N   UNL A   1      45.054  24.023  29.123  1.00  0.00    -0.352 N 
ATOM      4  C   UNL A   1      46.037  24.959  29.046  1.00  0.00     0.251 C 
ATOM      5  O   UNL A   1      46.563  25.273  30.118  1.00  0.00    -0.269 OA
ATOM      6  H   UNL A   1      44.865  23.739  30.047  1.00  0.00     0.163 HD
BRANCH   4   7
ATOM      7  C   UNL A   1      46.434  25.664  27.765  1.00  0.00     0.047 C 
ATOM      8  C   UNL A   1      47.608  25.416  27.140  1.00  0.00     0.022 C 
BRANCH   8   9
ATOM      9  C   UNL A   1      48.125  25.913  25.845  1.00  0.00    -0.025 A 
ATOM     10  C   UNL A   1      49.281  26.916  23.484  1.00  0.00     0.067 A 
ATOM     11  C   UNL A   1      48.350  25.878  23.423  1.00  0.00     0.021 A 
ATOM     12  C   UNL A   1      49.613  27.489  24.711  1.00  0.00     0.021 A 
ATOM     13  C   UNL A   1      47.755  25.404  24.596  1.00  0.00     0.009 A 
ATOM     14  C   UNL A   1      49.039  26.982  25.883  1.00  0.00     0.009 A 
BRANCH  10  15
ATOM     15  S   UNL A   1      50.035  27.486  21.980  1.00  0.00     0.175 S 
ATOM     16  C   UNL A   1      49.420  26.435  20.691  1.00  0.00     0.163 C 
ATOM     17  O   UNL A   1      51.458  27.251  22.117  1.00  0.00    -0.224 OA
ATOM     18  O   UNL A   1      49.514  28.816  21.720  1.00  0.00    -0.224 OA
ENDBRANCH  10  15
ENDBRANCH   8   9
BRANCH   7  19
ATOM     19  C   UNL A   1      45.557  26.775  27.314  1.00  0.00    -0.012 A 
ATOM     20  C   UNL A   1      44.573  26.503  26.346  1.00  0.00     0.009 A 
ATOM     21  C   UNL A   1      45.616  28.054  27.881  1.00  0.00     0.024 A 
ATOM     22  C   UNL A   1      43.648  27.476  25.969  1.00  0.00     0.002 A 
ATOM     23  C   UNL A   1      44.672  29.017  27.515  1.00  0.00     0.018 A 
ATOM     24  C   UNL A   1      43.689  28.734  26.565  1.00  0.00     0.016 A 
ATOM     25  Br  UNL A   1      44.694  30.712  28.352  1.00  0.00    -0.051 Br
ENDBRANCH   7  19
ENDBRANCH   4   7
ENDBRANCH   2   3
ENDBRANCH   1   2
BRANCH   1  26
ATOM     26  C   UNL A   1      41.982  22.105  27.903  1.00  0.00     0.023 C 
BRANCH  26  27
ATOM     27  C   UNL A   1      41.788  22.456  26.430  1.00  0.00     0.116 C 
BRANCH  27  28
ATOM     28  N   UNL A   1      40.415  22.298  25.981  1.00  0.00    -0.352 N 
ATOM     29  C   UNL A   1      39.336  23.120  26.193  1.00  0.00     0.251 C 
ATOM     30  H   UNL A   1      40.233  21.488  25.450  1.00  0.00     0.163 HD
ATOM     31  O   UNL A   1      38.218  22.776  25.825  1.00  0.00    -0.269 OA
BRANCH  29  32
ATOM     32  C   UNL A   1      39.520  24.402  26.905  1.00  0.00     0.039 A 
ATOM     33  C   UNL A   1      39.038  24.517  28.212  1.00  0.00     0.014 A 
ATOM     34  C   UNL A   1      40.175  25.475  26.297  1.00  0.00     0.014 A 
ATOM     35  C   UNL A   1      39.278  25.685  28.936  1.00  0.00     0.010 A 
ATOM     36  C   UNL A   1      40.463  26.617  27.038  1.00  0.00     0.010 A 
ATOM     37  C   UNL A   1      40.026  26.729  28.367  1.00  0.00    -0.014 A 
BRANCH  37  38
ATOM     38  C   UNL A   1      40.385  27.932  29.158  1.00  0.00     0.031 A 
ATOM     39  C   UNL A   1      41.693  27.993  29.895  1.00  0.00     0.074 A 
ATOM     40  C   UNL A   1      39.497  28.937  29.270  1.00  0.00     0.049 A 
ATOM     41  N   UNL A   1      42.147  28.927  30.692  1.00  0.00    -0.248 NA
ATOM     42  C   UNL A   1      42.599  26.846  29.734  1.00  0.00     0.031 C 
ATOM     43  C   UNL A   1      38.174  28.972  28.643  1.00  0.00     0.029 A 
ATOM     44  N   UNL A   1      39.567  30.120  29.963  1.00  0.00    -0.354 N 
ATOM     45  C   UNL A   1      43.381  28.474  31.139  1.00  0.00     0.074 A 
ATOM     46  C   UNL A   1      43.586  27.164  30.559  1.00  0.00     0.031 C 
ATOM     47  C   UNL A   1      37.566  30.125  28.965  1.00  0.00     0.029 A 
ATOM     48  C   UNL A   1      38.439  30.894  29.845  1.00  0.00     0.049 A 
ATOM     49  H   UNL A   1      40.352  30.387  30.494  1.00  0.00     0.167 HD
ATOM     50  C   UNL A   1      44.270  29.101  31.945  1.00  0.00     0.037 A 
ATOM     51  C   UNL A   1      38.141  32.088  30.390  1.00  0.00     0.037 A 
ATOM     52  C   UNL A   1      44.077  30.415  32.499  1.00  0.00     0.049 A 
ATOM     53  C   UNL A   1      39.148  32.765  31.277  1.00  0.00     0.074 A 
ATOM     54  C   UNL A   1      44.949  31.163  33.272  1.00  0.00     0.029 A 
ATOM     55  N   UNL A   1      42.930  31.179  32.339  1.00  0.00    -0.354 N 
ATOM     56  N   UNL A   1      40.339  32.354  31.636  1.00  0.00    -0.248 NA
ATOM     57  C   UNL A   1      38.770  34.073  31.829  1.00  0.00     0.031 C 
ATOM     58  C   UNL A   1      44.316  32.363  33.609  1.00  0.00     0.029 A 
ATOM     59  C   UNL A   1      43.064  32.381  33.014  1.00  0.00     0.049 A 
ATOM     60  H   UNL A   1      42.138  30.907  31.822  1.00  0.00     0.167 HD
ATOM     61  C   UNL A   1      40.863  33.362  32.434  1.00  0.00     0.074 A 
ATOM     62  C   UNL A   1      39.864  34.409  32.496  1.00  0.00     0.031 C 
ATOM     63  C   UNL A   1      42.064  33.415  33.060  1.00  0.00     0.037 A 
BRANCH  50  64
ATOM     64  C   UNL A   1      45.540  28.373  32.273  1.00  0.00     0.057 A 
ATOM     65  C   UNL A   1      45.588  27.390  33.270  1.00  0.00     0.134 A 
ATOM     66  C   UNL A   1      46.717  28.628  31.558  1.00  0.00     0.134 A 
ATOM     67  F   UNL A   1      44.498  27.107  33.999  1.00  0.00    -0.206 F 
ATOM     68  C   UNL A   1      46.767  26.701  33.560  1.00  0.00     0.040 A 
ATOM     69  C   UNL A   1      47.895  27.929  31.822  1.00  0.00     0.040 A 
ATOM     70  F   UNL A   1      46.737  29.553  30.587  1.00  0.00    -0.206 F 
ATOM     71  C   UNL A   1      47.925  26.966  32.829  1.00  0.00     0.006 A 
ENDBRANCH  50  64
BRANCH  51  72
ATOM     72  C   UNL A   1      36.839  32.735  30.094  1.00  0.00     0.057 A 
ATOM     73  C   UNL A   1      35.716  32.488  30.891  1.00  0.00     0.134 A 
ATOM     74  C   UNL A   1      36.683  33.605  29.008  1.00  0.00     0.134 A 
ATOM     75  F   UNL A   1      35.799  31.649  31.933  1.00  0.00    -0.206 F 
ATOM     76  C   UNL A   1      34.478  33.068  30.609  1.00  0.00     0.040 A 
ATOM     77  C   UNL A   1      35.456  34.209  28.728  1.00  0.00     0.040 A 
ATOM     78  F   UNL A   1      37.724  33.888  28.212  1.00  0.00    -0.206 F 
ATOM     79  C   UNL A   1      34.347  33.935  29.527  1.00  0.00     0.006 A 
ENDBRANCH  51  72
BRANCH  63  80
ATOM     80  C   UNL A   1      42.375  34.659  33.838  1.00  0.00     0.057 A 
ATOM     81  C   UNL A   1      42.944  35.785  33.231  1.00  0.00     0.134 A 
ATOM     82  C   UNL A   1      42.069  34.741  35.202  1.00  0.00     0.134 A 
ATOM     83  F   UNL A   1      43.273  35.763  31.931  1.00  0.00    -0.206 F 
ATOM     84  C   UNL A   1      43.215  36.945  33.959  1.00  0.00     0.040 A 
ATOM     85  C   UNL A   1      42.315  35.902  35.935  1.00  0.00     0.040 A 
ATOM     86  F   UNL A   1      41.517  33.698  35.840  1.00  0.00    -0.206 F 
ATOM     87  C   UNL A   1      42.894  37.007  35.314  1.00  0.00     0.006 A 
ENDBRANCH  63  80
ENDBRANCH  37  38
ENDBRANCH  29  32
ENDBRANCH  27  28
ENDBRANCH  26  27
ENDBRANCH   1  26
TORSDOF 14
ENDMDL
