MODEL 1
REMARK VINA RESULT:     -12.7      0.000      0.000
REMARK SMILES O=C(NCCCCNC(=O)c1cccc(COc2ccccc2C=C2C(=O)c3ccccc3C2=O)c1)c1ccc(-c2c3nc(c(-c4c(F)cccc4F)c4ccc([nH]4)c(-c4c(F)cccc4F)c4nc(c(-c5c(F)cccc5F)c5ccc2[nH]5)C=C4)C=C3)cc1
REMARK SMILES IDX 6 1 5 2 4 3 3 4 1 5 2 6 37 8 38 9 90 10 39 11 89 12 40 13
REMARK SMILES IDX 41 14 42 15 83 16 43 17 88 18 82 19 84 20 44 21 87 22 81 23
REMARK SMILES IDX 80 24 45 26 71 27 54 28 70 29 55 30 58 31 69 32 85 33 56 34
REMARK SMILES IDX 57 35 68 37 86 38 59 39 46 40 47 41 52 42 48 43 49 44 51 45
REMARK SMILES IDX 53 46 50 47 72 48 73 49 78 50 74 51 75 52 77 53 79 54 76 55
REMARK SMILES IDX 60 56 61 57 66 58 62 59 63 60 65 61 67 62 64 63 7 64 8 65
REMARK SMILES IDX 9 66 10 68 11 69 12 70 36 71 13 72 15 73 14 74 16 75 17 76
REMARK SMILES IDX 18 77 19 78 23 79 20 80 22 81 21 82 24 83 25 84 26 85 34 86
REMARK SMILES IDX 27 87 28 88 33 89 35 90 29 91 32 92 30 93 31 94
REMARK H PARENT 3 7 84 25 58 36 8 67
REMARK Flexibility Score: inf
ROOT
ATOM      1  C   UNL A   1      38.585  22.222  26.412  1.00  0.00     0.023 C 
ENDROOT
BRANCH   1   2
ATOM      2  C   UNL A   1      39.886  21.716  25.798  1.00  0.00     0.023 C 
BRANCH   2   3
ATOM      3  C   UNL A   1      41.144  22.221  26.486  1.00  0.00     0.116 C 
BRANCH   3   4
ATOM      4  N   UNL A   1      42.180  22.646  25.552  1.00  0.00    -0.352 N 
ATOM      5  O   UNL A   1      43.660  24.089  24.627  1.00  0.00    -0.269 OA
ATOM      6  C   UNL A   1      42.893  23.821  25.543  1.00  0.00     0.251 C 
ATOM      7  H   UNL A   1      42.398  22.006  24.835  1.00  0.00     0.163 HD
BRANCH   6   8
ATOM      8  C   UNL A   1      42.683  24.772  26.650  1.00  0.00     0.039 A 
ATOM      9  C   UNL A   1      41.874  24.404  27.725  1.00  0.00     0.014 A 
ATOM     10  C   UNL A   1      43.221  26.059  26.565  1.00  0.00     0.014 A 
ATOM     11  C   UNL A   1      41.454  25.376  28.617  1.00  0.00     0.010 A 
ATOM     12  C   UNL A   1      42.889  27.005  27.537  1.00  0.00     0.010 A 
ATOM     13  C   UNL A   1      41.974  26.680  28.550  1.00  0.00    -0.014 A 
BRANCH  13  14
ATOM     14  C   UNL A   1      41.588  27.643  29.611  1.00  0.00     0.031 A 
ATOM     15  C   UNL A   1      40.403  28.555  29.462  1.00  0.00     0.074 A 
ATOM     16  C   UNL A   1      42.294  27.625  30.758  1.00  0.00     0.049 A 
ATOM     17  N   UNL A   1      39.904  29.397  30.332  1.00  0.00    -0.248 NA
ATOM     18  C   UNL A   1      39.689  28.530  28.175  1.00  0.00     0.031 C 
ATOM     19  C   UNL A   1      43.478  26.794  31.000  1.00  0.00     0.029 A 
ATOM     20  N   UNL A   1      42.106  28.283  31.942  1.00  0.00    -0.354 N 
ATOM     21  C   UNL A   1      38.830  30.009  29.699  1.00  0.00     0.074 A 
ATOM     22  C   UNL A   1      38.766  29.464  28.359  1.00  0.00     0.031 C 
ATOM     23  C   UNL A   1      43.865  26.936  32.274  1.00  0.00     0.029 A 
ATOM     24  C   UNL A   1      43.008  27.925  32.915  1.00  0.00     0.049 A 
ATOM     25  H   UNL A   1      41.395  28.949  32.084  1.00  0.00     0.167 HD
ATOM     26  C   UNL A   1      37.975  30.935  30.197  1.00  0.00     0.037 A 
ATOM     27  C   UNL A   1      43.144  28.354  34.180  1.00  0.00     0.037 A 
ATOM     28  C   UNL A   1      38.044  31.466  31.536  1.00  0.00     0.049 A 
ATOM     29  C   UNL A   1      42.182  29.378  34.701  1.00  0.00     0.074 A 
ATOM     30  C   UNL A   1      37.224  32.406  32.137  1.00  0.00     0.029 A 
ATOM     31  N   UNL A   1      38.990  31.101  32.483  1.00  0.00    -0.354 N 
ATOM     32  N   UNL A   1      41.166  29.940  34.092  1.00  0.00    -0.248 NA
ATOM     33  C   UNL A   1      42.387  29.833  36.081  1.00  0.00     0.031 C 
ATOM     34  C   UNL A   1      37.694  32.634  33.434  1.00  0.00     0.029 A 
ATOM     35  C   UNL A   1      38.780  31.804  33.660  1.00  0.00     0.049 A 
ATOM     36  H   UNL A   1      39.706  30.439  32.341  1.00  0.00     0.167 HD
ATOM     37  C   UNL A   1      40.609  30.812  35.013  1.00  0.00     0.074 A 
ATOM     38  C   UNL A   1      41.377  30.676  36.235  1.00  0.00     0.031 C 
ATOM     39  C   UNL A   1      39.563  31.661  34.859  1.00  0.00     0.037 A 
BRANCH  26  40
ATOM     40  C   UNL A   1      36.889  31.443  29.291  1.00  0.00     0.057 A 
ATOM     41  C   UNL A   1      35.766  30.667  28.977  1.00  0.00     0.134 A 
ATOM     42  C   UNL A   1      36.935  32.745  28.777  1.00  0.00     0.134 A 
ATOM     43  F   UNL A   1      35.663  29.406  29.428  1.00  0.00    -0.206 F 
ATOM     44  C   UNL A   1      34.736  31.162  28.173  1.00  0.00     0.040 A 
ATOM     45  C   UNL A   1      35.901  33.260  27.993  1.00  0.00     0.040 A 
ATOM     46  F   UNL A   1      37.978  33.547  29.043  1.00  0.00    -0.206 F 
ATOM     47  C   UNL A   1      34.798  32.466  27.686  1.00  0.00     0.006 A 
ENDBRANCH  26  40
BRANCH  27  48
ATOM     48  C   UNL A   1      44.246  27.829  35.023  1.00  0.00     0.057 A 
ATOM     49  C   UNL A   1      45.506  28.435  35.040  1.00  0.00     0.134 A 
ATOM     50  C   UNL A   1      44.056  26.710  35.845  1.00  0.00     0.134 A 
ATOM     51  F   UNL A   1      45.754  29.501  34.265  1.00  0.00    -0.206 F 
ATOM     52  C   UNL A   1      46.544  27.938  35.829  1.00  0.00     0.040 A 
ATOM     53  C   UNL A   1      45.074  26.222  36.663  1.00  0.00     0.040 A 
ATOM     54  F   UNL A   1      42.866  26.091  35.884  1.00  0.00    -0.206 F 
ATOM     55  C   UNL A   1      46.326  26.832  36.650  1.00  0.00     0.006 A 
ENDBRANCH  27  48
BRANCH  39  56
ATOM     56  C   UNL A   1      39.196  32.492  36.053  1.00  0.00     0.057 A 
ATOM     57  C   UNL A   1      38.323  32.016  37.039  1.00  0.00     0.134 A 
ATOM     58  C   UNL A   1      39.716  33.782  36.213  1.00  0.00     0.134 A 
ATOM     59  F   UNL A   1      37.778  30.794  36.933  1.00  0.00    -0.206 F 
ATOM     60  C   UNL A   1      37.951  32.809  38.125  1.00  0.00     0.040 A 
ATOM     61  C   UNL A   1      39.373  34.574  37.310  1.00  0.00     0.040 A 
ATOM     62  F   UNL A   1      40.563  34.294  35.307  1.00  0.00    -0.206 F 
ATOM     63  C   UNL A   1      38.479  34.091  38.264  1.00  0.00     0.006 A 
ENDBRANCH  39  56
ENDBRANCH  13  14
ENDBRANCH   6   8
ENDBRANCH   3   4
ENDBRANCH   2   3
ENDBRANCH   1   2
BRANCH   1  64
ATOM     64  C   UNL A   1      38.155  23.593  25.904  1.00  0.00     0.116 C 
BRANCH  64  65
ATOM     65  N   UNL A   1      37.688  23.520  24.529  1.00  0.00    -0.352 N 
ATOM     66  C   UNL A   1      36.388  23.452  24.101  1.00  0.00     0.251 C 
ATOM     67  H   UNL A   1      38.381  23.518  23.830  1.00  0.00     0.163 HD
ATOM     68  O   UNL A   1      36.100  23.206  22.937  1.00  0.00    -0.269 OA
BRANCH  66  69
ATOM     69  C   UNL A   1      35.337  23.746  25.082  1.00  0.00     0.040 A 
ATOM     70  C   UNL A   1      34.883  22.758  25.954  1.00  0.00     0.014 A 
ATOM     71  C   UNL A   1      34.781  25.028  25.084  1.00  0.00     0.021 A 
ATOM     72  C   UNL A   1      33.888  23.075  26.875  1.00  0.00     0.001 A 
ATOM     73  C   UNL A   1      33.762  25.336  25.982  1.00  0.00    -0.010 A 
ATOM     74  C   UNL A   1      33.337  24.359  26.896  1.00  0.00     0.007 A 
BRANCH  73  75
ATOM     75  C   UNL A   1      33.014  26.632  25.839  1.00  0.00     0.265 C 
BRANCH  75  76
ATOM     76  O   UNL A   1      33.416  27.201  24.590  1.00  0.00    -0.488 OA
BRANCH  76  77
ATOM     77  C   UNL A   1      32.376  27.770  23.898  1.00  0.00     0.127 A 
ATOM     78  C   UNL A   1      31.863  28.967  24.412  1.00  0.00     0.047 A 
ATOM     79  C   UNL A   1      31.739  27.101  22.835  1.00  0.00     0.017 A 
ATOM     80  C   UNL A   1      30.687  29.504  23.895  1.00  0.00     0.004 A 
ATOM     81  C   UNL A   1      30.520  27.630  22.383  1.00  0.00     0.012 A 
ATOM     82  C   UNL A   1      30.005  28.824  22.892  1.00  0.00     0.001 A 
BRANCH  79  83
ATOM     83  C   UNL A   1      32.234  25.829  22.265  1.00  0.00     0.028 C 
ATOM     84  C   UNL A   1      32.013  24.587  22.735  1.00  0.00     0.071 C 
ATOM     85  C   UNL A   1      31.194  24.131  23.895  1.00  0.00     0.197 C 
ATOM     86  C   UNL A   1      32.711  23.389  22.175  1.00  0.00     0.197 C 
ATOM     87  O   UNL A   1      30.377  24.742  24.555  1.00  0.00    -0.288 OA
ATOM     88  C   UNL A   1      31.575  22.736  24.123  1.00  0.00     0.034 A 
ATOM     89  C   UNL A   1      32.423  22.293  23.115  1.00  0.00     0.034 A 
ATOM     90  O   UNL A   1      33.445  23.326  21.209  1.00  0.00    -0.288 OA
ATOM     91  C   UNL A   1      31.237  21.934  25.201  1.00  0.00     0.013 A 
ATOM     92  C   UNL A   1      32.947  21.012  23.129  1.00  0.00     0.013 A 
ATOM     93  C   UNL A   1      31.778  20.647  25.244  1.00  0.00     0.001 A 
ATOM     94  C   UNL A   1      32.618  20.186  24.211  1.00  0.00     0.001 A 
ENDBRANCH  79  83
ENDBRANCH  76  77
ENDBRANCH  75  76
ENDBRANCH  73  75
ENDBRANCH  66  69
ENDBRANCH  64  65
ENDBRANCH   1  64
TORSDOF 15
ENDMDL
MODEL 2
REMARK VINA RESULT:     -12.3      2.850      8.290
REMARK SMILES O=C(NCCCCNC(=O)c1cccc(COc2ccccc2C=C2C(=O)c3ccccc3C2=O)c1)c1ccc(-c2c3nc(c(-c4c(F)cccc4F)c4ccc([nH]4)c(-c4c(F)cccc4F)c4nc(c(-c5c(F)cccc5F)c5ccc2[nH]5)C=C4)C=C3)cc1
REMARK SMILES IDX 6 1 5 2 4 3 3 4 1 5 2 6 37 8 38 9 90 10 39 11 89 12 40 13
REMARK SMILES IDX 41 14 42 15 83 16 43 17 88 18 82 19 84 20 44 21 87 22 81 23
REMARK SMILES IDX 80 24 45 26 71 27 54 28 70 29 55 30 58 31 69 32 85 33 56 34
REMARK SMILES IDX 57 35 68 37 86 38 59 39 46 40 47 41 52 42 48 43 49 44 51 45
REMARK SMILES IDX 53 46 50 47 72 48 73 49 78 50 74 51 75 52 77 53 79 54 76 55
REMARK SMILES IDX 60 56 61 57 66 58 62 59 63 60 65 61 67 62 64 63 7 64 8 65
REMARK SMILES IDX 9 66 10 68 11 69 12 70 36 71 13 72 15 73 14 74 16 75 17 76
REMARK SMILES IDX 18 77 19 78 23 79 20 80 22 81 21 82 24 83 25 84 26 85 34 86
REMARK SMILES IDX 27 87 28 88 33 89 35 90 29 91 32 92 30 93 31 94
REMARK H PARENT 3 7 84 25 58 36 8 67
REMARK Flexibility Score: inf
ROOT
ATOM      1  C   UNL A   1      34.106  30.580  26.938  1.00  0.00     0.023 C 
ENDROOT
BRANCH   1   2
ATOM      2  C   UNL A   1      33.230  31.590  27.670  1.00  0.00     0.023 C 
BRANCH   2   3
ATOM      3  C   UNL A   1      33.347  33.015  27.154  1.00  0.00     0.116 C 
BRANCH   3   4
ATOM      4  N   UNL A   1      32.754  34.002  28.048  1.00  0.00    -0.352 N 
ATOM      5  O   UNL A   1      32.575  35.225  29.946  1.00  0.00    -0.269 OA
ATOM      6  C   UNL A   1      33.240  34.471  29.245  1.00  0.00     0.251 C 
ATOM      7  H   UNL A   1      31.894  34.383  27.755  1.00  0.00     0.163 HD
BRANCH   6   8
ATOM      8  C   UNL A   1      34.571  34.015  29.685  1.00  0.00     0.039 A 
ATOM      9  C   UNL A   1      35.702  34.421  28.977  1.00  0.00     0.014 A 
ATOM     10  C   UNL A   1      34.675  33.112  30.746  1.00  0.00     0.014 A 
ATOM     11  C   UNL A   1      36.909  33.784  29.212  1.00  0.00     0.010 A 
ATOM     12  C   UNL A   1      35.920  32.561  31.056  1.00  0.00     0.010 A 
ATOM     13  C   UNL A   1      37.039  32.866  30.268  1.00  0.00    -0.014 A 
BRANCH  13  14
ATOM     14  C   UNL A   1      38.387  32.313  30.553  1.00  0.00     0.031 A 
ATOM     15  C   UNL A   1      39.314  32.956  31.545  1.00  0.00     0.074 A 
ATOM     16  C   UNL A   1      38.730  31.162  29.945  1.00  0.00     0.049 A 
ATOM     17  N   UNL A   1      40.491  32.547  31.948  1.00  0.00    -0.248 NA
ATOM     18  C   UNL A   1      38.876  34.220  32.159  1.00  0.00     0.031 C 
ATOM     19  C   UNL A   1      37.913  30.465  28.947  1.00  0.00     0.029 A 
ATOM     20  N   UNL A   1      39.824  30.354  30.098  1.00  0.00    -0.354 N 
ATOM     21  C   UNL A   1      40.940  33.504  32.850  1.00  0.00     0.074 A 
ATOM     22  C   UNL A   1      39.921  34.532  32.914  1.00  0.00     0.031 C 
ATOM     23  C   UNL A   1      38.496  29.301  28.632  1.00  0.00     0.029 A 
ATOM     24  C   UNL A   1      39.764  29.206  29.345  1.00  0.00     0.049 A 
ATOM     25  H   UNL A   1      40.580  30.573  30.690  1.00  0.00     0.167 HD
ATOM     26  C   UNL A   1      42.093  33.516  33.562  1.00  0.00     0.037 A 
ATOM     27  C   UNL A   1      40.638  28.193  29.226  1.00  0.00     0.037 A 
ATOM     28  C   UNL A   1      43.097  32.483  33.496  1.00  0.00     0.049 A 
ATOM     29  C   UNL A   1      41.903  28.235  30.028  1.00  0.00     0.074 A 
ATOM     30  C   UNL A   1      44.299  32.400  34.179  1.00  0.00     0.029 A 
ATOM     31  N   UNL A   1      43.015  31.350  32.699  1.00  0.00    -0.354 N 
ATOM     32  N   UNL A   1      42.307  29.143  30.882  1.00  0.00    -0.248 NA
ATOM     33  C   UNL A   1      42.836  27.118  29.844  1.00  0.00     0.031 C 
ATOM     34  C   UNL A   1      44.959  31.237  33.769  1.00  0.00     0.029 A 
ATOM     35  C   UNL A   1      44.149  30.568  32.866  1.00  0.00     0.049 A 
ATOM     36  H   UNL A   1      42.262  31.132  32.103  1.00  0.00     0.167 HD
ATOM     37  C   UNL A   1      43.540  28.707  31.341  1.00  0.00     0.074 A 
ATOM     38  C   UNL A   1      43.798  27.434  30.699  1.00  0.00     0.031 C 
ATOM     39  C   UNL A   1      44.390  29.311  32.207  1.00  0.00     0.037 A 
BRANCH  26  40
ATOM     40  C   UNL A   1      42.340  34.684  34.474  1.00  0.00     0.057 A 
ATOM     41  C   UNL A   1      42.011  34.641  35.835  1.00  0.00     0.134 A 
ATOM     42  C   UNL A   1      42.972  35.841  34.001  1.00  0.00     0.134 A 
ATOM     43  F   UNL A   1      41.395  33.566  36.351  1.00  0.00    -0.206 F 
ATOM     44  C   UNL A   1      42.288  35.712  36.688  1.00  0.00     0.040 A 
ATOM     45  C   UNL A   1      43.275  36.909  34.849  1.00  0.00     0.040 A 
ATOM     46  F   UNL A   1      43.321  35.948  32.710  1.00  0.00    -0.206 F 
ATOM     47  C   UNL A   1      42.930  36.847  36.197  1.00  0.00     0.006 A 
ENDBRANCH  26  40
BRANCH  27  48
ATOM     48  C   UNL A   1      40.347  27.073  28.297  1.00  0.00     0.057 A 
ATOM     49  C   UNL A   1      39.489  26.029  28.657  1.00  0.00     0.134 A 
ATOM     50  C   UNL A   1      40.913  27.032  27.016  1.00  0.00     0.134 A 
ATOM     51  F   UNL A   1      38.927  26.006  29.875  1.00  0.00    -0.206 F 
ATOM     52  C   UNL A   1      39.219  24.974  27.785  1.00  0.00     0.040 A 
ATOM     53  C   UNL A   1      40.625  26.002  26.123  1.00  0.00     0.040 A 
ATOM     54  F   UNL A   1      41.733  28.011  26.605  1.00  0.00    -0.206 F 
ATOM     55  C   UNL A   1      39.782  24.963  26.510  1.00  0.00     0.006 A 
ENDBRANCH  27  48
BRANCH  39  56
ATOM     56  C   UNL A   1      45.668  28.584  32.506  1.00  0.00     0.057 A 
ATOM     57  C   UNL A   1      45.758  27.656  33.551  1.00  0.00     0.134 A 
ATOM     58  C   UNL A   1      46.819  28.821  31.746  1.00  0.00     0.134 A 
ATOM     59  F   UNL A   1      44.693  27.399  34.326  1.00  0.00    -0.206 F 
ATOM     60  C   UNL A   1      46.959  27.014  33.853  1.00  0.00     0.040 A 
ATOM     61  C   UNL A   1      48.020  28.164  32.021  1.00  0.00     0.040 A 
ATOM     62  F   UNL A   1      46.798  29.693  30.727  1.00  0.00    -0.206 F 
ATOM     63  C   UNL A   1      48.094  27.266  33.084  1.00  0.00     0.006 A 
ENDBRANCH  39  56
ENDBRANCH  13  14
ENDBRANCH   6   8
ENDBRANCH   3   4
ENDBRANCH   2   3
ENDBRANCH   1   2
BRANCH   1  64
ATOM     64  C   UNL A   1      34.192  29.224  27.629  1.00  0.00     0.116 C 
BRANCH  64  65
ATOM     65  N   UNL A   1      32.868  28.683  27.888  1.00  0.00    -0.352 N 
ATOM     66  C   UNL A   1      32.223  27.703  27.181  1.00  0.00     0.251 C 
ATOM     67  H   UNL A   1      32.381  29.064  28.655  1.00  0.00     0.163 HD
ATOM     68  O   UNL A   1      31.038  27.446  27.360  1.00  0.00    -0.269 OA
BRANCH  66  69
ATOM     69  C   UNL A   1      33.020  26.920  26.230  1.00  0.00     0.040 A 
ATOM     70  C   UNL A   1      33.278  27.406  24.950  1.00  0.00     0.014 A 
ATOM     71  C   UNL A   1      33.470  25.661  26.633  1.00  0.00     0.021 A 
ATOM     72  C   UNL A   1      34.042  26.637  24.076  1.00  0.00     0.001 A 
ATOM     73  C   UNL A   1      34.207  24.876  25.749  1.00  0.00    -0.010 A 
ATOM     74  C   UNL A   1      34.513  25.383  24.476  1.00  0.00     0.007 A 
BRANCH  73  75
ATOM     75  C   UNL A   1      34.501  23.444  26.095  1.00  0.00     0.265 C 
BRANCH  75  76
ATOM     76  O   UNL A   1      34.465  22.710  24.867  1.00  0.00    -0.488 OA
BRANCH  76  77
ATOM     77  C   UNL A   1      33.994  21.430  25.019  1.00  0.00     0.127 A 
ATOM     78  C   UNL A   1      34.879  20.394  24.693  1.00  0.00     0.047 A 
ATOM     79  C   UNL A   1      32.642  21.167  25.313  1.00  0.00     0.017 A 
ATOM     80  C   UNL A   1      34.424  19.081  24.624  1.00  0.00     0.004 A 
ATOM     81  C   UNL A   1      32.199  19.843  25.167  1.00  0.00     0.012 A 
ATOM     82  C   UNL A   1      33.078  18.808  24.843  1.00  0.00     0.001 A 
BRANCH  79  83
ATOM     83  C   UNL A   1      31.666  22.226  25.651  1.00  0.00     0.028 C 
ATOM     84  C   UNL A   1      31.235  23.220  24.852  1.00  0.00     0.071 C 
ATOM     85  C   UNL A   1      31.559  23.514  23.427  1.00  0.00     0.197 C 
ATOM     86  C   UNL A   1      30.379  24.335  25.362  1.00  0.00     0.197 C 
ATOM     87  O   UNL A   1      32.116  22.821  22.599  1.00  0.00    -0.288 OA
ATOM     88  C   UNL A   1      31.070  24.873  23.183  1.00  0.00     0.034 A 
ATOM     89  C   UNL A   1      30.360  25.337  24.284  1.00  0.00     0.034 A 
ATOM     90  O   UNL A   1      29.876  24.459  26.461  1.00  0.00    -0.288 OA
ATOM     91  C   UNL A   1      31.303  25.668  22.073  1.00  0.00     0.013 A 
ATOM     92  C   UNL A   1      29.824  26.614  24.306  1.00  0.00     0.013 A 
ATOM     93  C   UNL A   1      30.792  26.967  22.089  1.00  0.00     0.001 A 
ATOM     94  C   UNL A   1      30.050  27.433  23.193  1.00  0.00     0.001 A 
ENDBRANCH  79  83
ENDBRANCH  76  77
ENDBRANCH  75  76
ENDBRANCH  73  75
ENDBRANCH  66  69
ENDBRANCH  64  65
ENDBRANCH   1  64
TORSDOF 15
ENDMDL
MODEL 3
REMARK VINA RESULT:     -12.3      2.921      8.927
REMARK SMILES O=C(NCCCCNC(=O)c1cccc(COc2ccccc2C=C2C(=O)c3ccccc3C2=O)c1)c1ccc(-c2c3nc(c(-c4c(F)cccc4F)c4ccc([nH]4)c(-c4c(F)cccc4F)c4nc(c(-c5c(F)cccc5F)c5ccc2[nH]5)C=C4)C=C3)cc1
REMARK SMILES IDX 6 1 5 2 4 3 3 4 1 5 2 6 37 8 38 9 90 10 39 11 89 12 40 13
REMARK SMILES IDX 41 14 42 15 83 16 43 17 88 18 82 19 84 20 44 21 87 22 81 23
REMARK SMILES IDX 80 24 45 26 71 27 54 28 70 29 55 30 58 31 69 32 85 33 56 34
REMARK SMILES IDX 57 35 68 37 86 38 59 39 46 40 47 41 52 42 48 43 49 44 51 45
REMARK SMILES IDX 53 46 50 47 72 48 73 49 78 50 74 51 75 52 77 53 79 54 76 55
REMARK SMILES IDX 60 56 61 57 66 58 62 59 63 60 65 61 67 62 64 63 7 64 8 65
REMARK SMILES IDX 9 66 10 68 11 69 12 70 36 71 13 72 15 73 14 74 16 75 17 76
REMARK SMILES IDX 18 77 19 78 23 79 20 80 22 81 21 82 24 83 25 84 26 85 34 86
REMARK SMILES IDX 27 87 28 88 33 89 35 90 29 91 32 92 30 93 31 94
REMARK H PARENT 3 7 84 25 58 36 8 67
REMARK Flexibility Score: inf
ROOT
ATOM      1  C   UNL A   1      34.259  33.444  28.923  1.00  0.00     0.023 C 
ENDROOT
BRANCH   1   2
ATOM      2  C   UNL A   1      33.207  34.543  28.826  1.00  0.00     0.023 C 
BRANCH   2   3
ATOM      3  C   UNL A   1      33.507  35.777  29.661  1.00  0.00     0.116 C 
BRANCH   3   4
ATOM      4  N   UNL A   1      32.519  36.021  30.705  1.00  0.00    -0.352 N 
ATOM      5  O   UNL A   1      31.607  35.830  32.769  1.00  0.00    -0.269 OA
ATOM      6  C   UNL A   1      32.566  35.652  32.028  1.00  0.00     0.251 C 
ATOM      7  H   UNL A   1      31.714  36.515  30.425  1.00  0.00     0.163 HD
BRANCH   6   8
ATOM      8  C   UNL A   1      33.791  35.000  32.528  1.00  0.00     0.039 A 
ATOM      9  C   UNL A   1      35.000  35.695  32.491  1.00  0.00     0.014 A 
ATOM     10  C   UNL A   1      33.742  33.669  32.947  1.00  0.00     0.014 A 
ATOM     11  C   UNL A   1      36.181  35.004  32.695  1.00  0.00     0.010 A 
ATOM     12  C   UNL A   1      34.930  33.008  33.268  1.00  0.00     0.010 A 
ATOM     13  C   UNL A   1      36.161  33.661  33.110  1.00  0.00    -0.014 A 
BRANCH  13  14
ATOM     14  C   UNL A   1      37.454  33.011  33.440  1.00  0.00     0.031 A 
ATOM     15  C   UNL A   1      38.159  33.262  34.742  1.00  0.00     0.074 A 
ATOM     16  C   UNL A   1      37.946  32.118  32.559  1.00  0.00     0.049 A 
ATOM     17  N   UNL A   1      39.257  32.712  35.197  1.00  0.00    -0.248 NA
ATOM     18  C   UNL A   1      37.569  34.261  35.648  1.00  0.00     0.031 C 
ATOM     19  C   UNL A   1      37.352  31.815  31.253  1.00  0.00     0.029 A 
ATOM     20  N   UNL A   1      39.023  31.277  32.635  1.00  0.00    -0.354 N 
ATOM     21  C   UNL A   1      39.497  33.303  36.432  1.00  0.00     0.074 A 
ATOM     22  C   UNL A   1      38.446  34.277  36.643  1.00  0.00     0.031 C 
ATOM     23  C   UNL A   1      38.027  30.807  30.684  1.00  0.00     0.029 A 
ATOM     24  C   UNL A   1      39.145  30.448  31.546  1.00  0.00     0.049 A 
ATOM     25  H   UNL A   1      39.649  31.268  33.394  1.00  0.00     0.167 HD
ATOM     26  C   UNL A   1      40.499  33.047  37.308  1.00  0.00     0.037 A 
ATOM     27  C   UNL A   1      40.063  29.510  31.262  1.00  0.00     0.037 A 
ATOM     28  C   UNL A   1      41.537  32.070  37.090  1.00  0.00     0.049 A 
ATOM     29  C   UNL A   1      41.158  29.251  32.251  1.00  0.00     0.074 A 
ATOM     30  C   UNL A   1      42.596  31.734  37.916  1.00  0.00     0.029 A 
ATOM     31  N   UNL A   1      41.644  31.268  35.962  1.00  0.00    -0.354 N 
ATOM     32  N   UNL A   1      41.365  29.812  33.418  1.00  0.00    -0.248 NA
ATOM     33  C   UNL A   1      42.151  28.234  31.884  1.00  0.00     0.031 C 
ATOM     34  C   UNL A   1      43.363  30.757  37.274  1.00  0.00     0.029 A 
ATOM     35  C   UNL A   1      42.758  30.447  36.066  1.00  0.00     0.049 A 
ATOM     36  H   UNL A   1      41.022  31.281  35.198  1.00  0.00     0.167 HD
ATOM     37  C   UNL A   1      42.508  29.216  33.926  1.00  0.00     0.074 A 
ATOM     38  C   UNL A   1      42.927  28.223  32.957  1.00  0.00     0.031 C 
ATOM     39  C   UNL A   1      43.163  29.475  35.085  1.00  0.00     0.037 A 
BRANCH  26  40
ATOM     40  C   UNL A   1      40.531  33.839  38.584  1.00  0.00     0.057 A 
ATOM     41  C   UNL A   1      41.320  34.989  38.720  1.00  0.00     0.134 A 
ATOM     42  C   UNL A   1      39.719  33.484  39.668  1.00  0.00     0.134 A 
ATOM     43  F   UNL A   1      42.130  35.379  37.723  1.00  0.00    -0.206 F 
ATOM     44  C   UNL A   1      41.310  35.748  39.892  1.00  0.00     0.040 A 
ATOM     45  C   UNL A   1      39.682  34.249  40.837  1.00  0.00     0.040 A 
ATOM     46  F   UNL A   1      38.933  32.399  39.605  1.00  0.00    -0.206 F 
ATOM     47  C   UNL A   1      40.482  35.383  40.952  1.00  0.00     0.006 A 
ENDBRANCH  26  40
BRANCH  27  48
ATOM     48  C   UNL A   1      39.990  28.771  29.977  1.00  0.00     0.057 A 
ATOM     49  C   UNL A   1      39.279  27.573  29.864  1.00  0.00     0.134 A 
ATOM     50  C   UNL A   1      40.621  29.260  28.826  1.00  0.00     0.134 A 
ATOM     51  F   UNL A   1      38.664  27.047  30.933  1.00  0.00    -0.206 F 
ATOM     52  C   UNL A   1      39.213  26.876  28.656  1.00  0.00     0.040 A 
ATOM     53  C   UNL A   1      40.536  28.592  27.606  1.00  0.00     0.040 A 
ATOM     54  F   UNL A   1      41.308  30.412  28.866  1.00  0.00    -0.206 F 
ATOM     55  C   UNL A   1      39.837  27.390  27.521  1.00  0.00     0.006 A 
ENDBRANCH  27  48
BRANCH  39  56
ATOM     56  C   UNL A   1      44.390  28.658  35.357  1.00  0.00     0.057 A 
ATOM     57  C   UNL A   1      45.655  29.060  34.909  1.00  0.00     0.134 A 
ATOM     58  C   UNL A   1      44.304  27.454  36.066  1.00  0.00     0.134 A 
ATOM     59  F   UNL A   1      45.800  30.195  34.209  1.00  0.00    -0.206 F 
ATOM     60  C   UNL A   1      46.787  28.274  35.128  1.00  0.00     0.040 A 
ATOM     61  C   UNL A   1      45.434  26.673  36.314  1.00  0.00     0.040 A 
ATOM     62  F   UNL A   1      43.123  27.016  36.526  1.00  0.00    -0.206 F 
ATOM     63  C   UNL A   1      46.678  27.079  35.835  1.00  0.00     0.006 A 
ENDBRANCH  39  56
ENDBRANCH  13  14
ENDBRANCH   6   8
ENDBRANCH   3   4
ENDBRANCH   2   3
ENDBRANCH   1   2
BRANCH   1  64
ATOM     64  C   UNL A   1      34.159  32.396  27.821  1.00  0.00     0.116 C 
BRANCH  64  65
ATOM     65  N   UNL A   1      35.358  31.575  27.767  1.00  0.00    -0.352 N 
ATOM     66  C   UNL A   1      35.421  30.214  27.626  1.00  0.00     0.251 C 
ATOM     67  H   UNL A   1      36.218  32.049  27.841  1.00  0.00     0.163 HD
ATOM     68  O   UNL A   1      36.466  29.593  27.779  1.00  0.00    -0.269 OA
BRANCH  66  69
ATOM     69  C   UNL A   1      34.193  29.518  27.223  1.00  0.00     0.040 A 
ATOM     70  C   UNL A   1      32.956  30.151  27.314  1.00  0.00     0.014 A 
ATOM     71  C   UNL A   1      34.303  28.195  26.789  1.00  0.00     0.021 A 
ATOM     72  C   UNL A   1      31.813  29.461  26.918  1.00  0.00     0.001 A 
ATOM     73  C   UNL A   1      33.157  27.492  26.424  1.00  0.00    -0.010 A 
ATOM     74  C   UNL A   1      31.913  28.142  26.466  1.00  0.00     0.007 A 
BRANCH  73  75
ATOM     75  C   UNL A   1      33.242  26.013  26.171  1.00  0.00     0.265 C 
BRANCH  75  76
ATOM     76  O   UNL A   1      34.191  25.832  25.115  1.00  0.00    -0.488 OA
BRANCH  76  77
ATOM     77  C   UNL A   1      33.763  24.953  24.152  1.00  0.00     0.127 A 
ATOM     78  C   UNL A   1      34.159  23.619  24.301  1.00  0.00     0.047 A 
ATOM     79  C   UNL A   1      33.113  25.393  22.981  1.00  0.00     0.017 A 
ATOM     80  C   UNL A   1      33.942  22.705  23.274  1.00  0.00     0.004 A 
ATOM     81  C   UNL A   1      32.972  24.465  21.938  1.00  0.00     0.012 A 
ATOM     82  C   UNL A   1      33.365  23.134  22.084  1.00  0.00     0.001 A 
BRANCH  79  83
ATOM     83  C   UNL A   1      32.686  26.794  22.770  1.00  0.00     0.028 C 
ATOM     84  C   UNL A   1      31.483  27.329  23.053  1.00  0.00     0.071 C 
ATOM     85  C   UNL A   1      30.283  26.709  23.686  1.00  0.00     0.197 C 
ATOM     86  C   UNL A   1      31.111  28.715  22.634  1.00  0.00     0.197 C 
ATOM     87  O   UNL A   1      30.175  25.653  24.275  1.00  0.00    -0.288 OA
ATOM     88  C   UNL A   1      29.184  27.648  23.448  1.00  0.00     0.034 A 
ATOM     89  C   UNL A   1      29.662  28.819  22.872  1.00  0.00     0.034 A 
ATOM     90  O   UNL A   1      31.812  29.560  22.113  1.00  0.00    -0.288 OA
ATOM     91  C   UNL A   1      27.833  27.440  23.672  1.00  0.00     0.013 A 
ATOM     92  C   UNL A   1      28.805  29.849  22.523  1.00  0.00     0.013 A 
ATOM     93  C   UNL A   1      26.952  28.458  23.301  1.00  0.00     0.001 A 
ATOM     94  C   UNL A   1      27.435  29.657  22.740  1.00  0.00     0.001 A 
ENDBRANCH  79  83
ENDBRANCH  76  77
ENDBRANCH  75  76
ENDBRANCH  73  75
ENDBRANCH  66  69
ENDBRANCH  64  65
ENDBRANCH   1  64
TORSDOF 15
ENDMDL
