MODEL 1
REMARK VINA RESULT:     -11.9      0.000      0.000
REMARK SMILES CC[C@@H]1CC[C@](C[C@@H]2CCCc3ccccc32)(C(=O)NCCCCNC(=O)c2ccc(-c3c4nc(c(-c5c(F)cccc5F)c5ccc([nH]5)c(-c5c(F)cccc5F)c5nc(c(-c6c(F)cccc6F)c6ccc3[nH]6)C=C5)C=C4)cc2)C1
REMARK SMILES IDX 22 1 21 2 20 3 18 4 19 5 6 7 3 8 4 9 82 10 5 11 2 12 1 13
REMARK SMILES IDX 7 14 8 15 9 16 17 17 10 18 12 19 16 20 11 21 13 22 15 23
REMARK SMILES IDX 14 24 23 25 24 26 25 27 26 28 27 30 28 31 29 32 81 33 30 34
REMARK SMILES IDX 80 35 31 36 32 37 33 38 74 39 34 40 79 41 73 42 75 43 35 44
REMARK SMILES IDX 78 45 72 46 71 47 36 49 62 50 45 51 61 52 46 53 49 54 60 55
REMARK SMILES IDX 76 56 47 57 48 58 59 60 77 61 50 62 37 63 38 64 43 65 39 66
REMARK SMILES IDX 40 67 42 68 44 69 41 70 63 71 64 72 69 73 65 74 66 75 68 76
REMARK SMILES IDX 70 77 67 78 51 79 52 80 57 81 53 82 54 83 56 84 58 85 55 86
REMARK H PARENT 20 6 25 29 75 48 49 59
REMARK Flexibility Score: inf
ROOT
ATOM      1  C   UNL A   1      32.313  27.704  25.378  1.00  0.00     0.023 C 
ENDROOT
BRANCH   1   2
ATOM      2  C   UNL A   1      33.704  27.534  24.749  1.00  0.00     0.116 C 
BRANCH   2   3
ATOM      3  N   UNL A   1      33.621  26.946  23.426  1.00  0.00    -0.356 N 
ATOM      4  C   UNL A   1      33.802  25.677  22.965  1.00  0.00     0.226 C 
ATOM      5  O   UNL A   1      33.710  25.561  21.737  1.00  0.00    -0.274 OA
ATOM      6  H   UNL A   1      33.389  27.592  22.722  1.00  0.00     0.163 HD
BRANCH   4   7
ATOM      7  C   UNL A   1      33.957  24.415  23.881  1.00  0.00     0.050 C 
ATOM      8  C   UNL A   1      35.963  23.415  24.928  1.00  0.00    -0.010 C 
ATOM      9  C   UNL A   1      36.041  23.176  23.428  1.00  0.00     0.005 C 
ATOM     10  C   UNL A   1      34.994  24.589  24.993  1.00  0.00     0.020 C 
ATOM     11  C   UNL A   1      34.576  23.288  22.998  1.00  0.00     0.017 C 
BRANCH   8  12
ATOM     12  C   UNL A   1      37.314  23.709  25.587  1.00  0.00     0.000 C 
ATOM     13  C   UNL A   1      38.132  22.445  25.838  1.00  0.00     0.004 C 
ENDBRANCH   8  12
BRANCH   7  14
ATOM     14  C   UNL A   1      32.504  24.114  24.384  1.00  0.00     0.025 C 
BRANCH  14  15
ATOM     15  C   UNL A   1      32.078  22.976  25.370  1.00  0.00     0.020 C 
ATOM     16  C   UNL A   1      32.147  23.293  26.875  1.00  0.00     0.009 C 
ATOM     17  C   UNL A   1      32.558  21.582  25.049  1.00  0.00    -0.042 A 
ATOM     18  C   UNL A   1      33.397  22.817  27.597  1.00  0.00     0.005 C 
ATOM     19  C   UNL A   1      33.465  20.904  25.876  1.00  0.00    -0.045 A 
ATOM     20  C   UNL A   1      32.069  20.934  23.899  1.00  0.00     0.004 A 
ATOM     21  C   UNL A   1      33.840  21.402  27.247  1.00  0.00     0.036 C 
ATOM     22  C   UNL A   1      33.966  19.655  25.470  1.00  0.00     0.004 A 
ATOM     23  C   UNL A   1      32.531  19.668  23.538  1.00  0.00     0.000 A 
ATOM     24  C   UNL A   1      33.507  19.044  24.305  1.00  0.00     0.000 A 
ENDBRANCH  14  15
ENDBRANCH   7  14
ENDBRANCH   4   7
ENDBRANCH   2   3
ENDBRANCH   1   2
BRANCH   1  25
ATOM     25  C   UNL A   1      32.293  28.322  26.769  1.00  0.00     0.023 C 
BRANCH  25  26
ATOM     26  C   UNL A   1      33.643  28.781  27.282  1.00  0.00     0.116 C 
BRANCH  26  27
ATOM     27  N   UNL A   1      33.634  30.123  27.850  1.00  0.00    -0.352 N 
ATOM     28  C   UNL A   1      34.670  30.785  28.468  1.00  0.00     0.251 C 
ATOM     29  H   UNL A   1      32.783  30.615  27.784  1.00  0.00     0.163 HD
ATOM     30  O   UNL A   1      34.507  31.886  28.972  1.00  0.00    -0.269 OA
BRANCH  28  31
ATOM     31  C   UNL A   1      35.979  30.106  28.551  1.00  0.00     0.039 A 
ATOM     32  C   UNL A   1      36.855  30.193  27.467  1.00  0.00     0.014 A 
ATOM     33  C   UNL A   1      36.370  29.485  29.739  1.00  0.00     0.014 A 
ATOM     34  C   UNL A   1      38.161  29.726  27.607  1.00  0.00     0.010 A 
ATOM     35  C   UNL A   1      37.695  29.109  29.907  1.00  0.00     0.010 A 
ATOM     36  C   UNL A   1      38.602  29.222  28.843  1.00  0.00    -0.014 A 
BRANCH  36  37
ATOM     37  C   UNL A   1      40.006  28.791  29.045  1.00  0.00     0.031 A 
ATOM     38  C   UNL A   1      40.997  29.748  29.647  1.00  0.00     0.074 A 
ATOM     39  C   UNL A   1      40.405  27.578  28.617  1.00  0.00     0.049 A 
ATOM     40  N   UNL A   1      42.283  29.602  29.829  1.00  0.00    -0.248 NA
ATOM     41  C   UNL A   1      40.477  31.062  30.065  1.00  0.00     0.031 C 
ATOM     42  C   UNL A   1      39.552  26.585  27.960  1.00  0.00     0.029 A 
ATOM     43  N   UNL A   1      41.637  26.977  28.661  1.00  0.00    -0.354 N 
ATOM     44  C   UNL A   1      42.727  30.805  30.361  1.00  0.00     0.074 A 
ATOM     45  C   UNL A   1      41.587  31.693  30.414  1.00  0.00     0.031 C 
ATOM     46  C   UNL A   1      40.280  25.489  27.690  1.00  0.00     0.029 A 
ATOM     47  C   UNL A   1      41.656  25.714  28.121  1.00  0.00     0.049 A 
ATOM     48  H   UNL A   1      42.435  27.410  29.045  1.00  0.00     0.167 HD
ATOM     49  C   UNL A   1      43.966  31.132  30.793  1.00  0.00     0.037 A 
ATOM     50  C   UNL A   1      42.670  24.838  27.990  1.00  0.00     0.037 A 
ATOM     51  C   UNL A   1      45.088  30.232  30.776  1.00  0.00     0.049 A 
ATOM     52  C   UNL A   1      44.034  25.218  28.498  1.00  0.00     0.074 A 
ATOM     53  C   UNL A   1      46.368  30.441  31.255  1.00  0.00     0.029 A 
ATOM     54  N   UNL A   1      45.058  28.949  30.254  1.00  0.00    -0.354 N 
ATOM     55  N   UNL A   1      44.424  26.334  29.066  1.00  0.00    -0.248 NA
ATOM     56  C   UNL A   1      45.098  24.214  28.353  1.00  0.00     0.031 C 
ATOM     57  C   UNL A   1      47.124  29.294  30.991  1.00  0.00     0.029 A 
ATOM     58  C   UNL A   1      46.302  28.358  30.385  1.00  0.00     0.049 A 
ATOM     59  H   UNL A   1      44.269  28.521  29.849  1.00  0.00     0.167 HD
ATOM     60  C   UNL A   1      45.766  26.157  29.370  1.00  0.00     0.074 A 
ATOM     61  C   UNL A   1      46.121  24.821  28.937  1.00  0.00     0.031 C 
ATOM     62  C   UNL A   1      46.629  27.022  29.957  1.00  0.00     0.037 A 
BRANCH  49  63
ATOM     63  C   UNL A   1      44.163  32.517  31.336  1.00  0.00     0.057 A 
ATOM     64  C   UNL A   1      44.533  33.587  30.512  1.00  0.00     0.134 A 
ATOM     65  C   UNL A   1      43.964  32.788  32.696  1.00  0.00     0.134 A 
ATOM     66  F   UNL A   1      44.754  33.392  29.202  1.00  0.00    -0.206 F 
ATOM     67  C   UNL A   1      44.726  34.871  31.023  1.00  0.00     0.040 A 
ATOM     68  C   UNL A   1      44.127  34.073  33.215  1.00  0.00     0.040 A 
ATOM     69  F   UNL A   1      43.606  31.809  33.541  1.00  0.00    -0.206 F 
ATOM     70  C   UNL A   1      44.517  35.118  32.378  1.00  0.00     0.006 A 
ENDBRANCH  49  63
BRANCH  50  71
ATOM     71  C   UNL A   1      42.431  23.505  27.383  1.00  0.00     0.057 A 
ATOM     72  C   UNL A   1      42.580  23.304  26.006  1.00  0.00     0.134 A 
ATOM     73  C   UNL A   1      42.039  22.406  28.156  1.00  0.00     0.134 A 
ATOM     74  F   UNL A   1      42.938  24.323  25.211  1.00  0.00    -0.206 F 
ATOM     75  C   UNL A   1      42.331  22.064  25.415  1.00  0.00     0.040 A 
ATOM     76  C   UNL A   1      41.807  21.154  27.583  1.00  0.00     0.040 A 
ATOM     77  F   UNL A   1      41.884  22.530  29.483  1.00  0.00    -0.206 F 
ATOM     78  C   UNL A   1      41.946  20.983  26.206  1.00  0.00     0.006 A 
ENDBRANCH  50  71
BRANCH  62  79
ATOM     79  C   UNL A   1      48.028  26.538  30.194  1.00  0.00     0.057 A 
ATOM     80  C   UNL A   1      49.040  26.704  29.241  1.00  0.00     0.134 A 
ATOM     81  C   UNL A   1      48.376  25.939  31.412  1.00  0.00     0.134 A 
ATOM     82  F   UNL A   1      48.767  27.260  28.051  1.00  0.00    -0.206 F 
ATOM     83  C   UNL A   1      50.345  26.273  29.482  1.00  0.00     0.040 A 
ATOM     84  C   UNL A   1      49.683  25.527  31.675  1.00  0.00     0.040 A 
ATOM     85  F   UNL A   1      47.455  25.759  32.371  1.00  0.00    -0.206 F 
ATOM     86  C   UNL A   1      50.670  25.689  30.706  1.00  0.00     0.006 A 
ENDBRANCH  62  79
ENDBRANCH  36  37
ENDBRANCH  28  31
ENDBRANCH  26  27
ENDBRANCH  25  26
ENDBRANCH   1  25
TORSDOF 14
ENDMDL
MODEL 2
REMARK VINA RESULT:     -11.6      1.084      2.802
REMARK SMILES CC[C@@H]1CC[C@](C[C@@H]2CCCc3ccccc32)(C(=O)NCCCCNC(=O)c2ccc(-c3c4nc(c(-c5c(F)cccc5F)c5ccc([nH]5)c(-c5c(F)cccc5F)c5nc(c(-c6c(F)cccc6F)c6ccc3[nH]6)C=C5)C=C4)cc2)C1
REMARK SMILES IDX 22 1 21 2 20 3 18 4 19 5 6 7 3 8 4 9 82 10 5 11 2 12 1 13
REMARK SMILES IDX 7 14 8 15 9 16 17 17 10 18 12 19 16 20 11 21 13 22 15 23
REMARK SMILES IDX 14 24 23 25 24 26 25 27 26 28 27 30 28 31 29 32 81 33 30 34
REMARK SMILES IDX 80 35 31 36 32 37 33 38 74 39 34 40 79 41 73 42 75 43 35 44
REMARK SMILES IDX 78 45 72 46 71 47 36 49 62 50 45 51 61 52 46 53 49 54 60 55
REMARK SMILES IDX 76 56 47 57 48 58 59 60 77 61 50 62 37 63 38 64 43 65 39 66
REMARK SMILES IDX 40 67 42 68 44 69 41 70 63 71 64 72 69 73 65 74 66 75 68 76
REMARK SMILES IDX 70 77 67 78 51 79 52 80 57 81 53 82 54 83 56 84 58 85 55 86
REMARK H PARENT 20 6 25 29 75 48 49 59
REMARK Flexibility Score: inf
ROOT
ATOM      1  C   UNL A   1      31.424  27.318  26.797  1.00  0.00     0.023 C 
ENDROOT
BRANCH   1   2
ATOM      2  C   UNL A   1      31.150  26.091  25.915  1.00  0.00     0.116 C 
BRANCH   2   3
ATOM      3  N   UNL A   1      30.764  24.941  26.709  1.00  0.00    -0.356 N 
ATOM      4  C   UNL A   1      31.344  23.728  26.924  1.00  0.00     0.226 C 
ATOM      5  O   UNL A   1      30.678  22.958  27.627  1.00  0.00    -0.274 OA
ATOM      6  H   UNL A   1      29.912  25.061  27.187  1.00  0.00     0.163 HD
BRANCH   4   7
ATOM      7  C   UNL A   1      32.798  23.350  26.476  1.00  0.00     0.050 C 
ATOM      8  C   UNL A   1      33.756  21.183  25.759  1.00  0.00    -0.010 C 
ATOM      9  C   UNL A   1      33.465  21.104  27.249  1.00  0.00     0.005 C 
ATOM     10  C   UNL A   1      32.842  22.327  25.337  1.00  0.00     0.020 C 
ATOM     11  C   UNL A   1      33.452  22.578  27.663  1.00  0.00     0.017 C 
BRANCH   8  12
ATOM     12  C   UNL A   1      33.486  19.883  24.998  1.00  0.00     0.000 C 
ATOM     13  C   UNL A   1      32.520  20.074  23.832  1.00  0.00     0.004 C 
ENDBRANCH   8  12
BRANCH   7  14
ATOM     14  C   UNL A   1      33.478  24.722  26.148  1.00  0.00     0.025 C 
BRANCH  14  15
ATOM     15  C   UNL A   1      34.558  24.986  25.047  1.00  0.00     0.020 C 
ATOM     16  C   UNL A   1      34.051  25.396  23.653  1.00  0.00     0.009 C 
ATOM     17  C   UNL A   1      35.713  24.017  24.981  1.00  0.00    -0.042 A 
ATOM     18  C   UNL A   1      33.947  24.278  22.628  1.00  0.00     0.005 C 
ATOM     19  C   UNL A   1      35.908  23.173  23.878  1.00  0.00    -0.045 A 
ATOM     20  C   UNL A   1      36.634  23.970  26.045  1.00  0.00     0.004 A 
ATOM     21  C   UNL A   1      35.138  23.329  22.593  1.00  0.00     0.036 C 
ATOM     22  C   UNL A   1      36.931  22.210  23.919  1.00  0.00     0.004 A 
ATOM     23  C   UNL A   1      37.682  23.050  26.047  1.00  0.00     0.000 A 
ATOM     24  C   UNL A   1      37.809  22.145  25.000  1.00  0.00     0.000 A 
ENDBRANCH  14  15
ENDBRANCH   7  14
ENDBRANCH   4   7
ENDBRANCH   2   3
ENDBRANCH   1   2
BRANCH   1  25
ATOM     25  C   UNL A   1      32.484  28.278  26.274  1.00  0.00     0.023 C 
BRANCH  25  26
ATOM     26  C   UNL A   1      33.601  28.588  27.251  1.00  0.00     0.116 C 
BRANCH  26  27
ATOM     27  N   UNL A   1      33.593  29.961  27.740  1.00  0.00    -0.352 N 
ATOM     28  C   UNL A   1      34.636  30.665  28.296  1.00  0.00     0.251 C 
ATOM     29  H   UNL A   1      32.737  30.442  27.664  1.00  0.00     0.163 HD
ATOM     30  O   UNL A   1      34.475  31.792  28.739  1.00  0.00    -0.269 OA
BRANCH  28  31
ATOM     31  C   UNL A   1      35.952  30.001  28.389  1.00  0.00     0.039 A 
ATOM     32  C   UNL A   1      36.827  30.081  27.304  1.00  0.00     0.014 A 
ATOM     33  C   UNL A   1      36.350  29.403  29.587  1.00  0.00     0.014 A 
ATOM     34  C   UNL A   1      38.139  29.630  27.452  1.00  0.00     0.010 A 
ATOM     35  C   UNL A   1      37.678  29.044  29.760  1.00  0.00     0.010 A 
ATOM     36  C   UNL A   1      38.585  29.149  28.695  1.00  0.00    -0.014 A 
BRANCH  36  37
ATOM     37  C   UNL A   1      39.993  28.737  28.903  1.00  0.00     0.031 A 
ATOM     38  C   UNL A   1      40.973  29.713  29.491  1.00  0.00     0.074 A 
ATOM     39  C   UNL A   1      40.405  27.521  28.493  1.00  0.00     0.049 A 
ATOM     40  N   UNL A   1      42.261  29.583  29.675  1.00  0.00    -0.248 NA
ATOM     41  C   UNL A   1      40.440  31.027  29.890  1.00  0.00     0.031 C 
ATOM     42  C   UNL A   1      39.563  26.510  27.851  1.00  0.00     0.029 A 
ATOM     43  N   UNL A   1      41.644  26.934  28.547  1.00  0.00    -0.354 N 
ATOM     44  C   UNL A   1      42.691  30.799  30.190  1.00  0.00     0.074 A 
ATOM     45  C   UNL A   1      41.542  31.675  30.230  1.00  0.00     0.031 C 
ATOM     46  C   UNL A   1      40.303  25.418  27.597  1.00  0.00     0.029 A 
ATOM     47  C   UNL A   1      41.676  25.664  28.026  1.00  0.00     0.049 A 
ATOM     48  H   UNL A   1      42.436  27.382  28.924  1.00  0.00     0.167 HD
ATOM     49  C   UNL A   1      43.927  31.145  30.618  1.00  0.00     0.037 A 
ATOM     50  C   UNL A   1      42.700  24.797  27.908  1.00  0.00     0.037 A 
ATOM     51  C   UNL A   1      45.059  30.258  30.614  1.00  0.00     0.049 A 
ATOM     52  C   UNL A   1      44.059  25.199  28.410  1.00  0.00     0.074 A 
ATOM     53  C   UNL A   1      46.336  30.487  31.090  1.00  0.00     0.029 A 
ATOM     54  N   UNL A   1      45.042  28.966  30.110  1.00  0.00    -0.354 N 
ATOM     55  N   UNL A   1      44.437  26.327  28.961  1.00  0.00    -0.248 NA
ATOM     56  C   UNL A   1      45.133  24.204  28.280  1.00  0.00     0.031 C 
ATOM     57  C   UNL A   1      47.105  29.345  30.843  1.00  0.00     0.029 A 
ATOM     58  C   UNL A   1      46.293  28.390  30.251  1.00  0.00     0.049 A 
ATOM     59  H   UNL A   1      44.258  28.524  29.712  1.00  0.00     0.167 HD
ATOM     60  C   UNL A   1      45.781  26.169  29.269  1.00  0.00     0.074 A 
ATOM     61  C   UNL A   1      46.150  24.831  28.855  1.00  0.00     0.031 C 
ATOM     62  C   UNL A   1      46.635  27.052  29.843  1.00  0.00     0.037 A 
BRANCH  49  63
ATOM     63  C   UNL A   1      44.109  32.540  31.140  1.00  0.00     0.057 A 
ATOM     64  C   UNL A   1      43.927  32.851  32.494  1.00  0.00     0.134 A 
ATOM     65  C   UNL A   1      44.486  33.582  30.284  1.00  0.00     0.134 A 
ATOM     66  F   UNL A   1      43.549  31.902  33.365  1.00  0.00    -0.206 F 
ATOM     67  C   UNL A   1      44.086  34.152  32.973  1.00  0.00     0.040 A 
ATOM     68  C   UNL A   1      44.675  34.881  30.755  1.00  0.00     0.040 A 
ATOM     69  F   UNL A   1      44.679  33.353  28.975  1.00  0.00    -0.206 F 
ATOM     70  C   UNL A   1      44.467  35.171  32.103  1.00  0.00     0.006 A 
ENDBRANCH  49  63
BRANCH  50  71
ATOM     71  C   UNL A   1      42.475  23.453  27.320  1.00  0.00     0.057 A 
ATOM     72  C   UNL A   1      42.642  23.230  25.949  1.00  0.00     0.134 A 
ATOM     73  C   UNL A   1      42.079  22.365  28.107  1.00  0.00     0.134 A 
ATOM     74  F   UNL A   1      43.004  24.237  25.141  1.00  0.00    -0.206 F 
ATOM     75  C   UNL A   1      42.407  21.979  25.376  1.00  0.00     0.040 A 
ATOM     76  C   UNL A   1      41.861  21.102  27.552  1.00  0.00     0.040 A 
ATOM     77  F   UNL A   1      41.908  22.511  29.429  1.00  0.00    -0.206 F 
ATOM     78  C   UNL A   1      42.018  20.909  26.180  1.00  0.00     0.006 A 
ENDBRANCH  50  71
BRANCH  62  79
ATOM     79  C   UNL A   1      48.039  26.586  30.087  1.00  0.00     0.057 A 
ATOM     80  C   UNL A   1      48.409  25.951  31.279  1.00  0.00     0.134 A 
ATOM     81  C   UNL A   1      49.019  26.735  29.098  1.00  0.00     0.134 A 
ATOM     82  F   UNL A   1      47.519  25.791  32.268  1.00  0.00    -0.206 F 
ATOM     83  C   UNL A   1      49.713  25.498  31.486  1.00  0.00     0.040 A 
ATOM     84  C   UNL A   1      50.319  26.263  29.284  1.00  0.00     0.040 A 
ATOM     85  F   UNL A   1      48.725  27.326  27.930  1.00  0.00    -0.206 F 
ATOM     86  C   UNL A   1      50.670  25.647  30.483  1.00  0.00     0.006 A 
ENDBRANCH  62  79
ENDBRANCH  36  37
ENDBRANCH  28  31
ENDBRANCH  26  27
ENDBRANCH  25  26
ENDBRANCH   1  25
TORSDOF 14
ENDMDL
MODEL 3
REMARK VINA RESULT:     -11.6      2.344      7.283
REMARK SMILES CC[C@@H]1CC[C@](C[C@@H]2CCCc3ccccc32)(C(=O)NCCCCNC(=O)c2ccc(-c3c4nc(c(-c5c(F)cccc5F)c5ccc([nH]5)c(-c5c(F)cccc5F)c5nc(c(-c6c(F)cccc6F)c6ccc3[nH]6)C=C5)C=C4)cc2)C1
REMARK SMILES IDX 22 1 21 2 20 3 18 4 19 5 6 7 3 8 4 9 82 10 5 11 2 12 1 13
REMARK SMILES IDX 7 14 8 15 9 16 17 17 10 18 12 19 16 20 11 21 13 22 15 23
REMARK SMILES IDX 14 24 23 25 24 26 25 27 26 28 27 30 28 31 29 32 81 33 30 34
REMARK SMILES IDX 80 35 31 36 32 37 33 38 74 39 34 40 79 41 73 42 75 43 35 44
REMARK SMILES IDX 78 45 72 46 71 47 36 49 62 50 45 51 61 52 46 53 49 54 60 55
REMARK SMILES IDX 76 56 47 57 48 58 59 60 77 61 50 62 37 63 38 64 43 65 39 66
REMARK SMILES IDX 40 67 42 68 44 69 41 70 63 71 64 72 69 73 65 74 66 75 68 76
REMARK SMILES IDX 70 77 67 78 51 79 52 80 57 81 53 82 54 83 56 84 58 85 55 86
REMARK H PARENT 20 6 25 29 75 48 49 59
REMARK Flexibility Score: inf
ROOT
ATOM      1  C   UNL A   1      36.285  20.167  24.987  1.00  0.00     0.023 C 
ENDROOT
BRANCH   1   2
ATOM      2  C   UNL A   1      34.854  20.727  25.021  1.00  0.00     0.116 C 
BRANCH   2   3
ATOM      3  N   UNL A   1      34.486  21.165  26.354  1.00  0.00    -0.356 N 
ATOM      4  C   UNL A   1      33.978  22.332  26.837  1.00  0.00     0.226 C 
ATOM      5  O   UNL A   1      33.849  22.365  28.067  1.00  0.00    -0.274 OA
ATOM      6  H   UNL A   1      34.635  20.482  27.047  1.00  0.00     0.163 HD
BRANCH   4   7
ATOM      7  C   UNL A   1      33.438  23.500  25.942  1.00  0.00     0.050 C 
ATOM      8  C   UNL A   1      33.395  23.763  23.482  1.00  0.00    -0.010 C 
ATOM      9  C   UNL A   1      34.838  23.878  23.946  1.00  0.00     0.005 C 
ATOM     10  C   UNL A   1      32.762  23.023  24.654  1.00  0.00     0.020 C 
ATOM     11  C   UNL A   1      34.682  24.280  25.415  1.00  0.00     0.017 C 
BRANCH   8  12
ATOM     12  C   UNL A   1      33.222  23.038  22.145  1.00  0.00     0.000 C 
ATOM     13  C   UNL A   1      32.358  21.785  22.264  1.00  0.00     0.004 C 
ENDBRANCH   8  12
BRANCH   7  14
ATOM     14  C   UNL A   1      32.515  24.331  26.896  1.00  0.00     0.025 C 
BRANCH  14  15
ATOM     15  C   UNL A   1      31.634  25.562  26.498  1.00  0.00     0.020 C 
ATOM     16  C   UNL A   1      30.237  25.267  25.923  1.00  0.00     0.009 C 
ATOM     17  C   UNL A   1      32.329  26.692  25.780  1.00  0.00    -0.042 A 
ATOM     18  C   UNL A   1      30.126  25.284  24.407  1.00  0.00     0.005 C 
ATOM     19  C   UNL A   1      32.025  27.022  24.451  1.00  0.00    -0.045 A 
ATOM     20  C   UNL A   1      33.296  27.452  26.465  1.00  0.00     0.004 A 
ATOM     21  C   UNL A   1      30.837  26.446  23.726  1.00  0.00     0.036 C 
ATOM     22  C   UNL A   1      32.783  28.007  23.795  1.00  0.00     0.004 A 
ATOM     23  C   UNL A   1      34.001  28.468  25.819  1.00  0.00     0.000 A 
ATOM     24  C   UNL A   1      33.769  28.721  24.473  1.00  0.00     0.000 A 
ENDBRANCH  14  15
ENDBRANCH   7  14
ENDBRANCH   4   7
ENDBRANCH   2   3
ENDBRANCH   1   2
BRANCH   1  25
ATOM     25  C   UNL A   1      37.380  21.185  24.702  1.00  0.00     0.023 C 
BRANCH  25  26
ATOM     26  C   UNL A   1      38.529  21.179  25.690  1.00  0.00     0.116 C 
BRANCH  26  27
ATOM     27  N   UNL A   1      39.372  19.993  25.609  1.00  0.00    -0.352 N 
ATOM     28  C   UNL A   1      40.691  19.868  25.980  1.00  0.00     0.251 C 
ATOM     29  H   UNL A   1      38.945  19.184  25.244  1.00  0.00     0.163 HD
ATOM     30  O   UNL A   1      41.307  18.831  25.787  1.00  0.00    -0.269 OA
BRANCH  28  31
ATOM     31  C   UNL A   1      41.361  21.042  26.574  1.00  0.00     0.039 A 
ATOM     32  C   UNL A   1      41.935  21.992  25.727  1.00  0.00     0.014 A 
ATOM     33  C   UNL A   1      41.318  21.248  27.955  1.00  0.00     0.014 A 
ATOM     34  C   UNL A   1      42.395  23.195  26.263  1.00  0.00     0.010 A 
ATOM     35  C   UNL A   1      41.688  22.481  28.471  1.00  0.00     0.010 A 
ATOM     36  C   UNL A   1      42.233  23.465  27.633  1.00  0.00    -0.014 A 
BRANCH  36  37
ATOM     37  C   UNL A   1      42.640  24.765  28.217  1.00  0.00     0.031 A 
ATOM     38  C   UNL A   1      41.608  25.835  28.436  1.00  0.00     0.074 A 
ATOM     39  C   UNL A   1      43.940  25.009  28.474  1.00  0.00     0.049 A 
ATOM     40  N   UNL A   1      41.767  27.065  28.852  1.00  0.00    -0.248 NA
ATOM     41  C   UNL A   1      40.215  25.489  28.106  1.00  0.00     0.031 C 
ATOM     42  C   UNL A   1      45.042  24.072  28.243  1.00  0.00     0.029 A 
ATOM     43  N   UNL A   1      44.556  26.127  28.976  1.00  0.00    -0.354 N 
ATOM     44  C   UNL A   1      40.504  27.640  28.815  1.00  0.00     0.074 A 
ATOM     45  C   UNL A   1      39.600  26.648  28.276  1.00  0.00     0.031 C 
ATOM     46  C   UNL A   1      46.194  24.645  28.631  1.00  0.00     0.029 A 
ATOM     47  C   UNL A   1      45.917  25.998  29.103  1.00  0.00     0.049 A 
ATOM     48  H   UNL A   1      44.067  26.946  29.223  1.00  0.00     0.167 HD
ATOM     49  C   UNL A   1      40.125  28.874  29.219  1.00  0.00     0.037 A 
ATOM     50  C   UNL A   1      46.837  26.874  29.549  1.00  0.00     0.037 A 
ATOM     51  C   UNL A   1      41.020  29.843  29.792  1.00  0.00     0.049 A 
ATOM     52  C   UNL A   1      46.387  28.232  30.012  1.00  0.00     0.074 A 
ATOM     53  C   UNL A   1      40.725  31.095  30.299  1.00  0.00     0.029 A 
ATOM     54  N   UNL A   1      42.387  29.662  29.936  1.00  0.00    -0.354 N 
ATOM     55  N   UNL A   1      45.178  28.739  30.039  1.00  0.00    -0.248 NA
ATOM     56  C   UNL A   1      47.429  29.139  30.515  1.00  0.00     0.031 C 
ATOM     57  C   UNL A   1      41.921  31.687  30.719  1.00  0.00     0.029 A 
ATOM     58  C   UNL A   1      42.953  30.786  30.512  1.00  0.00     0.049 A 
ATOM     59  H   UNL A   1      42.882  28.853  29.670  1.00  0.00     0.167 HD
ATOM     60  C   UNL A   1      45.309  30.008  30.585  1.00  0.00     0.074 A 
ATOM     61  C   UNL A   1      46.713  30.191  30.888  1.00  0.00     0.031 C 
ATOM     62  C   UNL A   1      44.352  30.941  30.815  1.00  0.00     0.037 A 
BRANCH  49  63
ATOM     63  C   UNL A   1      38.676  29.233  29.070  1.00  0.00     0.057 A 
ATOM     64  C   UNL A   1      37.791  29.197  30.155  1.00  0.00     0.134 A 
ATOM     65  C   UNL A   1      38.163  29.636  27.831  1.00  0.00     0.134 A 
ATOM     66  F   UNL A   1      38.215  28.804  31.366  1.00  0.00    -0.206 F 
ATOM     67  C   UNL A   1      36.441  29.521  30.008  1.00  0.00     0.040 A 
ATOM     68  C   UNL A   1      36.822  29.988  27.677  1.00  0.00     0.040 A 
ATOM     69  F   UNL A   1      38.957  29.695  26.750  1.00  0.00    -0.206 F 
ATOM     70  C   UNL A   1      35.955  29.924  28.766  1.00  0.00     0.006 A 
ENDBRANCH  49  63
BRANCH  50  71
ATOM     71  C   UNL A   1      48.268  26.486  29.612  1.00  0.00     0.057 A 
ATOM     72  C   UNL A   1      49.138  26.770  28.554  1.00  0.00     0.134 A 
ATOM     73  C   UNL A   1      48.799  25.817  30.721  1.00  0.00     0.134 A 
ATOM     74  F   UNL A   1      48.684  27.395  27.457  1.00  0.00    -0.206 F 
ATOM     75  C   UNL A   1      50.480  26.387  28.585  1.00  0.00     0.040 A 
ATOM     76  C   UNL A   1      50.144  25.447  30.776  1.00  0.00     0.040 A 
ATOM     77  F   UNL A   1      48.019  25.521  31.772  1.00  0.00    -0.206 F 
ATOM     78  C   UNL A   1      50.987  25.725  29.702  1.00  0.00     0.006 A 
ENDBRANCH  50  71
BRANCH  62  79
ATOM     79  C   UNL A   1      44.788  32.225  31.455  1.00  0.00     0.057 A 
ATOM     80  C   UNL A   1      44.835  32.379  32.846  1.00  0.00     0.134 A 
ATOM     81  C   UNL A   1      45.210  33.304  30.667  1.00  0.00     0.134 A 
ATOM     82  F   UNL A   1      44.433  31.386  33.653  1.00  0.00    -0.206 F 
ATOM     83  C   UNL A   1      45.268  33.570  33.431  1.00  0.00     0.040 A 
ATOM     84  C   UNL A   1      45.668  34.490  31.242  1.00  0.00     0.040 A 
ATOM     85  F   UNL A   1      45.198  33.216  29.329  1.00  0.00    -0.206 F 
ATOM     86  C   UNL A   1      45.693  34.626  32.628  1.00  0.00     0.006 A 
ENDBRANCH  62  79
ENDBRANCH  36  37
ENDBRANCH  28  31
ENDBRANCH  26  27
ENDBRANCH  25  26
ENDBRANCH   1  25
TORSDOF 14
ENDMDL
