MODEL 1
REMARK VINA RESULT:     -11.0      0.000      0.000
REMARK SMILES CC[C@H]1CC[C@](CC(C)(C)O)(C(=O)NCCCCNC(=O)c2ccc(-c3c4nc(c(-c5c(F)cccc5F)c5ccc([nH]5)c(-c5c(F)cccc5F)c5nc(c(-c6c(F)cccc6F)c6ccc3[nH]6)C=C5)C=C4)cc2)C1
REMARK SMILES IDX 16 1 15 2 14 3 12 4 13 5 6 7 3 8 4 9 76 10 5 11 2 12 1 13
REMARK SMILES IDX 7 14 8 15 9 16 10 17 11 18 17 20 18 21 19 22 20 23 21 25
REMARK SMILES IDX 22 26 23 27 75 28 24 29 74 30 25 31 26 32 27 33 68 34 28 35
REMARK SMILES IDX 73 36 67 37 69 38 29 39 72 40 66 41 65 42 30 44 56 45 39 46
REMARK SMILES IDX 55 47 40 48 43 49 54 50 70 51 41 52 42 53 53 55 71 56 44 57
REMARK SMILES IDX 31 58 32 59 37 60 33 61 34 62 36 63 38 64 35 65 57 66 58 67
REMARK SMILES IDX 63 68 59 69 60 70 62 71 64 72 61 73 45 74 46 75 51 76 47 77
REMARK SMILES IDX 48 78 50 79 52 80 49 81
REMARK H PARENT 14 6 11 19 19 24 69 43 43 54
REMARK Flexibility Score: inf
ROOT
ATOM      1  C   UNL A   1      37.156  21.234  24.607  1.00  0.00     0.023 C 
ENDROOT
BRANCH   1   2
ATOM      2  C   UNL A   1      36.722  22.139  25.760  1.00  0.00     0.116 C 
BRANCH   2   3
ATOM      3  N   UNL A   1      35.612  21.557  26.483  1.00  0.00    -0.356 N 
ATOM      4  C   UNL A   1      34.267  21.761  26.444  1.00  0.00     0.226 C 
ATOM      5  O   UNL A   1      33.642  21.054  27.244  1.00  0.00    -0.274 OA
ATOM      6  H   UNL A   1      35.886  20.876  27.138  1.00  0.00     0.163 HD
BRANCH   4   7
ATOM      7  C   UNL A   1      33.538  22.657  25.381  1.00  0.00     0.052 C 
ATOM      8  C   UNL A   1      34.149  23.251  23.033  1.00  0.00    -0.010 C 
ATOM      9  C   UNL A   1      34.499  24.443  23.927  1.00  0.00     0.005 C 
ATOM     10  C   UNL A   1      33.982  22.085  24.005  1.00  0.00     0.020 C 
ATOM     11  C   UNL A   1      34.010  24.122  25.345  1.00  0.00     0.017 C 
BRANCH   8  12
ATOM     12  C   UNL A   1      33.004  23.563  22.053  1.00  0.00     0.000 C 
ATOM     13  C   UNL A   1      32.710  25.031  21.793  1.00  0.00     0.004 C 
ENDBRANCH   8  12
BRANCH   7  14
ATOM     14  C   UNL A   1      31.973  22.468  25.568  1.00  0.00     0.051 C 
BRANCH  14  15
ATOM     15  C   UNL A   1      31.078  23.401  26.425  1.00  0.00     0.060 C 
ATOM     16  C   UNL A   1      30.629  24.687  25.734  1.00  0.00     0.042 C 
ATOM     17  C   UNL A   1      29.804  22.626  26.815  1.00  0.00     0.042 C 
BRANCH  15  18
ATOM     18  O   UNL A   1      31.763  23.726  27.634  1.00  0.00    -0.390 OA
ATOM     19  H   UNL A   1      31.213  24.323  28.166  1.00  0.00     0.211 HD
ENDBRANCH  15  18
ENDBRANCH  14  15
ENDBRANCH   7  14
ENDBRANCH   4   7
ENDBRANCH   2   3
ENDBRANCH   1   2
BRANCH   1  20
ATOM     20  C   UNL A   1      37.980  20.021  25.039  1.00  0.00     0.023 C 
BRANCH  20  21
ATOM     21  C   UNL A   1      39.284  20.353  25.751  1.00  0.00     0.116 C 
BRANCH  21  22
ATOM     22  N   UNL A   1      40.181  19.212  25.863  1.00  0.00    -0.352 N 
ATOM     23  C   UNL A   1      41.528  19.207  26.126  1.00  0.00     0.251 C 
ATOM     24  H   UNL A   1      39.768  18.329  25.732  1.00  0.00     0.163 HD
ATOM     25  O   UNL A   1      42.173  18.165  26.071  1.00  0.00    -0.269 OA
BRANCH  23  26
ATOM     26  C   UNL A   1      42.200  20.481  26.441  1.00  0.00     0.039 A 
ATOM     27  C   UNL A   1      42.764  21.223  25.401  1.00  0.00     0.014 A 
ATOM     28  C   UNL A   1      42.223  20.963  27.754  1.00  0.00     0.014 A 
ATOM     29  C   UNL A   1      43.296  22.484  25.669  1.00  0.00     0.010 A 
ATOM     30  C   UNL A   1      42.680  22.250  28.003  1.00  0.00     0.010 A 
ATOM     31  C   UNL A   1      43.224  23.021  26.965  1.00  0.00    -0.014 A 
BRANCH  31  32
ATOM     32  C   UNL A   1      43.709  24.392  27.256  1.00  0.00     0.031 A 
ATOM     33  C   UNL A   1      42.740  25.459  27.675  1.00  0.00     0.074 A 
ATOM     34  C   UNL A   1      45.006  24.693  27.061  1.00  0.00     0.049 A 
ATOM     35  N   UNL A   1      42.957  26.728  27.907  1.00  0.00    -0.248 NA
ATOM     36  C   UNL A   1      41.333  25.053  27.817  1.00  0.00     0.031 C 
ATOM     37  C   UNL A   1      46.030  23.762  26.586  1.00  0.00     0.029 A 
ATOM     38  N   UNL A   1      45.681  25.878  27.220  1.00  0.00    -0.354 N 
ATOM     39  C   UNL A   1      41.714  27.274  28.203  1.00  0.00     0.074 A 
ATOM     40  C   UNL A   1      40.742  26.212  28.061  1.00  0.00     0.031 C 
ATOM     41  C   UNL A   1      47.205  24.405  26.503  1.00  0.00     0.029 A 
ATOM     42  C   UNL A   1      47.011  25.800  26.890  1.00  0.00     0.049 A 
ATOM     43  H   UNL A   1      45.252  26.704  27.540  1.00  0.00     0.167 HD
ATOM     44  C   UNL A   1      41.414  28.539  28.582  1.00  0.00     0.037 A 
ATOM     45  C   UNL A   1      47.966  26.748  26.889  1.00  0.00     0.037 A 
ATOM     46  C   UNL A   1      42.389  29.584  28.740  1.00  0.00     0.049 A 
ATOM     47  C   UNL A   1      47.620  28.140  27.334  1.00  0.00     0.074 A 
ATOM     48  C   UNL A   1      42.202  30.877  29.197  1.00  0.00     0.029 A 
ATOM     49  N   UNL A   1      43.737  29.458  28.436  1.00  0.00    -0.354 N 
ATOM     50  N   UNL A   1      46.457  28.622  27.701  1.00  0.00    -0.248 NA
ATOM     51  C   UNL A   1      48.716  29.115  27.376  1.00  0.00     0.031 C 
ATOM     52  C   UNL A   1      43.428  31.547  29.126  1.00  0.00     0.029 A 
ATOM     53  C   UNL A   1      44.390  30.658  28.671  1.00  0.00     0.049 A 
ATOM     54  H   UNL A   1      44.167  28.638  28.104  1.00  0.00     0.167 HD
ATOM     55  C   UNL A   1      46.683  29.951  28.035  1.00  0.00     0.074 A 
ATOM     56  C   UNL A   1      48.099  30.193  27.842  1.00  0.00     0.031 C 
ATOM     57  C   UNL A   1      45.799  30.885  28.465  1.00  0.00     0.037 A 
BRANCH  44  58
ATOM     58  C   UNL A   1      39.968  28.849  28.841  1.00  0.00     0.057 A 
ATOM     59  C   UNL A   1      39.409  28.765  30.125  1.00  0.00     0.134 A 
ATOM     60  C   UNL A   1      39.119  29.229  27.794  1.00  0.00     0.134 A 
ATOM     61  F   UNL A   1      40.163  28.394  31.171  1.00  0.00    -0.206 F 
ATOM     62  C   UNL A   1      38.053  29.002  30.349  1.00  0.00     0.040 A 
ATOM     63  C   UNL A   1      37.767  29.500  28.011  1.00  0.00     0.040 A 
ATOM     64  F   UNL A   1      39.587  29.337  26.542  1.00  0.00    -0.206 F 
ATOM     65  C   UNL A   1      37.227  29.375  29.291  1.00  0.00     0.006 A 
ENDBRANCH  44  58
BRANCH  45  66
ATOM     66  C   UNL A   1      49.346  26.394  26.475  1.00  0.00     0.057 A 
ATOM     67  C   UNL A   1      49.792  26.627  25.170  1.00  0.00     0.134 A 
ATOM     68  C   UNL A   1      50.261  25.851  27.384  1.00  0.00     0.134 A 
ATOM     69  F   UNL A   1      48.956  27.132  24.251  1.00  0.00    -0.206 F 
ATOM     70  C   UNL A   1      51.099  26.329  24.780  1.00  0.00     0.040 A 
ATOM     71  C   UNL A   1      51.577  25.568  27.014  1.00  0.00     0.040 A 
ATOM     72  F   UNL A   1      49.897  25.614  28.653  1.00  0.00    -0.206 F 
ATOM     73  C   UNL A   1      51.998  25.805  25.708  1.00  0.00     0.006 A 
ENDBRANCH  45  66
BRANCH  57  74
ATOM     74  C   UNL A   1      46.339  32.251  28.771  1.00  0.00     0.057 A 
ATOM     75  C   UNL A   1      46.841  32.581  30.036  1.00  0.00     0.134 A 
ATOM     76  C   UNL A   1      46.398  33.234  27.774  1.00  0.00     0.134 A 
ATOM     77  F   UNL A   1      46.803  31.688  31.037  1.00  0.00    -0.206 F 
ATOM     78  C   UNL A   1      47.364  33.848  30.305  1.00  0.00     0.040 A 
ATOM     79  C   UNL A   1      46.942  34.495  28.025  1.00  0.00     0.040 A 
ATOM     80  F   UNL A   1      45.941  32.980  26.539  1.00  0.00    -0.206 F 
ATOM     81  C   UNL A   1      47.421  34.806  29.295  1.00  0.00     0.006 A 
ENDBRANCH  57  74
ENDBRANCH  31  32
ENDBRANCH  23  26
ENDBRANCH  21  22
ENDBRANCH  20  21
ENDBRANCH   1  20
TORSDOF 15
ENDMDL
MODEL 2
REMARK VINA RESULT:     -10.9      2.963      7.292
REMARK SMILES CC[C@H]1CC[C@](CC(C)(C)O)(C(=O)NCCCCNC(=O)c2ccc(-c3c4nc(c(-c5c(F)cccc5F)c5ccc([nH]5)c(-c5c(F)cccc5F)c5nc(c(-c6c(F)cccc6F)c6ccc3[nH]6)C=C5)C=C4)cc2)C1
REMARK SMILES IDX 16 1 15 2 14 3 12 4 13 5 6 7 3 8 4 9 76 10 5 11 2 12 1 13
REMARK SMILES IDX 7 14 8 15 9 16 10 17 11 18 17 20 18 21 19 22 20 23 21 25
REMARK SMILES IDX 22 26 23 27 75 28 24 29 74 30 25 31 26 32 27 33 68 34 28 35
REMARK SMILES IDX 73 36 67 37 69 38 29 39 72 40 66 41 65 42 30 44 56 45 39 46
REMARK SMILES IDX 55 47 40 48 43 49 54 50 70 51 41 52 42 53 53 55 71 56 44 57
REMARK SMILES IDX 31 58 32 59 37 60 33 61 34 62 36 63 38 64 35 65 57 66 58 67
REMARK SMILES IDX 63 68 59 69 60 70 62 71 64 72 61 73 45 74 46 75 51 76 47 77
REMARK SMILES IDX 48 78 50 79 52 80 49 81
REMARK H PARENT 14 6 11 19 19 24 69 43 43 54
REMARK Flexibility Score: inf
ROOT
ATOM      1  C   UNL A   1      31.478  27.729  26.383  1.00  0.00     0.023 C 
ENDROOT
BRANCH   1   2
ATOM      2  C   UNL A   1      31.086  26.524  25.528  1.00  0.00     0.116 C 
BRANCH   2   3
ATOM      3  N   UNL A   1      30.748  25.389  26.359  1.00  0.00    -0.356 N 
ATOM      4  C   UNL A   1      31.242  24.125  26.453  1.00  0.00     0.226 C 
ATOM      5  O   UNL A   1      30.664  23.435  27.302  1.00  0.00    -0.274 OA
ATOM      6  H   UNL A   1      30.009  25.568  26.983  1.00  0.00     0.163 HD
BRANCH   4   7
ATOM      7  C   UNL A   1      32.527  23.618  25.706  1.00  0.00     0.052 C 
ATOM      8  C   UNL A   1      34.674  24.772  25.160  1.00  0.00    -0.010 C 
ATOM      9  C   UNL A   1      33.819  24.743  23.891  1.00  0.00     0.005 C 
ATOM     10  C   UNL A   1      33.689  24.472  26.287  1.00  0.00     0.020 C 
ATOM     11  C   UNL A   1      32.557  23.928  24.198  1.00  0.00     0.017 C 
BRANCH   8  12
ATOM     12  C   UNL A   1      35.941  23.906  25.039  1.00  0.00     0.000 C 
ATOM     13  C   UNL A   1      36.206  23.273  23.683  1.00  0.00     0.004 C 
ENDBRANCH   8  12
BRANCH   7  14
ATOM     14  C   UNL A   1      32.741  22.089  26.075  1.00  0.00     0.051 C 
BRANCH  14  15
ATOM     15  C   UNL A   1      32.762  20.937  25.036  1.00  0.00     0.060 C 
ATOM     16  C   UNL A   1      32.477  21.355  23.595  1.00  0.00     0.042 C 
ATOM     17  C   UNL A   1      34.163  20.295  25.054  1.00  0.00     0.042 C 
BRANCH  15  18
ATOM     18  O   UNL A   1      31.831  19.931  25.432  1.00  0.00    -0.390 OA
ATOM     19  H   UNL A   1      32.313  19.146  25.736  1.00  0.00     0.211 HD
ENDBRANCH  15  18
ENDBRANCH  14  15
ENDBRANCH   7  14
ENDBRANCH   4   7
ENDBRANCH   2   3
ENDBRANCH   1   2
BRANCH   1  20
ATOM     20  C   UNL A   1      32.851  28.313  26.049  1.00  0.00     0.023 C 
BRANCH  20  21
ATOM     21  C   UNL A   1      33.746  28.573  27.253  1.00  0.00     0.116 C 
BRANCH  21  22
ATOM     22  N   UNL A   1      33.696  29.953  27.715  1.00  0.00    -0.352 N 
ATOM     23  C   UNL A   1      34.681  30.683  28.333  1.00  0.00     0.251 C 
ATOM     24  H   UNL A   1      32.845  30.423  27.567  1.00  0.00     0.163 HD
ATOM     25  O   UNL A   1      34.447  31.805  28.772  1.00  0.00    -0.269 OA
BRANCH  23  26
ATOM     26  C   UNL A   1      36.020  30.086  28.494  1.00  0.00     0.039 A 
ATOM     27  C   UNL A   1      36.924  30.160  27.433  1.00  0.00     0.014 A 
ATOM     28  C   UNL A   1      36.393  29.505  29.710  1.00  0.00     0.014 A 
ATOM     29  C   UNL A   1      38.231  29.707  27.614  1.00  0.00     0.010 A 
ATOM     30  C   UNL A   1      37.715  29.130  29.913  1.00  0.00     0.010 A 
ATOM     31  C   UNL A   1      38.645  29.223  28.867  1.00  0.00    -0.014 A 
BRANCH  31  32
ATOM     32  C   UNL A   1      40.050  28.813  29.105  1.00  0.00     0.031 A 
ATOM     33  C   UNL A   1      41.025  29.784  29.707  1.00  0.00     0.074 A 
ATOM     34  C   UNL A   1      40.464  27.598  28.703  1.00  0.00     0.049 A 
ATOM     35  N   UNL A   1      42.305  29.639  29.930  1.00  0.00    -0.248 NA
ATOM     36  C   UNL A   1      40.496  31.107  30.072  1.00  0.00     0.031 C 
ATOM     37  C   UNL A   1      39.630  26.594  28.041  1.00  0.00     0.029 A 
ATOM     38  N   UNL A   1      41.702  27.008  28.775  1.00  0.00    -0.354 N 
ATOM     39  C   UNL A   1      42.738  30.855  30.442  1.00  0.00     0.074 A 
ATOM     40  C   UNL A   1      41.596  31.744  30.439  1.00  0.00     0.031 C 
ATOM     41  C   UNL A   1      40.374  25.509  27.778  1.00  0.00     0.029 A 
ATOM     42  C   UNL A   1      41.743  25.751  28.225  1.00  0.00     0.049 A 
ATOM     43  H   UNL A   1      42.484  27.445  29.182  1.00  0.00     0.167 HD
ATOM     44  C   UNL A   1      43.968  31.192  30.896  1.00  0.00     0.037 A 
ATOM     45  C   UNL A   1      42.771  24.893  28.087  1.00  0.00     0.037 A 
ATOM     46  C   UNL A   1      45.093  30.296  30.915  1.00  0.00     0.049 A 
ATOM     47  C   UNL A   1      44.123  25.275  28.618  1.00  0.00     0.074 A 
ATOM     48  C   UNL A   1      46.360  30.511  31.428  1.00  0.00     0.029 A 
ATOM     49  N   UNL A   1      45.087  29.013  30.387  1.00  0.00    -0.354 N 
ATOM     50  N   UNL A   1      44.499  26.395  29.186  1.00  0.00    -0.248 NA
ATOM     51  C   UNL A   1      45.189  24.273  28.499  1.00  0.00     0.031 C 
ATOM     52  C   UNL A   1      47.135  29.375  31.168  1.00  0.00     0.029 A 
ATOM     53  C   UNL A   1      46.337  28.433  30.537  1.00  0.00     0.049 A 
ATOM     54  H   UNL A   1      44.311  28.578  29.967  1.00  0.00     0.167 HD
ATOM     55  C   UNL A   1      45.839  26.229  29.510  1.00  0.00     0.074 A 
ATOM     56  C   UNL A   1      46.205  24.892  29.088  1.00  0.00     0.031 C 
ATOM     57  C   UNL A   1      46.688  27.103  30.104  1.00  0.00     0.037 A 
BRANCH  44  58
ATOM     58  C   UNL A   1      44.149  32.595  31.401  1.00  0.00     0.057 A 
ATOM     59  C   UNL A   1      44.550  33.641  30.557  1.00  0.00     0.134 A 
ATOM     60  C   UNL A   1      43.929  32.904  32.749  1.00  0.00     0.134 A 
ATOM     61  F   UNL A   1      44.790  33.412  29.257  1.00  0.00    -0.206 F 
ATOM     62  C   UNL A   1      44.767  34.931  31.045  1.00  0.00     0.040 A 
ATOM     63  C   UNL A   1      44.114  34.197  33.242  1.00  0.00     0.040 A 
ATOM     64  F   UNL A   1      43.538  31.953  33.611  1.00  0.00    -0.206 F 
ATOM     65  C   UNL A   1      44.546  35.213  32.390  1.00  0.00     0.006 A 
ENDBRANCH  44  58
BRANCH  45  66
ATOM     66  C   UNL A   1      42.542  23.579  27.439  1.00  0.00     0.057 A 
ATOM     67  C   UNL A   1      42.110  22.473  28.179  1.00  0.00     0.134 A 
ATOM     68  C   UNL A   1      42.710  23.409  26.060  1.00  0.00     0.134 A 
ATOM     69  F   UNL A   1      41.945  22.572  29.506  1.00  0.00    -0.206 F 
ATOM     70  C   UNL A   1      41.858  21.241  27.572  1.00  0.00     0.040 A 
ATOM     71  C   UNL A   1      42.442  22.189  25.437  1.00  0.00     0.040 A 
ATOM     72  F   UNL A   1      43.111  24.434  25.295  1.00  0.00    -0.206 F 
ATOM     73  C   UNL A   1      42.016  21.100  26.194  1.00  0.00     0.006 A 
ENDBRANCH  45  66
BRANCH  57  74
ATOM     74  C   UNL A   1      48.093  26.636  30.348  1.00  0.00     0.057 A 
ATOM     75  C   UNL A   1      48.449  25.939  31.510  1.00  0.00     0.134 A 
ATOM     76  C   UNL A   1      49.092  26.847  29.388  1.00  0.00     0.134 A 
ATOM     77  F   UNL A   1      47.542  25.714  32.473  1.00  0.00    -0.206 F 
ATOM     78  C   UNL A   1      49.754  25.487  31.718  1.00  0.00     0.040 A 
ATOM     79  C   UNL A   1      50.392  26.378  29.574  1.00  0.00     0.040 A 
ATOM     80  F   UNL A   1      48.815  27.501  28.250  1.00  0.00    -0.206 F 
ATOM     81  C   UNL A   1      50.727  25.701  30.744  1.00  0.00     0.006 A 
ENDBRANCH  57  74
ENDBRANCH  31  32
ENDBRANCH  23  26
ENDBRANCH  21  22
ENDBRANCH  20  21
ENDBRANCH   1  20
TORSDOF 15
ENDMDL
MODEL 3
REMARK VINA RESULT:     -10.9      0.787      6.414
REMARK SMILES CC[C@H]1CC[C@](CC(C)(C)O)(C(=O)NCCCCNC(=O)c2ccc(-c3c4nc(c(-c5c(F)cccc5F)c5ccc([nH]5)c(-c5c(F)cccc5F)c5nc(c(-c6c(F)cccc6F)c6ccc3[nH]6)C=C5)C=C4)cc2)C1
REMARK SMILES IDX 16 1 15 2 14 3 12 4 13 5 6 7 3 8 4 9 76 10 5 11 2 12 1 13
REMARK SMILES IDX 7 14 8 15 9 16 10 17 11 18 17 20 18 21 19 22 20 23 21 25
REMARK SMILES IDX 22 26 23 27 75 28 24 29 74 30 25 31 26 32 27 33 68 34 28 35
REMARK SMILES IDX 73 36 67 37 69 38 29 39 72 40 66 41 65 42 30 44 56 45 39 46
REMARK SMILES IDX 55 47 40 48 43 49 54 50 70 51 41 52 42 53 53 55 71 56 44 57
REMARK SMILES IDX 31 58 32 59 37 60 33 61 34 62 36 63 38 64 35 65 57 66 58 67
REMARK SMILES IDX 63 68 59 69 60 70 62 71 64 72 61 73 45 74 46 75 51 76 47 77
REMARK SMILES IDX 48 78 50 79 52 80 49 81
REMARK H PARENT 14 6 11 19 19 24 69 43 43 54
REMARK Flexibility Score: inf
ROOT
ATOM      1  C   UNL A   1      37.050  20.916  24.619  1.00  0.00     0.023 C 
ENDROOT
BRANCH   1   2
ATOM      2  C   UNL A   1      36.198  21.405  25.790  1.00  0.00     0.116 C 
BRANCH   2   3
ATOM      3  N   UNL A   1      34.906  20.754  25.797  1.00  0.00    -0.356 N 
ATOM      4  C   UNL A   1      33.632  21.213  25.660  1.00  0.00     0.226 C 
ATOM      5  O   UNL A   1      32.780  20.319  25.732  1.00  0.00    -0.274 OA
ATOM      6  H   UNL A   1      34.959  19.780  25.928  1.00  0.00     0.163 HD
BRANCH   4   7
ATOM      7  C   UNL A   1      33.259  22.687  25.269  1.00  0.00     0.052 C 
ATOM      8  C   UNL A   1      34.268  24.253  23.604  1.00  0.00    -0.010 C 
ATOM      9  C   UNL A   1      34.769  24.655  24.993  1.00  0.00     0.005 C 
ATOM     10  C   UNL A   1      33.725  22.838  23.793  1.00  0.00     0.020 C 
ATOM     11  C   UNL A   1      34.052  23.771  26.022  1.00  0.00     0.017 C 
BRANCH   8  12
ATOM     12  C   UNL A   1      33.351  25.316  22.975  1.00  0.00     0.000 C 
ATOM     13  C   UNL A   1      33.104  26.573  23.793  1.00  0.00     0.004 C 
ENDBRANCH   8  12
BRANCH   7  14
ATOM     14  C   UNL A   1      31.681  22.836  25.357  1.00  0.00     0.051 C 
BRANCH  14  15
ATOM     15  C   UNL A   1      30.941  23.617  26.474  1.00  0.00     0.060 C 
ATOM     16  C   UNL A   1      30.474  25.019  26.088  1.00  0.00     0.042 C 
ATOM     17  C   UNL A   1      29.687  22.817  26.876  1.00  0.00     0.042 C 
BRANCH  15  18
ATOM     18  O   UNL A   1      31.779  23.696  27.626  1.00  0.00    -0.390 OA
ATOM     19  H   UNL A   1      31.229  23.725  28.425  1.00  0.00     0.211 HD
ENDBRANCH  15  18
ENDBRANCH  14  15
ENDBRANCH   7  14
ENDBRANCH   4   7
ENDBRANCH   2   3
ENDBRANCH   1   2
BRANCH   1  20
ATOM     20  C   UNL A   1      37.985  19.758  24.967  1.00  0.00     0.023 C 
BRANCH  20  21
ATOM     21  C   UNL A   1      39.218  20.150  25.770  1.00  0.00     0.116 C 
BRANCH  21  22
ATOM     22  N   UNL A   1      40.209  19.087  25.852  1.00  0.00    -0.352 N 
ATOM     23  C   UNL A   1      41.556  19.191  26.094  1.00  0.00     0.251 C 
ATOM     24  H   UNL A   1      39.869  18.173  25.715  1.00  0.00     0.163 HD
ATOM     25  O   UNL A   1      42.285  18.207  26.015  1.00  0.00    -0.269 OA
BRANCH  23  26
ATOM     26  C   UNL A   1      42.125  20.513  26.418  1.00  0.00     0.039 A 
ATOM     27  C   UNL A   1      42.557  21.335  25.376  1.00  0.00     0.014 A 
ATOM     28  C   UNL A   1      42.178  20.955  27.744  1.00  0.00     0.014 A 
ATOM     29  C   UNL A   1      42.984  22.633  25.659  1.00  0.00     0.010 A 
ATOM     30  C   UNL A   1      42.527  22.271  28.013  1.00  0.00     0.010 A 
ATOM     31  C   UNL A   1      42.938  23.121  26.976  1.00  0.00    -0.014 A 
BRANCH  31  32
ATOM     32  C   UNL A   1      43.309  24.522  27.288  1.00  0.00     0.031 A 
ATOM     33  C   UNL A   1      44.747  24.951  27.223  1.00  0.00     0.074 A 
ATOM     34  C   UNL A   1      42.365  25.381  27.712  1.00  0.00     0.049 A 
ATOM     35  N   UNL A   1      45.279  26.107  27.523  1.00  0.00    -0.248 NA
ATOM     36  C   UNL A   1      45.719  23.933  26.797  1.00  0.00     0.031 C 
ATOM     37  C   UNL A   1      40.947  25.063  27.887  1.00  0.00     0.029 A 
ATOM     38  N   UNL A   1      42.460  26.697  28.092  1.00  0.00    -0.354 N 
ATOM     39  C   UNL A   1      46.647  25.950  27.342  1.00  0.00     0.074 A 
ATOM     40  C   UNL A   1      46.867  24.571  26.964  1.00  0.00     0.031 C 
ATOM     41  C   UNL A   1      40.302  26.155  28.328  1.00  0.00     0.029 A 
ATOM     42  C   UNL A   1      41.265  27.240  28.496  1.00  0.00     0.049 A 
ATOM     43  H   UNL A   1      43.304  27.202  28.077  1.00  0.00     0.167 HD
ATOM     44  C   UNL A   1      47.628  26.877  27.456  1.00  0.00     0.037 A 
ATOM     45  C   UNL A   1      40.979  28.470  28.958  1.00  0.00     0.037 A 
ATOM     46  C   UNL A   1      47.399  28.251  27.812  1.00  0.00     0.049 A 
ATOM     47  C   UNL A   1      42.076  29.492  29.056  1.00  0.00     0.074 A 
ATOM     48  C   UNL A   1      48.311  29.290  27.876  1.00  0.00     0.029 A 
ATOM     49  N   UNL A   1      46.167  28.778  28.174  1.00  0.00    -0.354 N 
ATOM     50  N   UNL A   1      43.353  29.358  28.792  1.00  0.00    -0.248 NA
ATOM     51  C   UNL A   1      41.692  30.837  29.503  1.00  0.00     0.031 C 
ATOM     52  C   UNL A   1      47.640  30.434  28.322  1.00  0.00     0.029 A 
ATOM     53  C   UNL A   1      46.300  30.121  28.489  1.00  0.00     0.049 A 
ATOM     54  H   UNL A   1      45.323  28.272  28.203  1.00  0.00     0.167 HD
ATOM     55  C   UNL A   1      43.924  30.602  29.023  1.00  0.00     0.074 A 
ATOM     56  C   UNL A   1      42.848  31.483  29.433  1.00  0.00     0.031 C 
ATOM     57  C   UNL A   1      45.220  30.982  28.905  1.00  0.00     0.037 A 
BRANCH  44  58
ATOM     58  C   UNL A   1      49.034  26.418  27.196  1.00  0.00     0.057 A 
ATOM     59  C   UNL A   1      49.889  26.022  28.236  1.00  0.00     0.134 A 
ATOM     60  C   UNL A   1      49.545  26.380  25.893  1.00  0.00     0.134 A 
ATOM     61  F   UNL A   1      49.468  26.047  29.509  1.00  0.00    -0.206 F 
ATOM     62  C   UNL A   1      51.211  25.649  27.992  1.00  0.00     0.040 A 
ATOM     63  C   UNL A   1      50.856  25.978  25.635  1.00  0.00     0.040 A 
ATOM     64  F   UNL A   1      48.781  26.738  24.851  1.00  0.00    -0.206 F 
ATOM     65  C   UNL A   1      51.698  25.622  26.688  1.00  0.00     0.006 A 
ENDBRANCH  44  58
BRANCH  45  66
ATOM     66  C   UNL A   1      39.583  28.801  29.336  1.00  0.00     0.057 A 
ATOM     67  C   UNL A   1      38.667  29.265  28.387  1.00  0.00     0.134 A 
ATOM     68  C   UNL A   1      39.123  28.622  30.646  1.00  0.00     0.134 A 
ATOM     69  F   UNL A   1      39.054  29.470  27.120  1.00  0.00    -0.206 F 
ATOM     70  C   UNL A   1      37.342  29.546  28.727  1.00  0.00     0.040 A 
ATOM     71  C   UNL A   1      37.796  28.878  30.995  1.00  0.00     0.040 A 
ATOM     72  F   UNL A   1      39.951  28.169  31.599  1.00  0.00    -0.206 F 
ATOM     73  C   UNL A   1      36.902  29.344  30.034  1.00  0.00     0.006 A 
ENDBRANCH  45  66
BRANCH  57  74
ATOM     74  C   UNL A   1      45.545  32.415  29.208  1.00  0.00     0.057 A 
ATOM     75  C   UNL A   1      45.465  33.414  28.229  1.00  0.00     0.134 A 
ATOM     76  C   UNL A   1      45.901  32.807  30.505  1.00  0.00     0.134 A 
ATOM     77  F   UNL A   1      45.141  33.102  26.964  1.00  0.00    -0.206 F 
ATOM     78  C   UNL A   1      45.746  34.749  28.525  1.00  0.00     0.040 A 
ATOM     79  C   UNL A   1      46.160  34.141  30.818  1.00  0.00     0.040 A 
ATOM     80  F   UNL A   1      45.990  31.901  31.490  1.00  0.00    -0.206 F 
ATOM     81  C   UNL A   1      46.088  35.116  29.826  1.00  0.00     0.006 A 
ENDBRANCH  57  74
ENDBRANCH  31  32
ENDBRANCH  23  26
ENDBRANCH  21  22
ENDBRANCH  20  21
ENDBRANCH   1  20
TORSDOF 15
ENDMDL
