MODEL 1
REMARK VINA RESULT:     -13.4      0.000      0.000
REMARK SMILES O=C(NCCCCNC(=O)c1nnn(-c2cccc(C(F)(F)F)c2)c1[C@@H]1COc2ccccc2O1)c1ccc(-c2c3nc(c(-c4c(F)cccc4F)c4ccc([nH]4)c(-c4c(F)cccc4F)c4nc(c(-c5c(F)cccc5F)c5ccc2[nH]5)C=C4)C=C3)cc1
REMARK SMILES IDX 5 1 4 2 3 3 1 4 2 5 36 7 37 8 89 9 38 10 88 11 39 12 40 13
REMARK SMILES IDX 41 14 82 15 42 16 87 17 81 18 83 19 43 20 86 21 80 22 79 23
REMARK SMILES IDX 44 25 70 26 53 27 69 28 54 29 57 30 68 31 84 32 55 33 56 34
REMARK SMILES IDX 67 36 85 37 58 38 45 39 46 40 51 41 47 42 48 43 50 44 52 45
REMARK SMILES IDX 49 46 71 47 72 48 77 49 73 50 74 51 76 52 78 53 75 54 59 55
REMARK SMILES IDX 60 56 65 57 61 58 62 59 64 60 66 61 63 62 6 63 7 64 8 65
REMARK SMILES IDX 9 66 10 68 11 69 12 70 25 71 13 72 14 73 26 74 27 75 35 76
REMARK SMILES IDX 28 77 34 78 29 79 33 80 30 81 32 82 31 83 15 84 16 85 24 86
REMARK SMILES IDX 17 87 19 88 18 89 20 90 21 91 22 92 23 93
REMARK H PARENT 3 6 83 24 57 35 8 67
REMARK Flexibility Score: inf
ROOT
ATOM      1  C   UNL A   1      37.274  21.469  24.380  1.00  0.00     0.023 C 
ENDROOT
BRANCH   1   2
ATOM      2  C   UNL A   1      37.953  22.449  25.342  1.00  0.00     0.116 C 
BRANCH   2   3
ATOM      3  N   UNL A   1      39.196  21.986  25.934  1.00  0.00    -0.352 N 
ATOM      4  O   UNL A   1      40.845  21.645  27.361  1.00  0.00    -0.269 OA
ATOM      5  C   UNL A   1      40.037  22.461  26.908  1.00  0.00     0.251 C 
ATOM      6  H   UNL A   1      39.506  21.137  25.547  1.00  0.00     0.163 HD
BRANCH   5   7
ATOM      7  C   UNL A   1      40.093  23.864  27.406  1.00  0.00     0.039 A 
ATOM      8  C   UNL A   1      39.098  24.822  27.235  1.00  0.00     0.014 A 
ATOM      9  C   UNL A   1      41.287  24.254  28.052  1.00  0.00     0.014 A 
ATOM     10  C   UNL A   1      39.312  26.140  27.634  1.00  0.00     0.010 A 
ATOM     11  C   UNL A   1      41.505  25.570  28.460  1.00  0.00     0.010 A 
ATOM     12  C   UNL A   1      40.521  26.523  28.227  1.00  0.00    -0.014 A 
BRANCH  12  13
ATOM     13  C   UNL A   1      40.618  27.891  28.734  1.00  0.00     0.031 A 
ATOM     14  C   UNL A   1      41.787  28.654  28.214  1.00  0.00     0.074 A 
ATOM     15  C   UNL A   1      39.725  28.511  29.530  1.00  0.00     0.049 A 
ATOM     16  N   UNL A   1      42.821  29.064  28.874  1.00  0.00    -0.248 NA
ATOM     17  C   UNL A   1      41.856  28.907  26.768  1.00  0.00     0.031 C 
ATOM     18  C   UNL A   1      38.383  28.073  29.909  1.00  0.00     0.029 A 
ATOM     19  N   UNL A   1      39.829  29.740  30.121  1.00  0.00    -0.354 N 
ATOM     20  C   UNL A   1      43.599  29.779  27.966  1.00  0.00     0.074 A 
ATOM     21  C   UNL A   1      43.025  29.543  26.666  1.00  0.00     0.031 C 
ATOM     22  C   UNL A   1      37.728  29.103  30.495  1.00  0.00     0.029 A 
ATOM     23  C   UNL A   1      38.643  30.223  30.657  1.00  0.00     0.049 A 
ATOM     24  H   UNL A   1      40.676  30.241  30.161  1.00  0.00     0.167 HD
ATOM     25  C   UNL A   1      44.544  30.667  28.381  1.00  0.00     0.037 A 
ATOM     26  C   UNL A   1      38.425  31.465  31.158  1.00  0.00     0.037 A 
ATOM     27  C   UNL A   1      44.894  30.462  29.763  1.00  0.00     0.049 A 
ATOM     28  C   UNL A   1      39.737  32.065  31.495  1.00  0.00     0.074 A 
ATOM     29  C   UNL A   1      45.412  29.412  30.496  1.00  0.00     0.029 A 
ATOM     30  N   UNL A   1      44.410  31.352  30.688  1.00  0.00    -0.354 N 
ATOM     31  N   UNL A   1      40.478  31.694  32.498  1.00  0.00    -0.248 NA
ATOM     32  C   UNL A   1      40.415  32.848  30.474  1.00  0.00     0.031 C 
ATOM     33  C   UNL A   1      44.765  29.494  31.764  1.00  0.00     0.029 A 
ATOM     34  C   UNL A   1      43.935  30.614  31.739  1.00  0.00     0.049 A 
ATOM     35  H   UNL A   1      44.406  32.334  30.611  1.00  0.00     0.167 HD
ATOM     36  C   UNL A   1      41.776  31.792  32.026  1.00  0.00     0.074 A 
ATOM     37  C   UNL A   1      41.681  32.614  30.824  1.00  0.00     0.031 C 
ATOM     38  C   UNL A   1      42.758  30.968  32.494  1.00  0.00     0.037 A 
BRANCH  25  39
ATOM     39  C   UNL A   1      44.892  31.945  27.656  1.00  0.00     0.057 A 
ATOM     40  C   UNL A   1      46.128  32.042  26.989  1.00  0.00     0.134 A 
ATOM     41  C   UNL A   1      44.219  33.166  27.851  1.00  0.00     0.134 A 
ATOM     42  F   UNL A   1      46.872  30.951  26.753  1.00  0.00    -0.206 F 
ATOM     43  C   UNL A   1      46.689  33.272  26.622  1.00  0.00     0.040 A 
ATOM     44  C   UNL A   1      44.747  34.394  27.442  1.00  0.00     0.040 A 
ATOM     45  F   UNL A   1      43.072  33.250  28.535  1.00  0.00    -0.206 F 
ATOM     46  C   UNL A   1      46.002  34.455  26.858  1.00  0.00     0.006 A 
ENDBRANCH  25  39
BRANCH  26  47
ATOM     47  C   UNL A   1      37.189  32.281  31.158  1.00  0.00     0.057 A 
ATOM     48  C   UNL A   1      36.778  32.981  30.013  1.00  0.00     0.134 A 
ATOM     49  C   UNL A   1      36.232  32.150  32.177  1.00  0.00     0.134 A 
ATOM     50  F   UNL A   1      37.606  33.129  28.968  1.00  0.00    -0.206 F 
ATOM     51  C   UNL A   1      35.480  33.490  29.875  1.00  0.00     0.040 A 
ATOM     52  C   UNL A   1      34.934  32.659  32.055  1.00  0.00     0.040 A 
ATOM     53  F   UNL A   1      36.494  31.440  33.284  1.00  0.00    -0.206 F 
ATOM     54  C   UNL A   1      34.549  33.317  30.894  1.00  0.00     0.006 A 
ENDBRANCH  26  47
BRANCH  38  55
ATOM     55  C   UNL A   1      42.486  30.183  33.746  1.00  0.00     0.057 A 
ATOM     56  C   UNL A   1      41.823  28.947  33.780  1.00  0.00     0.134 A 
ATOM     57  C   UNL A   1      43.027  30.644  34.951  1.00  0.00     0.134 A 
ATOM     58  F   UNL A   1      41.363  28.369  32.660  1.00  0.00    -0.206 F 
ATOM     59  C   UNL A   1      41.657  28.235  34.971  1.00  0.00     0.040 A 
ATOM     60  C   UNL A   1      42.905  29.922  36.140  1.00  0.00     0.040 A 
ATOM     61  F   UNL A   1      43.725  31.791  34.985  1.00  0.00    -0.206 F 
ATOM     62  C   UNL A   1      42.204  28.721  36.156  1.00  0.00     0.006 A 
ENDBRANCH  38  55
ENDBRANCH  12  13
ENDBRANCH   5   7
ENDBRANCH   2   3
ENDBRANCH   1   2
BRANCH   1  63
ATOM     63  C   UNL A   1      36.272  20.498  24.996  1.00  0.00     0.023 C 
BRANCH  63  64
ATOM     64  C   UNL A   1      35.201  21.083  25.908  1.00  0.00     0.116 C 
BRANCH  64  65
ATOM     65  N   UNL A   1      33.855  20.599  25.723  1.00  0.00    -0.351 N 
ATOM     66  C   UNL A   1      32.711  21.075  25.109  1.00  0.00     0.273 C 
ATOM     67  H   UNL A   1      33.716  19.716  26.135  1.00  0.00     0.163 HD
ATOM     68  O   UNL A   1      31.770  20.271  25.181  1.00  0.00    -0.267 OA
BRANCH  66  69
ATOM     69  C   UNL A   1      32.501  22.375  24.422  1.00  0.00     0.178 A 
ATOM     70  N   UNL A   1      31.831  22.321  23.205  1.00  0.00    -0.124 NA
ATOM     71  C   UNL A   1      32.752  23.729  24.682  1.00  0.00     0.122 A 
ATOM     72  N   UNL A   1      31.637  23.543  22.744  1.00  0.00    -0.061 NA
ATOM     73  N   UNL A   1      32.281  24.392  23.555  1.00  0.00    -0.213 N 
BRANCH  71  74
ATOM     74  C   UNL A   1      33.150  24.436  25.934  1.00  0.00     0.262 C 
ATOM     75  C   UNL A   1      31.922  24.539  26.868  1.00  0.00     0.281 C 
ATOM     76  O   UNL A   1      33.841  25.670  25.720  1.00  0.00    -0.477 OA
ATOM     77  O   UNL A   1      31.113  25.670  26.552  1.00  0.00    -0.485 OA
ATOM     78  C   UNL A   1      33.265  26.741  26.353  1.00  0.00     0.162 A 
ATOM     79  C   UNL A   1      31.908  26.775  26.684  1.00  0.00     0.161 A 
ATOM     80  C   UNL A   1      34.065  27.849  26.601  1.00  0.00     0.050 A 
ATOM     81  C   UNL A   1      31.319  27.938  27.162  1.00  0.00     0.050 A 
ATOM     82  C   UNL A   1      33.492  29.000  27.143  1.00  0.00     0.004 A 
ATOM     83  C   UNL A   1      32.118  29.053  27.398  1.00  0.00     0.004 A 
ENDBRANCH  71  74
BRANCH  73  84
ATOM     84  C   UNL A   1      32.411  25.749  23.206  1.00  0.00     0.067 A 
ATOM     85  C   UNL A   1      33.596  26.202  22.621  1.00  0.00     0.028 A 
ATOM     86  C   UNL A   1      31.291  26.583  23.312  1.00  0.00     0.041 A 
ATOM     87  C   UNL A   1      33.618  27.470  22.039  1.00  0.00     0.003 A 
ATOM     88  C   UNL A   1      31.321  27.867  22.753  1.00  0.00     0.058 A 
ATOM     89  C   UNL A   1      32.485  28.291  22.089  1.00  0.00     0.013 A 
BRANCH  88  90
ATOM     90  C   UNL A   1      30.098  28.748  22.788  1.00  0.00     0.416 C 
ATOM     91  F   UNL A   1      28.936  28.038  22.786  1.00  0.00    -0.166 F 
ATOM     92  F   UNL A   1      30.053  29.534  23.899  1.00  0.00    -0.166 F 
ATOM     93  F   UNL A   1      30.014  29.601  21.728  1.00  0.00    -0.166 F 
ENDBRANCH  88  90
ENDBRANCH  73  84
ENDBRANCH  66  69
ENDBRANCH  64  65
ENDBRANCH  63  64
ENDBRANCH   1  63
TORSDOF 14
ENDMDL
MODEL 2
REMARK VINA RESULT:     -13.2      3.029      7.864
REMARK SMILES O=C(NCCCCNC(=O)c1nnn(-c2cccc(C(F)(F)F)c2)c1[C@@H]1COc2ccccc2O1)c1ccc(-c2c3nc(c(-c4c(F)cccc4F)c4ccc([nH]4)c(-c4c(F)cccc4F)c4nc(c(-c5c(F)cccc5F)c5ccc2[nH]5)C=C4)C=C3)cc1
REMARK SMILES IDX 5 1 4 2 3 3 1 4 2 5 36 7 37 8 89 9 38 10 88 11 39 12 40 13
REMARK SMILES IDX 41 14 82 15 42 16 87 17 81 18 83 19 43 20 86 21 80 22 79 23
REMARK SMILES IDX 44 25 70 26 53 27 69 28 54 29 57 30 68 31 84 32 55 33 56 34
REMARK SMILES IDX 67 36 85 37 58 38 45 39 46 40 51 41 47 42 48 43 50 44 52 45
REMARK SMILES IDX 49 46 71 47 72 48 77 49 73 50 74 51 76 52 78 53 75 54 59 55
REMARK SMILES IDX 60 56 65 57 61 58 62 59 64 60 66 61 63 62 6 63 7 64 8 65
REMARK SMILES IDX 9 66 10 68 11 69 12 70 25 71 13 72 14 73 26 74 27 75 35 76
REMARK SMILES IDX 28 77 34 78 29 79 33 80 30 81 32 82 31 83 15 84 16 85 24 86
REMARK SMILES IDX 17 87 19 88 18 89 20 90 21 91 22 92 23 93
REMARK H PARENT 3 6 83 24 57 35 8 67
REMARK Flexibility Score: inf
ROOT
ATOM      1  C   UNL A   1      33.395  29.784  27.074  1.00  0.00     0.023 C 
ENDROOT
BRANCH   1   2
ATOM      2  C   UNL A   1      34.060  31.154  27.252  1.00  0.00     0.116 C 
BRANCH   2   3
ATOM      3  N   UNL A   1      34.031  31.694  28.600  1.00  0.00    -0.352 N 
ATOM      4  O   UNL A   1      34.637  32.653  30.493  1.00  0.00    -0.269 OA
ATOM      5  C   UNL A   1      34.968  31.888  29.582  1.00  0.00     0.251 C 
ATOM      6  H   UNL A   1      33.131  31.988  28.870  1.00  0.00     0.163 HD
BRANCH   5   7
ATOM      7  C   UNL A   1      36.295  31.216  29.669  1.00  0.00     0.039 A 
ATOM      8  C   UNL A   1      37.529  31.858  29.614  1.00  0.00     0.014 A 
ATOM      9  C   UNL A   1      36.282  29.807  29.756  1.00  0.00     0.014 A 
ATOM     10  C   UNL A   1      38.709  31.116  29.579  1.00  0.00     0.010 A 
ATOM     11  C   UNL A   1      37.459  29.058  29.728  1.00  0.00     0.010 A 
ATOM     12  C   UNL A   1      38.677  29.717  29.614  1.00  0.00    -0.014 A 
BRANCH  12  13
ATOM     13  C   UNL A   1      39.958  29.017  29.704  1.00  0.00     0.031 A 
ATOM     14  C   UNL A   1      40.519  28.941  31.081  1.00  0.00     0.074 A 
ATOM     15  C   UNL A   1      40.596  28.392  28.695  1.00  0.00     0.049 A 
ATOM     16  N   UNL A   1      41.581  29.521  31.536  1.00  0.00    -0.248 NA
ATOM     17  C   UNL A   1      39.751  28.208  32.098  1.00  0.00     0.031 C 
ATOM     18  C   UNL A   1      40.099  28.080  27.356  1.00  0.00     0.029 A 
ATOM     19  N   UNL A   1      41.842  27.829  28.703  1.00  0.00    -0.354 N 
ATOM     20  C   UNL A   1      41.719  29.094  32.855  1.00  0.00     0.074 A 
ATOM     21  C   UNL A   1      40.504  28.394  33.183  1.00  0.00     0.031 C 
ATOM     22  C   UNL A   1      40.953  27.216  26.755  1.00  0.00     0.029 A 
ATOM     23  C   UNL A   1      42.117  27.023  27.606  1.00  0.00     0.049 A 
ATOM     24  H   UNL A   1      42.491  27.982  29.429  1.00  0.00     0.167 HD
ATOM     25  C   UNL A   1      42.907  29.185  33.513  1.00  0.00     0.037 A 
ATOM     26  C   UNL A   1      43.203  26.227  27.435  1.00  0.00     0.037 A 
ATOM     27  C   UNL A   1      43.807  30.100  32.861  1.00  0.00     0.049 A 
ATOM     28  C   UNL A   1      44.273  26.702  28.344  1.00  0.00     0.074 A 
ATOM     29  C   UNL A   1      43.770  31.441  32.530  1.00  0.00     0.029 A 
ATOM     30  N   UNL A   1      44.850  29.574  32.141  1.00  0.00    -0.354 N 
ATOM     31  N   UNL A   1      44.943  27.805  28.176  1.00  0.00    -0.248 NA
ATOM     32  C   UNL A   1      44.346  26.122  29.675  1.00  0.00     0.031 C 
ATOM     33  C   UNL A   1      44.447  31.532  31.278  1.00  0.00     0.029 A 
ATOM     34  C   UNL A   1      44.894  30.251  30.952  1.00  0.00     0.049 A 
ATOM     35  H   UNL A   1      45.451  28.848  32.425  1.00  0.00     0.167 HD
ATOM     36  C   UNL A   1      45.136  28.292  29.458  1.00  0.00     0.074 A 
ATOM     37  C   UNL A   1      44.854  27.163  30.339  1.00  0.00     0.031 C 
ATOM     38  C   UNL A   1      45.231  29.632  29.694  1.00  0.00     0.037 A 
BRANCH  25  39
ATOM     39  C   UNL A   1      43.396  28.189  34.537  1.00  0.00     0.057 A 
ATOM     40  C   UNL A   1      43.513  26.832  34.176  1.00  0.00     0.134 A 
ATOM     41  C   UNL A   1      43.450  28.447  35.920  1.00  0.00     0.134 A 
ATOM     42  F   UNL A   1      43.466  26.455  32.889  1.00  0.00    -0.206 F 
ATOM     43  C   UNL A   1      43.590  25.806  35.125  1.00  0.00     0.040 A 
ATOM     44  C   UNL A   1      43.579  27.433  36.874  1.00  0.00     0.040 A 
ATOM     45  F   UNL A   1      43.276  29.673  36.427  1.00  0.00    -0.206 F 
ATOM     46  C   UNL A   1      43.613  26.105  36.480  1.00  0.00     0.006 A 
ENDBRANCH  25  39
BRANCH  26  47
ATOM     47  C   UNL A   1      43.327  24.938  26.717  1.00  0.00     0.057 A 
ATOM     48  C   UNL A   1      42.559  23.822  27.086  1.00  0.00     0.134 A 
ATOM     49  C   UNL A   1      43.971  24.858  25.472  1.00  0.00     0.134 A 
ATOM     50  F   UNL A   1      41.875  23.814  28.239  1.00  0.00    -0.206 F 
ATOM     51  C   UNL A   1      42.413  22.707  26.250  1.00  0.00     0.040 A 
ATOM     52  C   UNL A   1      43.839  23.748  24.630  1.00  0.00     0.040 A 
ATOM     53  F   UNL A   1      44.672  25.894  24.989  1.00  0.00    -0.206 F 
ATOM     54  C   UNL A   1      43.044  22.675  25.011  1.00  0.00     0.006 A 
ENDBRANCH  26  47
BRANCH  38  55
ATOM     55  C   UNL A   1      45.447  30.543  28.518  1.00  0.00     0.057 A 
ATOM     56  C   UNL A   1      44.421  31.040  27.699  1.00  0.00     0.134 A 
ATOM     57  C   UNL A   1      46.737  31.033  28.283  1.00  0.00     0.134 A 
ATOM     58  F   UNL A   1      43.138  30.715  27.913  1.00  0.00    -0.206 F 
ATOM     59  C   UNL A   1      44.681  31.936  26.659  1.00  0.00     0.040 A 
ATOM     60  C   UNL A   1      47.003  31.959  27.273  1.00  0.00     0.040 A 
ATOM     61  F   UNL A   1      47.760  30.646  29.063  1.00  0.00    -0.206 F 
ATOM     62  C   UNL A   1      45.975  32.402  26.447  1.00  0.00     0.006 A 
ENDBRANCH  38  55
ENDBRANCH  12  13
ENDBRANCH   5   7
ENDBRANCH   2   3
ENDBRANCH   1   2
BRANCH   1  63
ATOM     63  C   UNL A   1      32.966  29.418  25.657  1.00  0.00     0.023 C 
BRANCH  63  64
ATOM     64  C   UNL A   1      31.543  29.775  25.243  1.00  0.00     0.116 C 
BRANCH  64  65
ATOM     65  N   UNL A   1      31.136  29.386  23.915  1.00  0.00    -0.351 N 
ATOM     66  C   UNL A   1      30.887  28.189  23.270  1.00  0.00     0.273 C 
ATOM     67  H   UNL A   1      31.005  30.162  23.323  1.00  0.00     0.163 HD
ATOM     68  O   UNL A   1      30.520  28.354  22.098  1.00  0.00    -0.267 OA
BRANCH  66  69
ATOM     69  C   UNL A   1      31.017  26.808  23.800  1.00  0.00     0.178 A 
ATOM     70  N   UNL A   1      29.848  26.055  23.833  1.00  0.00    -0.124 NA
ATOM     71  C   UNL A   1      32.045  25.972  24.258  1.00  0.00     0.122 A 
ATOM     72  N   UNL A   1      30.115  24.828  24.243  1.00  0.00    -0.061 NA
ATOM     73  N   UNL A   1      31.402  24.792  24.612  1.00  0.00    -0.213 N 
BRANCH  71  74
ATOM     74  C   UNL A   1      33.529  26.094  24.167  1.00  0.00     0.262 C 
ATOM     75  C   UNL A   1      33.978  25.729  22.733  1.00  0.00     0.281 C 
ATOM     76  O   UNL A   1      34.240  25.413  25.205  1.00  0.00    -0.477 OA
ATOM     77  O   UNL A   1      34.137  24.321  22.573  1.00  0.00    -0.485 OA
ATOM     78  C   UNL A   1      35.174  24.524  24.741  1.00  0.00     0.162 A 
ATOM     79  C   UNL A   1      35.078  23.923  23.483  1.00  0.00     0.161 A 
ATOM     80  C   UNL A   1      36.207  24.169  25.599  1.00  0.00     0.050 A 
ATOM     81  C   UNL A   1      35.938  22.898  23.114  1.00  0.00     0.050 A 
ATOM     82  C   UNL A   1      37.116  23.184  25.207  1.00  0.00     0.004 A 
ATOM     83  C   UNL A   1      36.965  22.532  23.979  1.00  0.00     0.004 A 
ENDBRANCH  71  74
BRANCH  73  84
ATOM     84  C   UNL A   1      31.921  23.663  25.272  1.00  0.00     0.067 A 
ATOM     85  C   UNL A   1      32.020  23.660  26.665  1.00  0.00     0.028 A 
ATOM     86  C   UNL A   1      32.183  22.507  24.525  1.00  0.00     0.041 A 
ATOM     87  C   UNL A   1      32.279  22.456  27.320  1.00  0.00     0.003 A 
ATOM     88  C   UNL A   1      32.471  21.303  25.180  1.00  0.00     0.058 A 
ATOM     89  C   UNL A   1      32.486  21.282  26.585  1.00  0.00     0.013 A 
BRANCH  88  90
ATOM     90  C   UNL A   1      32.677  20.033  24.395  1.00  0.00     0.416 C 
ATOM     91  F   UNL A   1      32.074  18.954  24.968  1.00  0.00    -0.166 F 
ATOM     92  F   UNL A   1      32.177  20.113  23.131  1.00  0.00    -0.166 F 
ATOM     93  F   UNL A   1      33.990  19.691  24.252  1.00  0.00    -0.166 F 
ENDBRANCH  88  90
ENDBRANCH  73  84
ENDBRANCH  66  69
ENDBRANCH  64  65
ENDBRANCH  63  64
ENDBRANCH   1  63
TORSDOF 14
ENDMDL
MODEL 3
REMARK VINA RESULT:     -13.1      1.662      3.068
REMARK SMILES O=C(NCCCCNC(=O)c1nnn(-c2cccc(C(F)(F)F)c2)c1[C@@H]1COc2ccccc2O1)c1ccc(-c2c3nc(c(-c4c(F)cccc4F)c4ccc([nH]4)c(-c4c(F)cccc4F)c4nc(c(-c5c(F)cccc5F)c5ccc2[nH]5)C=C4)C=C3)cc1
REMARK SMILES IDX 5 1 4 2 3 3 1 4 2 5 36 7 37 8 89 9 38 10 88 11 39 12 40 13
REMARK SMILES IDX 41 14 82 15 42 16 87 17 81 18 83 19 43 20 86 21 80 22 79 23
REMARK SMILES IDX 44 25 70 26 53 27 69 28 54 29 57 30 68 31 84 32 55 33 56 34
REMARK SMILES IDX 67 36 85 37 58 38 45 39 46 40 51 41 47 42 48 43 50 44 52 45
REMARK SMILES IDX 49 46 71 47 72 48 77 49 73 50 74 51 76 52 78 53 75 54 59 55
REMARK SMILES IDX 60 56 65 57 61 58 62 59 64 60 66 61 63 62 6 63 7 64 8 65
REMARK SMILES IDX 9 66 10 68 11 69 12 70 25 71 13 72 14 73 26 74 27 75 35 76
REMARK SMILES IDX 28 77 34 78 29 79 33 80 30 81 32 82 31 83 15 84 16 85 24 86
REMARK SMILES IDX 17 87 19 88 18 89 20 90 21 91 22 92 23 93
REMARK H PARENT 3 6 83 24 57 35 8 67
REMARK Flexibility Score: inf
ROOT
ATOM      1  C   UNL A   1      37.008  22.663  23.946  1.00  0.00     0.023 C 
ENDROOT
BRANCH   1   2
ATOM      2  C   UNL A   1      37.283  22.274  25.403  1.00  0.00     0.116 C 
BRANCH   2   3
ATOM      3  N   UNL A   1      38.619  21.774  25.677  1.00  0.00    -0.352 N 
ATOM      4  O   UNL A   1      40.531  21.331  26.686  1.00  0.00    -0.269 OA
ATOM      5  C   UNL A   1      39.653  22.174  26.483  1.00  0.00     0.251 C 
ATOM      6  H   UNL A   1      38.830  20.960  25.165  1.00  0.00     0.163 HD
BRANCH   5   7
ATOM      7  C   UNL A   1      39.829  23.534  27.068  1.00  0.00     0.039 A 
ATOM      8  C   UNL A   1      39.002  24.628  26.831  1.00  0.00     0.014 A 
ATOM      9  C   UNL A   1      40.968  23.726  27.881  1.00  0.00     0.014 A 
ATOM     10  C   UNL A   1      39.334  25.885  27.332  1.00  0.00     0.010 A 
ATOM     11  C   UNL A   1      41.303  24.980  28.391  1.00  0.00     0.010 A 
ATOM     12  C   UNL A   1      40.494  26.069  28.094  1.00  0.00    -0.014 A 
BRANCH  12  13
ATOM     13  C   UNL A   1      40.705  27.388  28.690  1.00  0.00     0.031 A 
ATOM     14  C   UNL A   1      41.875  28.128  28.141  1.00  0.00     0.074 A 
ATOM     15  C   UNL A   1      39.907  27.990  29.594  1.00  0.00     0.049 A 
ATOM     16  N   UNL A   1      42.974  28.433  28.750  1.00  0.00    -0.248 NA
ATOM     17  C   UNL A   1      41.855  28.488  26.716  1.00  0.00     0.031 C 
ATOM     18  C   UNL A   1      38.572  27.594  30.039  1.00  0.00     0.029 A 
ATOM     19  N   UNL A   1      40.122  29.163  30.263  1.00  0.00    -0.354 N 
ATOM     20  C   UNL A   1      43.726  29.174  27.840  1.00  0.00     0.074 A 
ATOM     21  C   UNL A   1      43.048  29.069  26.573  1.00  0.00     0.031 C 
ATOM     22  C   UNL A   1      38.020  28.608  30.747  1.00  0.00     0.029 A 
ATOM     23  C   UNL A   1      39.007  29.664  30.921  1.00  0.00     0.049 A 
ATOM     24  H   UNL A   1      40.997  29.615  30.276  1.00  0.00     0.167 HD
ATOM     25  C   UNL A   1      44.746  29.978  28.246  1.00  0.00     0.037 A 
ATOM     26  C   UNL A   1      38.895  30.873  31.525  1.00  0.00     0.037 A 
ATOM     27  C   UNL A   1      45.182  29.651  29.579  1.00  0.00     0.049 A 
ATOM     28  C   UNL A   1      40.260  31.378  31.806  1.00  0.00     0.074 A 
ATOM     29  C   UNL A   1      45.689  28.522  30.193  1.00  0.00     0.029 A 
ATOM     30  N   UNL A   1      44.816  30.490  30.601  1.00  0.00    -0.354 N 
ATOM     31  N   UNL A   1      41.048  30.893  32.721  1.00  0.00    -0.248 NA
ATOM     32  C   UNL A   1      40.906  32.201  30.796  1.00  0.00     0.031 C 
ATOM     33  C   UNL A   1      45.140  28.539  31.509  1.00  0.00     0.029 A 
ATOM     34  C   UNL A   1      44.375  29.700  31.628  1.00  0.00     0.049 A 
ATOM     35  H   UNL A   1      44.861  31.474  30.595  1.00  0.00     0.167 HD
ATOM     36  C   UNL A   1      42.312  30.961  32.161  1.00  0.00     0.074 A 
ATOM     37  C   UNL A   1      42.180  31.877  31.032  1.00  0.00     0.031 C 
ATOM     38  C   UNL A   1      43.277  30.054  32.492  1.00  0.00     0.037 A 
BRANCH  25  39
ATOM     39  C   UNL A   1      45.114  31.288  27.592  1.00  0.00     0.057 A 
ATOM     40  C   UNL A   1      46.387  31.431  27.006  1.00  0.00     0.134 A 
ATOM     41  C   UNL A   1      44.407  32.490  27.790  1.00  0.00     0.134 A 
ATOM     42  F   UNL A   1      47.164  30.362  26.777  1.00  0.00    -0.206 F 
ATOM     43  C   UNL A   1      46.946  32.683  26.721  1.00  0.00     0.040 A 
ATOM     44  C   UNL A   1      44.936  33.742  27.460  1.00  0.00     0.040 A 
ATOM     45  F   UNL A   1      43.219  32.529  28.405  1.00  0.00    -0.206 F 
ATOM     46  C   UNL A   1      46.224  33.845  26.957  1.00  0.00     0.006 A 
ENDBRANCH  25  39
BRANCH  26  47
ATOM     47  C   UNL A   1      37.710  31.749  31.678  1.00  0.00     0.057 A 
ATOM     48  C   UNL A   1      37.115  32.369  30.567  1.00  0.00     0.134 A 
ATOM     49  C   UNL A   1      36.959  31.755  32.863  1.00  0.00     0.134 A 
ATOM     50  F   UNL A   1      37.736  32.385  29.379  1.00  0.00    -0.206 F 
ATOM     51  C   UNL A   1      35.833  32.931  30.625  1.00  0.00     0.040 A 
ATOM     52  C   UNL A   1      35.680  32.318  32.936  1.00  0.00     0.040 A 
ATOM     53  F   UNL A   1      37.400  31.130  33.964  1.00  0.00    -0.206 F 
ATOM     54  C   UNL A   1      35.106  32.894  31.810  1.00  0.00     0.006 A 
ENDBRANCH  26  47
BRANCH  38  55
ATOM     55  C   UNL A   1      43.050  29.191  33.701  1.00  0.00     0.057 A 
ATOM     56  C   UNL A   1      43.439  29.532  35.005  1.00  0.00     0.134 A 
ATOM     57  C   UNL A   1      42.297  28.020  33.552  1.00  0.00     0.134 A 
ATOM     58  F   UNL A   1      44.070  30.686  35.267  1.00  0.00    -0.206 F 
ATOM     59  C   UNL A   1      43.141  28.714  36.099  1.00  0.00     0.040 A 
ATOM     60  C   UNL A   1      41.958  27.216  34.640  1.00  0.00     0.040 A 
ATOM     61  F   UNL A   1      41.841  27.660  32.341  1.00  0.00    -0.206 F 
ATOM     62  C   UNL A   1      42.394  27.553  35.918  1.00  0.00     0.006 A 
ENDBRANCH  38  55
ENDBRANCH  12  13
ENDBRANCH   5   7
ENDBRANCH   2   3
ENDBRANCH   1   2
BRANCH   1  63
ATOM     63  C   UNL A   1      35.543  22.751  23.533  1.00  0.00     0.023 C 
BRANCH  63  64
ATOM     64  C   UNL A   1      34.904  24.135  23.509  1.00  0.00     0.116 C 
BRANCH  64  65
ATOM     65  N   UNL A   1      34.863  24.852  24.760  1.00  0.00    -0.351 N 
ATOM     66  C   UNL A   1      34.078  25.856  25.297  1.00  0.00     0.273 C 
ATOM     67  H   UNL A   1      35.566  24.557  25.382  1.00  0.00     0.163 HD
ATOM     68  O   UNL A   1      34.408  26.141  26.457  1.00  0.00    -0.267 OA
BRANCH  66  69
ATOM     69  C   UNL A   1      32.954  26.591  24.663  1.00  0.00     0.178 A 
ATOM     70  N   UNL A   1      33.221  27.902  24.282  1.00  0.00    -0.124 NA
ATOM     71  C   UNL A   1      31.638  26.318  24.266  1.00  0.00     0.122 A 
ATOM     72  N   UNL A   1      32.173  28.411  23.659  1.00  0.00    -0.061 NA
ATOM     73  N   UNL A   1      31.177  27.519  23.742  1.00  0.00    -0.213 N 
BRANCH  71  74
ATOM     74  C   UNL A   1      30.900  25.030  24.119  1.00  0.00     0.262 C 
ATOM     75  C   UNL A   1      30.706  24.397  25.516  1.00  0.00     0.281 C 
ATOM     76  O   UNL A   1      31.446  24.146  23.136  1.00  0.00    -0.477 OA
ATOM     77  O   UNL A   1      31.845  23.636  25.913  1.00  0.00    -0.485 OA
ATOM     78  C   UNL A   1      31.739  22.897  23.619  1.00  0.00     0.162 A 
ATOM     79  C   UNL A   1      32.019  22.662  24.968  1.00  0.00     0.161 A 
ATOM     80  C   UNL A   1      31.826  21.856  22.704  1.00  0.00     0.050 A 
ATOM     81  C   UNL A   1      32.484  21.426  25.396  1.00  0.00     0.050 A 
ATOM     82  C   UNL A   1      32.230  20.593  23.139  1.00  0.00     0.004 A 
ATOM     83  C   UNL A   1      32.584  20.386  24.476  1.00  0.00     0.004 A 
ENDBRANCH  71  74
BRANCH  73  84
ATOM     84  C   UNL A   1      29.876  27.866  23.332  1.00  0.00     0.067 A 
ATOM     85  C   UNL A   1      28.793  27.079  23.727  1.00  0.00     0.028 A 
ATOM     86  C   UNL A   1      29.681  29.082  22.664  1.00  0.00     0.041 A 
ATOM     87  C   UNL A   1      27.500  27.571  23.547  1.00  0.00     0.003 A 
ATOM     88  C   UNL A   1      28.383  29.565  22.457  1.00  0.00     0.058 A 
ATOM     89  C   UNL A   1      27.296  28.812  22.932  1.00  0.00     0.013 A 
BRANCH  88  90
ATOM     90  C   UNL A   1      28.158  30.909  21.812  1.00  0.00     0.416 C 
ATOM     91  F   UNL A   1      27.317  31.705  22.529  1.00  0.00    -0.166 F 
ATOM     92  F   UNL A   1      29.311  31.618  21.667  1.00  0.00    -0.166 F 
ATOM     93  F   UNL A   1      27.615  30.826  20.564  1.00  0.00    -0.166 F 
ENDBRANCH  88  90
ENDBRANCH  73  84
ENDBRANCH  66  69
ENDBRANCH  64  65
ENDBRANCH  63  64
ENDBRANCH   1  63
TORSDOF 14
ENDMDL
