MODEL 1
REMARK VINA RESULT:      -9.8      0.000      0.000
REMARK SMILES N#Cc1ccn2cc(C(=O)NCCCCNC(=O)c3ccc(-c4c5nc(c(-c6c(F)cccc6F)c6ccc([nH]6)c(-c6c(F)cccc6F)c6nc(c(-c7c(F)cccc7F)c7ccc4[nH]7)C=C6)C=C5)cc3)nc2c1
REMARK SMILES IDX 14 1 13 2 12 3 11 4 9 5 10 6 8 8 3 9 4 10 75 11 5 12 74 13
REMARK SMILES IDX 6 14 73 15 7 16 2 17 1 18 15 19 16 20 17 21 18 23 19 24
REMARK SMILES IDX 20 25 72 26 21 27 71 28 22 29 23 30 24 31 65 32 25 33 70 34
REMARK SMILES IDX 64 35 66 36 26 37 69 38 63 39 62 40 27 42 53 43 36 44 52 45
REMARK SMILES IDX 37 46 40 47 51 48 67 49 38 50 39 51 50 53 68 54 41 55 28 56
REMARK SMILES IDX 29 57 34 58 30 59 31 60 33 61 35 62 32 63 54 64 55 65 60 66
REMARK SMILES IDX 56 67 57 68 59 69 61 70 58 71 42 72 43 73 48 74 44 75 45 76
REMARK SMILES IDX 47 77 49 78 46 79
REMARK H PARENT 11 7 16 22 66 41 40 52
REMARK Flexibility Score: inf
ROOT
ATOM      1  C   UNL A   1      33.911  36.535  32.620  1.00  0.00     0.023 C 
ENDROOT
BRANCH   1   2
ATOM      2  C   UNL A   1      35.159  35.722  32.981  1.00  0.00     0.023 C 
BRANCH   2   3
ATOM      3  C   UNL A   1      35.050  34.926  34.279  1.00  0.00     0.116 C 
BRANCH   3   4
ATOM      4  N   UNL A   1      35.435  33.537  34.102  1.00  0.00    -0.351 N 
ATOM      5  C   UNL A   1      36.658  32.908  34.211  1.00  0.00     0.271 C 
ATOM      6  O   UNL A   1      36.691  31.696  34.041  1.00  0.00    -0.267 OA
ATOM      7  H   UNL A   1      34.692  32.937  33.861  1.00  0.00     0.163 HD
BRANCH   5   8
ATOM      8  C   UNL A   1      37.870  33.673  34.529  1.00  0.00     0.147 A 
ATOM      9  C   UNL A   1      41.701  35.991  34.779  1.00  0.00     0.057 A 
ATOM     10  C   UNL A   1      41.304  36.093  36.184  1.00  0.00     0.038 A 
ATOM     11  C   UNL A   1      40.950  35.325  33.882  1.00  0.00     0.067 A 
ATOM     12  C   UNL A   1      40.157  35.511  36.580  1.00  0.00     0.094 A 
ATOM     13  C   UNL A   1      39.744  34.711  34.306  1.00  0.00     0.138 A 
ATOM     14  N   UNL A   1      39.386  34.827  35.641  1.00  0.00    -0.306 N 
ATOM     15  N   UNL A   1      38.860  34.019  33.633  1.00  0.00    -0.223 NA
ATOM     16  C   UNL A   1      38.195  34.167  35.786  1.00  0.00     0.127 A 
BRANCH   9  17
ATOM     17  C   UNL A   1      42.995  36.645  34.323  1.00  0.00     0.099 C 
ATOM     18  N   UNL A   1      44.068  37.187  33.944  1.00  0.00    -0.192 NA
ENDBRANCH   9  17
ENDBRANCH   5   8
ENDBRANCH   3   4
ENDBRANCH   2   3
ENDBRANCH   1   2
BRANCH   1  19
ATOM     19  C   UNL A   1      32.697  35.703  32.199  1.00  0.00     0.116 C 
BRANCH  19  20
ATOM     20  N   UNL A   1      32.459  35.671  30.770  1.00  0.00    -0.352 N 
ATOM     21  C   UNL A   1      33.031  35.025  29.711  1.00  0.00     0.251 C 
ATOM     22  H   UNL A   1      31.709  36.251  30.499  1.00  0.00     0.163 HD
ATOM     23  O   UNL A   1      32.435  35.114  28.633  1.00  0.00    -0.269 OA
BRANCH  21  24
ATOM     24  C   UNL A   1      34.322  34.285  29.750  1.00  0.00     0.039 A 
ATOM     25  C   UNL A   1      34.646  33.259  30.637  1.00  0.00     0.014 A 
ATOM     26  C   UNL A   1      35.300  34.702  28.824  1.00  0.00     0.014 A 
ATOM     27  C   UNL A   1      35.927  32.719  30.655  1.00  0.00     0.010 A 
ATOM     28  C   UNL A   1      36.579  34.153  28.824  1.00  0.00     0.010 A 
ATOM     29  C   UNL A   1      36.900  33.181  29.764  1.00  0.00    -0.014 A 
BRANCH  29  30
ATOM     30  C   UNL A   1      38.186  32.486  29.746  1.00  0.00     0.031 A 
ATOM     31  C   UNL A   1      38.113  31.086  29.236  1.00  0.00     0.074 A 
ATOM     32  C   UNL A   1      39.366  33.071  30.034  1.00  0.00     0.049 A 
ATOM     33  N   UNL A   1      38.446  29.993  29.841  1.00  0.00    -0.248 NA
ATOM     34  C   UNL A   1      37.476  30.871  27.925  1.00  0.00     0.031 C 
ATOM     35  C   UNL A   1      39.616  34.495  30.270  1.00  0.00     0.029 A 
ATOM     36  N   UNL A   1      40.620  32.527  30.076  1.00  0.00    -0.354 N 
ATOM     37  C   UNL A   1      38.238  28.965  28.920  1.00  0.00     0.074 A 
ATOM     38  C   UNL A   1      37.506  29.543  27.827  1.00  0.00     0.031 C 
ATOM     39  C   UNL A   1      40.946  34.729  30.213  1.00  0.00     0.029 A 
ATOM     40  C   UNL A   1      41.647  33.464  30.060  1.00  0.00     0.049 A 
ATOM     41  H   UNL A   1      40.780  31.557  30.115  1.00  0.00     0.167 HD
ATOM     42  C   UNL A   1      38.901  27.781  29.026  1.00  0.00     0.037 A 
ATOM     43  C   UNL A   1      42.971  33.230  29.877  1.00  0.00     0.037 A 
ATOM     44  C   UNL A   1      39.379  27.578  30.371  1.00  0.00     0.049 A 
ATOM     45  C   UNL A   1      43.220  31.794  30.135  1.00  0.00     0.074 A 
ATOM     46  C   UNL A   1      38.802  27.452  31.618  1.00  0.00     0.029 A 
ATOM     47  N   UNL A   1      40.714  27.789  30.594  1.00  0.00    -0.354 N 
ATOM     48  N   UNL A   1      43.199  31.243  31.313  1.00  0.00    -0.248 NA
ATOM     49  C   UNL A   1      43.148  30.871  29.013  1.00  0.00     0.031 C 
ATOM     50  C   UNL A   1      39.741  28.022  32.527  1.00  0.00     0.029 A 
ATOM     51  C   UNL A   1      40.857  28.425  31.793  1.00  0.00     0.049 A 
ATOM     52  H   UNL A   1      41.447  27.527  29.991  1.00  0.00     0.167 HD
ATOM     53  C   UNL A   1      42.660  29.985  31.097  1.00  0.00     0.074 A 
ATOM     54  C   UNL A   1      42.787  29.762  29.661  1.00  0.00     0.031 C 
ATOM     55  C   UNL A   1      41.905  29.381  32.059  1.00  0.00     0.037 A 
BRANCH  42  56
ATOM     56  C   UNL A   1      39.526  27.053  27.844  1.00  0.00     0.057 A 
ATOM     57  C   UNL A   1      40.407  27.639  26.913  1.00  0.00     0.134 A 
ATOM     58  C   UNL A   1      39.531  25.642  27.850  1.00  0.00     0.134 A 
ATOM     59  F   UNL A   1      40.528  28.961  26.756  1.00  0.00    -0.206 F 
ATOM     60  C   UNL A   1      41.298  26.890  26.136  1.00  0.00     0.040 A 
ATOM     61  C   UNL A   1      40.451  24.888  27.112  1.00  0.00     0.040 A 
ATOM     62  F   UNL A   1      38.715  24.952  28.660  1.00  0.00    -0.206 F 
ATOM     63  C   UNL A   1      41.357  25.514  26.269  1.00  0.00     0.006 A 
ENDBRANCH  42  56
BRANCH  43  64
ATOM     64  C   UNL A   1      44.021  34.098  29.295  1.00  0.00     0.057 A 
ATOM     65  C   UNL A   1      44.733  35.020  30.080  1.00  0.00     0.134 A 
ATOM     66  C   UNL A   1      44.161  34.238  27.905  1.00  0.00     0.134 A 
ATOM     67  F   UNL A   1      44.616  35.030  31.415  1.00  0.00    -0.206 F 
ATOM     68  C   UNL A   1      45.521  36.032  29.519  1.00  0.00     0.040 A 
ATOM     69  C   UNL A   1      44.938  35.253  27.331  1.00  0.00     0.040 A 
ATOM     70  F   UNL A   1      43.493  33.433  27.066  1.00  0.00    -0.206 F 
ATOM     71  C   UNL A   1      45.614  36.161  28.139  1.00  0.00     0.006 A 
ENDBRANCH  43  64
BRANCH  55  72
ATOM     72  C   UNL A   1      42.005  29.911  33.460  1.00  0.00     0.057 A 
ATOM     73  C   UNL A   1      41.142  30.948  33.835  1.00  0.00     0.134 A 
ATOM     74  C   UNL A   1      42.974  29.518  34.392  1.00  0.00     0.134 A 
ATOM     75  F   UNL A   1      40.225  31.412  32.972  1.00  0.00    -0.206 F 
ATOM     76  C   UNL A   1      41.226  31.560  35.087  1.00  0.00     0.040 A 
ATOM     77  C   UNL A   1      43.042  30.095  35.665  1.00  0.00     0.040 A 
ATOM     78  F   UNL A   1      43.906  28.604  34.088  1.00  0.00    -0.206 F 
ATOM     79  C   UNL A   1      42.169  31.123  36.012  1.00  0.00     0.006 A 
ENDBRANCH  55  72
ENDBRANCH  29  30
ENDBRANCH  21  24
ENDBRANCH  19  20
ENDBRANCH   1  19
TORSDOF 12
ENDMDL
MODEL 2
REMARK VINA RESULT:      -9.8      5.797     11.302
REMARK SMILES N#Cc1ccn2cc(C(=O)NCCCCNC(=O)c3ccc(-c4c5nc(c(-c6c(F)cccc6F)c6ccc([nH]6)c(-c6c(F)cccc6F)c6nc(c(-c7c(F)cccc7F)c7ccc4[nH]7)C=C6)C=C5)cc3)nc2c1
REMARK SMILES IDX 14 1 13 2 12 3 11 4 9 5 10 6 8 8 3 9 4 10 75 11 5 12 74 13
REMARK SMILES IDX 6 14 73 15 7 16 2 17 1 18 15 19 16 20 17 21 18 23 19 24
REMARK SMILES IDX 20 25 72 26 21 27 71 28 22 29 23 30 24 31 65 32 25 33 70 34
REMARK SMILES IDX 64 35 66 36 26 37 69 38 63 39 62 40 27 42 53 43 36 44 52 45
REMARK SMILES IDX 37 46 40 47 51 48 67 49 38 50 39 51 50 53 68 54 41 55 28 56
REMARK SMILES IDX 29 57 34 58 30 59 31 60 33 61 35 62 32 63 54 64 55 65 60 66
REMARK SMILES IDX 56 67 57 68 59 69 61 70 58 71 42 72 43 73 48 74 44 75 45 76
REMARK SMILES IDX 47 77 49 78 46 79
REMARK H PARENT 11 7 16 22 66 41 40 52
REMARK Flexibility Score: inf
ROOT
ATOM      1  C   UNL A   1      33.501  28.390  27.142  1.00  0.00     0.023 C 
ENDROOT
BRANCH   1   2
ATOM      2  C   UNL A   1      32.742  27.493  26.160  1.00  0.00     0.023 C 
BRANCH   2   3
ATOM      3  C   UNL A   1      33.381  27.369  24.780  1.00  0.00     0.116 C 
BRANCH   3   4
ATOM      4  N   UNL A   1      32.904  26.202  24.058  1.00  0.00    -0.351 N 
ATOM      5  C   UNL A   1      31.788  26.010  23.272  1.00  0.00     0.271 C 
ATOM      6  O   UNL A   1      31.646  24.914  22.743  1.00  0.00    -0.267 OA
ATOM      7  H   UNL A   1      33.479  25.408  24.146  1.00  0.00     0.163 HD
BRANCH   5   8
ATOM      8  C   UNL A   1      30.814  27.091  23.072  1.00  0.00     0.147 A 
ATOM      9  C   UNL A   1      28.365  30.706  22.051  1.00  0.00     0.057 A 
ATOM     10  C   UNL A   1      27.337  29.955  22.773  1.00  0.00     0.038 A 
ATOM     11  C   UNL A   1      29.610  30.220  21.892  1.00  0.00     0.067 A 
ATOM     12  C   UNL A   1      27.649  28.749  23.283  1.00  0.00     0.094 A 
ATOM     13  C   UNL A   1      29.934  28.951  22.434  1.00  0.00     0.138 A 
ATOM     14  N   UNL A   1      28.941  28.256  23.109  1.00  0.00    -0.306 N 
ATOM     15  N   UNL A   1      31.057  28.278  22.412  1.00  0.00    -0.223 NA
ATOM     16  C   UNL A   1      29.499  27.073  23.516  1.00  0.00     0.127 A 
BRANCH   9  17
ATOM     17  C   UNL A   1      28.022  32.069  21.473  1.00  0.00     0.099 C 
ATOM     18  N   UNL A   1      27.737  33.200  20.993  1.00  0.00    -0.192 NA
ENDBRANCH   9  17
ENDBRANCH   5   8
ENDBRANCH   3   4
ENDBRANCH   2   3
ENDBRANCH   1   2
BRANCH   1  19
ATOM     19  C   UNL A   1      34.715  29.112  26.553  1.00  0.00     0.116 C 
BRANCH  19  20
ATOM     20  N   UNL A   1      35.162  30.258  27.320  1.00  0.00    -0.352 N 
ATOM     21  C   UNL A   1      36.335  30.617  27.921  1.00  0.00     0.251 C 
ATOM     22  H   UNL A   1      34.455  30.935  27.435  1.00  0.00     0.163 HD
ATOM     23  O   UNL A   1      36.395  31.774  28.349  1.00  0.00    -0.269 OA
BRANCH  21  24
ATOM     24  C   UNL A   1      37.500  29.717  28.144  1.00  0.00     0.039 A 
ATOM     25  C   UNL A   1      37.662  28.848  29.223  1.00  0.00     0.014 A 
ATOM     26  C   UNL A   1      38.531  29.794  27.187  1.00  0.00     0.014 A 
ATOM     27  C   UNL A   1      38.847  28.138  29.386  1.00  0.00     0.010 A 
ATOM     28  C   UNL A   1      39.712  29.072  27.334  1.00  0.00     0.010 A 
ATOM     29  C   UNL A   1      39.881  28.267  28.454  1.00  0.00    -0.014 A 
BRANCH  29  30
ATOM     30  C   UNL A   1      41.046  27.399  28.612  1.00  0.00     0.031 A 
ATOM     31  C   UNL A   1      41.810  27.630  29.873  1.00  0.00     0.074 A 
ATOM     32  C   UNL A   1      41.352  26.385  27.778  1.00  0.00     0.049 A 
ATOM     33  N   UNL A   1      43.051  27.965  30.009  1.00  0.00    -0.248 NA
ATOM     34  C   UNL A   1      41.059  27.597  31.140  1.00  0.00     0.031 C 
ATOM     35  C   UNL A   1      40.540  25.869  26.673  1.00  0.00     0.029 A 
ATOM     36  N   UNL A   1      42.417  25.527  27.805  1.00  0.00    -0.354 N 
ATOM     37  C   UNL A   1      43.291  28.002  31.383  1.00  0.00     0.074 A 
ATOM     38  C   UNL A   1      42.006  27.919  32.021  1.00  0.00     0.031 C 
ATOM     39  C   UNL A   1      41.030  24.672  26.282  1.00  0.00     0.029 A 
ATOM     40  C   UNL A   1      42.252  24.392  27.020  1.00  0.00     0.049 A 
ATOM     41  H   UNL A   1      43.228  25.700  28.334  1.00  0.00     0.167 HD
ATOM     42  C   UNL A   1      44.549  27.853  31.882  1.00  0.00     0.037 A 
ATOM     43  C   UNL A   1      43.025  23.277  27.012  1.00  0.00     0.037 A 
ATOM     44  C   UNL A   1      45.539  28.157  30.879  1.00  0.00     0.049 A 
ATOM     45  C   UNL A   1      44.321  23.618  27.640  1.00  0.00     0.074 A 
ATOM     46  C   UNL A   1      45.885  29.266  30.135  1.00  0.00     0.029 A 
ATOM     47  N   UNL A   1      46.171  27.095  30.289  1.00  0.00    -0.354 N 
ATOM     48  N   UNL A   1      45.236  24.359  27.087  1.00  0.00    -0.248 NA
ATOM     49  C   UNL A   1      44.465  23.416  29.074  1.00  0.00     0.031 C 
ATOM     50  C   UNL A   1      46.354  28.752  28.889  1.00  0.00     0.029 A 
ATOM     51  C   UNL A   1      46.308  27.359  28.957  1.00  0.00     0.049 A 
ATOM     52  H   UNL A   1      46.474  26.278  30.748  1.00  0.00     0.167 HD
ATOM     53  C   UNL A   1      45.786  25.073  28.138  1.00  0.00     0.074 A 
ATOM     54  C   UNL A   1      45.380  24.351  29.339  1.00  0.00     0.031 C 
ATOM     55  C   UNL A   1      46.265  26.335  27.941  1.00  0.00     0.037 A 
BRANCH  42  56
ATOM     56  C   UNL A   1      44.882  26.988  33.089  1.00  0.00     0.057 A 
ATOM     57  C   UNL A   1      44.750  25.586  33.136  1.00  0.00     0.134 A 
ATOM     58  C   UNL A   1      45.696  27.535  34.104  1.00  0.00     0.134 A 
ATOM     59  F   UNL A   1      44.007  24.895  32.265  1.00  0.00    -0.206 F 
ATOM     60  C   UNL A   1      45.457  24.786  34.041  1.00  0.00     0.040 A 
ATOM     61  C   UNL A   1      46.443  26.741  34.982  1.00  0.00     0.040 A 
ATOM     62  F   UNL A   1      45.881  28.861  34.203  1.00  0.00    -0.206 F 
ATOM     63  C   UNL A   1      46.344  25.358  34.936  1.00  0.00     0.006 A 
ENDBRANCH  42  56
BRANCH  43  64
ATOM     64  C   UNL A   1      42.672  21.874  26.695  1.00  0.00     0.057 A 
ATOM     65  C   UNL A   1      41.794  21.134  27.503  1.00  0.00     0.134 A 
ATOM     66  C   UNL A   1      43.400  21.137  25.746  1.00  0.00     0.134 A 
ATOM     67  F   UNL A   1      41.104  21.718  28.492  1.00  0.00    -0.206 F 
ATOM     68  C   UNL A   1      41.659  19.745  27.389  1.00  0.00     0.040 A 
ATOM     69  C   UNL A   1      43.283  19.746  25.629  1.00  0.00     0.040 A 
ATOM     70  F   UNL A   1      44.295  21.743  24.951  1.00  0.00    -0.206 F 
ATOM     71  C   UNL A   1      42.417  19.043  26.461  1.00  0.00     0.006 A 
ENDBRANCH  43  64
BRANCH  55  72
ATOM     72  C   UNL A   1      46.547  26.762  26.530  1.00  0.00     0.057 A 
ATOM     73  C   UNL A   1      47.840  26.569  26.029  1.00  0.00     0.134 A 
ATOM     74  C   UNL A   1      45.637  27.438  25.706  1.00  0.00     0.134 A 
ATOM     75  F   UNL A   1      48.778  25.976  26.784  1.00  0.00    -0.206 F 
ATOM     76  C   UNL A   1      48.213  27.015  24.760  1.00  0.00     0.040 A 
ATOM     77  C   UNL A   1      45.986  27.854  24.418  1.00  0.00     0.040 A 
ATOM     78  F   UNL A   1      44.408  27.756  26.137  1.00  0.00    -0.206 F 
ATOM     79  C   UNL A   1      47.280  27.647  23.944  1.00  0.00     0.006 A 
ENDBRANCH  55  72
ENDBRANCH  29  30
ENDBRANCH  21  24
ENDBRANCH  19  20
ENDBRANCH   1  19
TORSDOF 12
ENDMDL
MODEL 3
REMARK VINA RESULT:      -9.7      5.487     11.444
REMARK SMILES N#Cc1ccn2cc(C(=O)NCCCCNC(=O)c3ccc(-c4c5nc(c(-c6c(F)cccc6F)c6ccc([nH]6)c(-c6c(F)cccc6F)c6nc(c(-c7c(F)cccc7F)c7ccc4[nH]7)C=C6)C=C5)cc3)nc2c1
REMARK SMILES IDX 14 1 13 2 12 3 11 4 9 5 10 6 8 8 3 9 4 10 75 11 5 12 74 13
REMARK SMILES IDX 6 14 73 15 7 16 2 17 1 18 15 19 16 20 17 21 18 23 19 24
REMARK SMILES IDX 20 25 72 26 21 27 71 28 22 29 23 30 24 31 65 32 25 33 70 34
REMARK SMILES IDX 64 35 66 36 26 37 69 38 63 39 62 40 27 42 53 43 36 44 52 45
REMARK SMILES IDX 37 46 40 47 51 48 67 49 38 50 39 51 50 53 68 54 41 55 28 56
REMARK SMILES IDX 29 57 34 58 30 59 31 60 33 61 35 62 32 63 54 64 55 65 60 66
REMARK SMILES IDX 56 67 57 68 59 69 61 70 58 71 42 72 43 73 48 74 44 75 45 76
REMARK SMILES IDX 47 77 49 78 46 79
REMARK H PARENT 11 7 16 22 66 41 40 52
REMARK Flexibility Score: inf
ROOT
ATOM      1  C   UNL A   1      32.915  29.062  26.646  1.00  0.00     0.023 C 
ENDROOT
BRANCH   1   2
ATOM      2  C   UNL A   1      32.395  28.256  25.451  1.00  0.00     0.023 C 
BRANCH   2   3
ATOM      3  C   UNL A   1      33.282  27.086  25.033  1.00  0.00     0.116 C 
BRANCH   3   4
ATOM      4  N   UNL A   1      33.470  27.028  23.594  1.00  0.00    -0.351 N 
ATOM      5  C   UNL A   1      33.679  25.962  22.744  1.00  0.00     0.271 C 
ATOM      6  O   UNL A   1      33.769  26.200  21.546  1.00  0.00    -0.267 OA
ATOM      7  H   UNL A   1      33.442  27.904  23.146  1.00  0.00     0.163 HD
BRANCH   5   8
ATOM      8  C   UNL A   1      33.779  24.594  23.266  1.00  0.00     0.147 A 
ATOM      9  C   UNL A   1      33.386  20.342  24.636  1.00  0.00     0.057 A 
ATOM     10  C   UNL A   1      34.808  20.524  24.929  1.00  0.00     0.038 A 
ATOM     11  C   UNL A   1      32.642  21.334  24.114  1.00  0.00     0.067 A 
ATOM     12  C   UNL A   1      35.380  21.714  24.663  1.00  0.00     0.094 A 
ATOM     13  C   UNL A   1      33.250  22.586  23.839  1.00  0.00     0.138 A 
ATOM     14  N   UNL A   1      34.600  22.733  24.120  1.00  0.00    -0.306 N 
ATOM     15  N   UNL A   1      32.743  23.686  23.341  1.00  0.00    -0.223 NA
ATOM     16  C   UNL A   1      34.939  24.008  23.757  1.00  0.00     0.127 A 
BRANCH   9  17
ATOM     17  C   UNL A   1      32.731  19.003  24.934  1.00  0.00     0.099 C 
ATOM     18  N   UNL A   1      32.188  17.892  25.181  1.00  0.00    -0.192 NA
ENDBRANCH   9  17
ENDBRANCH   5   8
ENDBRANCH   3   4
ENDBRANCH   2   3
ENDBRANCH   1   2
BRANCH   1  19
ATOM     19  C   UNL A   1      34.435  29.051  26.820  1.00  0.00     0.116 C 
BRANCH  19  20
ATOM     20  N   UNL A   1      34.986  30.283  27.348  1.00  0.00    -0.352 N 
ATOM     21  C   UNL A   1      36.222  30.683  27.774  1.00  0.00     0.251 C 
ATOM     22  H   UNL A   1      34.313  31.000  27.416  1.00  0.00     0.163 HD
ATOM     23  O   UNL A   1      36.355  31.889  28.002  1.00  0.00    -0.269 OA
BRANCH  21  24
ATOM     24  C   UNL A   1      37.377  29.780  28.032  1.00  0.00     0.039 A 
ATOM     25  C   UNL A   1      37.507  28.916  29.119  1.00  0.00     0.014 A 
ATOM     26  C   UNL A   1      38.434  29.849  27.104  1.00  0.00     0.014 A 
ATOM     27  C   UNL A   1      38.684  28.203  29.318  1.00  0.00     0.010 A 
ATOM     28  C   UNL A   1      39.608  29.124  27.286  1.00  0.00     0.010 A 
ATOM     29  C   UNL A   1      39.743  28.324  28.414  1.00  0.00    -0.014 A 
BRANCH  29  30
ATOM     30  C   UNL A   1      40.901  27.453  28.608  1.00  0.00     0.031 A 
ATOM     31  C   UNL A   1      41.634  27.691  29.886  1.00  0.00     0.074 A 
ATOM     32  C   UNL A   1      41.225  26.433  27.789  1.00  0.00     0.049 A 
ATOM     33  N   UNL A   1      42.873  28.023  30.051  1.00  0.00    -0.248 NA
ATOM     34  C   UNL A   1      40.851  27.670  31.134  1.00  0.00     0.031 C 
ATOM     35  C   UNL A   1      40.439  25.911  26.667  1.00  0.00     0.029 A 
ATOM     36  N   UNL A   1      42.285  25.571  27.849  1.00  0.00    -0.354 N 
ATOM     37  C   UNL A   1      43.077  28.069  31.431  1.00  0.00     0.074 A 
ATOM     38  C   UNL A   1      41.776  27.995  32.036  1.00  0.00     0.031 C 
ATOM     39  C   UNL A   1      40.934  24.709  26.298  1.00  0.00     0.029 A 
ATOM     40  C   UNL A   1      42.136  24.430  27.068  1.00  0.00     0.049 A 
ATOM     41  H   UNL A   1      43.084  25.745  28.397  1.00  0.00     0.167 HD
ATOM     42  C   UNL A   1      44.322  27.920  31.962  1.00  0.00     0.037 A 
ATOM     43  C   UNL A   1      42.905  23.314  27.088  1.00  0.00     0.037 A 
ATOM     44  C   UNL A   1      45.338  28.213  30.983  1.00  0.00     0.049 A 
ATOM     45  C   UNL A   1      44.186  23.654  27.746  1.00  0.00     0.074 A 
ATOM     46  C   UNL A   1      45.707  29.315  30.239  1.00  0.00     0.029 A 
ATOM     47  N   UNL A   1      45.981  27.144  30.416  1.00  0.00    -0.354 N 
ATOM     48  N   UNL A   1      45.118  24.388  27.211  1.00  0.00    -0.248 NA
ATOM     49  C   UNL A   1      44.293  23.462  29.184  1.00  0.00     0.031 C 
ATOM     50  C   UNL A   1      46.205  28.790  29.009  1.00  0.00     0.029 A 
ATOM     51  C   UNL A   1      46.153  27.398  29.086  1.00  0.00     0.049 A 
ATOM     52  H   UNL A   1      46.270  26.329  30.888  1.00  0.00     0.167 HD
ATOM     53  C   UNL A   1      45.643  25.108  28.270  1.00  0.00     0.074 A 
ATOM     54  C   UNL A   1      45.204  24.396  29.466  1.00  0.00     0.031 C 
ATOM     55  C   UNL A   1      46.132  26.367  28.077  1.00  0.00     0.037 A 
BRANCH  42  56
ATOM     56  C   UNL A   1      44.621  27.062  33.184  1.00  0.00     0.057 A 
ATOM     57  C   UNL A   1      44.561  25.654  33.213  1.00  0.00     0.134 A 
ATOM     58  C   UNL A   1      45.337  27.642  34.253  1.00  0.00     0.134 A 
ATOM     59  F   UNL A   1      43.915  24.933  32.291  1.00  0.00    -0.206 F 
ATOM     60  C   UNL A   1      45.250  24.885  34.158  1.00  0.00     0.040 A 
ATOM     61  C   UNL A   1      46.067  26.880  35.173  1.00  0.00     0.040 A 
ATOM     62  F   UNL A   1      45.443  28.974  34.371  1.00  0.00    -0.206 F 
ATOM     63  C   UNL A   1      46.045  25.495  35.112  1.00  0.00     0.006 A 
ENDBRANCH  42  56
BRANCH  43  64
ATOM     64  C   UNL A   1      42.555  21.909  26.772  1.00  0.00     0.057 A 
ATOM     65  C   UNL A   1      41.663  21.175  27.569  1.00  0.00     0.134 A 
ATOM     66  C   UNL A   1      43.298  21.167  25.839  1.00  0.00     0.134 A 
ATOM     67  F   UNL A   1      40.957  21.765  28.543  1.00  0.00    -0.206 F 
ATOM     68  C   UNL A   1      41.528  19.786  27.460  1.00  0.00     0.040 A 
ATOM     69  C   UNL A   1      43.180  19.775  25.727  1.00  0.00     0.040 A 
ATOM     70  F   UNL A   1      44.207  21.766  25.055  1.00  0.00    -0.206 F 
ATOM     71  C   UNL A   1      42.300  19.078  26.548  1.00  0.00     0.006 A 
ENDBRANCH  43  64
BRANCH  55  72
ATOM     72  C   UNL A   1      46.451  26.782  26.670  1.00  0.00     0.057 A 
ATOM     73  C   UNL A   1      47.784  26.709  26.248  1.00  0.00     0.134 A 
ATOM     74  C   UNL A   1      45.527  27.340  25.776  1.00  0.00     0.134 A 
ATOM     75  F   UNL A   1      48.731  26.235  27.072  1.00  0.00    -0.206 F 
ATOM     76  C   UNL A   1      48.183  27.157  24.987  1.00  0.00     0.040 A 
ATOM     77  C   UNL A   1      45.907  27.755  24.496  1.00  0.00     0.040 A 
ATOM     78  F   UNL A   1      44.250  27.542  26.128  1.00  0.00    -0.206 F 
ATOM     79  C   UNL A   1      47.240  27.669  24.101  1.00  0.00     0.006 A 
ENDBRANCH  55  72
ENDBRANCH  29  30
ENDBRANCH  21  24
ENDBRANCH  19  20
ENDBRANCH   1  19
TORSDOF 12
ENDMDL
