MODEL 1
REMARK VINA RESULT:     -11.1      0.000      0.000
REMARK SMILES CC(C)[NH2+][C@@]1(C(=O)NCCCCNC(=O)c2ccc(-c3c4nc(c(-c5c(F)cccc5F)c5ccc([nH]5)c(-c5c(F)cccc5F)c5nc(c(-c6c(F)cccc6F)c6ccc3[nH]6)C=C5)C=C4)cc2)CC[C@H](Sc2ccccn2)C1
REMARK SMILES IDX 10 1 9 2 8 3 6 4 7 5 5 7 70 8 80 9 71 10 72 11 4 12 2 15
REMARK SMILES IDX 1 16 3 17 73 18 74 19 75 20 79 21 76 22 78 23 77 24 11 25
REMARK SMILES IDX 12 26 13 27 14 28 15 30 16 31 17 32 69 33 18 34 68 35 19 36
REMARK SMILES IDX 20 37 21 38 62 39 22 40 67 41 61 42 63 43 23 44 66 45 60 46
REMARK SMILES IDX 59 47 24 49 50 50 33 51 49 52 34 53 37 54 48 55 64 56 35 57
REMARK SMILES IDX 36 58 47 60 65 61 38 62 25 63 26 64 31 65 27 66 28 67 30 68
REMARK SMILES IDX 32 69 29 70 51 71 52 72 57 73 53 74 54 75 56 76 58 77 55 78
REMARK SMILES IDX 39 79 40 80 45 81 41 82 42 83 44 84 46 85 43 86
REMARK H PARENT 8 6 4 13 4 14 13 29 63 48 37 59
REMARK Flexibility Score: inf
ROOT
ATOM      1  C   UNL A   1      39.024  22.959  26.341  1.00  0.00     0.023 C 
ENDROOT
BRANCH   1   2
ATOM      2  C   UNL A   1      37.797  23.761  25.934  1.00  0.00     0.116 C 
BRANCH   2   3
ATOM      3  N   UNL A   1      37.437  23.561  24.553  1.00  0.00    -0.351 N 
ATOM      4  C   UNL A   1      36.269  23.190  23.966  1.00  0.00     0.281 C 
ATOM      5  O   UNL A   1      36.354  22.999  22.743  1.00  0.00    -0.268 OA
ATOM      6  H   UNL A   1      38.173  23.722  23.919  1.00  0.00     0.163 HD
BRANCH   4   7
ATOM      7  C   UNL A   1      34.881  23.006  24.743  1.00  0.00     0.176 C 
ATOM      8  C   UNL A   1      35.035  21.965  25.875  1.00  0.00     0.080 C 
ATOM      9  C   UNL A   1      33.777  22.469  23.807  1.00  0.00     0.094 C 
ATOM     10  C   UNL A   1      34.255  20.716  25.461  1.00  0.00     0.022 C 
ATOM     11  C   UNL A   1      33.194  21.219  24.490  1.00  0.00     0.060 C 
BRANCH   7  12
ATOM     12  N   UNL A   1      34.574  24.367  25.230  1.00  0.00    -0.332 N 
ATOM     13  H   UNL A   1      34.741  24.335  26.236  1.00  0.00     0.347 HD
ATOM     14  H   UNL A   1      35.149  24.914  24.591  1.00  0.00     0.347 HD
BRANCH  12  15
ATOM     15  C   UNL A   1      33.311  25.064  25.079  1.00  0.00     0.176 C 
ATOM     16  C   UNL A   1      32.466  24.730  26.319  1.00  0.00     0.075 C 
ATOM     17  C   UNL A   1      33.428  26.580  24.967  1.00  0.00     0.075 C 
ENDBRANCH  12  15
ENDBRANCH   7  12
BRANCH  11  18
ATOM     18  S   UNL A   1      32.394  20.104  23.265  1.00  0.00    -0.103 SA
BRANCH  18  19
ATOM     19  C   UNL A   1      32.697  18.438  23.802  1.00  0.00     0.096 A 
ATOM     20  C   UNL A   1      33.592  17.599  23.151  1.00  0.00     0.035 A 
ATOM     21  N   UNL A   1      32.109  18.091  24.972  1.00  0.00    -0.250 NA
ATOM     22  C   UNL A   1      33.880  16.353  23.707  1.00  0.00     0.004 A 
ATOM     23  C   UNL A   1      32.439  16.896  25.513  1.00  0.00     0.112 A 
ATOM     24  C   UNL A   1      33.303  15.998  24.918  1.00  0.00     0.020 A 
ENDBRANCH  18  19
ENDBRANCH  11  18
ENDBRANCH   4   7
ENDBRANCH   2   3
ENDBRANCH   1   2
BRANCH   1  25
ATOM     25  C   UNL A   1      39.115  21.568  25.734  1.00  0.00     0.023 C 
BRANCH  25  26
ATOM     26  C   UNL A   1      39.599  20.471  26.676  1.00  0.00     0.116 C 
BRANCH  26  27
ATOM     27  N   UNL A   1      40.583  19.559  26.102  1.00  0.00    -0.352 N 
ATOM     28  C   UNL A   1      41.949  19.715  26.017  1.00  0.00     0.251 C 
ATOM     29  H   UNL A   1      40.223  18.723  25.727  1.00  0.00     0.163 HD
ATOM     30  O   UNL A   1      42.661  18.872  25.486  1.00  0.00    -0.269 OA
BRANCH  28  31
ATOM     31  C   UNL A   1      42.542  20.964  26.519  1.00  0.00     0.039 A 
ATOM     32  C   UNL A   1      42.979  21.911  25.589  1.00  0.00     0.014 A 
ATOM     33  C   UNL A   1      42.533  21.243  27.885  1.00  0.00     0.014 A 
ATOM     34  C   UNL A   1      43.311  23.190  26.029  1.00  0.00     0.010 A 
ATOM     35  C   UNL A   1      42.772  22.542  28.307  1.00  0.00     0.010 A 
ATOM     36  C   UNL A   1      43.151  23.528  27.381  1.00  0.00    -0.014 A 
BRANCH  36  37
ATOM     37  C   UNL A   1      43.368  24.911  27.862  1.00  0.00     0.031 A 
ATOM     38  C   UNL A   1      44.750  25.349  28.246  1.00  0.00     0.074 A 
ATOM     39  C   UNL A   1      42.314  25.726  28.055  1.00  0.00     0.049 A 
ATOM     40  N   UNL A   1      45.138  26.451  28.830  1.00  0.00    -0.248 NA
ATOM     41  C   UNL A   1      45.837  24.392  27.980  1.00  0.00     0.031 C 
ATOM     42  C   UNL A   1      40.914  25.385  27.782  1.00  0.00     0.029 A 
ATOM     43  N   UNL A   1      42.253  27.005  28.544  1.00  0.00    -0.354 N 
ATOM     44  C   UNL A   1      46.502  26.303  29.037  1.00  0.00     0.074 A 
ATOM     45  C   UNL A   1      46.865  24.985  28.563  1.00  0.00     0.031 C 
ATOM     46  C   UNL A   1      40.139  26.438  28.089  1.00  0.00     0.029 A 
ATOM     47  C   UNL A   1      40.979  27.510  28.611  1.00  0.00     0.049 A 
ATOM     48  H   UNL A   1      43.050  27.514  28.822  1.00  0.00     0.167 HD
ATOM     49  C   UNL A   1      47.378  27.195  29.555  1.00  0.00     0.037 A 
ATOM     50  C   UNL A   1      40.539  28.703  29.051  1.00  0.00     0.037 A 
ATOM     51  C   UNL A   1      47.017  28.521  29.975  1.00  0.00     0.049 A 
ATOM     52  C   UNL A   1      41.537  29.703  29.562  1.00  0.00     0.074 A 
ATOM     53  C   UNL A   1      47.835  29.532  30.445  1.00  0.00     0.029 A 
ATOM     54  N   UNL A   1      45.723  29.022  29.962  1.00  0.00    -0.354 N 
ATOM     55  N   UNL A   1      42.834  29.575  29.704  1.00  0.00    -0.248 NA
ATOM     56  C   UNL A   1      41.013  31.014  29.968  1.00  0.00     0.031 C 
ATOM     57  C   UNL A   1      47.031  30.641  30.738  1.00  0.00     0.029 A 
ATOM     58  C   UNL A   1      45.718  30.328  30.420  1.00  0.00     0.049 A 
ATOM     59  H   UNL A   1      44.926  28.523  29.672  1.00  0.00     0.167 HD
ATOM     60  C   UNL A   1      43.286  30.790  30.199  1.00  0.00     0.074 A 
ATOM     61  C   UNL A   1      42.124  31.649  30.318  1.00  0.00     0.031 C 
ATOM     62  C   UNL A   1      44.548  31.161  30.526  1.00  0.00     0.037 A 
BRANCH  49  63
ATOM     63  C   UNL A   1      48.804  26.750  29.682  1.00  0.00     0.057 A 
ATOM     64  C   UNL A   1      49.267  26.069  30.817  1.00  0.00     0.134 A 
ATOM     65  C   UNL A   1      49.732  27.027  28.672  1.00  0.00     0.134 A 
ATOM     66  F   UNL A   1      48.433  25.793  31.830  1.00  0.00    -0.206 F 
ATOM     67  C   UNL A   1      50.610  25.717  30.960  1.00  0.00     0.040 A 
ATOM     68  C   UNL A   1      51.072  26.654  28.791  1.00  0.00     0.040 A 
ATOM     69  F   UNL A   1      49.357  27.674  27.559  1.00  0.00    -0.206 F 
ATOM     70  C   UNL A   1      51.516  26.006  29.943  1.00  0.00     0.006 A 
ENDBRANCH  49  63
BRANCH  50  71
ATOM     71  C   UNL A   1      39.093  29.026  28.989  1.00  0.00     0.057 A 
ATOM     72  C   UNL A   1      38.505  29.463  27.798  1.00  0.00     0.134 A 
ATOM     73  C   UNL A   1      38.260  28.878  30.105  1.00  0.00     0.134 A 
ATOM     74  F   UNL A   1      39.256  29.637  26.700  1.00  0.00    -0.206 F 
ATOM     75  C   UNL A   1      37.142  29.752  27.717  1.00  0.00     0.040 A 
ATOM     76  C   UNL A   1      36.892  29.145  30.034  1.00  0.00     0.040 A 
ATOM     77  F   UNL A   1      38.763  28.451  31.272  1.00  0.00    -0.206 F 
ATOM     78  C   UNL A   1      36.330  29.587  28.838  1.00  0.00     0.006 A 
ENDBRANCH  50  71
BRANCH  62  79
ATOM     79  C   UNL A   1      44.735  32.562  31.023  1.00  0.00     0.057 A 
ATOM     80  C   UNL A   1      44.704  32.866  32.389  1.00  0.00     0.134 A 
ATOM     81  C   UNL A   1      44.997  33.606  30.128  1.00  0.00     0.134 A 
ATOM     82  F   UNL A   1      44.447  31.910  33.294  1.00  0.00    -0.206 F 
ATOM     83  C   UNL A   1      44.912  34.168  32.847  1.00  0.00     0.040 A 
ATOM     84  C   UNL A   1      45.225  34.907  30.575  1.00  0.00     0.040 A 
ATOM     85  F   UNL A   1      45.046  33.374  28.807  1.00  0.00    -0.206 F 
ATOM     86  C   UNL A   1      45.181  35.191  31.938  1.00  0.00     0.006 A 
ENDBRANCH  62  79
ENDBRANCH  36  37
ENDBRANCH  28  31
ENDBRANCH  26  27
ENDBRANCH  25  26
ENDBRANCH   1  25
TORSDOF 15
ENDMDL
MODEL 2
REMARK VINA RESULT:     -11.0      4.420      9.466
REMARK SMILES CC(C)[NH2+][C@@]1(C(=O)NCCCCNC(=O)c2ccc(-c3c4nc(c(-c5c(F)cccc5F)c5ccc([nH]5)c(-c5c(F)cccc5F)c5nc(c(-c6c(F)cccc6F)c6ccc3[nH]6)C=C5)C=C4)cc2)CC[C@H](Sc2ccccn2)C1
REMARK SMILES IDX 10 1 9 2 8 3 6 4 7 5 5 7 70 8 80 9 71 10 72 11 4 12 2 15
REMARK SMILES IDX 1 16 3 17 73 18 74 19 75 20 79 21 76 22 78 23 77 24 11 25
REMARK SMILES IDX 12 26 13 27 14 28 15 30 16 31 17 32 69 33 18 34 68 35 19 36
REMARK SMILES IDX 20 37 21 38 62 39 22 40 67 41 61 42 63 43 23 44 66 45 60 46
REMARK SMILES IDX 59 47 24 49 50 50 33 51 49 52 34 53 37 54 48 55 64 56 35 57
REMARK SMILES IDX 36 58 47 60 65 61 38 62 25 63 26 64 31 65 27 66 28 67 30 68
REMARK SMILES IDX 32 69 29 70 51 71 52 72 57 73 53 74 54 75 56 76 58 77 55 78
REMARK SMILES IDX 39 79 40 80 45 81 41 82 42 83 44 84 46 85 43 86
REMARK H PARENT 8 6 4 13 4 14 13 29 63 48 37 59
REMARK Flexibility Score: inf
ROOT
ATOM      1  C   UNL A   1      34.519  30.226  27.561  1.00  0.00     0.023 C 
ENDROOT
BRANCH   1   2
ATOM      2  C   UNL A   1      34.164  28.860  26.992  1.00  0.00     0.116 C 
BRANCH   2   3
ATOM      3  N   UNL A   1      32.903  28.367  27.482  1.00  0.00    -0.351 N 
ATOM      4  C   UNL A   1      31.860  27.765  26.852  1.00  0.00     0.281 C 
ATOM      5  O   UNL A   1      30.870  27.578  27.576  1.00  0.00    -0.268 OA
ATOM      6  H   UNL A   1      32.772  28.489  28.450  1.00  0.00     0.163 HD
BRANCH   4   7
ATOM      7  C   UNL A   1      31.864  27.317  25.315  1.00  0.00     0.176 C 
ATOM      8  C   UNL A   1      32.365  28.474  24.421  1.00  0.00     0.080 C 
ATOM      9  C   UNL A   1      30.442  26.973  24.823  1.00  0.00     0.094 C 
ATOM     10  C   UNL A   1      31.167  28.990  23.622  1.00  0.00     0.022 C 
ATOM     11  C   UNL A   1      30.201  27.814  23.556  1.00  0.00     0.060 C 
BRANCH   7  12
ATOM     12  N   UNL A   1      32.750  26.134  25.301  1.00  0.00    -0.332 N 
ATOM     13  H   UNL A   1      33.155  26.093  26.236  1.00  0.00     0.347 HD
ATOM     14  H   UNL A   1      32.098  25.434  24.950  1.00  0.00     0.347 HD
BRANCH  12  15
ATOM     15  C   UNL A   1      33.862  25.908  24.397  1.00  0.00     0.176 C 
ATOM     16  C   UNL A   1      34.817  24.931  25.101  1.00  0.00     0.075 C 
ATOM     17  C   UNL A   1      33.476  25.320  23.045  1.00  0.00     0.075 C 
ENDBRANCH  12  15
ENDBRANCH   7  12
BRANCH  11  18
ATOM     18  S   UNL A   1      28.404  28.050  23.245  1.00  0.00    -0.103 SA
BRANCH  18  19
ATOM     19  C   UNL A   1      28.187  29.724  22.690  1.00  0.00     0.096 A 
ATOM     20  C   UNL A   1      27.980  30.777  23.572  1.00  0.00     0.035 A 
ATOM     21  N   UNL A   1      28.384  29.925  21.365  1.00  0.00    -0.250 NA
ATOM     22  C   UNL A   1      27.953  32.080  23.076  1.00  0.00     0.004 A 
ATOM     23  C   UNL A   1      28.399  31.201  20.916  1.00  0.00     0.112 A 
ATOM     24  C   UNL A   1      28.180  32.299  21.725  1.00  0.00     0.020 A 
ENDBRANCH  18  19
ENDBRANCH  11  18
ENDBRANCH   4   7
ENDBRANCH   2   3
ENDBRANCH   1   2
BRANCH   1  25
ATOM     25  C   UNL A   1      33.340  31.165  27.765  1.00  0.00     0.023 C 
BRANCH  25  26
ATOM     26  C   UNL A   1      33.444  32.512  27.060  1.00  0.00     0.116 C 
BRANCH  26  27
ATOM     27  N   UNL A   1      32.800  33.621  27.757  1.00  0.00    -0.352 N 
ATOM     28  C   UNL A   1      33.278  34.362  28.816  1.00  0.00     0.251 C 
ATOM     29  H   UNL A   1      31.907  33.873  27.427  1.00  0.00     0.163 HD
ATOM     30  O   UNL A   1      32.619  35.259  29.323  1.00  0.00    -0.269 OA
BRANCH  28  31
ATOM     31  C   UNL A   1      34.588  34.004  29.384  1.00  0.00     0.039 A 
ATOM     32  C   UNL A   1      34.617  33.247  30.557  1.00  0.00     0.014 A 
ATOM     33  C   UNL A   1      35.758  34.298  28.684  1.00  0.00     0.014 A 
ATOM     34  C   UNL A   1      35.823  32.690  30.975  1.00  0.00     0.010 A 
ATOM     35  C   UNL A   1      36.935  33.665  29.048  1.00  0.00     0.010 A 
ATOM     36  C   UNL A   1      36.975  32.846  30.190  1.00  0.00    -0.014 A 
BRANCH  36  37
ATOM     37  C   UNL A   1      38.242  32.161  30.531  1.00  0.00     0.031 A 
ATOM     38  C   UNL A   1      39.220  32.836  31.447  1.00  0.00     0.074 A 
ATOM     39  C   UNL A   1      38.555  30.995  29.935  1.00  0.00     0.049 A 
ATOM     40  N   UNL A   1      40.442  32.490  31.754  1.00  0.00    -0.248 NA
ATOM     41  C   UNL A   1      38.776  34.098  32.062  1.00  0.00     0.031 C 
ATOM     42  C   UNL A   1      37.712  30.279  28.973  1.00  0.00     0.029 A 
ATOM     43  N   UNL A   1      39.677  30.215  30.037  1.00  0.00    -0.354 N 
ATOM     44  C   UNL A   1      40.925  33.510  32.562  1.00  0.00     0.074 A 
ATOM     45  C   UNL A   1      39.884  34.510  32.656  1.00  0.00     0.031 C 
ATOM     46  C   UNL A   1      38.340  29.155  28.592  1.00  0.00     0.029 A 
ATOM     47  C   UNL A   1      39.639  29.091  29.251  1.00  0.00     0.049 A 
ATOM     48  H   UNL A   1      40.439  30.441  30.618  1.00  0.00     0.167 HD
ATOM     49  C   UNL A   1      42.122  33.594  33.188  1.00  0.00     0.037 A 
ATOM     50  C   UNL A   1      40.556  28.120  29.079  1.00  0.00     0.037 A 
ATOM     51  C   UNL A   1      43.130  32.571  33.130  1.00  0.00     0.049 A 
ATOM     52  C   UNL A   1      41.852  28.200  29.835  1.00  0.00     0.074 A 
ATOM     53  C   UNL A   1      44.346  32.518  33.784  1.00  0.00     0.029 A 
ATOM     54  N   UNL A   1      43.026  31.410  32.377  1.00  0.00    -0.354 N 
ATOM     55  N   UNL A   1      42.279  29.142  30.640  1.00  0.00    -0.248 NA
ATOM     56  C   UNL A   1      42.789  27.082  29.663  1.00  0.00     0.031 C 
ATOM     57  C   UNL A   1      44.990  31.332  33.409  1.00  0.00     0.029 A 
ATOM     58  C   UNL A   1      44.159  30.634  32.547  1.00  0.00     0.049 A 
ATOM     59  H   UNL A   1      42.260  31.173  31.806  1.00  0.00     0.167 HD
ATOM     60  C   UNL A   1      43.526  28.726  31.086  1.00  0.00     0.074 A 
ATOM     61  C   UNL A   1      43.779  27.438  30.471  1.00  0.00     0.031 C 
ATOM     62  C   UNL A   1      44.384  29.354  31.926  1.00  0.00     0.037 A 
BRANCH  49  63
ATOM     63  C   UNL A   1      42.385  34.835  33.987  1.00  0.00     0.057 A 
ATOM     64  C   UNL A   1      42.079  34.914  35.353  1.00  0.00     0.134 A 
ATOM     65  C   UNL A   1      42.926  35.974  33.380  1.00  0.00     0.134 A 
ATOM     66  F   UNL A   1      41.538  33.863  35.989  1.00  0.00    -0.206 F 
ATOM     67  C   UNL A   1      42.262  36.093  36.076  1.00  0.00     0.040 A 
ATOM     68  C   UNL A   1      43.141  37.151  34.099  1.00  0.00     0.040 A 
ATOM     69  F   UNL A   1      43.242  35.968  32.076  1.00  0.00    -0.206 F 
ATOM     70  C   UNL A   1      42.799  37.215  35.449  1.00  0.00     0.006 A 
ENDBRANCH  49  63
BRANCH  50  71
ATOM     71  C   UNL A   1      40.259  26.975  28.184  1.00  0.00     0.057 A 
ATOM     72  C   UNL A   1      40.812  26.905  26.902  1.00  0.00     0.134 A 
ATOM     73  C   UNL A   1      39.443  25.914  28.596  1.00  0.00     0.134 A 
ATOM     74  F   UNL A   1      41.590  27.899  26.447  1.00  0.00    -0.206 F 
ATOM     75  C   UNL A   1      40.560  25.825  26.054  1.00  0.00     0.040 A 
ATOM     76  C   UNL A   1      39.196  24.819  27.766  1.00  0.00     0.040 A 
ATOM     77  F   UNL A   1      38.893  25.919  29.819  1.00  0.00    -0.206 F 
ATOM     78  C   UNL A   1      39.752  24.775  26.489  1.00  0.00     0.006 A 
ENDBRANCH  50  71
BRANCH  62  79
ATOM     79  C   UNL A   1      45.664  28.644  32.243  1.00  0.00     0.057 A 
ATOM     80  C   UNL A   1      45.757  27.737  33.304  1.00  0.00     0.134 A 
ATOM     81  C   UNL A   1      46.801  28.837  31.449  1.00  0.00     0.134 A 
ATOM     82  F   UNL A   1      44.705  27.519  34.108  1.00  0.00    -0.206 F 
ATOM     83  C   UNL A   1      46.943  27.054  33.574  1.00  0.00     0.040 A 
ATOM     84  C   UNL A   1      47.987  28.146  31.697  1.00  0.00     0.040 A 
ATOM     85  F   UNL A   1      46.772  29.690  30.413  1.00  0.00    -0.206 F 
ATOM     86  C   UNL A   1      48.060  27.253  32.764  1.00  0.00     0.006 A 
ENDBRANCH  62  79
ENDBRANCH  36  37
ENDBRANCH  28  31
ENDBRANCH  26  27
ENDBRANCH  25  26
ENDBRANCH   1  25
TORSDOF 15
ENDMDL
MODEL 3
REMARK VINA RESULT:     -11.0      4.738      8.811
REMARK SMILES CC(C)[NH2+][C@@]1(C(=O)NCCCCNC(=O)c2ccc(-c3c4nc(c(-c5c(F)cccc5F)c5ccc([nH]5)c(-c5c(F)cccc5F)c5nc(c(-c6c(F)cccc6F)c6ccc3[nH]6)C=C5)C=C4)cc2)CC[C@H](Sc2ccccn2)C1
REMARK SMILES IDX 10 1 9 2 8 3 6 4 7 5 5 7 70 8 80 9 71 10 72 11 4 12 2 15
REMARK SMILES IDX 1 16 3 17 73 18 74 19 75 20 79 21 76 22 78 23 77 24 11 25
REMARK SMILES IDX 12 26 13 27 14 28 15 30 16 31 17 32 69 33 18 34 68 35 19 36
REMARK SMILES IDX 20 37 21 38 62 39 22 40 67 41 61 42 63 43 23 44 66 45 60 46
REMARK SMILES IDX 59 47 24 49 50 50 33 51 49 52 34 53 37 54 48 55 64 56 35 57
REMARK SMILES IDX 36 58 47 60 65 61 38 62 25 63 26 64 31 65 27 66 28 67 30 68
REMARK SMILES IDX 32 69 29 70 51 71 52 72 57 73 53 74 54 75 56 76 58 77 55 78
REMARK SMILES IDX 39 79 40 80 45 81 41 82 42 83 44 84 46 85 43 86
REMARK H PARENT 8 6 4 13 4 14 13 29 63 48 37 59
REMARK Flexibility Score: inf
ROOT
ATOM      1  C   UNL A   1      31.502  30.765  25.912  1.00  0.00     0.023 C 
ENDROOT
BRANCH   1   2
ATOM      2  C   UNL A   1      32.856  30.071  25.928  1.00  0.00     0.116 C 
BRANCH   2   3
ATOM      3  N   UNL A   1      33.306  29.704  24.610  1.00  0.00    -0.351 N 
ATOM      4  C   UNL A   1      33.296  28.517  23.947  1.00  0.00     0.281 C 
ATOM      5  O   UNL A   1      33.882  28.542  22.854  1.00  0.00    -0.268 OA
ATOM      6  H   UNL A   1      33.691  30.449  24.095  1.00  0.00     0.163 HD
BRANCH   4   7
ATOM      7  C   UNL A   1      32.601  27.181  24.490  1.00  0.00     0.176 C 
ATOM      8  C   UNL A   1      33.144  26.827  25.893  1.00  0.00     0.080 C 
ATOM      9  C   UNL A   1      32.920  25.971  23.585  1.00  0.00     0.094 C 
ATOM     10  C   UNL A   1      34.012  25.576  25.750  1.00  0.00     0.022 C 
ATOM     11  C   UNL A   1      33.488  24.874  24.504  1.00  0.00     0.060 C 
BRANCH   7  12
ATOM     12  N   UNL A   1      31.161  27.510  24.479  1.00  0.00    -0.332 N 
ATOM     13  H   UNL A   1      30.946  27.799  25.434  1.00  0.00     0.347 HD
ATOM     14  H   UNL A   1      31.136  28.152  23.688  1.00  0.00     0.347 HD
BRANCH  12  15
ATOM     15  C   UNL A   1      30.082  26.616  24.104  1.00  0.00     0.176 C 
ATOM     16  C   UNL A   1      29.647  25.880  25.381  1.00  0.00     0.075 C 
ATOM     17  C   UNL A   1      28.862  27.305  23.502  1.00  0.00     0.075 C 
ENDBRANCH  12  15
ENDBRANCH   7  12
BRANCH  11  18
ATOM     18  S   UNL A   1      34.519  23.681  23.557  1.00  0.00    -0.103 SA
BRANCH  18  19
ATOM     19  C   UNL A   1      34.026  22.051  24.062  1.00  0.00     0.096 A 
ATOM     20  C   UNL A   1      32.794  21.510  23.721  1.00  0.00     0.035 A 
ATOM     21  N   UNL A   1      34.988  21.319  24.673  1.00  0.00    -0.250 NA
ATOM     22  C   UNL A   1      32.529  20.177  24.037  1.00  0.00     0.004 A 
ATOM     23  C   UNL A   1      34.723  20.017  24.927  1.00  0.00     0.112 A 
ATOM     24  C   UNL A   1      33.516  19.411  24.639  1.00  0.00     0.020 A 
ENDBRANCH  18  19
ENDBRANCH  11  18
ENDBRANCH   4   7
ENDBRANCH   2   3
ENDBRANCH   1   2
BRANCH   1  25
ATOM     25  C   UNL A   1      31.369  31.939  26.870  1.00  0.00     0.023 C 
BRANCH  25  26
ATOM     26  C   UNL A   1      32.448  33.009  26.750  1.00  0.00     0.116 C 
BRANCH  26  27
ATOM     27  N   UNL A   1      32.269  34.162  27.627  1.00  0.00    -0.352 N 
ATOM     28  C   UNL A   1      33.082  34.594  28.652  1.00  0.00     0.251 C 
ATOM     29  H   UNL A   1      31.461  34.701  27.464  1.00  0.00     0.163 HD
ATOM     30  O   UNL A   1      32.800  35.575  29.327  1.00  0.00    -0.269 OA
BRANCH  28  31
ATOM     31  C   UNL A   1      34.280  33.803  28.973  1.00  0.00     0.039 A 
ATOM     32  C   UNL A   1      35.534  34.378  28.750  1.00  0.00     0.014 A 
ATOM     33  C   UNL A   1      34.154  32.571  29.613  1.00  0.00     0.014 A 
ATOM     34  C   UNL A   1      36.667  33.757  29.270  1.00  0.00     0.010 A 
ATOM     35  C   UNL A   1      35.271  32.007  30.210  1.00  0.00     0.010 A 
ATOM     36  C   UNL A   1      36.534  32.602  30.053  1.00  0.00    -0.014 A 
BRANCH  36  37
ATOM     37  C   UNL A   1      37.699  31.990  30.731  1.00  0.00     0.031 A 
ATOM     38  C   UNL A   1      38.497  30.939  30.017  1.00  0.00     0.074 A 
ATOM     39  C   UNL A   1      37.965  32.298  32.014  1.00  0.00     0.049 A 
ATOM     40  N   UNL A   1      39.450  30.170  30.473  1.00  0.00    -0.248 NA
ATOM     41  C   UNL A   1      38.137  30.687  28.612  1.00  0.00     0.031 C 
ATOM     42  C   UNL A   1      37.215  33.255  32.833  1.00  0.00     0.029 A 
ATOM     43  N   UNL A   1      38.932  31.824  32.862  1.00  0.00    -0.354 N 
ATOM     44  C   UNL A   1      39.774  29.319  29.426  1.00  0.00     0.074 A 
ATOM     45  C   UNL A   1      38.883  29.631  28.330  1.00  0.00     0.031 C 
ATOM     46  C   UNL A   1      37.764  33.311  34.057  1.00  0.00     0.029 A 
ATOM     47  C   UNL A   1      38.878  32.371  34.120  1.00  0.00     0.049 A 
ATOM     48  H   UNL A   1      39.602  31.154  32.594  1.00  0.00     0.167 HD
ATOM     49  C   UNL A   1      40.745  28.377  29.376  1.00  0.00     0.037 A 
ATOM     50  C   UNL A   1      39.640  32.134  35.203  1.00  0.00     0.037 A 
ATOM     51  C   UNL A   1      41.659  28.110  30.452  1.00  0.00     0.049 A 
ATOM     52  C   UNL A   1      40.754  31.130  35.105  1.00  0.00     0.074 A 
ATOM     53  C   UNL A   1      42.725  27.231  30.482  1.00  0.00     0.029 A 
ATOM     54  N   UNL A   1      41.616  28.736  31.690  1.00  0.00    -0.354 N 
ATOM     55  N   UNL A   1      41.089  30.368  34.093  1.00  0.00    -0.248 NA
ATOM     56  C   UNL A   1      41.597  30.958  36.295  1.00  0.00     0.031 C 
ATOM     57  C   UNL A   1      43.317  27.309  31.749  1.00  0.00     0.029 A 
ATOM     58  C   UNL A   1      42.637  28.260  32.495  1.00  0.00     0.049 A 
ATOM     59  H   UNL A   1      40.958  29.417  31.957  1.00  0.00     0.167 HD
ATOM     60  C   UNL A   1      42.190  29.637  34.514  1.00  0.00     0.074 A 
ATOM     61  C   UNL A   1      42.476  30.059  35.871  1.00  0.00     0.031 C 
ATOM     62  C   UNL A   1      42.901  28.699  33.840  1.00  0.00     0.037 A 
BRANCH  49  63
ATOM     63  C   UNL A   1      40.853  27.582  28.109  1.00  0.00     0.057 A 
ATOM     64  C   UNL A   1      40.181  26.364  27.941  1.00  0.00     0.134 A 
ATOM     65  C   UNL A   1      41.659  28.026  27.054  1.00  0.00     0.134 A 
ATOM     66  F   UNL A   1      39.410  25.872  28.923  1.00  0.00    -0.206 F 
ATOM     67  C   UNL A   1      40.339  25.595  26.787  1.00  0.00     0.040 A 
ATOM     68  C   UNL A   1      41.802  27.281  25.882  1.00  0.00     0.040 A 
ATOM     69  F   UNL A   1      42.329  29.184  27.147  1.00  0.00    -0.206 F 
ATOM     70  C   UNL A   1      41.149  26.056  25.751  1.00  0.00     0.006 A 
ENDBRANCH  49  63
BRANCH  50  71
ATOM     71  C   UNL A   1      39.397  32.890  36.456  1.00  0.00     0.057 A 
ATOM     72  C   UNL A   1      40.072  34.088  36.714  1.00  0.00     0.134 A 
ATOM     73  C   UNL A   1      38.468  32.453  37.408  1.00  0.00     0.134 A 
ATOM     74  F   UNL A   1      40.984  34.549  35.845  1.00  0.00    -0.206 F 
ATOM     75  C   UNL A   1      39.841  34.822  37.879  1.00  0.00     0.040 A 
ATOM     76  C   UNL A   1      38.213  33.186  38.568  1.00  0.00     0.040 A 
ATOM     77  F   UNL A   1      37.782  31.319  37.211  1.00  0.00    -0.206 F 
ATOM     78  C   UNL A   1      38.904  34.372  38.808  1.00  0.00     0.006 A 
ENDBRANCH  50  71
BRANCH  62  79
ATOM     79  C   UNL A   1      44.066  28.087  34.555  1.00  0.00     0.057 A 
ATOM     80  C   UNL A   1      45.337  28.671  34.521  1.00  0.00     0.134 A 
ATOM     81  C   UNL A   1      43.901  26.927  35.322  1.00  0.00     0.134 A 
ATOM     82  F   UNL A   1      45.560  29.775  33.794  1.00  0.00    -0.206 F 
ATOM     83  C   UNL A   1      46.411  28.112  35.216  1.00  0.00     0.040 A 
ATOM     84  C   UNL A   1      44.961  26.372  36.037  1.00  0.00     0.040 A 
ATOM     85  F   UNL A   1      42.703  26.326  35.399  1.00  0.00    -0.206 F 
ATOM     86  C   UNL A   1      46.222  26.964  35.982  1.00  0.00     0.006 A 
ENDBRANCH  62  79
ENDBRANCH  36  37
ENDBRANCH  28  31
ENDBRANCH  26  27
ENDBRANCH  25  26
ENDBRANCH   1  25
TORSDOF 15
ENDMDL
