MODEL 1
REMARK VINA RESULT:     -14.4      0.000      0.000
REMARK SMILES COc1cccc([C@@H]2CC(c3cccc(C)c3)=NN2C(=O)CCC(=O)NCCCCNC(=O)c2ccc(-c3c4nc(c(-c5c(F)cccc5F)c5ccc([nH]5)c(-c5c(F)cccc5F)c5nc(c(-c6c(F)cccc6F)c6ccc3[nH]6)C=C5)C=C4)cc2)c1
REMARK SMILES IDX 27 1 26 2 24 3 25 4 23 6 22 7 20 8 21 9 19 10 8 11 9 12
REMARK SMILES IDX 10 13 18 14 7 15 3 16 4 17 88 18 5 19 6 20 2 21 1 22 11 23
REMARK SMILES IDX 12 24 17 25 13 26 15 27 14 28 16 29 28 30 29 31 30 32 31 33
REMARK SMILES IDX 32 34 33 36 34 37 35 38 87 39 36 40 86 41 37 42 38 43 39 44
REMARK SMILES IDX 80 45 40 46 85 47 79 48 81 49 41 50 84 51 78 52 77 53 42 55
REMARK SMILES IDX 68 56 51 57 67 58 52 59 55 60 66 61 82 62 53 63 54 64 65 66
REMARK SMILES IDX 83 67 56 68 43 69 44 70 49 71 45 72 46 73 48 74 50 75 47 76
REMARK SMILES IDX 69 77 70 78 75 79 71 80 72 81 74 82 76 83 73 84 57 85 58 86
REMARK SMILES IDX 63 87 59 88 60 89 62 90 64 91 61 92
REMARK H PARENT 26 5 31 35 81 54 55 65
REMARK Flexibility Score: inf
ROOT
ATOM      1  C   UNL A   1      33.702  30.955  27.544  1.00  0.00     0.116 C 
ENDROOT
BRANCH   1   2
ATOM      2  N   UNL A   1      32.473  31.047  26.536  1.00  0.00    -0.356 N 
ATOM      3  C   UNL A   1      31.752  30.139  25.832  1.00  0.00     0.220 C 
ATOM      4  O   UNL A   1      30.899  30.597  25.066  1.00  0.00    -0.275 OA
ATOM      5  H   UNL A   1      32.168  31.972  26.392  1.00  0.00     0.163 HD
BRANCH   3   6
ATOM      6  C   UNL A   1      31.969  28.652  25.976  1.00  0.00     0.110 C 
BRANCH   6   7
ATOM      7  C   UNL A   1      33.377  28.075  25.805  1.00  0.00     0.112 C 
BRANCH   7   8
ATOM      8  C   UNL A   1      33.734  27.752  24.349  1.00  0.00     0.243 C 
ATOM      9  O   UNL A   1      34.347  28.556  23.653  1.00  0.00    -0.273 OA
BRANCH   8  10
ATOM     10  N   UNL A   1      33.135  26.563  23.873  1.00  0.00    -0.225 N 
ATOM     11  C   UNL A   1      32.286  26.528  22.205  1.00  0.00     0.147 C 
ATOM     12  C   UNL A   1      33.018  24.784  21.417  1.00  0.00     0.091 C 
ATOM     13  C   UNL A   1      33.973  23.935  23.129  1.00  0.00     0.071 C 
ATOM     14  N   UNL A   1      34.008  24.997  24.278  1.00  0.00    -0.174 NA
BRANCH  11  15
ATOM     15  C   UNL A   1      30.785  26.969  22.604  1.00  0.00    -0.019 A 
ATOM     16  C   UNL A   1      29.045  28.643  22.873  1.00  0.00     0.119 A 
ATOM     17  C   UNL A   1      28.281  27.763  23.646  1.00  0.00     0.046 A 
ATOM     18  C   UNL A   1      30.290  28.253  22.341  1.00  0.00     0.052 A 
ATOM     19  C   UNL A   1      28.731  26.481  23.890  1.00  0.00     0.004 A 
ATOM     20  C   UNL A   1      29.967  26.097  23.385  1.00  0.00     0.006 A 
BRANCH  16  21
ATOM     21  O   UNL A   1      28.488  29.889  22.775  1.00  0.00    -0.497 OA
ATOM     22  C   UNL A   1      28.901  30.671  21.668  1.00  0.00     0.278 C 
ENDBRANCH  16  21
ENDBRANCH  11  15
BRANCH  13  23
ATOM     23  C   UNL A   1      34.094  22.337  23.791  1.00  0.00    -0.002 A 
ATOM     24  C   UNL A   1      35.295  21.977  24.366  1.00  0.00     0.010 A 
ATOM     25  C   UNL A   1      33.055  21.328  24.030  1.00  0.00     0.013 A 
ATOM     26  C   UNL A   1      35.355  20.770  25.084  1.00  0.00     0.001 A 
ATOM     27  C   UNL A   1      33.121  19.856  24.114  1.00  0.00    -0.050 A 
ATOM     28  C   UNL A   1      34.317  19.773  24.998  1.00  0.00     0.003 A 
ATOM     29  C   UNL A   1      32.291  18.453  22.728  1.00  0.00     0.044 C 
ENDBRANCH  13  23
ENDBRANCH   8  10
ENDBRANCH   7   8
ENDBRANCH   6   7
ENDBRANCH   3   6
ENDBRANCH   1   2
BRANCH   1  30
ATOM     30  C   UNL A   1      34.462  32.483  28.978  1.00  0.00     0.023 C 
BRANCH  30  31
ATOM     31  C   UNL A   1      35.352  31.791  30.518  1.00  0.00     0.023 C 
BRANCH  31  32
ATOM     32  C   UNL A   1      34.950  32.425  32.169  1.00  0.00     0.116 C 
BRANCH  32  33
ATOM     33  N   UNL A   1      35.737  33.665  32.875  1.00  0.00    -0.352 N 
ATOM     34  C   UNL A   1      37.047  34.008  33.354  1.00  0.00     0.251 C 
ATOM     35  H   UNL A   1      35.119  34.417  33.021  1.00  0.00     0.163 HD
ATOM     36  O   UNL A   1      37.215  34.981  34.079  1.00  0.00    -0.269 OA
BRANCH  34  37
ATOM     37  C   UNL A   1      38.209  33.173  32.957  1.00  0.00     0.039 A 
ATOM     38  C   UNL A   1      38.995  31.662  33.703  1.00  0.00     0.014 A 
ATOM     39  C   UNL A   1      38.477  33.547  31.210  1.00  0.00     0.014 A 
ATOM     40  C   UNL A   1      40.071  30.582  32.619  1.00  0.00     0.010 A 
ATOM     41  C   UNL A   1      39.359  32.425  30.155  1.00  0.00     0.010 A 
ATOM     42  C   UNL A   1      40.201  30.980  30.810  1.00  0.00    -0.014 A 
BRANCH  42  43
ATOM     43  C   UNL A   1      41.202  30.612  29.713  1.00  0.00     0.031 A 
ATOM     44  C   UNL A   1      41.290  29.150  29.189  1.00  0.00     0.074 A 
ATOM     45  C   UNL A   1      42.369  31.298  29.661  1.00  0.00     0.049 A 
ATOM     46  N   UNL A   1      42.235  28.545  28.493  1.00  0.00    -0.248 NA
ATOM     47  C   UNL A   1      40.222  28.218  29.578  1.00  0.00     0.031 C 
ATOM     48  C   UNL A   1      42.646  32.556  30.351  1.00  0.00     0.029 A 
ATOM     49  N   UNL A   1      43.577  30.979  29.068  1.00  0.00    -0.354 N 
ATOM     50  C   UNL A   1      41.840  27.208  28.361  1.00  0.00     0.074 A 
ATOM     51  C   UNL A   1      40.654  27.049  29.149  1.00  0.00     0.031 C 
ATOM     52  C   UNL A   1      43.927  32.908  30.135  1.00  0.00     0.029 A 
ATOM     53  C   UNL A   1      44.575  31.899  29.297  1.00  0.00     0.049 A 
ATOM     54  H   UNL A   1      43.711  30.166  28.529  1.00  0.00     0.167 HD
ATOM     55  C   UNL A   1      42.353  26.184  27.633  1.00  0.00     0.037 A 
ATOM     56  C   UNL A   1      45.858  31.945  28.876  1.00  0.00     0.037 A 
ATOM     57  C   UNL A   1      43.585  26.251  26.909  1.00  0.00     0.049 A 
ATOM     58  C   UNL A   1      46.433  30.849  28.013  1.00  0.00     0.074 A 
ATOM     59  C   UNL A   1      44.143  25.322  26.048  1.00  0.00     0.029 A 
ATOM     60  N   UNL A   1      44.482  27.294  27.019  1.00  0.00    -0.354 N 
ATOM     61  N   UNL A   1      45.897  29.709  27.652  1.00  0.00    -0.248 NA
ATOM     62  C   UNL A   1      47.791  31.061  27.483  1.00  0.00     0.031 C 
ATOM     63  C   UNL A   1      45.412  25.784  25.680  1.00  0.00     0.029 A 
ATOM     64  C   UNL A   1      45.610  27.020  26.272  1.00  0.00     0.049 A 
ATOM     65  H   UNL A   1      44.338  28.111  27.550  1.00  0.00     0.167 HD
ATOM     66  C   UNL A   1      46.830  29.093  26.821  1.00  0.00     0.074 A 
ATOM     67  C   UNL A   1      47.968  29.980  26.734  1.00  0.00     0.031 C 
ATOM     68  C   UNL A   1      46.740  27.903  26.177  1.00  0.00     0.037 A 
BRANCH  55  69
ATOM     69  C   UNL A   1      41.542  24.912  27.556  1.00  0.00     0.057 A 
ATOM     70  C   UNL A   1      41.850  23.811  28.374  1.00  0.00     0.134 A 
ATOM     71  C   UNL A   1      40.454  24.776  26.686  1.00  0.00     0.134 A 
ATOM     72  F   UNL A   1      42.884  23.867  29.226  1.00  0.00    -0.206 F 
ATOM     73  C   UNL A   1      41.135  22.613  28.297  1.00  0.00     0.040 A 
ATOM     74  C   UNL A   1      39.714  23.591  26.620  1.00  0.00     0.040 A 
ATOM     75  F   UNL A   1      40.095  25.784  25.877  1.00  0.00    -0.206 F 
ATOM     76  C   UNL A   1      40.060  22.503  27.421  1.00  0.00     0.006 A 
ENDBRANCH  55  69
BRANCH  56  77
ATOM     77  C   UNL A   1      46.671  33.160  29.155  1.00  0.00     0.057 A 
ATOM     78  C   UNL A   1      47.483  33.208  30.295  1.00  0.00     0.134 A 
ATOM     79  C   UNL A   1      46.675  34.276  28.313  1.00  0.00     0.134 A 
ATOM     80  F   UNL A   1      47.496  32.177  31.154  1.00  0.00    -0.206 F 
ATOM     81  C   UNL A   1      48.269  34.321  30.592  1.00  0.00     0.040 A 
ATOM     82  C   UNL A   1      47.471  35.392  28.588  1.00  0.00     0.040 A 
ATOM     83  F   UNL A   1      45.917  34.295  27.206  1.00  0.00    -0.206 F 
ATOM     84  C   UNL A   1      48.271  35.416  29.732  1.00  0.00     0.006 A 
ENDBRANCH  56  77
BRANCH  68  85
ATOM     85  C   UNL A   1      47.871  27.490  25.286  1.00  0.00     0.057 A 
ATOM     86  C   UNL A   1      48.976  26.780  25.768  1.00  0.00     0.134 A 
ATOM     87  C   UNL A   1      47.814  27.745  23.910  1.00  0.00     0.134 A 
ATOM     88  F   UNL A   1      49.090  26.504  27.076  1.00  0.00    -0.206 F 
ATOM     89  C   UNL A   1      49.995  26.353  24.914  1.00  0.00     0.040 A 
ATOM     90  C   UNL A   1      48.814  27.304  23.043  1.00  0.00     0.040 A 
ATOM     91  F   UNL A   1      46.773  28.408  23.383  1.00  0.00    -0.206 F 
ATOM     92  C   UNL A   1      49.911  26.609  23.546  1.00  0.00     0.006 A 
ENDBRANCH  68  85
ENDBRANCH  42  43
ENDBRANCH  34  37
ENDBRANCH  32  33
ENDBRANCH  31  32
ENDBRANCH  30  31
ENDBRANCH   1  30
TORSDOF 17
ENDMDL
MODEL 2
REMARK VINA RESULT:     -13.6      4.009      7.522
REMARK SMILES COc1cccc([C@@H]2CC(c3cccc(C)c3)=NN2C(=O)CCC(=O)NCCCCNC(=O)c2ccc(-c3c4nc(c(-c5c(F)cccc5F)c5ccc([nH]5)c(-c5c(F)cccc5F)c5nc(c(-c6c(F)cccc6F)c6ccc3[nH]6)C=C5)C=C4)cc2)c1
REMARK SMILES IDX 27 1 26 2 24 3 25 4 23 6 22 7 20 8 21 9 19 10 8 11 9 12
REMARK SMILES IDX 10 13 18 14 7 15 3 16 4 17 88 18 5 19 6 20 2 21 1 22 11 23
REMARK SMILES IDX 12 24 17 25 13 26 15 27 14 28 16 29 28 30 29 31 30 32 31 33
REMARK SMILES IDX 32 34 33 36 34 37 35 38 87 39 36 40 86 41 37 42 38 43 39 44
REMARK SMILES IDX 80 45 40 46 85 47 79 48 81 49 41 50 84 51 78 52 77 53 42 55
REMARK SMILES IDX 68 56 51 57 67 58 52 59 55 60 66 61 82 62 53 63 54 64 65 66
REMARK SMILES IDX 83 67 56 68 43 69 44 70 49 71 45 72 46 73 48 74 50 75 47 76
REMARK SMILES IDX 69 77 70 78 75 79 71 80 72 81 74 82 76 83 73 84 57 85 58 86
REMARK SMILES IDX 63 87 59 88 60 89 62 90 64 91 61 92
REMARK H PARENT 26 5 31 35 81 54 55 65
REMARK Flexibility Score: inf
ROOT
ATOM      1  C   UNL A   1      37.824  31.256  28.599  1.00  0.00     0.116 C 
ENDROOT
BRANCH   1   2
ATOM      2  N   UNL A   1      38.133  29.717  28.864  1.00  0.00    -0.356 N 
ATOM      3  C   UNL A   1      38.914  28.787  28.260  1.00  0.00     0.220 C 
ATOM      4  O   UNL A   1      38.838  27.639  28.706  1.00  0.00    -0.275 OA
ATOM      5  H   UNL A   1      37.647  29.360  29.642  1.00  0.00     0.163 HD
BRANCH   3   6
ATOM      6  C   UNL A   1      39.833  29.130  27.111  1.00  0.00     0.110 C 
BRANCH   6   7
ATOM      7  C   UNL A   1      41.329  28.822  27.225  1.00  0.00     0.112 C 
BRANCH   7   8
ATOM      8  C   UNL A   1      41.892  28.064  26.018  1.00  0.00     0.243 C 
ATOM      9  O   UNL A   1      42.083  28.630  24.946  1.00  0.00    -0.273 OA
BRANCH   8  10
ATOM     10  N   UNL A   1      41.977  26.667  26.219  1.00  0.00    -0.225 N 
ATOM     11  C   UNL A   1      43.108  25.962  27.534  1.00  0.00     0.147 C 
ATOM     12  C   UNL A   1      41.884  24.575  28.416  1.00  0.00     0.091 C 
ATOM     13  C   UNL A   1      40.246  24.550  27.045  1.00  0.00     0.071 C 
ATOM     14  N   UNL A   1      40.411  25.723  26.024  1.00  0.00    -0.174 NA
BRANCH  11  15
ATOM     15  C   UNL A   1      44.486  25.795  26.710  1.00  0.00    -0.019 A 
ATOM     16  C   UNL A   1      46.381  26.714  25.498  1.00  0.00     0.119 A 
ATOM     17  C   UNL A   1      46.688  25.455  24.973  1.00  0.00     0.046 A 
ATOM     18  C   UNL A   1      45.290  26.892  26.373  1.00  0.00     0.052 A 
ATOM     19  C   UNL A   1      45.932  24.353  25.318  1.00  0.00     0.004 A 
ATOM     20  C   UNL A   1      44.844  24.526  26.163  1.00  0.00     0.006 A 
BRANCH  16  21
ATOM     21  O   UNL A   1      47.188  27.707  25.013  1.00  0.00    -0.497 OA
ATOM     22  C   UNL A   1      48.552  27.371  24.834  1.00  0.00     0.278 C 
ENDBRANCH  16  21
ENDBRANCH  11  15
BRANCH  13  23
ATOM     23  C   UNL A   1      39.240  23.309  26.369  1.00  0.00    -0.002 A 
ATOM     24  C   UNL A   1      39.804  22.064  26.184  1.00  0.00     0.010 A 
ATOM     25  C   UNL A   1      37.792  23.290  26.127  1.00  0.00     0.013 A 
ATOM     26  C   UNL A   1      38.961  20.996  25.830  1.00  0.00     0.001 A 
ATOM     27  C   UNL A   1      36.972  22.534  25.160  1.00  0.00    -0.050 A 
ATOM     28  C   UNL A   1      37.609  21.203  25.376  1.00  0.00     0.003 A 
ATOM     29  C   UNL A   1      35.896  23.328  23.491  1.00  0.00     0.044 C 
ENDBRANCH  13  23
ENDBRANCH   8  10
ENDBRANCH   7   8
ENDBRANCH   6   7
ENDBRANCH   3   6
ENDBRANCH   1   2
BRANCH   1  30
ATOM     30  C   UNL A   1      35.859  32.265  28.302  1.00  0.00     0.023 C 
BRANCH  30  31
ATOM     31  C   UNL A   1      34.754  32.381  29.854  1.00  0.00     0.023 C 
BRANCH  31  32
ATOM     32  C   UNL A   1      34.855  33.826  30.944  1.00  0.00     0.116 C 
BRANCH  32  33
ATOM     33  N   UNL A   1      34.935  33.727  32.569  1.00  0.00    -0.352 N 
ATOM     34  C   UNL A   1      35.845  33.324  33.604  1.00  0.00     0.251 C 
ATOM     35  H   UNL A   1      34.093  34.044  32.967  1.00  0.00     0.163 HD
ATOM     36  O   UNL A   1      35.454  33.153  34.752  1.00  0.00    -0.269 OA
BRANCH  34  37
ATOM     37  C   UNL A   1      37.278  33.118  33.274  1.00  0.00     0.039 A 
ATOM     38  C   UNL A   1      38.852  33.805  33.987  1.00  0.00     0.014 A 
ATOM     39  C   UNL A   1      37.323  31.575  32.335  1.00  0.00     0.014 A 
ATOM     40  C   UNL A   1      40.451  32.884  33.683  1.00  0.00     0.010 A 
ATOM     41  C   UNL A   1      38.817  30.626  32.199  1.00  0.00     0.010 A 
ATOM     42  C   UNL A   1      40.389  31.250  32.803  1.00  0.00    -0.014 A 
BRANCH  42  43
ATOM     43  C   UNL A   1      41.427  30.405  32.062  1.00  0.00     0.031 A 
ATOM     44  C   UNL A   1      42.240  29.317  32.821  1.00  0.00     0.074 A 
ATOM     45  C   UNL A   1      42.084  30.972  31.022  1.00  0.00     0.049 A 
ATOM     46  N   UNL A   1      43.353  28.691  32.487  1.00  0.00    -0.248 NA
ATOM     47  C   UNL A   1      41.796  28.951  34.173  1.00  0.00     0.031 C 
ATOM     48  C   UNL A   1      41.691  32.204  30.339  1.00  0.00     0.029 A 
ATOM     49  N   UNL A   1      43.279  30.632  30.417  1.00  0.00    -0.354 N 
ATOM     50  C   UNL A   1      43.690  27.870  33.570  1.00  0.00     0.074 A 
ATOM     51  C   UNL A   1      42.757  28.164  34.617  1.00  0.00     0.031 C 
ATOM     52  C   UNL A   1      42.613  32.509  29.408  1.00  0.00     0.029 A 
ATOM     53  C   UNL A   1      43.675  31.502  29.426  1.00  0.00     0.049 A 
ATOM     54  H   UNL A   1      43.802  29.838  30.673  1.00  0.00     0.167 HD
ATOM     55  C   UNL A   1      44.644  26.916  33.715  1.00  0.00     0.037 A 
ATOM     56  C   UNL A   1      44.753  31.494  28.611  1.00  0.00     0.037 A 
ATOM     57  C   UNL A   1      45.664  26.645  32.749  1.00  0.00     0.049 A 
ATOM     58  C   UNL A   1      45.795  30.407  28.712  1.00  0.00     0.074 A 
ATOM     59  C   UNL A   1      46.608  25.633  32.736  1.00  0.00     0.029 A 
ATOM     60  N   UNL A   1      45.908  27.444  31.650  1.00  0.00    -0.354 N 
ATOM     61  N   UNL A   1      45.909  29.445  29.593  1.00  0.00    -0.248 NA
ATOM     62  C   UNL A   1      46.852  30.401  27.685  1.00  0.00     0.031 C 
ATOM     63  C   UNL A   1      47.462  25.855  31.650  1.00  0.00     0.029 A 
ATOM     64  C   UNL A   1      47.012  26.972  30.967  1.00  0.00     0.049 A 
ATOM     65  H   UNL A   1      45.375  28.231  31.392  1.00  0.00     0.167 HD
ATOM     66  C   UNL A   1      47.016  28.695  29.201  1.00  0.00     0.074 A 
ATOM     67  C   UNL A   1      47.546  29.317  28.009  1.00  0.00     0.031 C 
ATOM     68  C   UNL A   1      47.536  27.583  29.776  1.00  0.00     0.037 A 
BRANCH  55  69
ATOM     69  C   UNL A   1      44.590  26.064  34.962  1.00  0.00     0.057 A 
ATOM     70  C   UNL A   1      45.253  26.462  36.135  1.00  0.00     0.134 A 
ATOM     71  C   UNL A   1      43.879  24.859  35.008  1.00  0.00     0.134 A 
ATOM     72  F   UNL A   1      45.961  27.601  36.161  1.00  0.00    -0.206 F 
ATOM     73  C   UNL A   1      45.245  25.675  37.289  1.00  0.00     0.040 A 
ATOM     74  C   UNL A   1      43.840  24.077  36.167  1.00  0.00     0.040 A 
ATOM     75  F   UNL A   1      43.217  24.415  33.930  1.00  0.00    -0.206 F 
ATOM     76  C   UNL A   1      44.533  24.480  37.308  1.00  0.00     0.006 A 
ENDBRANCH  55  69
BRANCH  56  77
ATOM     77  C   UNL A   1      44.839  32.492  27.511  1.00  0.00     0.057 A 
ATOM     78  C   UNL A   1      44.152  32.267  26.311  1.00  0.00     0.134 A 
ATOM     79  C   UNL A   1      45.576  33.676  27.619  1.00  0.00     0.134 A 
ATOM     80  F   UNL A   1      43.453  31.134  26.141  1.00  0.00    -0.206 F 
ATOM     81  C   UNL A   1      44.195  33.178  25.257  1.00  0.00     0.040 A 
ATOM     82  C   UNL A   1      45.615  34.606  26.577  1.00  0.00     0.040 A 
ATOM     83  F   UNL A   1      46.258  33.950  28.741  1.00  0.00    -0.206 F 
ATOM     84  C   UNL A   1      44.922  34.357  25.391  1.00  0.00     0.006 A 
ENDBRANCH  56  77
BRANCH  68  85
ATOM     85  C   UNL A   1      48.711  26.926  29.118  1.00  0.00     0.057 A 
ATOM     86  C   UNL A   1      50.012  27.425  29.251  1.00  0.00     0.134 A 
ATOM     87  C   UNL A   1      48.542  25.734  28.403  1.00  0.00     0.134 A 
ATOM     88  F   UNL A   1      50.239  28.562  29.925  1.00  0.00    -0.206 F 
ATOM     89  C   UNL A   1      51.103  26.768  28.679  1.00  0.00     0.040 A 
ATOM     90  C   UNL A   1      49.627  25.057  27.846  1.00  0.00     0.040 A 
ATOM     91  F   UNL A   1      47.323  25.196  28.253  1.00  0.00    -0.206 F 
ATOM     92  C   UNL A   1      50.913  25.577  27.979  1.00  0.00     0.006 A 
ENDBRANCH  68  85
ENDBRANCH  42  43
ENDBRANCH  34  37
ENDBRANCH  32  33
ENDBRANCH  31  32
ENDBRANCH  30  31
ENDBRANCH   1  30
TORSDOF 17
ENDMDL
MODEL 3
REMARK VINA RESULT:     -13.6      5.407     11.758
REMARK SMILES COc1cccc([C@@H]2CC(c3cccc(C)c3)=NN2C(=O)CCC(=O)NCCCCNC(=O)c2ccc(-c3c4nc(c(-c5c(F)cccc5F)c5ccc([nH]5)c(-c5c(F)cccc5F)c5nc(c(-c6c(F)cccc6F)c6ccc3[nH]6)C=C5)C=C4)cc2)c1
REMARK SMILES IDX 27 1 26 2 24 3 25 4 23 6 22 7 20 8 21 9 19 10 8 11 9 12
REMARK SMILES IDX 10 13 18 14 7 15 3 16 4 17 88 18 5 19 6 20 2 21 1 22 11 23
REMARK SMILES IDX 12 24 17 25 13 26 15 27 14 28 16 29 28 30 29 31 30 32 31 33
REMARK SMILES IDX 32 34 33 36 34 37 35 38 87 39 36 40 86 41 37 42 38 43 39 44
REMARK SMILES IDX 80 45 40 46 85 47 79 48 81 49 41 50 84 51 78 52 77 53 42 55
REMARK SMILES IDX 68 56 51 57 67 58 52 59 55 60 66 61 82 62 53 63 54 64 65 66
REMARK SMILES IDX 83 67 56 68 43 69 44 70 49 71 45 72 46 73 48 74 50 75 47 76
REMARK SMILES IDX 69 77 70 78 75 79 71 80 72 81 74 82 76 83 73 84 57 85 58 86
REMARK SMILES IDX 63 87 59 88 60 89 62 90 64 91 61 92
REMARK H PARENT 26 5 31 35 81 54 55 65
REMARK Flexibility Score: inf
ROOT
ATOM      1  C   UNL A   1      45.151  30.793  28.627  1.00  0.00     0.116 C 
ENDROOT
BRANCH   1   2
ATOM      2  N   UNL A   1      44.041  29.900  29.338  1.00  0.00    -0.356 N 
ATOM      3  C   UNL A   1      43.372  28.769  29.002  1.00  0.00     0.220 C 
ATOM      4  O   UNL A   1      42.497  28.399  29.790  1.00  0.00    -0.275 OA
ATOM      5  H   UNL A   1      43.781  30.248  30.222  1.00  0.00     0.163 HD
BRANCH   3   6
ATOM      6  C   UNL A   1      43.679  27.996  27.741  1.00  0.00     0.110 C 
BRANCH   6   7
ATOM      7  C   UNL A   1      42.916  28.321  26.454  1.00  0.00     0.112 C 
BRANCH   7   8
ATOM      8  C   UNL A   1      41.986  27.193  25.992  1.00  0.00     0.243 C 
ATOM      9  O   UNL A   1      42.262  26.504  25.015  1.00  0.00    -0.273 OA
BRANCH   8  10
ATOM     10  N   UNL A   1      40.746  27.171  26.672  1.00  0.00    -0.225 N 
ATOM     11  C   UNL A   1      40.436  25.936  28.044  1.00  0.00     0.147 C 
ATOM     12  C   UNL A   1      39.574  27.128  29.470  1.00  0.00     0.091 C 
ATOM     13  C   UNL A   1      39.235  28.916  28.353  1.00  0.00     0.071 C 
ATOM     14  N   UNL A   1      39.956  28.803  26.969  1.00  0.00    -0.174 NA
BRANCH  11  15
ATOM     15  C   UNL A   1      39.855  24.679  27.214  1.00  0.00    -0.019 A 
ATOM     16  C   UNL A   1      38.033  23.474  26.150  1.00  0.00     0.119 A 
ATOM     17  C   UNL A   1      38.807  22.311  26.083  1.00  0.00     0.046 A 
ATOM     18  C   UNL A   1      38.550  24.662  26.704  1.00  0.00     0.052 A 
ATOM     19  C   UNL A   1      40.108  22.313  26.546  1.00  0.00     0.004 A 
ATOM     20  C   UNL A   1      40.616  23.476  27.112  1.00  0.00     0.006 A 
BRANCH  16  21
ATOM     21  O   UNL A   1      36.753  23.289  25.704  1.00  0.00    -0.497 OA
ATOM     22  C   UNL A   1      36.583  23.238  24.299  1.00  0.00     0.278 C 
ENDBRANCH  16  21
ENDBRANCH  11  15
BRANCH  13  23
ATOM     23  C   UNL A   1      37.944  30.070  28.260  1.00  0.00    -0.002 A 
ATOM     24  C   UNL A   1      38.073  31.230  28.996  1.00  0.00     0.010 A 
ATOM     25  C   UNL A   1      36.785  30.126  27.361  1.00  0.00     0.013 A 
ATOM     26  C   UNL A   1      37.143  32.262  28.783  1.00  0.00     0.001 A 
ATOM     27  C   UNL A   1      35.453  30.742  27.518  1.00  0.00    -0.050 A 
ATOM     28  C   UNL A   1      35.916  32.052  28.057  1.00  0.00     0.003 A 
ATOM     29  C   UNL A   1      33.581  29.723  27.703  1.00  0.00     0.044 C 
ENDBRANCH  13  23
ENDBRANCH   8  10
ENDBRANCH   7   8
ENDBRANCH   6   7
ENDBRANCH   3   6
ENDBRANCH   1   2
BRANCH   1  30
ATOM     30  C   UNL A   1      45.360  31.322  26.472  1.00  0.00     0.023 C 
BRANCH  30  31
ATOM     31  C   UNL A   1      44.048  32.531  25.793  1.00  0.00     0.023 C 
BRANCH  31  32
ATOM     32  C   UNL A   1      44.539  33.902  24.713  1.00  0.00     0.116 C 
BRANCH  32  33
ATOM     33  N   UNL A   1      45.816  34.872  25.009  1.00  0.00    -0.352 N 
ATOM     34  C   UNL A   1      46.199  35.955  25.869  1.00  0.00     0.251 C 
ATOM     35  H   UNL A   1      46.560  34.642  24.406  1.00  0.00     0.163 HD
ATOM     36  O   UNL A   1      47.196  36.625  25.630  1.00  0.00    -0.269 OA
BRANCH  34  37
ATOM     37  C   UNL A   1      45.375  36.260  27.067  1.00  0.00     0.039 A 
ATOM     38  C   UNL A   1      43.872  37.322  27.332  1.00  0.00     0.014 A 
ATOM     39  C   UNL A   1      45.750  34.938  28.240  1.00  0.00     0.014 A 
ATOM     40  C   UNL A   1      42.802  37.005  28.833  1.00  0.00     0.010 A 
ATOM     41  C   UNL A   1      44.636  34.541  29.563  1.00  0.00     0.010 A 
ATOM     42  C   UNL A   1      43.200  35.557  29.924  1.00  0.00    -0.014 A 
BRANCH  42  43
ATOM     43  C   UNL A   1      42.841  35.185  31.364  1.00  0.00     0.031 A 
ATOM     44  C   UNL A   1      41.401  34.714  31.717  1.00  0.00     0.074 A 
ATOM     45  C   UNL A   1      43.482  35.831  32.367  1.00  0.00     0.049 A 
ATOM     46  N   UNL A   1      40.791  34.628  32.885  1.00  0.00    -0.248 NA
ATOM     47  C   UNL A   1      40.496  34.387  30.607  1.00  0.00     0.031 C 
ATOM     48  C   UNL A   1      44.697  36.632  32.222  1.00  0.00     0.029 A 
ATOM     49  N   UNL A   1      43.142  35.994  33.697  1.00  0.00    -0.354 N 
ATOM     50  C   UNL A   1      39.477  34.220  32.620  1.00  0.00     0.074 A 
ATOM     51  C   UNL A   1      39.331  34.203  31.194  1.00  0.00     0.031 C 
ATOM     52  C   UNL A   1      45.007  37.186  33.408  1.00  0.00     0.029 A 
ATOM     53  C   UNL A   1      44.011  36.794  34.405  1.00  0.00     0.049 A 
ATOM     54  H   UNL A   1      42.349  35.575  34.102  1.00  0.00     0.167 HD
ATOM     55  C   UNL A   1      38.467  33.842  33.443  1.00  0.00     0.037 A 
ATOM     56  C   UNL A   1      44.024  37.163  35.705  1.00  0.00     0.037 A 
ATOM     57  C   UNL A   1      38.516  33.933  34.870  1.00  0.00     0.049 A 
ATOM     58  C   UNL A   1      42.945  36.703  36.654  1.00  0.00     0.074 A 
ATOM     59  C   UNL A   1      37.605  33.476  35.806  1.00  0.00     0.029 A 
ATOM     60  N   UNL A   1      39.518  34.585  35.561  1.00  0.00    -0.354 N 
ATOM     61  N   UNL A   1      41.845  36.040  36.402  1.00  0.00    -0.248 NA
ATOM     62  C   UNL A   1      43.127  37.033  38.079  1.00  0.00     0.031 C 
ATOM     63  C   UNL A   1      38.032  33.905  37.068  1.00  0.00     0.029 A 
ATOM     64  C   UNL A   1      39.232  34.578  36.912  1.00  0.00     0.049 A 
ATOM     65  H   UNL A   1      40.316  34.992  35.152  1.00  0.00     0.167 HD
ATOM     66  C   UNL A   1      41.229  35.834  37.635  1.00  0.00     0.074 A 
ATOM     67  C   UNL A   1      42.073  36.448  38.635  1.00  0.00     0.031 C 
ATOM     68  C   UNL A   1      40.073  35.181  37.910  1.00  0.00     0.037 A 
BRANCH  55  69
ATOM     69  C   UNL A   1      37.233  33.253  32.802  1.00  0.00     0.057 A 
ATOM     70  C   UNL A   1      36.155  34.073  32.425  1.00  0.00     0.134 A 
ATOM     71  C   UNL A   1      37.110  31.881  32.550  1.00  0.00     0.134 A 
ATOM     72  F   UNL A   1      36.200  35.396  32.644  1.00  0.00    -0.206 F 
ATOM     73  C   UNL A   1      34.991  33.546  31.862  1.00  0.00     0.040 A 
ATOM     74  C   UNL A   1      35.959  31.346  31.961  1.00  0.00     0.040 A 
ATOM     75  F   UNL A   1      38.097  31.035  32.878  1.00  0.00    -0.206 F 
ATOM     76  C   UNL A   1      34.892  32.179  31.624  1.00  0.00     0.006 A 
ENDBRANCH  55  69
BRANCH  56  77
ATOM     77  C   UNL A   1      45.193  37.917  36.234  1.00  0.00     0.057 A 
ATOM     78  C   UNL A   1      45.185  39.318  36.212  1.00  0.00     0.134 A 
ATOM     79  C   UNL A   1      46.318  37.287  36.775  1.00  0.00     0.134 A 
ATOM     80  F   UNL A   1      44.144  39.975  35.677  1.00  0.00    -0.206 F 
ATOM     81  C   UNL A   1      46.252  40.067  36.704  1.00  0.00     0.040 A 
ATOM     82  C   UNL A   1      47.388  38.025  37.288  1.00  0.00     0.040 A 
ATOM     83  F   UNL A   1      46.388  35.949  36.824  1.00  0.00    -0.206 F 
ATOM     84  C   UNL A   1      47.357  39.420  37.253  1.00  0.00     0.006 A 
ENDBRANCH  56  77
BRANCH  68  85
ATOM     85  C   UNL A   1      39.655  35.048  39.343  1.00  0.00     0.057 A 
ATOM     86  C   UNL A   1      38.936  36.051  40.002  1.00  0.00     0.134 A 
ATOM     87  C   UNL A   1      39.915  33.865  40.046  1.00  0.00     0.134 A 
ATOM     88  F   UNL A   1      38.655  37.207  39.383  1.00  0.00    -0.206 F 
ATOM     89  C   UNL A   1      38.504  35.887  41.320  1.00  0.00     0.040 A 
ATOM     90  C   UNL A   1      39.471  33.682  41.355  1.00  0.00     0.040 A 
ATOM     91  F   UNL A   1      40.587  32.861  39.464  1.00  0.00    -0.206 F 
ATOM     92  C   UNL A   1      38.766  34.697  41.998  1.00  0.00     0.006 A 
ENDBRANCH  68  85
ENDBRANCH  42  43
ENDBRANCH  34  37
ENDBRANCH  32  33
ENDBRANCH  31  32
ENDBRANCH  30  31
ENDBRANCH   1  30
TORSDOF 17
ENDMDL
