MODEL 1
REMARK VINA RESULT:     -11.2      0.000      0.000
REMARK SMILES O=C(C[C@H](CNC(=O)c1ccccn1)c1ccc(Cl)cc1)NCCCCNC(=O)c1ccc(-c2c3nc(c(-c4c(F)cccc4F)c4ccc([nH]4)c(-c4c(F)cccc4F)c4nc(c(-c5c(F)cccc5F)c5ccc2[nH]5)C=C4)C=C3)cc1
REMARK SMILES IDX 23 1 22 2 1 3 2 4 3 6 4 7 15 8 16 9 21 10 17 11 20 12 18 13
REMARK SMILES IDX 19 14 5 15 6 16 7 17 8 19 9 20 10 21 14 22 11 23 13 24 12 25
REMARK SMILES IDX 24 26 25 27 26 28 27 29 28 30 29 32 30 33 31 34 83 35 32 36
REMARK SMILES IDX 82 37 33 38 34 39 35 40 76 41 36 42 81 43 75 44 77 45 37 46
REMARK SMILES IDX 80 47 74 48 73 49 38 51 64 52 47 53 63 54 48 55 51 56 62 57
REMARK SMILES IDX 78 58 49 59 50 60 61 62 79 63 52 64 39 65 40 66 45 67 41 68
REMARK SMILES IDX 42 69 44 70 46 71 43 72 65 73 66 74 71 75 67 76 68 77 70 78
REMARK SMILES IDX 72 79 69 80 53 81 54 82 59 83 55 84 56 85 58 86 60 87 57 88
REMARK H PARENT 22 5 6 18 27 31 77 50 51 61
REMARK Flexibility Score: inf
ROOT
ATOM      1  C   UNL A   1      37.629  22.317  25.559  1.00  0.00     0.116 C 
ENDROOT
BRANCH   1   2
ATOM      2  N   UNL A   1      36.837  23.474  25.190  1.00  0.00    -0.356 N 
ATOM      3  O   UNL A   1      35.089  23.008  26.593  1.00  0.00    -0.275 OA
ATOM      4  C   UNL A   1      35.579  23.692  25.705  1.00  0.00     0.220 C 
ATOM      5  H   UNL A   1      37.210  24.123  24.550  1.00  0.00     0.163 HD
BRANCH   4   6
ATOM      6  C   UNL A   1      34.837  24.833  25.041  1.00  0.00     0.110 C 
BRANCH   6   7
ATOM      7  C   UNL A   1      33.389  24.969  25.542  1.00  0.00     0.048 C 
BRANCH   7   8
ATOM      8  C   UNL A   1      33.033  26.400  25.925  1.00  0.00    -0.043 A 
ATOM      9  C   UNL A   1      34.060  27.351  26.058  1.00  0.00     0.005 A 
ATOM     10  C   UNL A   1      31.709  26.804  26.155  1.00  0.00     0.005 A 
ATOM     11  C   UNL A   1      33.768  28.675  26.397  1.00  0.00     0.021 A 
ATOM     12  C   UNL A   1      31.418  28.128  26.498  1.00  0.00     0.021 A 
ATOM     13  C   UNL A   1      32.448  29.058  26.615  1.00  0.00     0.041 A 
ATOM     14  Cl  UNL A   1      32.089  30.688  27.030  1.00  0.00    -0.084 Cl
ENDBRANCH   7   8
BRANCH   7  15
ATOM     15  C   UNL A   1      32.355  24.366  24.565  1.00  0.00     0.125 C 
BRANCH  15  16
ATOM     16  N   UNL A   1      32.875  24.097  23.232  1.00  0.00    -0.350 N 
ATOM     17  C   UNL A   1      32.898  24.927  22.129  1.00  0.00     0.269 C 
ATOM     18  H   UNL A   1      33.261  23.201  23.099  1.00  0.00     0.163 HD
ATOM     19  O   UNL A   1      33.270  24.481  21.046  1.00  0.00    -0.268 OA
BRANCH  17  20
ATOM     20  C   UNL A   1      32.505  26.356  22.281  1.00  0.00     0.128 A 
ATOM     21  C   UNL A   1      33.490  27.327  22.440  1.00  0.00     0.034 A 
ATOM     22  N   UNL A   1      31.178  26.619  22.304  1.00  0.00    -0.251 NA
ATOM     23  C   UNL A   1      33.089  28.632  22.703  1.00  0.00     0.004 A 
ATOM     24  C   UNL A   1      30.823  27.893  22.566  1.00  0.00     0.112 A 
ATOM     25  C   UNL A   1      31.730  28.921  22.779  1.00  0.00     0.020 A 
ENDBRANCH  17  20
ENDBRANCH  15  16
ENDBRANCH   7  15
ENDBRANCH   6   7
ENDBRANCH   4   6
ENDBRANCH   1   2
BRANCH   1  26
ATOM     26  C   UNL A   1      37.353  21.141  24.624  1.00  0.00     0.023 C 
BRANCH  26  27
ATOM     27  C   UNL A   1      38.276  19.933  24.823  1.00  0.00     0.023 C 
BRANCH  27  28
ATOM     28  C   UNL A   1      39.255  20.052  25.985  1.00  0.00     0.116 C 
BRANCH  28  29
ATOM     29  N   UNL A   1      40.388  19.150  25.859  1.00  0.00    -0.352 N 
ATOM     30  C   UNL A   1      41.729  19.413  26.000  1.00  0.00     0.251 C 
ATOM     31  H   UNL A   1      40.162  18.217  25.640  1.00  0.00     0.163 HD
ATOM     32  O   UNL A   1      42.557  18.555  25.705  1.00  0.00    -0.269 OA
BRANCH  30  33
ATOM     33  C   UNL A   1      42.183  20.739  26.476  1.00  0.00     0.039 A 
ATOM     34  C   UNL A   1      42.623  21.676  25.539  1.00  0.00     0.014 A 
ATOM     35  C   UNL A   1      42.174  21.061  27.836  1.00  0.00     0.014 A 
ATOM     36  C   UNL A   1      42.987  22.959  25.956  1.00  0.00     0.010 A 
ATOM     37  C   UNL A   1      42.462  22.363  28.242  1.00  0.00     0.010 A 
ATOM     38  C   UNL A   1      42.870  23.327  27.306  1.00  0.00    -0.014 A 
BRANCH  38  39
ATOM     39  C   UNL A   1      43.159  24.714  27.755  1.00  0.00     0.031 A 
ATOM     40  C   UNL A   1      44.574  25.149  28.026  1.00  0.00     0.074 A 
ATOM     41  C   UNL A   1      42.141  25.569  27.978  1.00  0.00     0.049 A 
ATOM     42  N   UNL A   1      45.014  26.292  28.490  1.00  0.00    -0.248 NA
ATOM     43  C   UNL A   1      45.631  24.161  27.768  1.00  0.00     0.031 C 
ATOM     44  C   UNL A   1      40.721  25.260  27.797  1.00  0.00     0.029 A 
ATOM     45  N   UNL A   1      42.142  26.870  28.418  1.00  0.00    -0.354 N 
ATOM     46  C   UNL A   1      46.393  26.157  28.585  1.00  0.00     0.074 A 
ATOM     47  C   UNL A   1      46.712  24.803  28.188  1.00  0.00     0.031 C 
ATOM     48  C   UNL A   1      39.992  26.345  28.100  1.00  0.00     0.029 A 
ATOM     49  C   UNL A   1      40.885  27.412  28.541  1.00  0.00     0.049 A 
ATOM     50  H   UNL A   1      42.966  27.366  28.627  1.00  0.00     0.167 HD
ATOM     51  C   UNL A   1      47.313  27.084  28.946  1.00  0.00     0.037 A 
ATOM     52  C   UNL A   1      40.494  28.627  28.970  1.00  0.00     0.037 A 
ATOM     53  C   UNL A   1      46.996  28.435  29.326  1.00  0.00     0.049 A 
ATOM     54  C   UNL A   1      41.534  29.631  29.388  1.00  0.00     0.074 A 
ATOM     55  C   UNL A   1      47.863  29.461  29.661  1.00  0.00     0.029 A 
ATOM     56  N   UNL A   1      45.712  28.950  29.427  1.00  0.00    -0.354 N 
ATOM     57  N   UNL A   1      42.839  29.508  29.411  1.00  0.00    -0.248 NA
ATOM     58  C   UNL A   1      41.046  30.943  29.834  1.00  0.00     0.031 C 
ATOM     59  C   UNL A   1      47.102  30.580  30.015  1.00  0.00     0.029 A 
ATOM     60  C   UNL A   1      45.763  30.270  29.842  1.00  0.00     0.049 A 
ATOM     61  H   UNL A   1      44.887  28.449  29.231  1.00  0.00     0.167 HD
ATOM     62  C   UNL A   1      43.329  30.735  29.842  1.00  0.00     0.074 A 
ATOM     63  C   UNL A   1      42.181  31.592  30.055  1.00  0.00     0.031 C 
ATOM     64  C   UNL A   1      44.614  31.117  30.043  1.00  0.00     0.037 A 
BRANCH  51  65
ATOM     65  C   UNL A   1      48.756  26.665  28.944  1.00  0.00     0.057 A 
ATOM     66  C   UNL A   1      49.379  26.153  30.091  1.00  0.00     0.134 A 
ATOM     67  C   UNL A   1      49.521  26.733  27.772  1.00  0.00     0.134 A 
ATOM     68  F   UNL A   1      48.707  26.070  31.250  1.00  0.00    -0.206 F 
ATOM     69  C   UNL A   1      50.716  25.751  30.080  1.00  0.00     0.040 A 
ATOM     70  C   UNL A   1      50.849  26.305  27.741  1.00  0.00     0.040 A 
ATOM     71  F   UNL A   1      48.986  27.205  26.637  1.00  0.00    -0.206 F 
ATOM     72  C   UNL A   1      51.452  25.819  28.899  1.00  0.00     0.006 A 
ENDBRANCH  51  65
BRANCH  52  73
ATOM     73  C   UNL A   1      39.050  28.972  29.018  1.00  0.00     0.057 A 
ATOM     74  C   UNL A   1      38.303  28.805  30.190  1.00  0.00     0.134 A 
ATOM     75  C   UNL A   1      38.375  29.456  27.890  1.00  0.00     0.134 A 
ATOM     76  F   UNL A   1      38.886  28.326  31.298  1.00  0.00    -0.206 F 
ATOM     77  C   UNL A   1      36.936  29.084  30.234  1.00  0.00     0.040 A 
ATOM     78  C   UNL A   1      37.016  29.767  27.927  1.00  0.00     0.040 A 
ATOM     79  F   UNL A   1      39.034  29.647  26.737  1.00  0.00    -0.206 F 
ATOM     80  C   UNL A   1      36.289  29.571  29.100  1.00  0.00     0.006 A 
ENDBRANCH  52  73
BRANCH  64  81
ATOM     81  C   UNL A   1      44.852  32.535  30.478  1.00  0.00     0.057 A 
ATOM     82  C   UNL A   1      45.023  33.576  29.556  1.00  0.00     0.134 A 
ATOM     83  C   UNL A   1      44.873  32.867  31.839  1.00  0.00     0.134 A 
ATOM     84  F   UNL A   1      45.027  33.324  28.239  1.00  0.00    -0.206 F 
ATOM     85  C   UNL A   1      45.232  34.892  29.973  1.00  0.00     0.040 A 
ATOM     86  C   UNL A   1      45.050  34.184  32.267  1.00  0.00     0.040 A 
ATOM     87  F   UNL A   1      44.705  31.920  32.774  1.00  0.00    -0.206 F 
ATOM     88  C   UNL A   1      45.237  35.199  31.333  1.00  0.00     0.006 A 
ENDBRANCH  64  81
ENDBRANCH  38  39
ENDBRANCH  30  33
ENDBRANCH  28  29
ENDBRANCH  27  28
ENDBRANCH  26  27
ENDBRANCH   1  26
TORSDOF 16
ENDMDL
MODEL 2
REMARK VINA RESULT:     -11.2      4.566      9.530
REMARK SMILES O=C(C[C@H](CNC(=O)c1ccccn1)c1ccc(Cl)cc1)NCCCCNC(=O)c1ccc(-c2c3nc(c(-c4c(F)cccc4F)c4ccc([nH]4)c(-c4c(F)cccc4F)c4nc(c(-c5c(F)cccc5F)c5ccc2[nH]5)C=C4)C=C3)cc1
REMARK SMILES IDX 23 1 22 2 1 3 2 4 3 6 4 7 15 8 16 9 21 10 17 11 20 12 18 13
REMARK SMILES IDX 19 14 5 15 6 16 7 17 8 19 9 20 10 21 14 22 11 23 13 24 12 25
REMARK SMILES IDX 24 26 25 27 26 28 27 29 28 30 29 32 30 33 31 34 83 35 32 36
REMARK SMILES IDX 82 37 33 38 34 39 35 40 76 41 36 42 81 43 75 44 77 45 37 46
REMARK SMILES IDX 80 47 74 48 73 49 38 51 64 52 47 53 63 54 48 55 51 56 62 57
REMARK SMILES IDX 78 58 49 59 50 60 61 62 79 63 52 64 39 65 40 66 45 67 41 68
REMARK SMILES IDX 42 69 44 70 46 71 43 72 65 73 66 74 71 75 67 76 68 77 70 78
REMARK SMILES IDX 72 79 69 80 53 81 54 82 59 83 55 84 56 85 58 86 60 87 57 88
REMARK H PARENT 22 5 6 18 27 31 77 50 51 61
REMARK Flexibility Score: inf
ROOT
ATOM      1  C   UNL A   1      32.912  30.190  26.035  1.00  0.00     0.116 C 
ENDROOT
BRANCH   1   2
ATOM      2  N   UNL A   1      32.978  28.770  26.321  1.00  0.00    -0.356 N 
ATOM      3  O   UNL A   1      34.101  28.204  24.408  1.00  0.00    -0.275 OA
ATOM      4  C   UNL A   1      33.524  27.871  25.434  1.00  0.00     0.220 C 
ATOM      5  H   UNL A   1      32.619  28.439  27.176  1.00  0.00     0.163 HD
BRANCH   4   6
ATOM      6  C   UNL A   1      33.310  26.423  25.822  1.00  0.00     0.110 C 
BRANCH   6   7
ATOM      7  C   UNL A   1      33.351  25.472  24.613  1.00  0.00     0.048 C 
BRANCH   7   8
ATOM      8  C   UNL A   1      34.474  24.447  24.712  1.00  0.00    -0.043 A 
ATOM      9  C   UNL A   1      34.544  23.411  23.764  1.00  0.00     0.005 A 
ATOM     10  C   UNL A   1      35.444  24.497  25.725  1.00  0.00     0.005 A 
ATOM     11  C   UNL A   1      35.566  22.461  23.818  1.00  0.00     0.021 A 
ATOM     12  C   UNL A   1      36.465  23.543  25.781  1.00  0.00     0.021 A 
ATOM     13  C   UNL A   1      36.523  22.532  24.827  1.00  0.00     0.041 A 
ATOM     14  Cl  UNL A   1      37.783  21.362  24.892  1.00  0.00    -0.084 Cl
ENDBRANCH   7   8
BRANCH   7  15
ATOM     15  C   UNL A   1      31.989  24.802  24.328  1.00  0.00     0.125 C 
BRANCH  15  16
ATOM     16  N   UNL A   1      31.094  24.751  25.475  1.00  0.00    -0.350 N 
ATOM     17  C   UNL A   1      30.920  23.733  26.392  1.00  0.00     0.269 C 
ATOM     18  H   UNL A   1      30.535  25.550  25.615  1.00  0.00     0.163 HD
ATOM     19  O   UNL A   1      30.024  23.822  27.228  1.00  0.00    -0.268 OA
BRANCH  17  20
ATOM     20  C   UNL A   1      31.844  22.564  26.371  1.00  0.00     0.128 A 
ATOM     21  C   UNL A   1      32.879  22.490  27.300  1.00  0.00     0.034 A 
ATOM     22  N   UNL A   1      31.641  21.651  25.394  1.00  0.00    -0.251 NA
ATOM     23  C   UNL A   1      33.797  21.453  27.177  1.00  0.00     0.004 A 
ATOM     24  C   UNL A   1      32.553  20.661  25.300  1.00  0.00     0.112 A 
ATOM     25  C   UNL A   1      33.639  20.526  26.151  1.00  0.00     0.020 A 
ENDBRANCH  17  20
ENDBRANCH  15  16
ENDBRANCH   7  15
ENDBRANCH   6   7
ENDBRANCH   4   6
ENDBRANCH   1   2
BRANCH   1  26
ATOM     26  C   UNL A   1      31.472  30.697  26.099  1.00  0.00     0.023 C 
BRANCH  26  27
ATOM     27  C   UNL A   1      31.329  32.166  26.512  1.00  0.00     0.023 C 
BRANCH  27  28
ATOM     28  C   UNL A   1      32.552  32.770  27.192  1.00  0.00     0.116 C 
BRANCH  28  29
ATOM     29  N   UNL A   1      32.334  34.140  27.627  1.00  0.00    -0.352 N 
ATOM     30  C   UNL A   1      32.991  34.861  28.594  1.00  0.00     0.251 C 
ATOM     31  H   UNL A   1      31.611  34.620  27.161  1.00  0.00     0.163 HD
ATOM     32  O   UNL A   1      32.567  35.964  28.932  1.00  0.00    -0.269 OA
BRANCH  30  33
ATOM     33  C   UNL A   1      34.191  34.301  29.254  1.00  0.00     0.039 A 
ATOM     34  C   UNL A   1      34.027  33.527  30.404  1.00  0.00     0.014 A 
ATOM     35  C   UNL A   1      35.472  34.535  28.745  1.00  0.00     0.014 A 
ATOM     36  C   UNL A   1      35.138  32.928  31.003  1.00  0.00     0.010 A 
ATOM     37  C   UNL A   1      36.569  33.875  29.297  1.00  0.00     0.010 A 
ATOM     38  C   UNL A   1      36.413  33.062  30.431  1.00  0.00    -0.014 A 
BRANCH  38  39
ATOM     39  C   UNL A   1      37.591  32.354  30.998  1.00  0.00     0.031 A 
ATOM     40  C   UNL A   1      38.270  32.872  32.236  1.00  0.00     0.074 A 
ATOM     41  C   UNL A   1      38.089  31.275  30.361  1.00  0.00     0.049 A 
ATOM     42  N   UNL A   1      39.348  32.432  32.834  1.00  0.00    -0.248 NA
ATOM     43  C   UNL A   1      37.675  34.058  32.870  1.00  0.00     0.031 C 
ATOM     44  C   UNL A   1      37.552  30.695  29.128  1.00  0.00     0.029 A 
ATOM     45  N   UNL A   1      39.168  30.477  30.658  1.00  0.00    -0.354 N 
ATOM     46  C   UNL A   1      39.564  33.288  33.907  1.00  0.00     0.074 A 
ATOM     47  C   UNL A   1      38.540  34.308  33.843  1.00  0.00     0.031 C 
ATOM     48  C   UNL A   1      38.288  29.626  28.787  1.00  0.00     0.029 A 
ATOM     49  C   UNL A   1      39.375  29.468  29.748  1.00  0.00     0.049 A 
ATOM     50  H   UNL A   1      39.739  30.618  31.447  1.00  0.00     0.167 HD
ATOM     51  C   UNL A   1      40.512  33.217  34.871  1.00  0.00     0.037 A 
ATOM     52  C   UNL A   1      40.337  28.528  29.688  1.00  0.00     0.037 A 
ATOM     53  C   UNL A   1      41.521  32.192  34.943  1.00  0.00     0.049 A 
ATOM     54  C   UNL A   1      41.393  28.485  30.759  1.00  0.00     0.074 A 
ATOM     55  C   UNL A   1      42.494  32.008  35.910  1.00  0.00     0.029 A 
ATOM     56  N   UNL A   1      41.690  31.180  34.009  1.00  0.00    -0.354 N 
ATOM     57  N   UNL A   1      41.544  29.264  31.803  1.00  0.00    -0.248 NA
ATOM     58  C   UNL A   1      42.408  27.428  30.646  1.00  0.00     0.031 C 
ATOM     59  C   UNL A   1      43.285  30.918  35.534  1.00  0.00     0.029 A 
ATOM     60  C   UNL A   1      42.767  30.385  34.364  1.00  0.00     0.049 A 
ATOM     61  H   UNL A   1      41.127  31.048  33.212  1.00  0.00     0.167 HD
ATOM     62  C   UNL A   1      42.650  28.773  32.487  1.00  0.00     0.074 A 
ATOM     63  C   UNL A   1      43.121  27.620  31.747  1.00  0.00     0.031 C 
ATOM     64  C   UNL A   1      43.223  29.235  33.625  1.00  0.00     0.037 A 
BRANCH  51  65
ATOM     65  C   UNL A   1      40.501  34.279  35.933  1.00  0.00     0.057 A 
ATOM     66  C   UNL A   1      41.226  35.470  35.796  1.00  0.00     0.134 A 
ATOM     67  C   UNL A   1      39.721  34.131  37.088  1.00  0.00     0.134 A 
ATOM     68  F   UNL A   1      42.002  35.673  34.719  1.00  0.00    -0.206 F 
ATOM     69  C   UNL A   1      41.201  36.461  36.779  1.00  0.00     0.040 A 
ATOM     70  C   UNL A   1      39.663  35.128  38.063  1.00  0.00     0.040 A 
ATOM     71  F   UNL A   1      38.996  33.020  37.282  1.00  0.00    -0.206 F 
ATOM     72  C   UNL A   1      40.410  36.294  37.914  1.00  0.00     0.006 A 
ENDBRANCH  51  65
BRANCH  52  73
ATOM     73  C   UNL A   1      40.345  27.539  28.579  1.00  0.00     0.057 A 
ATOM     74  C   UNL A   1      39.631  26.339  28.673  1.00  0.00     0.134 A 
ATOM     75  C   UNL A   1      41.080  27.760  27.408  1.00  0.00     0.134 A 
ATOM     76  F   UNL A   1      38.924  26.060  29.778  1.00  0.00    -0.206 F 
ATOM     77  C   UNL A   1      39.666  25.384  27.656  1.00  0.00     0.040 A 
ATOM     78  C   UNL A   1      41.101  26.828  26.370  1.00  0.00     0.040 A 
ATOM     79  F   UNL A   1      41.778  28.894  27.250  1.00  0.00    -0.206 F 
ATOM     80  C   UNL A   1      40.400  25.630  26.497  1.00  0.00     0.006 A 
ENDBRANCH  52  73
BRANCH  64  81
ATOM     81  C   UNL A   1      44.398  28.471  34.165  1.00  0.00     0.057 A 
ATOM     82  C   UNL A   1      45.718  28.813  33.844  1.00  0.00     0.134 A 
ATOM     83  C   UNL A   1      44.204  27.403  35.051  1.00  0.00     0.134 A 
ATOM     84  F   UNL A   1      45.972  29.817  32.991  1.00  0.00    -0.206 F 
ATOM     85  C   UNL A   1      46.802  28.103  34.362  1.00  0.00     0.040 A 
ATOM     86  C   UNL A   1      45.282  26.705  35.600  1.00  0.00     0.040 A 
ATOM     87  F   UNL A   1      42.967  27.030  35.410  1.00  0.00    -0.206 F 
ATOM     88  C   UNL A   1      46.585  27.050  35.250  1.00  0.00     0.006 A 
ENDBRANCH  64  81
ENDBRANCH  38  39
ENDBRANCH  30  33
ENDBRANCH  28  29
ENDBRANCH  27  28
ENDBRANCH  26  27
ENDBRANCH   1  26
TORSDOF 16
ENDMDL
MODEL 3
REMARK VINA RESULT:     -11.0      0.784      6.058
REMARK SMILES O=C(C[C@H](CNC(=O)c1ccccn1)c1ccc(Cl)cc1)NCCCCNC(=O)c1ccc(-c2c3nc(c(-c4c(F)cccc4F)c4ccc([nH]4)c(-c4c(F)cccc4F)c4nc(c(-c5c(F)cccc5F)c5ccc2[nH]5)C=C4)C=C3)cc1
REMARK SMILES IDX 23 1 22 2 1 3 2 4 3 6 4 7 15 8 16 9 21 10 17 11 20 12 18 13
REMARK SMILES IDX 19 14 5 15 6 16 7 17 8 19 9 20 10 21 14 22 11 23 13 24 12 25
REMARK SMILES IDX 24 26 25 27 26 28 27 29 28 30 29 32 30 33 31 34 83 35 32 36
REMARK SMILES IDX 82 37 33 38 34 39 35 40 76 41 36 42 81 43 75 44 77 45 37 46
REMARK SMILES IDX 80 47 74 48 73 49 38 51 64 52 47 53 63 54 48 55 51 56 62 57
REMARK SMILES IDX 78 58 49 59 50 60 61 62 79 63 52 64 39 65 40 66 45 67 41 68
REMARK SMILES IDX 42 69 44 70 46 71 43 72 65 73 66 74 71 75 67 76 68 77 70 78
REMARK SMILES IDX 72 79 69 80 53 81 54 82 59 83 55 84 56 85 58 86 60 87 57 88
REMARK H PARENT 22 5 6 18 27 31 77 50 51 61
REMARK Flexibility Score: inf
ROOT
ATOM      1  C   UNL A   1      35.909  21.241  24.817  1.00  0.00     0.116 C 
ENDROOT
BRANCH   1   2
ATOM      2  N   UNL A   1      35.609  22.651  24.656  1.00  0.00    -0.356 N 
ATOM      3  O   UNL A   1      35.163  23.041  26.868  1.00  0.00    -0.275 OA
ATOM      4  C   UNL A   1      35.193  23.433  25.709  1.00  0.00     0.220 C 
ATOM      5  H   UNL A   1      35.706  23.060  23.766  1.00  0.00     0.163 HD
BRANCH   4   6
ATOM      6  C   UNL A   1      34.732  24.816  25.298  1.00  0.00     0.110 C 
BRANCH   6   7
ATOM      7  C   UNL A   1      33.244  25.061  25.605  1.00  0.00     0.048 C 
BRANCH   7   8
ATOM      8  C   UNL A   1      32.958  26.505  25.998  1.00  0.00    -0.043 A 
ATOM      9  C   UNL A   1      34.026  27.413  26.108  1.00  0.00     0.005 A 
ATOM     10  C   UNL A   1      31.658  26.964  26.260  1.00  0.00     0.005 A 
ATOM     11  C   UNL A   1      33.797  28.746  26.455  1.00  0.00     0.021 A 
ATOM     12  C   UNL A   1      31.430  28.297  26.611  1.00  0.00     0.021 A 
ATOM     13  C   UNL A   1      32.500  29.183  26.704  1.00  0.00     0.041 A 
ATOM     14  Cl  UNL A   1      32.219  30.826  27.130  1.00  0.00    -0.084 Cl
ENDBRANCH   7   8
BRANCH   7  15
ATOM     15  C   UNL A   1      32.308  24.581  24.474  1.00  0.00     0.125 C 
BRANCH  15  16
ATOM     16  N   UNL A   1      32.947  24.480  23.169  1.00  0.00    -0.350 N 
ATOM     17  C   UNL A   1      32.931  25.383  22.126  1.00  0.00     0.269 C 
ATOM     18  H   UNL A   1      33.458  23.653  23.010  1.00  0.00     0.163 HD
ATOM     19  O   UNL A   1      33.430  25.069  21.049  1.00  0.00    -0.268 OA
BRANCH  17  20
ATOM     20  C   UNL A   1      32.339  26.735  22.339  1.00  0.00     0.128 A 
ATOM     21  C   UNL A   1      33.170  27.807  22.653  1.00  0.00     0.034 A 
ATOM     22  N   UNL A   1      30.991  26.823  22.258  1.00  0.00    -0.251 NA
ATOM     23  C   UNL A   1      32.578  29.025  22.966  1.00  0.00     0.004 A 
ATOM     24  C   UNL A   1      30.449  28.018  22.573  1.00  0.00     0.112 A 
ATOM     25  C   UNL A   1      31.191  29.132  22.937  1.00  0.00     0.020 A 
ENDBRANCH  17  20
ENDBRANCH  15  16
ENDBRANCH   7  15
ENDBRANCH   6   7
ENDBRANCH   4   6
ENDBRANCH   1   2
BRANCH   1  26
ATOM     26  C   UNL A   1      37.315  20.918  24.311  1.00  0.00     0.023 C 
BRANCH  26  27
ATOM     27  C   UNL A   1      38.000  19.750  25.028  1.00  0.00     0.023 C 
BRANCH  27  28
ATOM     28  C   UNL A   1      39.197  20.132  25.892  1.00  0.00     0.116 C 
BRANCH  28  29
ATOM     29  N   UNL A   1      40.226  19.105  25.912  1.00  0.00    -0.352 N 
ATOM     30  C   UNL A   1      41.575  19.231  26.136  1.00  0.00     0.251 C 
ATOM     31  H   UNL A   1      39.910  18.188  25.740  1.00  0.00     0.163 HD
ATOM     32  O   UNL A   1      42.318  18.267  25.963  1.00  0.00    -0.269 OA
BRANCH  30  33
ATOM     33  C   UNL A   1      42.143  20.531  26.555  1.00  0.00     0.039 A 
ATOM     34  C   UNL A   1      42.665  21.383  25.579  1.00  0.00     0.014 A 
ATOM     35  C   UNL A   1      42.163  20.912  27.900  1.00  0.00     0.014 A 
ATOM     36  C   UNL A   1      43.141  22.646  25.942  1.00  0.00     0.010 A 
ATOM     37  C   UNL A   1      42.565  22.200  28.250  1.00  0.00     0.010 A 
ATOM     38  C   UNL A   1      43.056  23.082  27.274  1.00  0.00    -0.014 A 
BRANCH  38  39
ATOM     39  C   UNL A   1      43.467  24.457  27.662  1.00  0.00     0.031 A 
ATOM     40  C   UNL A   1      42.431  25.498  27.989  1.00  0.00     0.074 A 
ATOM     41  C   UNL A   1      44.773  24.789  27.660  1.00  0.00     0.049 A 
ATOM     42  N   UNL A   1      42.594  26.765  28.278  1.00  0.00    -0.248 NA
ATOM     43  C   UNL A   1      41.026  25.066  27.963  1.00  0.00     0.031 C 
ATOM     44  C   UNL A   1      45.876  23.887  27.320  1.00  0.00     0.029 A 
ATOM     45  N   UNL A   1      45.397  25.979  27.944  1.00  0.00    -0.354 N 
ATOM     46  C   UNL A   1      41.316  27.280  28.460  1.00  0.00     0.074 A 
ATOM     47  C   UNL A   1      40.387  26.204  28.190  1.00  0.00     0.031 C 
ATOM     48  C   UNL A   1      47.038  24.548  27.435  1.00  0.00     0.029 A 
ATOM     49  C   UNL A   1      46.765  25.931  27.814  1.00  0.00     0.049 A 
ATOM     50  H   UNL A   1      44.910  26.790  28.214  1.00  0.00     0.167 HD
ATOM     51  C   UNL A   1      40.951  28.527  28.841  1.00  0.00     0.037 A 
ATOM     52  C   UNL A   1      47.693  26.894  27.970  1.00  0.00     0.037 A 
ATOM     53  C   UNL A   1      41.877  29.592  29.123  1.00  0.00     0.049 A 
ATOM     54  C   UNL A   1      47.259  28.277  28.370  1.00  0.00     0.074 A 
ATOM     55  C   UNL A   1      41.604  30.876  29.563  1.00  0.00     0.029 A 
ATOM     56  N   UNL A   1      43.255  29.501  28.991  1.00  0.00    -0.354 N 
ATOM     57  N   UNL A   1      46.051  28.731  28.600  1.00  0.00    -0.248 NA
ATOM     58  C   UNL A   1      48.320  29.281  28.538  1.00  0.00     0.031 C 
ATOM     59  C   UNL A   1      42.812  31.577  29.646  1.00  0.00     0.029 A 
ATOM     60  C   UNL A   1      43.843  30.712  29.317  1.00  0.00     0.049 A 
ATOM     61  H   UNL A   1      43.742  28.693  28.708  1.00  0.00     0.167 HD
ATOM     62  C   UNL A   1      46.208  30.062  28.970  1.00  0.00     0.074 A 
ATOM     63  C   UNL A   1      47.630  30.336  28.948  1.00  0.00     0.031 C 
ATOM     64  C   UNL A   1      45.260  30.972  29.299  1.00  0.00     0.037 A 
BRANCH  51  65
ATOM     65  C   UNL A   1      39.481  28.808  28.976  1.00  0.00     0.057 A 
ATOM     66  C   UNL A   1      38.806  28.645  30.193  1.00  0.00     0.134 A 
ATOM     67  C   UNL A   1      38.740  29.288  27.888  1.00  0.00     0.134 A 
ATOM     68  F   UNL A   1      39.453  28.178  31.272  1.00  0.00    -0.206 F 
ATOM     69  C   UNL A   1      37.443  28.922  30.317  1.00  0.00     0.040 A 
ATOM     70  C   UNL A   1      37.385  29.598  28.008  1.00  0.00     0.040 A 
ATOM     71  F   UNL A   1      39.324  29.475  26.695  1.00  0.00    -0.206 F 
ATOM     72  C   UNL A   1      36.731  29.408  29.222  1.00  0.00     0.006 A 
ENDBRANCH  51  65
BRANCH  52  73
ATOM     73  C   UNL A   1      49.131  26.584  27.758  1.00  0.00     0.057 A 
ATOM     74  C   UNL A   1      49.948  26.175  28.819  1.00  0.00     0.134 A 
ATOM     75  C   UNL A   1      49.728  26.707  26.497  1.00  0.00     0.134 A 
ATOM     76  F   UNL A   1      49.440  26.056  30.054  1.00  0.00    -0.206 F 
ATOM     77  C   UNL A   1      51.309  25.923  28.640  1.00  0.00     0.040 A 
ATOM     78  C   UNL A   1      51.080  26.431  26.297  1.00  0.00     0.040 A 
ATOM     79  F   UNL A   1      48.998  27.086  25.437  1.00  0.00    -0.206 F 
ATOM     80  C   UNL A   1      51.878  26.047  27.374  1.00  0.00     0.006 A 
ENDBRANCH  52  73
BRANCH  64  81
ATOM     81  C   UNL A   1      45.729  32.342  29.701  1.00  0.00     0.057 A 
ATOM     82  C   UNL A   1      45.910  33.370  28.767  1.00  0.00     0.134 A 
ATOM     83  C   UNL A   1      45.965  32.644  31.049  1.00  0.00     0.134 A 
ATOM     84  F   UNL A   1      45.713  33.143  27.460  1.00  0.00    -0.206 F 
ATOM     85  C   UNL A   1      46.334  34.641  29.156  1.00  0.00     0.040 A 
ATOM     86  C   UNL A   1      46.360  33.921  31.453  1.00  0.00     0.040 A 
ATOM     87  F   UNL A   1      45.800  31.709  31.996  1.00  0.00    -0.206 F 
ATOM     88  C   UNL A   1      46.553  34.922  30.504  1.00  0.00     0.006 A 
ENDBRANCH  64  81
ENDBRANCH  38  39
ENDBRANCH  30  33
ENDBRANCH  28  29
ENDBRANCH  27  28
ENDBRANCH  26  27
ENDBRANCH   1  26
TORSDOF 16
ENDMDL
