MODEL 1
REMARK VINA RESULT:     -11.5      0.000      0.000
REMARK SMILES N#Cc1ccc(C(=O)N2CCC[C@H]2C(=O)NCCCCNC(=O)c2ccc(-c3c4nc(c(-c5c(F)cccc5F)c5ccc([nH]5)c(-c5c(F)cccc5F)c5nc(c(-c6c(F)cccc6F)c6ccc3[nH]6)C=C5)C=C4)cc2)cc1
REMARK SMILES IDX 18 1 17 2 16 3 14 4 15 5 13 7 9 8 10 9 11 10 12 11 7 12 8 13
REMARK SMILES IDX 6 14 3 15 4 16 79 17 5 18 78 19 2 20 1 21 19 22 20 23 21 24
REMARK SMILES IDX 22 25 23 27 24 28 25 29 77 30 26 31 76 32 27 33 28 34 29 35
REMARK SMILES IDX 70 36 30 37 75 38 69 39 71 40 31 41 74 42 68 43 67 44 32 46
REMARK SMILES IDX 58 47 41 48 57 49 42 50 45 51 56 52 72 53 43 54 44 55 55 57
REMARK SMILES IDX 73 58 46 59 33 60 34 61 39 62 35 63 36 64 38 65 40 66 37 67
REMARK SMILES IDX 59 68 60 69 65 70 61 71 62 72 64 73 66 74 63 75 47 76 48 77
REMARK SMILES IDX 53 78 49 79 50 80 52 81 54 82 51 83
REMARK H PARENT 16 6 21 26 71 45 45 56
REMARK Flexibility Score: inf
ROOT
ATOM      1  C   UNL A   1      36.502  20.474  25.000  1.00  0.00     0.023 C 
ENDROOT
BRANCH   1   2
ATOM      2  C   UNL A   1      36.728  21.944  25.326  1.00  0.00     0.116 C 
BRANCH   2   3
ATOM      3  N   UNL A   1      36.014  22.394  26.509  1.00  0.00    -0.354 N 
ATOM      4  C   UNL A   1      34.742  22.887  26.605  1.00  0.00     0.242 C 
ATOM      5  O   UNL A   1      34.227  22.919  27.727  1.00  0.00    -0.273 OA
ATOM      6  H   UNL A   1      36.513  22.336  27.355  1.00  0.00     0.163 HD
BRANCH   4   7
ATOM      7  C   UNL A   1      33.989  23.356  25.337  1.00  0.00     0.174 C 
ATOM      8  N   UNL A   1      32.528  23.382  25.474  1.00  0.00    -0.327 N 
ATOM      9  C   UNL A   1      32.064  24.725  25.742  1.00  0.00     0.121 C 
ATOM     10  C   UNL A   1      33.008  25.569  24.913  1.00  0.00     0.024 C 
ATOM     11  C   UNL A   1      34.345  24.830  25.022  1.00  0.00     0.037 C 
BRANCH   8  12
ATOM     12  C   UNL A   1      31.757  22.243  25.465  1.00  0.00     0.254 C 
ATOM     13  O   UNL A   1      30.647  22.202  25.987  1.00  0.00    -0.269 OA
BRANCH  12  14
ATOM     14  C   UNL A   1      32.337  20.960  24.951  1.00  0.00     0.040 A 
ATOM     15  C   UNL A   1      33.188  18.504  23.859  1.00  0.00     0.052 A 
ATOM     16  C   UNL A   1      32.610  19.470  23.036  1.00  0.00     0.020 A 
ATOM     17  C   UNL A   1      33.326  18.755  25.227  1.00  0.00     0.020 A 
ATOM     18  C   UNL A   1      32.194  20.691  23.579  1.00  0.00     0.015 A 
ATOM     19  C   UNL A   1      32.883  19.968  25.773  1.00  0.00     0.015 A 
BRANCH  15  20
ATOM     20  C   UNL A   1      33.620  17.251  23.310  1.00  0.00     0.099 C 
ATOM     21  N   UNL A   1      33.973  16.241  22.863  1.00  0.00    -0.192 NA
ENDBRANCH  15  20
ENDBRANCH  12  14
ENDBRANCH   8  12
ENDBRANCH   4   7
ENDBRANCH   2   3
ENDBRANCH   1   2
BRANCH   1  22
ATOM     22  C   UNL A   1      37.767  19.621  24.934  1.00  0.00     0.023 C 
BRANCH  22  23
ATOM     23  C   UNL A   1      38.949  20.133  25.751  1.00  0.00     0.116 C 
BRANCH  23  24
ATOM     24  N   UNL A   1      40.060  19.195  25.791  1.00  0.00    -0.352 N 
ATOM     25  C   UNL A   1      41.384  19.410  26.089  1.00  0.00     0.251 C 
ATOM     26  H   UNL A   1      39.827  18.263  25.572  1.00  0.00     0.163 HD
ATOM     27  O   UNL A   1      42.203  18.512  25.910  1.00  0.00    -0.269 OA
BRANCH  25  28
ATOM     28  C   UNL A   1      41.839  20.726  26.595  1.00  0.00     0.039 A 
ATOM     29  C   UNL A   1      42.279  21.683  25.678  1.00  0.00     0.014 A 
ATOM     30  C   UNL A   1      41.847  21.020  27.961  1.00  0.00     0.014 A 
ATOM     31  C   UNL A   1      42.658  22.952  26.124  1.00  0.00     0.010 A 
ATOM     32  C   UNL A   1      42.134  22.312  28.395  1.00  0.00     0.010 A 
ATOM     33  C   UNL A   1      42.547  23.294  27.483  1.00  0.00    -0.014 A 
BRANCH  33  34
ATOM     34  C   UNL A   1      42.851  24.673  27.953  1.00  0.00     0.031 A 
ATOM     35  C   UNL A   1      44.271  25.099  28.212  1.00  0.00     0.074 A 
ATOM     36  C   UNL A   1      41.840  25.538  28.180  1.00  0.00     0.049 A 
ATOM     37  N   UNL A   1      44.724  26.251  28.642  1.00  0.00    -0.248 NA
ATOM     38  C   UNL A   1      45.321  24.096  27.975  1.00  0.00     0.031 C 
ATOM     39  C   UNL A   1      40.417  25.240  28.007  1.00  0.00     0.029 A 
ATOM     40  N   UNL A   1      41.855  26.844  28.604  1.00  0.00    -0.354 N 
ATOM     41  C   UNL A   1      46.104  26.111  28.723  1.00  0.00     0.074 A 
ATOM     42  C   UNL A   1      46.409  24.743  28.366  1.00  0.00     0.031 C 
ATOM     43  C   UNL A   1      39.699  26.341  28.283  1.00  0.00     0.029 A 
ATOM     44  C   UNL A   1      40.605  27.406  28.700  1.00  0.00     0.049 A 
ATOM     45  H   UNL A   1      42.683  27.331  28.817  1.00  0.00     0.167 HD
ATOM     46  C   UNL A   1      47.036  27.043  29.036  1.00  0.00     0.037 A 
ATOM     47  C   UNL A   1      40.227  28.640  29.090  1.00  0.00     0.037 A 
ATOM     48  C   UNL A   1      46.732  28.405  29.393  1.00  0.00     0.049 A 
ATOM     49  C   UNL A   1      41.281  29.636  29.490  1.00  0.00     0.074 A 
ATOM     50  C   UNL A   1      47.609  29.431  29.700  1.00  0.00     0.029 A 
ATOM     51  N   UNL A   1      45.453  28.929  29.498  1.00  0.00    -0.354 N 
ATOM     52  N   UNL A   1      42.586  29.508  29.498  1.00  0.00    -0.248 NA
ATOM     53  C   UNL A   1      40.808  30.958  29.930  1.00  0.00     0.031 C 
ATOM     54  C   UNL A   1      46.860  30.558  30.052  1.00  0.00     0.029 A 
ATOM     55  C   UNL A   1      45.517  30.257  29.892  1.00  0.00     0.049 A 
ATOM     56  H   UNL A   1      44.622  28.432  29.320  1.00  0.00     0.167 HD
ATOM     57  C   UNL A   1      43.088  30.739  29.902  1.00  0.00     0.074 A 
ATOM     58  C   UNL A   1      41.948  31.606  30.110  1.00  0.00     0.031 C 
ATOM     59  C   UNL A   1      44.377  31.117  30.084  1.00  0.00     0.037 A 
BRANCH  46  60
ATOM     60  C   UNL A   1      48.479  26.622  29.001  1.00  0.00     0.057 A 
ATOM     61  C   UNL A   1      49.105  26.039  30.111  1.00  0.00     0.134 A 
ATOM     62  C   UNL A   1      49.238  26.754  27.831  1.00  0.00     0.134 A 
ATOM     63  F   UNL A   1      48.440  25.890  31.267  1.00  0.00    -0.206 F 
ATOM     64  C   UNL A   1      50.439  25.630  30.069  1.00  0.00     0.040 A 
ATOM     65  C   UNL A   1      50.563  26.318  27.766  1.00  0.00     0.040 A 
ATOM     66  F   UNL A   1      48.702  27.293  26.726  1.00  0.00    -0.206 F 
ATOM     67  C   UNL A   1      51.170  25.761  28.890  1.00  0.00     0.006 A 
ENDBRANCH  46  60
BRANCH  47  68
ATOM     68  C   UNL A   1      38.788  29.017  29.116  1.00  0.00     0.057 A 
ATOM     69  C   UNL A   1      38.157  29.542  27.982  1.00  0.00     0.134 A 
ATOM     70  C   UNL A   1      38.022  28.911  30.284  1.00  0.00     0.134 A 
ATOM     71  F   UNL A   1      38.838  29.687  26.835  1.00  0.00    -0.206 F 
ATOM     72  C   UNL A   1      36.832  29.982  28.017  1.00  0.00     0.040 A 
ATOM     73  C   UNL A   1      36.687  29.315  30.324  1.00  0.00     0.040 A 
ATOM     74  F   UNL A   1      38.562  28.409  31.405  1.00  0.00    -0.206 F 
ATOM     75  C   UNL A   1      36.093  29.867  29.192  1.00  0.00     0.006 A 
ENDBRANCH  47  68
BRANCH  59  76
ATOM     76  C   UNL A   1      44.629  32.547  30.476  1.00  0.00     0.057 A 
ATOM     77  C   UNL A   1      44.740  32.947  31.814  1.00  0.00     0.134 A 
ATOM     78  C   UNL A   1      44.786  33.534  29.495  1.00  0.00     0.134 A 
ATOM     79  F   UNL A   1      44.590  32.055  32.806  1.00  0.00    -0.206 F 
ATOM     80  C   UNL A   1      44.961  34.281  32.162  1.00  0.00     0.040 A 
ATOM     81  C   UNL A   1      45.043  34.865  29.829  1.00  0.00     0.040 A 
ATOM     82  F   UNL A   1      44.704  33.221  28.193  1.00  0.00    -0.206 F 
ATOM     83  C   UNL A   1      45.119  35.243  31.166  1.00  0.00     0.006 A 
ENDBRANCH  59  76
ENDBRANCH  33  34
ENDBRANCH  25  28
ENDBRANCH  23  24
ENDBRANCH  22  23
ENDBRANCH   1  22
TORSDOF 14
ENDMDL
MODEL 2
REMARK VINA RESULT:     -11.5      5.066      9.959
REMARK SMILES N#Cc1ccc(C(=O)N2CCC[C@H]2C(=O)NCCCCNC(=O)c2ccc(-c3c4nc(c(-c5c(F)cccc5F)c5ccc([nH]5)c(-c5c(F)cccc5F)c5nc(c(-c6c(F)cccc6F)c6ccc3[nH]6)C=C5)C=C4)cc2)cc1
REMARK SMILES IDX 18 1 17 2 16 3 14 4 15 5 13 7 9 8 10 9 11 10 12 11 7 12 8 13
REMARK SMILES IDX 6 14 3 15 4 16 79 17 5 18 78 19 2 20 1 21 19 22 20 23 21 24
REMARK SMILES IDX 22 25 23 27 24 28 25 29 77 30 26 31 76 32 27 33 28 34 29 35
REMARK SMILES IDX 70 36 30 37 75 38 69 39 71 40 31 41 74 42 68 43 67 44 32 46
REMARK SMILES IDX 58 47 41 48 57 49 42 50 45 51 56 52 72 53 43 54 44 55 55 57
REMARK SMILES IDX 73 58 46 59 33 60 34 61 39 62 35 63 36 64 38 65 40 66 37 67
REMARK SMILES IDX 59 68 60 69 65 70 61 71 62 72 64 73 66 74 63 75 47 76 48 77
REMARK SMILES IDX 53 78 49 79 50 80 52 81 54 82 51 83
REMARK H PARENT 16 6 21 26 71 45 45 56
REMARK Flexibility Score: inf
ROOT
ATOM      1  C   UNL A   1      31.563  30.365  25.737  1.00  0.00     0.023 C 
ENDROOT
BRANCH   1   2
ATOM      2  C   UNL A   1      32.829  29.579  26.047  1.00  0.00     0.116 C 
BRANCH   2   3
ATOM      3  N   UNL A   1      33.715  29.427  24.906  1.00  0.00    -0.354 N 
ATOM      4  C   UNL A   1      33.741  28.431  23.969  1.00  0.00     0.242 C 
ATOM      5  O   UNL A   1      34.358  28.649  22.923  1.00  0.00    -0.273 OA
ATOM      6  H   UNL A   1      34.387  30.136  24.790  1.00  0.00     0.163 HD
BRANCH   4   7
ATOM      7  C   UNL A   1      32.993  27.100  24.225  1.00  0.00     0.174 C 
ATOM      8  N   UNL A   1      32.677  26.339  23.011  1.00  0.00    -0.327 N 
ATOM      9  C   UNL A   1      33.639  25.279  22.806  1.00  0.00     0.121 C 
ATOM     10  C   UNL A   1      33.937  24.831  24.221  1.00  0.00     0.024 C 
ATOM     11  C   UNL A   1      33.894  26.131  25.029  1.00  0.00     0.037 C 
BRANCH   8  12
ATOM     12  C   UNL A   1      31.666  26.697  22.148  1.00  0.00     0.254 C 
ATOM     13  O   UNL A   1      31.570  26.218  21.022  1.00  0.00    -0.269 OA
BRANCH  12  14
ATOM     14  C   UNL A   1      30.744  27.819  22.513  1.00  0.00     0.040 A 
ATOM     15  C   UNL A   1      28.802  29.779  23.101  1.00  0.00     0.052 A 
ATOM     16  C   UNL A   1      28.613  28.461  23.518  1.00  0.00     0.020 A 
ATOM     17  C   UNL A   1      29.950  30.115  22.377  1.00  0.00     0.020 A 
ATOM     18  C   UNL A   1      29.580  27.492  23.230  1.00  0.00     0.015 A 
ATOM     19  C   UNL A   1      30.905  29.136  22.067  1.00  0.00     0.015 A 
BRANCH  15  20
ATOM     20  C   UNL A   1      27.817  30.779  23.394  1.00  0.00     0.099 C 
ATOM     21  N   UNL A   1      27.023  31.591  23.627  1.00  0.00    -0.192 NA
ENDBRANCH  15  20
ENDBRANCH  12  14
ENDBRANCH   8  12
ENDBRANCH   4   7
ENDBRANCH   2   3
ENDBRANCH   1   2
BRANCH   1  22
ATOM     22  C   UNL A   1      31.392  31.662  26.524  1.00  0.00     0.023 C 
BRANCH  22  23
ATOM     23  C   UNL A   1      32.686  32.355  26.937  1.00  0.00     0.116 C 
BRANCH  23  24
ATOM     24  N   UNL A   1      32.475  33.712  27.416  1.00  0.00    -0.352 N 
ATOM     25  C   UNL A   1      33.115  34.404  28.416  1.00  0.00     0.251 C 
ATOM     26  H   UNL A   1      31.765  34.212  26.952  1.00  0.00     0.163 HD
ATOM     27  O   UNL A   1      32.681  35.494  28.780  1.00  0.00    -0.269 OA
BRANCH  25  28
ATOM     28  C   UNL A   1      34.309  33.832  29.082  1.00  0.00     0.039 A 
ATOM     29  C   UNL A   1      34.126  32.883  30.090  1.00  0.00     0.014 A 
ATOM     30  C   UNL A   1      35.602  34.232  28.733  1.00  0.00     0.014 A 
ATOM     31  C   UNL A   1      35.236  32.285  30.693  1.00  0.00     0.010 A 
ATOM     32  C   UNL A   1      36.705  33.569  29.267  1.00  0.00     0.010 A 
ATOM     33  C   UNL A   1      36.537  32.589  30.257  1.00  0.00    -0.014 A 
BRANCH  33  34
ATOM     34  C   UNL A   1      37.719  31.885  30.822  1.00  0.00     0.031 A 
ATOM     35  C   UNL A   1      38.251  32.250  32.182  1.00  0.00     0.074 A 
ATOM     36  C   UNL A   1      38.339  30.933  30.094  1.00  0.00     0.049 A 
ATOM     37  N   UNL A   1      39.281  31.759  32.827  1.00  0.00    -0.248 NA
ATOM     38  C   UNL A   1      37.547  33.319  32.907  1.00  0.00     0.031 C 
ATOM     39  C   UNL A   1      37.951  30.512  28.747  1.00  0.00     0.029 A 
ATOM     40  N   UNL A   1      39.426  30.147  30.384  1.00  0.00    -0.354 N 
ATOM     41  C   UNL A   1      39.344  32.454  34.028  1.00  0.00     0.074 A 
ATOM     42  C   UNL A   1      38.294  33.449  33.994  1.00  0.00     0.031 C 
ATOM     43  C   UNL A   1      38.760  29.518  28.344  1.00  0.00     0.029 A 
ATOM     44  C   UNL A   1      39.755  29.267  29.381  1.00  0.00     0.049 A 
ATOM     45  H   UNL A   1      39.923  30.207  31.233  1.00  0.00     0.167 HD
ATOM     46  C   UNL A   1      40.180  32.263  35.077  1.00  0.00     0.037 A 
ATOM     47  C   UNL A   1      40.752  28.363  29.300  1.00  0.00     0.037 A 
ATOM     48  C   UNL A   1      41.226  31.274  35.111  1.00  0.00     0.049 A 
ATOM     49  C   UNL A   1      41.702  28.215  30.457  1.00  0.00     0.074 A 
ATOM     50  C   UNL A   1      42.107  30.986  36.139  1.00  0.00     0.029 A 
ATOM     51  N   UNL A   1      41.539  30.417  34.067  1.00  0.00    -0.354 N 
ATOM     52  N   UNL A   1      41.707  28.835  31.613  1.00  0.00    -0.248 NA
ATOM     53  C   UNL A   1      42.784  27.232  30.301  1.00  0.00     0.031 C 
ATOM     54  C   UNL A   1      42.992  29.999  35.696  1.00  0.00     0.029 A 
ATOM     55  C   UNL A   1      42.616  29.618  34.418  1.00  0.00     0.049 A 
ATOM     56  H   UNL A   1      41.066  30.380  33.204  1.00  0.00     0.167 HD
ATOM     57  C   UNL A   1      42.763  28.290  32.333  1.00  0.00     0.074 A 
ATOM     58  C   UNL A   1      43.362  27.275  31.492  1.00  0.00     0.031 C 
ATOM     59  C   UNL A   1      43.198  28.601  33.579  1.00  0.00     0.037 A 
BRANCH  46  60
ATOM     60  C   UNL A   1      39.992  33.141  36.283  1.00  0.00     0.057 A 
ATOM     61  C   UNL A   1      40.708  34.336  36.445  1.00  0.00     0.134 A 
ATOM     62  C   UNL A   1      39.052  32.817  37.270  1.00  0.00     0.134 A 
ATOM     63  F   UNL A   1      41.630  34.704  35.543  1.00  0.00    -0.206 F 
ATOM     64  C   UNL A   1      40.516  35.160  37.556  1.00  0.00     0.040 A 
ATOM     65  C   UNL A   1      38.829  33.650  38.368  1.00  0.00     0.040 A 
ATOM     66  F   UNL A   1      38.324  31.695  37.177  1.00  0.00    -0.206 F 
ATOM     67  C   UNL A   1      39.568  34.821  38.517  1.00  0.00     0.006 A 
ENDBRANCH  46  60
BRANCH  47  68
ATOM     68  C   UNL A   1      40.907  27.516  28.087  1.00  0.00     0.057 A 
ATOM     69  C   UNL A   1      41.654  27.956  26.987  1.00  0.00     0.134 A 
ATOM     70  C   UNL A   1      40.273  26.272  27.975  1.00  0.00     0.134 A 
ATOM     71  F   UNL A   1      42.272  29.147  27.023  1.00  0.00    -0.206 F 
ATOM     72  C   UNL A   1      41.734  27.211  25.810  1.00  0.00     0.040 A 
ATOM     73  C   UNL A   1      40.374  25.500  26.816  1.00  0.00     0.040 A 
ATOM     74  F   UNL A   1      39.548  25.786  28.994  1.00  0.00    -0.206 F 
ATOM     75  C   UNL A   1      41.094  25.977  25.723  1.00  0.00     0.006 A 
ENDBRANCH  47  68
BRANCH  59  76
ATOM     76  C   UNL A   1      44.342  27.798  34.132  1.00  0.00     0.057 A 
ATOM     77  C   UNL A   1      45.675  28.212  34.010  1.00  0.00     0.134 A 
ATOM     78  C   UNL A   1      44.101  26.601  34.819  1.00  0.00     0.134 A 
ATOM     79  F   UNL A   1      45.979  29.343  33.355  1.00  0.00    -0.206 F 
ATOM     80  C   UNL A   1      46.727  27.447  34.518  1.00  0.00     0.040 A 
ATOM     81  C   UNL A   1      45.142  25.847  35.364  1.00  0.00     0.040 A 
ATOM     82  F   UNL A   1      42.849  26.149  34.985  1.00  0.00    -0.206 F 
ATOM     83  C   UNL A   1      46.460  26.263  35.203  1.00  0.00     0.006 A 
ENDBRANCH  59  76
ENDBRANCH  33  34
ENDBRANCH  25  28
ENDBRANCH  23  24
ENDBRANCH  22  23
ENDBRANCH   1  22
TORSDOF 14
ENDMDL
MODEL 3
REMARK VINA RESULT:     -11.4      0.833      6.206
REMARK SMILES N#Cc1ccc(C(=O)N2CCC[C@H]2C(=O)NCCCCNC(=O)c2ccc(-c3c4nc(c(-c5c(F)cccc5F)c5ccc([nH]5)c(-c5c(F)cccc5F)c5nc(c(-c6c(F)cccc6F)c6ccc3[nH]6)C=C5)C=C4)cc2)cc1
REMARK SMILES IDX 18 1 17 2 16 3 14 4 15 5 13 7 9 8 10 9 11 10 12 11 7 12 8 13
REMARK SMILES IDX 6 14 3 15 4 16 79 17 5 18 78 19 2 20 1 21 19 22 20 23 21 24
REMARK SMILES IDX 22 25 23 27 24 28 25 29 77 30 26 31 76 32 27 33 28 34 29 35
REMARK SMILES IDX 70 36 30 37 75 38 69 39 71 40 31 41 74 42 68 43 67 44 32 46
REMARK SMILES IDX 58 47 41 48 57 49 42 50 45 51 56 52 72 53 43 54 44 55 55 57
REMARK SMILES IDX 73 58 46 59 33 60 34 61 39 62 35 63 36 64 38 65 40 66 37 67
REMARK SMILES IDX 59 68 60 69 65 70 61 71 62 72 64 73 66 74 63 75 47 76 48 77
REMARK SMILES IDX 53 78 49 79 50 80 52 81 54 82 51 83
REMARK H PARENT 16 6 21 26 71 45 45 56
REMARK Flexibility Score: inf
ROOT
ATOM      1  C   UNL A   1      36.493  20.739  24.830  1.00  0.00     0.023 C 
ENDROOT
BRANCH   1   2
ATOM      2  C   UNL A   1      36.826  22.123  25.370  1.00  0.00     0.116 C 
BRANCH   2   3
ATOM      3  N   UNL A   1      36.067  22.484  26.555  1.00  0.00    -0.354 N 
ATOM      4  C   UNL A   1      34.771  22.913  26.644  1.00  0.00     0.242 C 
ATOM      5  O   UNL A   1      34.232  22.868  27.754  1.00  0.00    -0.273 OA
ATOM      6  H   UNL A   1      36.550  22.408  27.409  1.00  0.00     0.163 HD
BRANCH   4   7
ATOM      7  C   UNL A   1      34.024  23.406  25.382  1.00  0.00     0.174 C 
ATOM      8  N   UNL A   1      32.564  23.440  25.516  1.00  0.00    -0.327 N 
ATOM      9  C   UNL A   1      32.108  24.782  25.804  1.00  0.00     0.121 C 
ATOM     10  C   UNL A   1      33.060  25.632  24.990  1.00  0.00     0.024 C 
ATOM     11  C   UNL A   1      34.391  24.882  25.090  1.00  0.00     0.037 C 
BRANCH   8  12
ATOM     12  C   UNL A   1      31.785  22.306  25.488  1.00  0.00     0.254 C 
ATOM     13  O   UNL A   1      30.673  22.266  26.005  1.00  0.00    -0.269 OA
BRANCH  12  14
ATOM     14  C   UNL A   1      32.358  21.028  24.957  1.00  0.00     0.040 A 
ATOM     15  C   UNL A   1      33.194  18.579  23.836  1.00  0.00     0.052 A 
ATOM     16  C   UNL A   1      32.606  19.552  23.027  1.00  0.00     0.020 A 
ATOM     17  C   UNL A   1      33.349  18.820  25.204  1.00  0.00     0.020 A 
ATOM     18  C   UNL A   1      32.198  20.768  23.585  1.00  0.00     0.015 A 
ATOM     19  C   UNL A   1      32.914  20.029  25.765  1.00  0.00     0.015 A 
BRANCH  15  20
ATOM     20  C   UNL A   1      33.619  17.330  23.273  1.00  0.00     0.099 C 
ATOM     21  N   UNL A   1      33.967  16.322  22.819  1.00  0.00    -0.192 NA
ENDBRANCH  15  20
ENDBRANCH  12  14
ENDBRANCH   8  12
ENDBRANCH   4   7
ENDBRANCH   2   3
ENDBRANCH   1   2
BRANCH   1  22
ATOM     22  C   UNL A   1      37.602  19.699  24.973  1.00  0.00     0.023 C 
BRANCH  22  23
ATOM     23  C   UNL A   1      38.881  20.192  25.641  1.00  0.00     0.116 C 
BRANCH  23  24
ATOM     24  N   UNL A   1      39.893  19.155  25.765  1.00  0.00    -0.352 N 
ATOM     25  C   UNL A   1      41.233  19.260  26.053  1.00  0.00     0.251 C 
ATOM     26  H   UNL A   1      39.569  18.236  25.619  1.00  0.00     0.163 HD
ATOM     27  O   UNL A   1      41.958  18.273  25.953  1.00  0.00    -0.269 OA
BRANCH  25  28
ATOM     28  C   UNL A   1      41.817  20.560  26.456  1.00  0.00     0.039 A 
ATOM     29  C   UNL A   1      42.244  21.442  25.460  1.00  0.00     0.014 A 
ATOM     30  C   UNL A   1      41.959  20.913  27.800  1.00  0.00     0.014 A 
ATOM     31  C   UNL A   1      42.745  22.699  25.810  1.00  0.00     0.010 A 
ATOM     32  C   UNL A   1      42.370  22.199  28.144  1.00  0.00     0.010 A 
ATOM     33  C   UNL A   1      42.771  23.108  27.155  1.00  0.00    -0.014 A 
BRANCH  33  34
ATOM     34  C   UNL A   1      43.207  24.480  27.530  1.00  0.00     0.031 A 
ATOM     35  C   UNL A   1      42.197  25.527  27.913  1.00  0.00     0.074 A 
ATOM     36  C   UNL A   1      44.519  24.795  27.492  1.00  0.00     0.049 A 
ATOM     37  N   UNL A   1      42.390  26.779  28.249  1.00  0.00    -0.248 NA
ATOM     38  C   UNL A   1      40.782  25.124  27.901  1.00  0.00     0.031 C 
ATOM     39  C   UNL A   1      45.596  23.886  27.100  1.00  0.00     0.029 A 
ATOM     40  N   UNL A   1      45.168  25.968  27.790  1.00  0.00    -0.354 N 
ATOM     41  C   UNL A   1      41.127  27.308  28.490  1.00  0.00     0.074 A 
ATOM     42  C   UNL A   1      40.171  26.264  28.193  1.00  0.00     0.031 C 
ATOM     43  C   UNL A   1      46.774  24.521  27.219  1.00  0.00     0.029 A 
ATOM     44  C   UNL A   1      46.533  25.895  27.647  1.00  0.00     0.049 A 
ATOM     45  H   UNL A   1      44.699  26.785  28.080  1.00  0.00     0.167 HD
ATOM     46  C   UNL A   1      40.795  28.540  28.945  1.00  0.00     0.037 A 
ATOM     47  C   UNL A   1      47.484  26.831  27.829  1.00  0.00     0.037 A 
ATOM     48  C   UNL A   1      41.747  29.580  29.238  1.00  0.00     0.049 A 
ATOM     49  C   UNL A   1      47.079  28.209  28.278  1.00  0.00     0.074 A 
ATOM     50  C   UNL A   1      41.508  30.852  29.730  1.00  0.00     0.029 A 
ATOM     51  N   UNL A   1      43.118  29.472  29.060  1.00  0.00    -0.354 N 
ATOM     52  N   UNL A   1      45.886  28.673  28.564  1.00  0.00    -0.248 NA
ATOM     53  C   UNL A   1      48.158  29.196  28.436  1.00  0.00     0.031 C 
ATOM     54  C   UNL A   1      42.726  31.535  29.790  1.00  0.00     0.029 A 
ATOM     55  C   UNL A   1      43.734  30.664  29.407  1.00  0.00     0.049 A 
ATOM     56  H   UNL A   1      43.584  28.668  28.736  1.00  0.00     0.167 HD
ATOM     57  C   UNL A   1      46.076  29.987  28.974  1.00  0.00     0.074 A 
ATOM     58  C   UNL A   1      47.500  30.239  28.918  1.00  0.00     0.031 C 
ATOM     59  C   UNL A   1      45.155  30.902  29.362  1.00  0.00     0.037 A 
BRANCH  46  60
ATOM     60  C   UNL A   1      39.335  28.830  29.160  1.00  0.00     0.057 A 
ATOM     61  C   UNL A   1      38.717  28.623  30.401  1.00  0.00     0.134 A 
ATOM     62  C   UNL A   1      38.549  29.367  28.132  1.00  0.00     0.134 A 
ATOM     63  F   UNL A   1      39.407  28.103  31.428  1.00  0.00    -0.206 F 
ATOM     64  C   UNL A   1      37.366  28.914  30.604  1.00  0.00     0.040 A 
ATOM     65  C   UNL A   1      37.206  29.692  28.332  1.00  0.00     0.040 A 
ATOM     66  F   UNL A   1      39.076  29.601  26.921  1.00  0.00    -0.206 F 
ATOM     67  C   UNL A   1      36.609  29.458  29.569  1.00  0.00     0.006 A 
ENDBRANCH  46  60
BRANCH  47  68
ATOM     68  C   UNL A   1      48.918  26.507  27.601  1.00  0.00     0.057 A 
ATOM     69  C   UNL A   1      49.491  26.616  26.328  1.00  0.00     0.134 A 
ATOM     70  C   UNL A   1      49.736  26.032  28.634  1.00  0.00     0.134 A 
ATOM     71  F   UNL A   1      48.758  27.047  25.291  1.00  0.00    -0.206 F 
ATOM     72  C   UNL A   1      50.810  26.230  26.083  1.00  0.00     0.040 A 
ATOM     73  C   UNL A   1      51.067  25.675  28.410  1.00  0.00     0.040 A 
ATOM     74  F   UNL A   1      49.254  25.910  29.880  1.00  0.00    -0.206 F 
ATOM     75  C   UNL A   1      51.603  25.759  27.127  1.00  0.00     0.006 A 
ENDBRANCH  47  68
BRANCH  59  76
ATOM     76  C   UNL A   1      45.661  32.245  29.811  1.00  0.00     0.057 A 
ATOM     77  C   UNL A   1      46.068  32.489  31.129  1.00  0.00     0.134 A 
ATOM     78  C   UNL A   1      45.764  33.304  28.900  1.00  0.00     0.134 A 
ATOM     79  F   UNL A   1      45.986  31.522  32.056  1.00  0.00    -0.206 F 
ATOM     80  C   UNL A   1      46.524  33.746  31.533  1.00  0.00     0.040 A 
ATOM     81  C   UNL A   1      46.253  34.555  29.282  1.00  0.00     0.040 A 
ATOM     82  F   UNL A   1      45.404  33.140  27.618  1.00  0.00    -0.206 F 
ATOM     83  C   UNL A   1      46.623  34.781  30.605  1.00  0.00     0.006 A 
ENDBRANCH  59  76
ENDBRANCH  33  34
ENDBRANCH  25  28
ENDBRANCH  23  24
ENDBRANCH  22  23
ENDBRANCH   1  22
TORSDOF 14
ENDMDL
