MODEL 1
REMARK VINA RESULT:     -12.0      0.000      0.000
REMARK SMILES Cc1oc2c(c1C(=O)NCCCC(=O)NCCCCNC(=O)c1ccc(-c3c4nc(c(-c5c(F)cccc5F)c5ccc([nH]5)c(-c5c(F)cccc5F)c5nc(c(-c6c(F)cccc6F)c6ccc3[nH]6)C=C5)C=C4)cc1)CCCC2
REMARK SMILES IDX 16 1 15 2 13 3 14 4 12 6 11 7 10 8 9 9 7 10 8 11 6 13 1 14
REMARK SMILES IDX 2 15 3 16 4 17 5 18 80 19 77 20 79 21 78 22 17 23 18 24
REMARK SMILES IDX 19 25 20 26 21 27 22 29 23 30 24 31 76 32 25 33 75 34 26 35
REMARK SMILES IDX 27 36 28 37 69 38 29 39 74 40 68 41 70 42 30 43 73 44 67 45
REMARK SMILES IDX 66 46 31 48 57 49 40 50 56 51 41 52 44 53 55 54 71 55 42 56
REMARK SMILES IDX 43 57 54 59 72 60 45 61 32 62 33 63 38 64 34 65 35 66 37 67
REMARK SMILES IDX 39 68 36 69 58 70 59 71 64 72 60 73 61 74 63 75 65 76 62 77
REMARK SMILES IDX 46 78 47 79 52 80 48 81 49 82 51 83 53 84 50 85
REMARK H PARENT 15 5 9 12 20 28 70 47 44 58
REMARK Flexibility Score: inf
ROOT
ATOM      1  C   UNL A   1      37.284  22.123  25.366  1.00  0.00     0.116 C 
ENDROOT
BRANCH   1   2
ATOM      2  N   UNL A   1      36.088  22.186  26.188  1.00  0.00    -0.356 N 
ATOM      3  C   UNL A   1      35.169  23.180  26.330  1.00  0.00     0.220 C 
ATOM      4  O   UNL A   1      34.328  23.070  27.223  1.00  0.00    -0.275 OA
ATOM      5  H   UNL A   1      35.915  21.380  26.729  1.00  0.00     0.163 HD
BRANCH   3   6
ATOM      6  C   UNL A   1      35.147  24.372  25.389  1.00  0.00     0.102 C 
BRANCH   6   7
ATOM      7  C   UNL A   1      33.844  25.174  25.368  1.00  0.00     0.031 C 
BRANCH   7   8
ATOM      8  C   UNL A   1      33.069  25.214  24.054  1.00  0.00     0.116 C 
BRANCH   8   9
ATOM      9  N   UNL A   1      33.591  26.091  23.038  1.00  0.00    -0.352 N 
ATOM     10  C   UNL A   1      33.482  27.449  22.868  1.00  0.00     0.255 C 
ATOM     11  O   UNL A   1      34.140  27.909  21.931  1.00  0.00    -0.269 OA
ATOM     12  H   UNL A   1      34.121  25.637  22.344  1.00  0.00     0.163 HD
BRANCH  10  13
ATOM     13  C   UNL A   1      32.603  28.313  23.663  1.00  0.00     0.084 A 
ATOM     14  C   UNL A   1      30.210  28.658  22.488  1.00  0.00     0.088 C 
ATOM     15  C   UNL A   1      31.308  28.809  23.463  1.00  0.00     0.114 A 
ATOM     16  O   UNL A   1      30.945  29.646  24.481  1.00  0.00    -0.465 OA
ATOM     17  C   UNL A   1      31.949  29.649  25.365  1.00  0.00     0.108 A 
ATOM     18  C   UNL A   1      32.963  28.816  24.973  1.00  0.00     0.007 A 
ATOM     19  C   UNL A   1      31.846  30.469  26.588  1.00  0.00     0.076 C 
ATOM     20  C   UNL A   1      34.178  28.625  25.824  1.00  0.00     0.040 C 
ATOM     21  C   UNL A   1      33.244  30.578  27.220  1.00  0.00     0.008 C 
ATOM     22  C   UNL A   1      33.968  29.216  27.241  1.00  0.00     0.005 C 
ENDBRANCH  10  13
ENDBRANCH   8   9
ENDBRANCH   7   8
ENDBRANCH   6   7
ENDBRANCH   3   6
ENDBRANCH   1   2
BRANCH   1  23
ATOM     23  C   UNL A   1      37.298  20.840  24.527  1.00  0.00     0.023 C 
BRANCH  23  24
ATOM     24  C   UNL A   1      38.157  19.676  25.030  1.00  0.00     0.023 C 
BRANCH  24  25
ATOM     25  C   UNL A   1      39.427  20.097  25.743  1.00  0.00     0.116 C 
BRANCH  25  26
ATOM     26  N   UNL A   1      40.440  19.035  25.858  1.00  0.00    -0.352 N 
ATOM     27  C   UNL A   1      41.823  19.198  25.951  1.00  0.00     0.251 C 
ATOM     28  H   UNL A   1      40.105  18.110  25.872  1.00  0.00     0.163 HD
ATOM     29  O   UNL A   1      42.609  18.318  25.675  1.00  0.00    -0.269 OA
BRANCH  27  30
ATOM     30  C   UNL A   1      42.291  20.498  26.463  1.00  0.00     0.039 A 
ATOM     31  C   UNL A   1      42.913  21.479  25.683  1.00  0.00     0.014 A 
ATOM     32  C   UNL A   1      41.918  20.745  27.772  1.00  0.00     0.014 A 
ATOM     33  C   UNL A   1      43.087  22.749  26.238  1.00  0.00     0.010 A 
ATOM     34  C   UNL A   1      41.779  22.038  28.153  1.00  0.00     0.010 A 
ATOM     35  C   UNL A   1      42.502  23.012  27.482  1.00  0.00    -0.014 A 
BRANCH  35  36
ATOM     36  C   UNL A   1      42.545  24.292  28.170  1.00  0.00     0.031 A 
ATOM     37  C   UNL A   1      41.324  25.126  28.026  1.00  0.00     0.074 A 
ATOM     38  C   UNL A   1      43.475  24.485  29.139  1.00  0.00     0.049 A 
ATOM     39  N   UNL A   1      41.218  26.296  27.490  1.00  0.00    -0.248 NA
ATOM     40  C   UNL A   1      40.029  24.529  28.399  1.00  0.00     0.031 C 
ATOM     41  C   UNL A   1      44.526  23.556  29.605  1.00  0.00     0.029 A 
ATOM     42  N   UNL A   1      43.585  25.505  30.029  1.00  0.00    -0.354 N 
ATOM     43  C   UNL A   1      39.889  26.680  27.671  1.00  0.00     0.074 A 
ATOM     44  C   UNL A   1      39.174  25.482  28.022  1.00  0.00     0.031 C 
ATOM     45  C   UNL A   1      44.979  23.940  30.816  1.00  0.00     0.029 A 
ATOM     46  C   UNL A   1      44.407  25.233  31.123  1.00  0.00     0.049 A 
ATOM     47  H   UNL A   1      43.124  26.366  29.911  1.00  0.00     0.167 HD
ATOM     48  C   UNL A   1      39.547  27.994  27.791  1.00  0.00     0.037 A 
ATOM     49  C   UNL A   1      44.566  26.022  32.214  1.00  0.00     0.037 A 
ATOM     50  C   UNL A   1      40.626  28.843  27.345  1.00  0.00     0.049 A 
ATOM     51  C   UNL A   1      44.093  27.377  31.829  1.00  0.00     0.074 A 
ATOM     52  C   UNL A   1      41.310  29.006  26.156  1.00  0.00     0.029 A 
ATOM     53  N   UNL A   1      41.424  29.414  28.309  1.00  0.00    -0.354 N 
ATOM     54  N   UNL A   1      44.682  28.110  30.922  1.00  0.00    -0.248 NA
ATOM     55  C   UNL A   1      42.689  27.680  32.065  1.00  0.00     0.031 C 
ATOM     56  C   UNL A   1      42.673  29.187  26.540  1.00  0.00     0.029 A 
ATOM     57  C   UNL A   1      42.728  29.213  27.934  1.00  0.00     0.049 A 
ATOM     58  H   UNL A   1      41.115  29.880  29.119  1.00  0.00     0.167 HD
ATOM     59  C   UNL A   1      43.644  28.667  30.185  1.00  0.00     0.074 A 
ATOM     60  C   UNL A   1      42.438  28.407  30.973  1.00  0.00     0.031 C 
ATOM     61  C   UNL A   1      43.809  29.011  28.872  1.00  0.00     0.037 A 
BRANCH  48  62
ATOM     62  C   UNL A   1      38.439  28.522  28.675  1.00  0.00     0.057 A 
ATOM     63  C   UNL A   1      37.592  29.527  28.168  1.00  0.00     0.134 A 
ATOM     64  C   UNL A   1      38.352  28.326  30.069  1.00  0.00     0.134 A 
ATOM     65  F   UNL A   1      37.565  29.805  26.855  1.00  0.00    -0.206 F 
ATOM     66  C   UNL A   1      36.812  30.345  28.993  1.00  0.00     0.040 A 
ATOM     67  C   UNL A   1      37.537  29.104  30.897  1.00  0.00     0.040 A 
ATOM     68  F   UNL A   1      39.112  27.445  30.728  1.00  0.00    -0.206 F 
ATOM     69  C   UNL A   1      36.795  30.146  30.366  1.00  0.00     0.006 A 
ENDBRANCH  48  62
BRANCH  49  70
ATOM     70  C   UNL A   1      44.748  25.601  33.623  1.00  0.00     0.057 A 
ATOM     71  C   UNL A   1      45.508  26.359  34.523  1.00  0.00     0.134 A 
ATOM     72  C   UNL A   1      43.953  24.587  34.190  1.00  0.00     0.134 A 
ATOM     73  F   UNL A   1      46.264  27.376  34.082  1.00  0.00    -0.206 F 
ATOM     74  C   UNL A   1      45.470  26.134  35.907  1.00  0.00     0.040 A 
ATOM     75  C   UNL A   1      43.905  24.351  35.569  1.00  0.00     0.040 A 
ATOM     76  F   UNL A   1      43.127  23.850  33.432  1.00  0.00    -0.206 F 
ATOM     77  C   UNL A   1      44.657  25.135  36.435  1.00  0.00     0.006 A 
ENDBRANCH  49  70
BRANCH  61  78
ATOM     78  C   UNL A   1      45.198  28.948  28.290  1.00  0.00     0.057 A 
ATOM     79  C   UNL A   1      45.712  27.844  27.590  1.00  0.00     0.134 A 
ATOM     80  C   UNL A   1      45.978  30.107  28.281  1.00  0.00     0.134 A 
ATOM     81  F   UNL A   1      45.002  26.720  27.453  1.00  0.00    -0.206 F 
ATOM     82  C   UNL A   1      46.952  27.880  26.943  1.00  0.00     0.040 A 
ATOM     83  C   UNL A   1      47.205  30.169  27.615  1.00  0.00     0.040 A 
ATOM     84  F   UNL A   1      45.529  31.224  28.876  1.00  0.00    -0.206 F 
ATOM     85  C   UNL A   1      47.700  29.051  26.948  1.00  0.00     0.006 A 
ENDBRANCH  61  78
ENDBRANCH  35  36
ENDBRANCH  27  30
ENDBRANCH  25  26
ENDBRANCH  24  25
ENDBRANCH  23  24
ENDBRANCH   1  23
TORSDOF 15
ENDMDL
MODEL 2
REMARK VINA RESULT:     -11.5      3.708      9.434
REMARK SMILES Cc1oc2c(c1C(=O)NCCCC(=O)NCCCCNC(=O)c1ccc(-c3c4nc(c(-c5c(F)cccc5F)c5ccc([nH]5)c(-c5c(F)cccc5F)c5nc(c(-c6c(F)cccc6F)c6ccc3[nH]6)C=C5)C=C4)cc1)CCCC2
REMARK SMILES IDX 16 1 15 2 13 3 14 4 12 6 11 7 10 8 9 9 7 10 8 11 6 13 1 14
REMARK SMILES IDX 2 15 3 16 4 17 5 18 80 19 77 20 79 21 78 22 17 23 18 24
REMARK SMILES IDX 19 25 20 26 21 27 22 29 23 30 24 31 76 32 25 33 75 34 26 35
REMARK SMILES IDX 27 36 28 37 69 38 29 39 74 40 68 41 70 42 30 43 73 44 67 45
REMARK SMILES IDX 66 46 31 48 57 49 40 50 56 51 41 52 44 53 55 54 71 55 42 56
REMARK SMILES IDX 43 57 54 59 72 60 45 61 32 62 33 63 38 64 34 65 35 66 37 67
REMARK SMILES IDX 39 68 36 69 58 70 59 71 64 72 60 73 61 74 63 75 65 76 62 77
REMARK SMILES IDX 46 78 47 79 52 80 48 81 49 82 51 83 53 84 50 85
REMARK H PARENT 15 5 9 12 20 28 70 47 44 58
REMARK Flexibility Score: inf
ROOT
ATOM      1  C   UNL A   1      32.096  29.896  25.254  1.00  0.00     0.116 C 
ENDROOT
BRANCH   1   2
ATOM      2  N   UNL A   1      31.148  28.916  24.753  1.00  0.00    -0.356 N 
ATOM      3  C   UNL A   1      31.075  27.573  24.968  1.00  0.00     0.220 C 
ATOM      4  O   UNL A   1      30.277  26.920  24.292  1.00  0.00    -0.275 OA
ATOM      5  H   UNL A   1      30.445  29.281  24.167  1.00  0.00     0.163 HD
BRANCH   3   6
ATOM      6  C   UNL A   1      31.917  26.900  26.037  1.00  0.00     0.102 C 
BRANCH   6   7
ATOM      7  C   UNL A   1      32.800  25.747  25.554  1.00  0.00     0.031 C 
BRANCH   7   8
ATOM      8  C   UNL A   1      32.182  24.352  25.538  1.00  0.00     0.116 C 
BRANCH   8   9
ATOM      9  N   UNL A   1      32.219  23.630  26.783  1.00  0.00    -0.352 N 
ATOM     10  C   UNL A   1      33.003  22.582  27.202  1.00  0.00     0.255 C 
ATOM     11  O   UNL A   1      32.844  22.254  28.381  1.00  0.00    -0.269 OA
ATOM     12  H   UNL A   1      31.569  23.942  27.453  1.00  0.00     0.163 HD
BRANCH  10  13
ATOM     13  C   UNL A   1      33.914  21.832  26.330  1.00  0.00     0.084 A 
ATOM     14  C   UNL A   1      32.743  19.635  25.315  1.00  0.00     0.088 C 
ATOM     15  C   UNL A   1      33.789  20.632  25.618  1.00  0.00     0.114 A 
ATOM     16  O   UNL A   1      34.964  20.311  24.997  1.00  0.00    -0.465 OA
ATOM     17  C   UNL A   1      35.822  21.309  25.237  1.00  0.00     0.108 A 
ATOM     18  C   UNL A   1      35.240  22.299  25.985  1.00  0.00     0.007 A 
ATOM     19  C   UNL A   1      37.190  21.247  24.688  1.00  0.00     0.076 C 
ATOM     20  C   UNL A   1      35.996  23.537  26.346  1.00  0.00     0.040 C 
ATOM     21  C   UNL A   1      38.050  22.301  25.404  1.00  0.00     0.008 C 
ATOM     22  C   UNL A   1      37.311  23.649  25.533  1.00  0.00     0.005 C 
ENDBRANCH  10  13
ENDBRANCH   8   9
ENDBRANCH   7   8
ENDBRANCH   6   7
ENDBRANCH   3   6
ENDBRANCH   1   2
BRANCH   1  23
ATOM     23  C   UNL A   1      31.581  30.537  26.548  1.00  0.00     0.023 C 
BRANCH  23  24
ATOM     24  C   UNL A   1      31.520  32.067  26.604  1.00  0.00     0.023 C 
BRANCH  24  25
ATOM     25  C   UNL A   1      32.609  32.707  27.443  1.00  0.00     0.116 C 
BRANCH  25  26
ATOM     26  N   UNL A   1      32.401  34.137  27.721  1.00  0.00    -0.352 N 
ATOM     27  C   UNL A   1      32.979  34.887  28.746  1.00  0.00     0.251 C 
ATOM     28  H   UNL A   1      31.789  34.616  27.117  1.00  0.00     0.163 HD
ATOM     29  O   UNL A   1      32.505  35.929  29.146  1.00  0.00    -0.269 OA
BRANCH  27  30
ATOM     30  C   UNL A   1      34.248  34.373  29.292  1.00  0.00     0.039 A 
ATOM     31  C   UNL A   1      34.367  33.681  30.502  1.00  0.00     0.014 A 
ATOM     32  C   UNL A   1      35.315  34.493  28.419  1.00  0.00     0.014 A 
ATOM     33  C   UNL A   1      35.579  33.046  30.780  1.00  0.00     0.010 A 
ATOM     34  C   UNL A   1      36.330  33.603  28.541  1.00  0.00     0.010 A 
ATOM     35  C   UNL A   1      36.553  33.013  29.776  1.00  0.00    -0.014 A 
BRANCH  35  36
ATOM     36  C   UNL A   1      37.843  32.350  29.887  1.00  0.00     0.031 A 
ATOM     37  C   UNL A   1      37.905  30.990  29.291  1.00  0.00     0.074 A 
ATOM     38  C   UNL A   1      38.941  33.094  30.173  1.00  0.00     0.049 A 
ATOM     39  N   UNL A   1      38.151  29.872  29.887  1.00  0.00    -0.248 NA
ATOM     40  C   UNL A   1      37.509  30.832  27.881  1.00  0.00     0.031 C 
ATOM     41  C   UNL A   1      39.026  34.546  30.435  1.00  0.00     0.029 A 
ATOM     42  N   UNL A   1      40.250  32.736  30.142  1.00  0.00    -0.354 N 
ATOM     43  C   UNL A   1      38.172  28.902  28.885  1.00  0.00     0.074 A 
ATOM     44  C   UNL A   1      37.557  29.507  27.734  1.00  0.00     0.031 C 
ATOM     45  C   UNL A   1      40.299  34.969  30.288  1.00  0.00     0.029 A 
ATOM     46  C   UNL A   1      41.143  33.807  30.121  1.00  0.00     0.049 A 
ATOM     47  H   UNL A   1      40.544  31.797  30.137  1.00  0.00     0.167 HD
ATOM     48  C   UNL A   1      38.945  27.786  29.003  1.00  0.00     0.037 A 
ATOM     49  C   UNL A   1      42.485  33.721  29.945  1.00  0.00     0.037 A 
ATOM     50  C   UNL A   1      39.379  27.608  30.368  1.00  0.00     0.049 A 
ATOM     51  C   UNL A   1      42.861  32.313  30.237  1.00  0.00     0.074 A 
ATOM     52  C   UNL A   1      38.736  27.437  31.579  1.00  0.00     0.029 A 
ATOM     53  N   UNL A   1      40.659  27.998  30.683  1.00  0.00    -0.354 N 
ATOM     54  N   UNL A   1      42.744  31.773  31.421  1.00  0.00    -0.248 NA
ATOM     55  C   UNL A   1      42.858  31.380  29.120  1.00  0.00     0.031 C 
ATOM     56  C   UNL A   1      39.489  28.219  32.506  1.00  0.00     0.029 A 
ATOM     57  C   UNL A   1      40.590  28.747  31.830  1.00  0.00     0.049 A 
ATOM     58  H   UNL A   1      41.475  27.780  30.178  1.00  0.00     0.167 HD
ATOM     59  C   UNL A   1      42.237  30.501  31.185  1.00  0.00     0.074 A 
ATOM     60  C   UNL A   1      42.379  30.299  29.742  1.00  0.00     0.031 C 
ATOM     61  C   UNL A   1      41.471  29.857  32.117  1.00  0.00     0.037 A 
BRANCH  48  62
ATOM     62  C   UNL A   1      39.648  27.095  27.854  1.00  0.00     0.057 A 
ATOM     63  C   UNL A   1      39.637  25.687  27.806  1.00  0.00     0.134 A 
ATOM     64  C   UNL A   1      40.574  27.708  26.985  1.00  0.00     0.134 A 
ATOM     65  F   UNL A   1      38.793  24.979  28.571  1.00  0.00    -0.206 F 
ATOM     66  C   UNL A   1      40.551  24.951  27.043  1.00  0.00     0.040 A 
ATOM     67  C   UNL A   1      41.458  26.981  26.181  1.00  0.00     0.040 A 
ATOM     68  F   UNL A   1      40.752  29.032  26.929  1.00  0.00    -0.206 F 
ATOM     69  C   UNL A   1      41.478  25.598  26.238  1.00  0.00     0.006 A 
ENDBRANCH  48  62
BRANCH  49  70
ATOM     70  C   UNL A   1      43.368  34.654  29.207  1.00  0.00     0.057 A 
ATOM     71  C   UNL A   1      42.953  35.273  28.020  1.00  0.00     0.134 A 
ATOM     72  C   UNL A   1      44.537  35.173  29.795  1.00  0.00     0.134 A 
ATOM     73  F   UNL A   1      41.826  34.878  27.409  1.00  0.00    -0.206 F 
ATOM     74  C   UNL A   1      43.648  36.354  27.459  1.00  0.00     0.040 A 
ATOM     75  C   UNL A   1      45.242  36.250  29.245  1.00  0.00     0.040 A 
ATOM     76  F   UNL A   1      44.984  34.708  30.971  1.00  0.00    -0.206 F 
ATOM     77  C   UNL A   1      44.791  36.853  28.078  1.00  0.00     0.006 A 
ENDBRANCH  49  70
BRANCH  61  78
ATOM     78  C   UNL A   1      41.346  30.476  33.485  1.00  0.00     0.057 A 
ATOM     79  C   UNL A   1      40.296  31.324  33.874  1.00  0.00     0.134 A 
ATOM     80  C   UNL A   1      42.216  30.060  34.495  1.00  0.00     0.134 A 
ATOM     81  F   UNL A   1      39.352  31.701  33.007  1.00  0.00    -0.206 F 
ATOM     82  C   UNL A   1      40.139  31.763  35.194  1.00  0.00     0.040 A 
ATOM     83  C   UNL A   1      42.056  30.464  35.823  1.00  0.00     0.040 A 
ATOM     84  F   UNL A   1      43.209  29.200  34.216  1.00  0.00    -0.206 F 
ATOM     85  C   UNL A   1      41.019  31.325  36.176  1.00  0.00     0.006 A 
ENDBRANCH  61  78
ENDBRANCH  35  36
ENDBRANCH  27  30
ENDBRANCH  25  26
ENDBRANCH  24  25
ENDBRANCH  23  24
ENDBRANCH   1  23
TORSDOF 15
ENDMDL
MODEL 3
REMARK VINA RESULT:     -11.5      2.178      6.042
REMARK SMILES Cc1oc2c(c1C(=O)NCCCC(=O)NCCCCNC(=O)c1ccc(-c3c4nc(c(-c5c(F)cccc5F)c5ccc([nH]5)c(-c5c(F)cccc5F)c5nc(c(-c6c(F)cccc6F)c6ccc3[nH]6)C=C5)C=C4)cc1)CCCC2
REMARK SMILES IDX 16 1 15 2 13 3 14 4 12 6 11 7 10 8 9 9 7 10 8 11 6 13 1 14
REMARK SMILES IDX 2 15 3 16 4 17 5 18 80 19 77 20 79 21 78 22 17 23 18 24
REMARK SMILES IDX 19 25 20 26 21 27 22 29 23 30 24 31 76 32 25 33 75 34 26 35
REMARK SMILES IDX 27 36 28 37 69 38 29 39 74 40 68 41 70 42 30 43 73 44 67 45
REMARK SMILES IDX 66 46 31 48 57 49 40 50 56 51 41 52 44 53 55 54 71 55 42 56
REMARK SMILES IDX 43 57 54 59 72 60 45 61 32 62 33 63 38 64 34 65 35 66 37 67
REMARK SMILES IDX 39 68 36 69 58 70 59 71 64 72 60 73 61 74 63 75 65 76 62 77
REMARK SMILES IDX 46 78 47 79 52 80 48 81 49 82 51 83 53 84 50 85
REMARK H PARENT 15 5 9 12 20 28 70 47 44 58
REMARK Flexibility Score: inf
ROOT
ATOM      1  C   UNL A   1      38.785  21.165  25.853  1.00  0.00     0.116 C 
ENDROOT
BRANCH   1   2
ATOM      2  N   UNL A   1      38.108  22.401  26.206  1.00  0.00    -0.356 N 
ATOM      3  C   UNL A   1      37.252  23.172  25.481  1.00  0.00     0.220 C 
ATOM      4  O   UNL A   1      36.939  24.275  25.935  1.00  0.00    -0.275 OA
ATOM      5  H   UNL A   1      38.298  22.733  27.114  1.00  0.00     0.163 HD
BRANCH   3   6
ATOM      6  C   UNL A   1      36.661  22.677  24.173  1.00  0.00     0.102 C 
BRANCH   6   7
ATOM      7  C   UNL A   1      35.467  21.730  24.304  1.00  0.00     0.031 C 
BRANCH   7   8
ATOM      8  C   UNL A   1      34.179  22.304  24.889  1.00  0.00     0.116 C 
BRANCH   8   9
ATOM      9  N   UNL A   1      33.072  22.432  23.976  1.00  0.00    -0.352 N 
ATOM     10  C   UNL A   1      31.998  23.288  23.967  1.00  0.00     0.255 C 
ATOM     11  O   UNL A   1      31.270  23.195  22.975  1.00  0.00    -0.269 OA
ATOM     12  H   UNL A   1      33.089  21.794  23.226  1.00  0.00     0.163 HD
BRANCH  10  13
ATOM     13  C   UNL A   1      31.659  24.200  25.065  1.00  0.00     0.084 A 
ATOM     14  C   UNL A   1      30.020  23.045  26.856  1.00  0.00     0.088 C 
ATOM     15  C   UNL A   1      30.832  24.083  26.189  1.00  0.00     0.114 A 
ATOM     16  O   UNL A   1      30.792  25.257  26.888  1.00  0.00    -0.465 OA
ATOM     17  C   UNL A   1      31.627  26.106  26.278  1.00  0.00     0.108 A 
ATOM     18  C   UNL A   1      32.239  25.520  25.202  1.00  0.00     0.007 A 
ATOM     19  C   UNL A   1      31.800  27.472  26.811  1.00  0.00     0.076 C 
ATOM     20  C   UNL A   1      33.246  26.266  24.387  1.00  0.00     0.040 C 
ATOM     21  C   UNL A   1      32.500  28.326  25.741  1.00  0.00     0.008 C 
ATOM     22  C   UNL A   1      33.681  27.574  25.094  1.00  0.00     0.005 C 
ENDBRANCH  10  13
ENDBRANCH   8   9
ENDBRANCH   7   8
ENDBRANCH   6   7
ENDBRANCH   3   6
ENDBRANCH   1   2
BRANCH   1  23
ATOM     23  C   UNL A   1      40.271  21.235  26.224  1.00  0.00     0.023 C 
BRANCH  23  24
ATOM     24  C   UNL A   1      41.076  19.933  26.167  1.00  0.00     0.023 C 
BRANCH  24  25
ATOM     25  C   UNL A   1      42.454  20.021  26.793  1.00  0.00     0.116 C 
BRANCH  25  26
ATOM     26  N   UNL A   1      43.562  19.728  25.870  1.00  0.00    -0.352 N 
ATOM     27  C   UNL A   1      44.194  20.621  25.004  1.00  0.00     0.251 C 
ATOM     28  H   UNL A   1      43.893  18.801  25.864  1.00  0.00     0.163 HD
ATOM     29  O   UNL A   1      44.822  20.262  24.031  1.00  0.00    -0.269 OA
BRANCH  27  30
ATOM     30  C   UNL A   1      44.108  22.047  25.365  1.00  0.00     0.039 A 
ATOM     31  C   UNL A   1      43.206  22.955  24.799  1.00  0.00     0.014 A 
ATOM     32  C   UNL A   1      44.900  22.394  26.445  1.00  0.00     0.014 A 
ATOM     33  C   UNL A   1      43.069  24.208  25.399  1.00  0.00     0.010 A 
ATOM     34  C   UNL A   1      44.507  23.449  27.199  1.00  0.00     0.010 A 
ATOM     35  C   UNL A   1      43.729  24.436  26.612  1.00  0.00    -0.014 A 
BRANCH  35  36
ATOM     36  C   UNL A   1      43.649  25.663  27.388  1.00  0.00     0.031 A 
ATOM     37  C   UNL A   1      44.640  26.707  27.019  1.00  0.00     0.074 A 
ATOM     38  C   UNL A   1      42.523  25.916  28.100  1.00  0.00     0.049 A 
ATOM     39  N   UNL A   1      45.569  27.218  27.756  1.00  0.00    -0.248 NA
ATOM     40  C   UNL A   1      44.698  27.142  25.612  1.00  0.00     0.031 C 
ATOM     41  C   UNL A   1      41.315  25.077  28.241  1.00  0.00     0.029 A 
ATOM     42  N   UNL A   1      42.150  27.057  28.735  1.00  0.00    -0.354 N 
ATOM     43  C   UNL A   1      46.174  28.204  26.978  1.00  0.00     0.074 A 
ATOM     44  C   UNL A   1      45.755  27.955  25.625  1.00  0.00     0.031 C 
ATOM     45  C   UNL A   1      40.283  25.823  28.688  1.00  0.00     0.029 A 
ATOM     46  C   UNL A   1      40.793  27.127  29.052  1.00  0.00     0.049 A 
ATOM     47  H   UNL A   1      42.786  27.775  28.956  1.00  0.00     0.167 HD
ATOM     48  C   UNL A   1      46.739  29.304  27.552  1.00  0.00     0.037 A 
ATOM     49  C   UNL A   1      40.147  28.209  29.552  1.00  0.00     0.037 A 
ATOM     50  C   UNL A   1      46.934  29.097  28.967  1.00  0.00     0.049 A 
ATOM     51  C   UNL A   1      41.193  29.104  30.113  1.00  0.00     0.074 A 
ATOM     52  C   UNL A   1      47.643  28.187  29.729  1.00  0.00     0.029 A 
ATOM     53  N   UNL A   1      46.017  29.659  29.824  1.00  0.00    -0.354 N 
ATOM     54  N   UNL A   1      41.938  28.781  31.137  1.00  0.00    -0.248 NA
ATOM     55  C   UNL A   1      41.757  30.105  29.220  1.00  0.00     0.031 C 
ATOM     56  C   UNL A   1      46.786  27.887  30.830  1.00  0.00     0.029 A 
ATOM     57  C   UNL A   1      45.650  28.691  30.724  1.00  0.00     0.049 A 
ATOM     58  H   UNL A   1      45.685  30.585  29.795  1.00  0.00     0.167 HD
ATOM     59  C   UNL A   1      43.215  29.210  30.799  1.00  0.00     0.074 A 
ATOM     60  C   UNL A   1      43.029  30.067  29.627  1.00  0.00     0.031 C 
ATOM     61  C   UNL A   1      44.328  28.594  31.300  1.00  0.00     0.037 A 
BRANCH  48  62
ATOM     62  C   UNL A   1      46.734  30.693  26.950  1.00  0.00     0.057 A 
ATOM     63  C   UNL A   1      47.929  31.438  26.964  1.00  0.00     0.134 A 
ATOM     64  C   UNL A   1      45.577  31.439  26.644  1.00  0.00     0.134 A 
ATOM     65  F   UNL A   1      49.105  30.847  27.226  1.00  0.00    -0.206 F 
ATOM     66  C   UNL A   1      47.954  32.828  26.803  1.00  0.00     0.040 A 
ATOM     67  C   UNL A   1      45.598  32.821  26.432  1.00  0.00     0.040 A 
ATOM     68  F   UNL A   1      44.351  30.905  26.628  1.00  0.00    -0.206 F 
ATOM     69  C   UNL A   1      46.782  33.528  26.552  1.00  0.00     0.006 A 
ENDBRANCH  48  62
BRANCH  49  70
ATOM     70  C   UNL A   1      38.771  28.667  29.251  1.00  0.00     0.057 A 
ATOM     71  C   UNL A   1      37.798  28.771  30.254  1.00  0.00     0.134 A 
ATOM     72  C   UNL A   1      38.455  29.273  28.021  1.00  0.00     0.134 A 
ATOM     73  F   UNL A   1      38.025  28.263  31.474  1.00  0.00    -0.206 F 
ATOM     74  C   UNL A   1      36.588  29.452  30.052  1.00  0.00     0.040 A 
ATOM     75  C   UNL A   1      37.251  29.954  27.805  1.00  0.00     0.040 A 
ATOM     76  F   UNL A   1      39.342  29.300  27.015  1.00  0.00    -0.206 F 
ATOM     77  C   UNL A   1      36.317  30.057  28.827  1.00  0.00     0.006 A 
ENDBRANCH  49  70
BRANCH  61  78
ATOM     78  C   UNL A   1      44.141  27.557  32.378  1.00  0.00     0.057 A 
ATOM     79  C   UNL A   1      44.091  26.173  32.142  1.00  0.00     0.134 A 
ATOM     80  C   UNL A   1      44.193  27.958  33.715  1.00  0.00     0.134 A 
ATOM     81  F   UNL A   1      44.138  25.680  30.902  1.00  0.00    -0.206 F 
ATOM     82  C   UNL A   1      44.061  25.238  33.183  1.00  0.00     0.040 A 
ATOM     83  C   UNL A   1      44.194  27.036  34.765  1.00  0.00     0.040 A 
ATOM     84  F   UNL A   1      44.304  29.260  34.022  1.00  0.00    -0.206 F 
ATOM     85  C   UNL A   1      44.120  25.670  34.502  1.00  0.00     0.006 A 
ENDBRANCH  61  78
ENDBRANCH  35  36
ENDBRANCH  27  30
ENDBRANCH  25  26
ENDBRANCH  24  25
ENDBRANCH  23  24
ENDBRANCH   1  23
TORSDOF 15
ENDMDL
