MODEL 1
REMARK VINA RESULT:     -12.2      0.000      0.000
REMARK SMILES O=C(CN1C(=O)/C(=C2/Sc3ccccc3N2CCCS(=O)(=O)[O-])SC1=S)NCCCCNC(=O)c1ccc(-c2c3nc(c(-c4c(F)cccc4F)c4ccc([nH]4)c(-c4c(F)cccc4F)c4nc(c(-c5c(F)cccc5F)c5ccc2[nH]5)C=C4)C=C3)cc1
REMARK SMILES IDX 28 1 27 2 1 3 2 4 3 6 4 7 5 8 25 9 6 10 7 11 24 12 26 13
REMARK SMILES IDX 8 14 9 15 16 16 10 17 15 18 11 19 14 20 12 21 13 22 17 23
REMARK SMILES IDX 18 24 19 25 20 26 21 27 22 28 23 29 29 30 30 31 31 32 32 33
REMARK SMILES IDX 33 34 34 36 35 37 36 38 88 39 37 40 87 41 38 42 39 43 40 44
REMARK SMILES IDX 81 45 41 46 86 47 80 48 82 49 42 50 85 51 79 52 78 53 43 55
REMARK SMILES IDX 69 56 52 57 68 58 53 59 56 60 67 61 83 62 54 63 55 64 66 66
REMARK SMILES IDX 84 67 57 68 44 69 45 70 50 71 46 72 47 73 49 74 51 75 48 76
REMARK SMILES IDX 70 77 71 78 76 79 72 80 73 81 75 82 77 83 74 84 58 85 59 86
REMARK SMILES IDX 64 87 60 88 61 89 63 90 65 91 62 92
REMARK H PARENT 27 5 32 35 82 54 56 65
REMARK Flexibility Score: inf
ROOT
ATOM      1  C   UNL A   1      36.995  21.977  24.113  1.00  0.00     0.116 C 
ENDROOT
BRANCH   1   2
ATOM      2  N   UNL A   1      35.900  22.898  24.348  1.00  0.00    -0.355 N 
ATOM      3  O   UNL A   1      36.832  24.021  26.124  1.00  0.00    -0.273 OA
ATOM      4  C   UNL A   1      35.900  23.848  25.350  1.00  0.00     0.240 C 
ATOM      5  H   UNL A   1      35.113  22.842  23.762  1.00  0.00     0.163 HD
BRANCH   4   6
ATOM      6  C   UNL A   1      34.589  24.637  25.422  1.00  0.00     0.227 C 
BRANCH   6   7
ATOM      7  N   UNL A   1      33.392  24.302  24.637  1.00  0.00    -0.283 N 
ATOM      8  C   UNL A   1      32.995  25.210  23.669  1.00  0.00     0.269 C 
ATOM      9  C   UNL A   1      32.433  23.372  24.949  1.00  0.00     0.148 C 
ATOM     10  O   UNL A   1      33.747  25.741  22.865  1.00  0.00    -0.268 OA
ATOM     11  C   UNL A   1      31.514  25.363  23.687  1.00  0.00     0.111 C 
ATOM     12  S   UNL A   1      30.909  23.815  24.209  1.00  0.00    -0.052 SA
ATOM     13  S   UNL A   1      32.546  22.001  25.874  1.00  0.00    -0.052 S 
ATOM     14  C   UNL A   1      30.774  26.486  23.504  1.00  0.00     0.100 C 
ATOM     15  S   UNL A   1      28.975  26.320  23.792  1.00  0.00    -0.068 SA
ATOM     16  N   UNL A   1      31.120  27.820  23.156  1.00  0.00    -0.334 N 
ATOM     17  C   UNL A   1      28.751  28.015  23.340  1.00  0.00     0.037 A 
ATOM     18  C   UNL A   1      29.970  28.662  23.067  1.00  0.00     0.056 A 
ATOM     19  C   UNL A   1      27.517  28.641  23.202  1.00  0.00     0.017 A 
ATOM     20  C   UNL A   1      29.924  30.005  22.699  1.00  0.00     0.027 A 
ATOM     21  C   UNL A   1      27.489  29.968  22.784  1.00  0.00     0.001 A 
ATOM     22  C   UNL A   1      28.686  30.649  22.546  1.00  0.00     0.002 A 
BRANCH  16  23
ATOM     23  C   UNL A   1      32.334  28.303  22.485  1.00  0.00     0.124 C 
BRANCH  23  24
ATOM     24  C   UNL A   1      33.263  29.130  23.393  1.00  0.00     0.037 C 
BRANCH  24  25
ATOM     25  C   UNL A   1      33.534  28.589  24.792  1.00  0.00     0.124 C 
BRANCH  25  26
ATOM     26  S   UNL A   1      32.650  29.378  26.144  1.00  0.00     0.095 S 
ATOM     27  O   UNL A   1      33.578  29.635  27.220  1.00  0.00    -0.243 OA
ATOM     28  O   UNL A   1      31.800  30.412  25.596  1.00  0.00    -0.243 OA
ATOM     29  O   UNL A   1      31.672  28.183  26.604  1.00  0.00    -0.748 OA
ENDBRANCH  25  26
ENDBRANCH  24  25
ENDBRANCH  23  24
ENDBRANCH  16  23
ENDBRANCH   6   7
ENDBRANCH   4   6
ENDBRANCH   1   2
BRANCH   1  30
ATOM     30  C   UNL A   1      37.013  20.823  25.120  1.00  0.00     0.023 C 
BRANCH  30  31
ATOM     31  C   UNL A   1      38.134  19.794  24.952  1.00  0.00     0.023 C 
BRANCH  31  32
ATOM     32  C   UNL A   1      39.378  20.022  25.798  1.00  0.00     0.116 C 
BRANCH  32  33
ATOM     33  N   UNL A   1      40.341  18.941  25.758  1.00  0.00    -0.352 N 
ATOM     34  C   UNL A   1      41.678  18.969  26.084  1.00  0.00     0.251 C 
ATOM     35  H   UNL A   1      39.992  18.070  25.457  1.00  0.00     0.163 HD
ATOM     36  O   UNL A   1      42.363  17.958  25.970  1.00  0.00    -0.269 OA
BRANCH  34  37
ATOM     37  C   UNL A   1      42.306  20.243  26.505  1.00  0.00     0.039 A 
ATOM     38  C   UNL A   1      42.188  20.717  27.813  1.00  0.00     0.014 A 
ATOM     39  C   UNL A   1      42.978  21.003  25.545  1.00  0.00     0.014 A 
ATOM     40  C   UNL A   1      42.575  22.024  28.111  1.00  0.00     0.010 A 
ATOM     41  C   UNL A   1      43.444  22.281  25.868  1.00  0.00     0.010 A 
ATOM     42  C   UNL A   1      43.191  22.828  27.137  1.00  0.00    -0.014 A 
BRANCH  42  43
ATOM     43  C   UNL A   1      43.533  24.244  27.448  1.00  0.00     0.031 A 
ATOM     44  C   UNL A   1      44.954  24.737  27.328  1.00  0.00     0.074 A 
ATOM     45  C   UNL A   1      42.558  25.105  27.797  1.00  0.00     0.049 A 
ATOM     46  N   UNL A   1      45.441  25.931  27.567  1.00  0.00    -0.248 NA
ATOM     47  C   UNL A   1      45.963  23.762  26.886  1.00  0.00     0.031 C 
ATOM     48  C   UNL A   1      41.141  24.765  27.939  1.00  0.00     0.029 A 
ATOM     49  N   UNL A   1      42.607  26.447  28.084  1.00  0.00    -0.354 N 
ATOM     50  C   UNL A   1      46.805  25.846  27.315  1.00  0.00     0.074 A 
ATOM     51  C   UNL A   1      47.079  24.475  26.943  1.00  0.00     0.031 C 
ATOM     52  C   UNL A   1      40.452  25.874  28.248  1.00  0.00     0.029 A 
ATOM     53  C   UNL A   1      41.381  26.989  28.386  1.00  0.00     0.049 A 
ATOM     54  H   UNL A   1      43.441  26.970  28.073  1.00  0.00     0.167 HD
ATOM     55  C   UNL A   1      47.744  26.823  27.372  1.00  0.00     0.037 A 
ATOM     56  C   UNL A   1      41.046  28.238  28.757  1.00  0.00     0.037 A 
ATOM     57  C   UNL A   1      47.476  28.191  27.735  1.00  0.00     0.049 A 
ATOM     58  C   UNL A   1      42.119  29.284  28.879  1.00  0.00     0.074 A 
ATOM     59  C   UNL A   1      48.361  29.254  27.814  1.00  0.00     0.029 A 
ATOM     60  N   UNL A   1      46.229  28.687  28.082  1.00  0.00    -0.354 N 
ATOM     61  N   UNL A   1      43.401  29.190  28.623  1.00  0.00    -0.248 NA
ATOM     62  C   UNL A   1      41.695  30.610  29.349  1.00  0.00     0.031 C 
ATOM     63  C   UNL A   1      47.657  30.382  28.248  1.00  0.00     0.029 A 
ATOM     64  C   UNL A   1      46.324  30.034  28.393  1.00  0.00     0.049 A 
ATOM     65  H   UNL A   1      45.398  28.160  28.104  1.00  0.00     0.167 HD
ATOM     66  C   UNL A   1      43.932  30.447  28.879  1.00  0.00     0.074 A 
ATOM     67  C   UNL A   1      42.828  31.293  29.285  1.00  0.00     0.031 C 
ATOM     68  C   UNL A   1      45.218  30.865  28.792  1.00  0.00     0.037 A 
BRANCH  55  69
ATOM     69  C   UNL A   1      49.161  26.446  27.039  1.00  0.00     0.057 A 
ATOM     70  C   UNL A   1      49.664  26.621  25.743  1.00  0.00     0.134 A 
ATOM     71  C   UNL A   1      50.013  25.868  27.990  1.00  0.00     0.134 A 
ATOM     72  F   UNL A   1      48.899  27.161  24.782  1.00  0.00    -0.206 F 
ATOM     73  C   UNL A   1      50.962  26.233  25.405  1.00  0.00     0.040 A 
ATOM     74  C   UNL A   1      51.321  25.499  27.669  1.00  0.00     0.040 A 
ATOM     75  F   UNL A   1      49.597  25.682  29.252  1.00  0.00    -0.206 F 
ATOM     76  C   UNL A   1      51.796  25.675  26.371  1.00  0.00     0.006 A 
ENDBRANCH  55  69
BRANCH  56  77
ATOM     77  C   UNL A   1      39.633  28.574  29.068  1.00  0.00     0.057 A 
ATOM     78  C   UNL A   1      39.107  28.391  30.353  1.00  0.00     0.134 A 
ATOM     79  C   UNL A   1      38.789  29.131  28.100  1.00  0.00     0.134 A 
ATOM     80  F   UNL A   1      39.863  27.860  31.325  1.00  0.00    -0.206 F 
ATOM     81  C   UNL A   1      37.795  28.748  30.664  1.00  0.00     0.040 A 
ATOM     82  C   UNL A   1      37.484  29.521  28.405  1.00  0.00     0.040 A 
ATOM     83  F   UNL A   1      39.242  29.352  26.857  1.00  0.00    -0.206 F 
ATOM     84  C   UNL A   1      36.983  29.327  29.691  1.00  0.00     0.006 A 
ENDBRANCH  56  77
BRANCH  68  85
ATOM     85  C   UNL A   1      45.487  32.307  29.108  1.00  0.00     0.057 A 
ATOM     86  C   UNL A   1      45.833  32.700  30.408  1.00  0.00     0.134 A 
ATOM     87  C   UNL A   1      45.404  33.308  28.131  1.00  0.00     0.134 A 
ATOM     88  F   UNL A   1      45.924  31.794  31.393  1.00  0.00    -0.206 F 
ATOM     89  C   UNL A   1      46.090  34.035  30.723  1.00  0.00     0.040 A 
ATOM     90  C   UNL A   1      45.686  34.643  28.427  1.00  0.00     0.040 A 
ATOM     91  F   UNL A   1      45.094  32.996  26.864  1.00  0.00    -0.206 F 
ATOM     92  C   UNL A   1      46.026  35.009  29.728  1.00  0.00     0.006 A 
ENDBRANCH  68  85
ENDBRANCH  42  43
ENDBRANCH  34  37
ENDBRANCH  32  33
ENDBRANCH  31  32
ENDBRANCH  30  31
ENDBRANCH   1  30
TORSDOF 16
ENDMDL
MODEL 2
REMARK VINA RESULT:     -11.6      0.638      6.073
REMARK SMILES O=C(CN1C(=O)/C(=C2/Sc3ccccc3N2CCCS(=O)(=O)[O-])SC1=S)NCCCCNC(=O)c1ccc(-c2c3nc(c(-c4c(F)cccc4F)c4ccc([nH]4)c(-c4c(F)cccc4F)c4nc(c(-c5c(F)cccc5F)c5ccc2[nH]5)C=C4)C=C3)cc1
REMARK SMILES IDX 28 1 27 2 1 3 2 4 3 6 4 7 5 8 25 9 6 10 7 11 24 12 26 13
REMARK SMILES IDX 8 14 9 15 16 16 10 17 15 18 11 19 14 20 12 21 13 22 17 23
REMARK SMILES IDX 18 24 19 25 20 26 21 27 22 28 23 29 29 30 30 31 31 32 32 33
REMARK SMILES IDX 33 34 34 36 35 37 36 38 88 39 37 40 87 41 38 42 39 43 40 44
REMARK SMILES IDX 81 45 41 46 86 47 80 48 82 49 42 50 85 51 79 52 78 53 43 55
REMARK SMILES IDX 69 56 52 57 68 58 53 59 56 60 67 61 83 62 54 63 55 64 66 66
REMARK SMILES IDX 84 67 57 68 44 69 45 70 50 71 46 72 47 73 49 74 51 75 48 76
REMARK SMILES IDX 70 77 71 78 76 79 72 80 73 81 75 82 77 83 74 84 58 85 59 86
REMARK SMILES IDX 64 87 60 88 61 89 63 90 65 91 62 92
REMARK H PARENT 27 5 32 35 82 54 56 65
REMARK Flexibility Score: inf
ROOT
ATOM      1  C   UNL A   1      37.473  22.712  25.592  1.00  0.00     0.116 C 
ENDROOT
BRANCH   1   2
ATOM      2  N   UNL A   1      36.365  23.635  25.450  1.00  0.00    -0.355 N 
ATOM      3  O   UNL A   1      34.925  22.600  26.914  1.00  0.00    -0.273 OA
ATOM      4  C   UNL A   1      35.165  23.500  26.119  1.00  0.00     0.240 C 
ATOM      5  H   UNL A   1      36.473  24.400  24.842  1.00  0.00     0.163 HD
BRANCH   4   6
ATOM      6  C   UNL A   1      34.142  24.572  25.729  1.00  0.00     0.227 C 
BRANCH   6   7
ATOM      7  N   UNL A   1      33.061  24.352  24.758  1.00  0.00    -0.283 N 
ATOM      8  C   UNL A   1      32.794  25.377  23.865  1.00  0.00     0.269 C 
ATOM      9  C   UNL A   1      32.072  23.405  24.823  1.00  0.00     0.148 C 
ATOM     10  O   UNL A   1      33.646  25.992  23.238  1.00  0.00    -0.268 OA
ATOM     11  C   UNL A   1      31.324  25.548  23.705  1.00  0.00     0.111 C 
ATOM     12  S   UNL A   1      30.659  23.957  23.948  1.00  0.00    -0.052 SA
ATOM     13  S   UNL A   1      32.063  21.929  25.580  1.00  0.00    -0.052 S 
ATOM     14  C   UNL A   1      30.613  26.695  23.565  1.00  0.00     0.100 C 
ATOM     15  S   UNL A   1      28.792  26.521  23.589  1.00  0.00    -0.068 SA
ATOM     16  N   UNL A   1      30.999  28.057  23.433  1.00  0.00    -0.334 N 
ATOM     17  C   UNL A   1      28.626  28.261  23.323  1.00  0.00     0.037 A 
ATOM     18  C   UNL A   1      29.869  28.919  23.295  1.00  0.00     0.056 A 
ATOM     19  C   UNL A   1      27.420  28.917  23.100  1.00  0.00     0.017 A 
ATOM     20  C   UNL A   1      29.869  30.298  23.093  1.00  0.00     0.027 A 
ATOM     21  C   UNL A   1      27.444  30.285  22.849  1.00  0.00     0.001 A 
ATOM     22  C   UNL A   1      28.661  30.973  22.857  1.00  0.00     0.002 A 
BRANCH  16  23
ATOM     23  C   UNL A   1      32.290  28.600  22.992  1.00  0.00     0.124 C 
BRANCH  23  24
ATOM     24  C   UNL A   1      33.221  29.012  24.148  1.00  0.00     0.037 C 
BRANCH  24  25
ATOM     25  C   UNL A   1      32.590  29.749  25.324  1.00  0.00     0.124 C 
BRANCH  25  26
ATOM     26  S   UNL A   1      33.240  29.364  26.955  1.00  0.00     0.095 S 
ATOM     27  O   UNL A   1      34.229  28.321  26.828  1.00  0.00    -0.243 OA
ATOM     28  O   UNL A   1      33.513  30.606  27.645  1.00  0.00    -0.243 OA
ATOM     29  O   UNL A   1      31.936  28.732  27.660  1.00  0.00    -0.748 OA
ENDBRANCH  25  26
ENDBRANCH  24  25
ENDBRANCH  23  24
ENDBRANCH  16  23
ENDBRANCH   6   7
ENDBRANCH   4   6
ENDBRANCH   1   2
BRANCH   1  30
ATOM     30  C   UNL A   1      37.414  21.570  24.573  1.00  0.00     0.023 C 
BRANCH  30  31
ATOM     31  C   UNL A   1      38.061  20.248  24.998  1.00  0.00     0.023 C 
BRANCH  31  32
ATOM     32  C   UNL A   1      39.273  20.364  25.910  1.00  0.00     0.116 C 
BRANCH  32  33
ATOM     33  N   UNL A   1      40.182  19.238  25.850  1.00  0.00    -0.352 N 
ATOM     34  C   UNL A   1      41.527  19.204  26.139  1.00  0.00     0.251 C 
ATOM     35  H   UNL A   1      39.784  18.383  25.566  1.00  0.00     0.163 HD
ATOM     36  O   UNL A   1      42.160  18.161  26.013  1.00  0.00    -0.269 OA
BRANCH  34  37
ATOM     37  C   UNL A   1      42.227  20.449  26.534  1.00  0.00     0.039 A 
ATOM     38  C   UNL A   1      42.161  20.939  27.840  1.00  0.00     0.014 A 
ATOM     39  C   UNL A   1      42.913  21.167  25.552  1.00  0.00     0.014 A 
ATOM     40  C   UNL A   1      42.618  22.228  28.116  1.00  0.00     0.010 A 
ATOM     41  C   UNL A   1      43.448  22.423  25.853  1.00  0.00     0.010 A 
ATOM     42  C   UNL A   1      43.251  22.993  27.122  1.00  0.00    -0.014 A 
BRANCH  42  43
ATOM     43  C   UNL A   1      43.669  24.392  27.411  1.00  0.00     0.031 A 
ATOM     44  C   UNL A   1      42.650  25.436  27.799  1.00  0.00     0.074 A 
ATOM     45  C   UNL A   1      44.975  24.722  27.367  1.00  0.00     0.049 A 
ATOM     46  N   UNL A   1      42.827  26.705  28.076  1.00  0.00    -0.248 NA
ATOM     47  C   UNL A   1      41.248  24.999  27.886  1.00  0.00     0.031 C 
ATOM     48  C   UNL A   1      46.065  23.809  27.018  1.00  0.00     0.029 A 
ATOM     49  N   UNL A   1      45.608  25.911  27.631  1.00  0.00    -0.354 N 
ATOM     50  C   UNL A   1      41.566  27.216  28.357  1.00  0.00     0.074 A 
ATOM     51  C   UNL A   1      40.624  26.131  28.180  1.00  0.00     0.031 C 
ATOM     52  C   UNL A   1      47.234  24.460  27.126  1.00  0.00     0.029 A 
ATOM     53  C   UNL A   1      46.974  25.848  27.491  1.00  0.00     0.049 A 
ATOM     54  H   UNL A   1      45.130  26.730  27.896  1.00  0.00     0.167 HD
ATOM     55  C   UNL A   1      41.220  28.468  28.743  1.00  0.00     0.037 A 
ATOM     56  C   UNL A   1      47.910  26.806  27.618  1.00  0.00     0.037 A 
ATOM     57  C   UNL A   1      42.153  29.551  28.927  1.00  0.00     0.049 A 
ATOM     58  C   UNL A   1      47.490  28.203  27.979  1.00  0.00     0.074 A 
ATOM     59  C   UNL A   1      41.899  30.854  29.324  1.00  0.00     0.029 A 
ATOM     60  N   UNL A   1      43.521  29.457  28.727  1.00  0.00    -0.354 N 
ATOM     61  N   UNL A   1      46.295  28.664  28.256  1.00  0.00    -0.248 NA
ATOM     62  C   UNL A   1      48.554  29.215  28.040  1.00  0.00     0.031 C 
ATOM     63  C   UNL A   1      43.107  31.558  29.323  1.00  0.00     0.029 A 
ATOM     64  C   UNL A   1      44.121  30.682  28.974  1.00  0.00     0.049 A 
ATOM     65  H   UNL A   1      43.997  28.641  28.451  1.00  0.00     0.167 HD
ATOM     66  C   UNL A   1      46.466  30.012  28.543  1.00  0.00     0.074 A 
ATOM     67  C   UNL A   1      47.884  30.287  28.434  1.00  0.00     0.031 C 
ATOM     68  C   UNL A   1      45.534  30.942  28.865  1.00  0.00     0.037 A 
BRANCH  55  69
ATOM     69  C   UNL A   1      39.763  28.744  28.987  1.00  0.00     0.057 A 
ATOM     70  C   UNL A   1      39.194  28.531  30.250  1.00  0.00     0.134 A 
ATOM     71  C   UNL A   1      38.912  29.178  27.961  1.00  0.00     0.134 A 
ATOM     72  F   UNL A   1      39.950  28.108  31.275  1.00  0.00    -0.206 F 
ATOM     73  C   UNL A   1      37.833  28.737  30.482  1.00  0.00     0.040 A 
ATOM     74  C   UNL A   1      37.554  29.411  28.188  1.00  0.00     0.040 A 
ATOM     75  F   UNL A   1      39.394  29.412  26.731  1.00  0.00    -0.206 F 
ATOM     76  C   UNL A   1      37.010  29.183  29.451  1.00  0.00     0.006 A 
ENDBRANCH  55  69
BRANCH  56  77
ATOM     77  C   UNL A   1      49.342  26.492  27.377  1.00  0.00     0.057 A 
ATOM     78  C   UNL A   1      49.898  26.567  26.094  1.00  0.00     0.134 A 
ATOM     79  C   UNL A   1      50.198  26.156  28.433  1.00  0.00     0.134 A 
ATOM     80  F   UNL A   1      49.131  26.881  25.040  1.00  0.00    -0.206 F 
ATOM     81  C   UNL A   1      51.252  26.318  25.869  1.00  0.00     0.040 A 
ATOM     82  C   UNL A   1      51.561  25.935  28.226  1.00  0.00     0.040 A 
ATOM     83  F   UNL A   1      49.729  26.091  29.688  1.00  0.00    -0.206 F 
ATOM     84  C   UNL A   1      52.090  26.014  26.939  1.00  0.00     0.006 A 
ENDBRANCH  56  77
BRANCH  68  85
ATOM     85  C   UNL A   1      46.028  32.329  29.154  1.00  0.00     0.057 A 
ATOM     86  C   UNL A   1      46.131  33.278  28.128  1.00  0.00     0.134 A 
ATOM     87  C   UNL A   1      46.403  32.728  30.444  1.00  0.00     0.134 A 
ATOM     88  F   UNL A   1      45.795  32.961  26.869  1.00  0.00    -0.206 F 
ATOM     89  C   UNL A   1      46.586  34.574  28.376  1.00  0.00     0.040 A 
ATOM     90  C   UNL A   1      46.833  34.029  30.709  1.00  0.00     0.040 A 
ATOM     91  F   UNL A   1      46.312  31.872  31.473  1.00  0.00    -0.206 F 
ATOM     92  C   UNL A   1      46.929  34.955  29.672  1.00  0.00     0.006 A 
ENDBRANCH  68  85
ENDBRANCH  42  43
ENDBRANCH  34  37
ENDBRANCH  32  33
ENDBRANCH  31  32
ENDBRANCH  30  31
ENDBRANCH   1  30
TORSDOF 16
ENDMDL
MODEL 3
REMARK VINA RESULT:     -11.3      4.813      8.403
REMARK SMILES O=C(CN1C(=O)/C(=C2/Sc3ccccc3N2CCCS(=O)(=O)[O-])SC1=S)NCCCCNC(=O)c1ccc(-c2c3nc(c(-c4c(F)cccc4F)c4ccc([nH]4)c(-c4c(F)cccc4F)c4nc(c(-c5c(F)cccc5F)c5ccc2[nH]5)C=C4)C=C3)cc1
REMARK SMILES IDX 28 1 27 2 1 3 2 4 3 6 4 7 5 8 25 9 6 10 7 11 24 12 26 13
REMARK SMILES IDX 8 14 9 15 16 16 10 17 15 18 11 19 14 20 12 21 13 22 17 23
REMARK SMILES IDX 18 24 19 25 20 26 21 27 22 28 23 29 29 30 30 31 31 32 32 33
REMARK SMILES IDX 33 34 34 36 35 37 36 38 88 39 37 40 87 41 38 42 39 43 40 44
REMARK SMILES IDX 81 45 41 46 86 47 80 48 82 49 42 50 85 51 79 52 78 53 43 55
REMARK SMILES IDX 69 56 52 57 68 58 53 59 56 60 67 61 83 62 54 63 55 64 66 66
REMARK SMILES IDX 84 67 57 68 44 69 45 70 50 71 46 72 47 73 49 74 51 75 48 76
REMARK SMILES IDX 70 77 71 78 76 79 72 80 73 81 75 82 77 83 74 84 58 85 59 86
REMARK SMILES IDX 64 87 60 88 61 89 63 90 65 91 62 92
REMARK H PARENT 27 5 32 35 82 54 56 65
REMARK Flexibility Score: inf
ROOT
ATOM      1  C   UNL A   1      38.194  22.079  25.644  1.00  0.00     0.116 C 
ENDROOT
BRANCH   1   2
ATOM      2  N   UNL A   1      36.891  22.712  25.677  1.00  0.00    -0.355 N 
ATOM      3  O   UNL A   1      36.700  23.122  23.423  1.00  0.00    -0.273 OA
ATOM      4  C   UNL A   1      36.245  23.197  24.557  1.00  0.00     0.240 C 
ATOM      5  H   UNL A   1      36.441  22.802  26.547  1.00  0.00     0.163 HD
BRANCH   4   6
ATOM      6  C   UNL A   1      34.916  23.883  24.886  1.00  0.00     0.227 C 
BRANCH   6   7
ATOM      7  N   UNL A   1      33.672  23.651  24.139  1.00  0.00    -0.283 N 
ATOM      8  C   UNL A   1      33.274  24.636  23.250  1.00  0.00     0.269 C 
ATOM      9  C   UNL A   1      32.686  22.745  24.437  1.00  0.00     0.148 C 
ATOM     10  O   UNL A   1      34.014  25.185  22.445  1.00  0.00    -0.268 OA
ATOM     11  C   UNL A   1      31.804  24.850  23.346  1.00  0.00     0.111 C 
ATOM     12  S   UNL A   1      31.153  23.300  23.798  1.00  0.00    -0.052 SA
ATOM     13  S   UNL A   1      32.777  21.313  25.268  1.00  0.00    -0.052 S 
ATOM     14  C   UNL A   1      31.109  26.014  23.268  1.00  0.00     0.100 C 
ATOM     15  S   UNL A   1      29.319  25.906  23.629  1.00  0.00    -0.068 SA
ATOM     16  N   UNL A   1      31.500  27.351  22.989  1.00  0.00    -0.334 N 
ATOM     17  C   UNL A   1      29.152  27.635  23.294  1.00  0.00     0.037 A 
ATOM     18  C   UNL A   1      30.387  28.245  23.005  1.00  0.00     0.056 A 
ATOM     19  C   UNL A   1      27.944  28.321  23.254  1.00  0.00     0.017 A 
ATOM     20  C   UNL A   1      30.386  29.611  22.725  1.00  0.00     0.027 A 
ATOM     21  C   UNL A   1      27.957  29.672  22.921  1.00  0.00     0.001 A 
ATOM     22  C   UNL A   1      29.173  30.315  22.670  1.00  0.00     0.002 A 
BRANCH  16  23
ATOM     23  C   UNL A   1      32.704  27.824  22.292  1.00  0.00     0.124 C 
BRANCH  23  24
ATOM     24  C   UNL A   1      33.821  28.307  23.236  1.00  0.00     0.037 C 
BRANCH  24  25
ATOM     25  C   UNL A   1      33.405  29.145  24.439  1.00  0.00     0.124 C 
BRANCH  25  26
ATOM     26  S   UNL A   1      33.096  28.255  25.970  1.00  0.00     0.095 S 
ATOM     27  O   UNL A   1      31.705  28.407  26.324  1.00  0.00    -0.243 OA
ATOM     28  O   UNL A   1      33.733  26.959  25.885  1.00  0.00    -0.243 OA
ATOM     29  O   UNL A   1      33.973  29.123  27.007  1.00  0.00    -0.748 OA
ENDBRANCH  25  26
ENDBRANCH  24  25
ENDBRANCH  23  24
ENDBRANCH  16  23
ENDBRANCH   6   7
ENDBRANCH   4   6
ENDBRANCH   1   2
BRANCH   1  30
ATOM     30  C   UNL A   1      39.203  22.774  26.563  1.00  0.00     0.023 C 
BRANCH  30  31
ATOM     31  C   UNL A   1      40.633  22.226  26.539  1.00  0.00     0.023 C 
BRANCH  31  32
ATOM     32  C   UNL A   1      41.741  23.247  26.753  1.00  0.00     0.116 C 
BRANCH  32  33
ATOM     33  N   UNL A   1      41.902  24.196  25.671  1.00  0.00    -0.352 N 
ATOM     34  C   UNL A   1      42.004  25.567  25.740  1.00  0.00     0.251 C 
ATOM     35  H   UNL A   1      41.945  23.809  24.767  1.00  0.00     0.163 HD
ATOM     36  O   UNL A   1      42.116  26.231  24.715  1.00  0.00    -0.269 OA
BRANCH  34  37
ATOM     37  C   UNL A   1      41.908  26.247  27.053  1.00  0.00     0.039 A 
ATOM     38  C   UNL A   1      40.921  25.907  27.980  1.00  0.00     0.014 A 
ATOM     39  C   UNL A   1      42.795  27.290  27.329  1.00  0.00     0.014 A 
ATOM     40  C   UNL A   1      40.706  26.725  29.089  1.00  0.00     0.010 A 
ATOM     41  C   UNL A   1      42.632  28.057  28.486  1.00  0.00     0.010 A 
ATOM     42  C   UNL A   1      41.547  27.820  29.347  1.00  0.00    -0.014 A 
BRANCH  42  43
ATOM     43  C   UNL A   1      41.261  28.726  30.493  1.00  0.00     0.031 A 
ATOM     44  C   UNL A   1      40.133  29.727  30.422  1.00  0.00     0.074 A 
ATOM     45  C   UNL A   1      41.989  28.625  31.622  1.00  0.00     0.049 A 
ATOM     46  N   UNL A   1      39.744  30.603  31.316  1.00  0.00    -0.248 NA
ATOM     47  C   UNL A   1      39.339  29.749  29.184  1.00  0.00     0.031 C 
ATOM     48  C   UNL A   1      43.100  27.693  31.830  1.00  0.00     0.029 A 
ATOM     49  N   UNL A   1      41.895  29.301  32.813  1.00  0.00    -0.354 N 
ATOM     50  C   UNL A   1      38.674  31.282  30.747  1.00  0.00     0.074 A 
ATOM     51  C   UNL A   1      38.497  30.747  29.415  1.00  0.00     0.031 C 
ATOM     52  C   UNL A   1      43.559  27.831  33.084  1.00  0.00     0.029 A 
ATOM     53  C   UNL A   1      42.819  28.898  33.747  1.00  0.00     0.049 A 
ATOM     54  H   UNL A   1      41.229  30.006  32.981  1.00  0.00     0.167 HD
ATOM     55  C   UNL A   1      37.897  32.253  31.287  1.00  0.00     0.037 A 
ATOM     56  C   UNL A   1      43.060  29.353  34.990  1.00  0.00     0.037 A 
ATOM     57  C   UNL A   1      38.064  32.787  32.615  1.00  0.00     0.049 A 
ATOM     58  C   UNL A   1      42.227  30.479  35.537  1.00  0.00     0.074 A 
ATOM     59  C   UNL A   1      37.321  33.767  33.253  1.00  0.00     0.029 A 
ATOM     60  N   UNL A   1      39.043  32.385  33.510  1.00  0.00    -0.354 N 
ATOM     61  N   UNL A   1      41.210  31.099  34.991  1.00  0.00    -0.248 NA
ATOM     62  C   UNL A   1      42.583  30.970  36.876  1.00  0.00     0.031 C 
ATOM     63  C   UNL A   1      37.877  33.987  34.518  1.00  0.00     0.029 A 
ATOM     64  C   UNL A   1      38.935  33.110  34.687  1.00  0.00     0.049 A 
ATOM     65  H   UNL A   1      39.716  31.688  33.336  1.00  0.00     0.167 HD
ATOM     66  C   UNL A   1      40.792  32.037  35.925  1.00  0.00     0.074 A 
ATOM     67  C   UNL A   1      41.649  31.886  37.083  1.00  0.00     0.031 C 
ATOM     68  C   UNL A   1      39.792  32.947  35.833  1.00  0.00     0.037 A 
BRANCH  55  69
ATOM     69  C   UNL A   1      36.792  32.814  30.436  1.00  0.00     0.057 A 
ATOM     70  C   UNL A   1      35.485  32.316  30.538  1.00  0.00     0.134 A 
ATOM     71  C   UNL A   1      37.028  33.814  29.484  1.00  0.00     0.134 A 
ATOM     72  F   UNL A   1      35.191  31.352  31.422  1.00  0.00    -0.206 F 
ATOM     73  C   UNL A   1      34.457  32.792  29.722  1.00  0.00     0.040 A 
ATOM     74  C   UNL A   1      36.002  34.316  28.680  1.00  0.00     0.040 A 
ATOM     75  F   UNL A   1      38.254  34.342  29.343  1.00  0.00    -0.206 F 
ATOM     76  C   UNL A   1      34.713  33.798  28.794  1.00  0.00     0.006 A 
ENDBRANCH  55  69
BRANCH  56  77
ATOM     77  C   UNL A   1      44.156  28.767  35.804  1.00  0.00     0.057 A 
ATOM     78  C   UNL A   1      45.465  29.257  35.723  1.00  0.00     0.134 A 
ATOM     79  C   UNL A   1      43.909  27.735  36.717  1.00  0.00     0.134 A 
ATOM     80  F   UNL A   1      45.768  30.243  34.866  1.00  0.00    -0.206 F 
ATOM     81  C   UNL A   1      46.488  28.742  36.519  1.00  0.00     0.040 A 
ATOM     82  C   UNL A   1      44.917  27.232  37.541  1.00  0.00     0.040 A 
ATOM     83  F   UNL A   1      42.670  27.239  36.857  1.00  0.00    -0.206 F 
ATOM     84  C   UNL A   1      46.213  27.734  37.440  1.00  0.00     0.006 A 
ENDBRANCH  56  77
BRANCH  68  85
ATOM     85  C   UNL A   1      39.554  33.820  37.030  1.00  0.00     0.057 A 
ATOM     86  C   UNL A   1      40.130  35.094  37.111  1.00  0.00     0.134 A 
ATOM     87  C   UNL A   1      38.757  33.402  38.105  1.00  0.00     0.134 A 
ATOM     88  F   UNL A   1      40.910  35.553  36.121  1.00  0.00    -0.206 F 
ATOM     89  C   UNL A   1      39.920  35.922  38.215  1.00  0.00     0.040 A 
ATOM     90  C   UNL A   1      38.515  34.232  39.201  1.00  0.00     0.040 A 
ATOM     91  F   UNL A   1      38.161  32.200  38.081  1.00  0.00    -0.206 F 
ATOM     92  C   UNL A   1      39.102  35.494  39.259  1.00  0.00     0.006 A 
ENDBRANCH  68  85
ENDBRANCH  42  43
ENDBRANCH  34  37
ENDBRANCH  32  33
ENDBRANCH  31  32
ENDBRANCH  30  31
ENDBRANCH   1  30
TORSDOF 16
ENDMDL
