MODEL 1
REMARK VINA RESULT:     -12.2      0.000      0.000
REMARK SMILES O=C(Cn1c2c(sc1=O)C[C@H](c1ccccc1)CC2)NCCCCNC(=O)c1ccc(-c2c3nc(c(-c4c(F)cccc4F)c4ccc([nH]4)c(-c4c(F)cccc4F)c4nc(c(-c5c(F)cccc5F)c5ccc2[nH]5)C=C4)C=C3)cc1
REMARK SMILES IDX 22 1 21 2 20 3 1 4 2 5 3 7 4 8 5 9 8 10 6 11 19 12 7 13 9 14
REMARK SMILES IDX 10 15 18 16 11 17 12 18 13 19 17 20 14 21 16 22 15 23 23 24
REMARK SMILES IDX 24 25 25 26 26 27 27 29 28 30 29 31 81 32 30 33 80 34 31 35
REMARK SMILES IDX 32 36 33 37 74 38 34 39 79 40 73 41 75 42 35 43 78 44 72 45
REMARK SMILES IDX 71 46 36 48 62 49 45 50 61 51 46 52 49 53 60 54 76 55 47 56
REMARK SMILES IDX 48 57 59 59 77 60 50 61 37 62 38 63 43 64 39 65 40 66 42 67
REMARK SMILES IDX 44 68 41 69 63 70 64 71 69 72 65 73 66 74 68 75 70 76 67 77
REMARK SMILES IDX 51 78 52 79 57 80 53 81 54 82 56 83 58 84 55 85
REMARK H PARENT 20 6 25 28 75 47 49 58
REMARK Flexibility Score: inf
ROOT
ATOM      1  C   UNL A   1      39.985  20.866  26.128  1.00  0.00     0.023 C 
ENDROOT
BRANCH   1   2
ATOM      2  C   UNL A   1      38.606  20.696  25.479  1.00  0.00     0.116 C 
BRANCH   2   3
ATOM      3  N   UNL A   1      37.828  21.919  25.504  1.00  0.00    -0.355 N 
ATOM      4  O   UNL A   1      35.749  20.953  25.734  1.00  0.00    -0.273 OA
ATOM      5  C   UNL A   1      36.452  21.953  25.611  1.00  0.00     0.240 C 
ATOM      6  H   UNL A   1      38.310  22.775  25.440  1.00  0.00     0.163 HD
BRANCH   5   7
ATOM      7  C   UNL A   1      35.853  23.364  25.542  1.00  0.00     0.226 C 
BRANCH   7   8
ATOM      8  N   UNL A   1      34.690  23.408  24.674  1.00  0.00    -0.293 N 
ATOM      9  C   UNL A   1      33.384  23.571  25.101  1.00  0.00     0.036 A 
ATOM     10  C   UNL A   1      34.858  23.359  23.292  1.00  0.00     0.308 A 
ATOM     11  C   UNL A   1      32.505  23.678  24.094  1.00  0.00     0.030 A 
ATOM     12  C   UNL A   1      32.990  23.660  26.543  1.00  0.00     0.056 C 
ATOM     13  S   UNL A   1      33.263  23.516  22.542  1.00  0.00    -0.079 S 
ATOM     14  O   UNL A   1      35.903  23.274  22.681  1.00  0.00    -0.257 OA
ATOM     15  C   UNL A   1      31.060  24.004  24.276  1.00  0.00     0.057 C 
ATOM     16  C   UNL A   1      31.472  23.863  26.743  1.00  0.00     0.015 C 
ATOM     17  C   UNL A   1      30.798  24.715  25.636  1.00  0.00     0.025 C 
BRANCH  17  18
ATOM     18  C   UNL A   1      31.181  26.198  25.603  1.00  0.00    -0.045 A 
ATOM     19  C   UNL A   1      31.750  26.795  26.743  1.00  0.00     0.004 A 
ATOM     20  C   UNL A   1      30.999  27.013  24.477  1.00  0.00     0.004 A 
ATOM     21  C   UNL A   1      32.020  28.165  26.788  1.00  0.00     0.000 A 
ATOM     22  C   UNL A   1      31.255  28.386  24.523  1.00  0.00     0.000 A 
ATOM     23  C   UNL A   1      31.751  28.966  25.684  1.00  0.00     0.000 A 
ENDBRANCH  17  18
ENDBRANCH   7   8
ENDBRANCH   5   7
ENDBRANCH   2   3
ENDBRANCH   1   2
BRANCH   1  24
ATOM     24  C   UNL A   1      40.884  19.619  26.153  1.00  0.00     0.023 C 
BRANCH  24  25
ATOM     25  C   UNL A   1      42.247  19.821  26.801  1.00  0.00     0.116 C 
BRANCH  25  26
ATOM     26  N   UNL A   1      43.362  19.595  25.882  1.00  0.00    -0.352 N 
ATOM     27  C   UNL A   1      44.043  20.535  25.132  1.00  0.00     0.251 C 
ATOM     28  H   UNL A   1      43.663  18.662  25.786  1.00  0.00     0.163 HD
ATOM     29  O   UNL A   1      44.672  20.209  24.132  1.00  0.00    -0.269 OA
BRANCH  27  30
ATOM     30  C   UNL A   1      43.996  21.950  25.548  1.00  0.00     0.039 A 
ATOM     31  C   UNL A   1      43.041  22.825  25.024  1.00  0.00     0.014 A 
ATOM     32  C   UNL A   1      44.911  22.390  26.501  1.00  0.00     0.014 A 
ATOM     33  C   UNL A   1      42.956  24.117  25.539  1.00  0.00     0.010 A 
ATOM     34  C   UNL A   1      44.733  23.609  27.109  1.00  0.00     0.010 A 
ATOM     35  C   UNL A   1      43.787  24.496  26.609  1.00  0.00    -0.014 A 
BRANCH  35  36
ATOM     36  C   UNL A   1      43.565  25.768  27.297  1.00  0.00     0.031 A 
ATOM     37  C   UNL A   1      44.517  26.851  26.918  1.00  0.00     0.074 A 
ATOM     38  C   UNL A   1      42.474  26.041  28.048  1.00  0.00     0.049 A 
ATOM     39  N   UNL A   1      45.374  27.442  27.682  1.00  0.00    -0.248 NA
ATOM     40  C   UNL A   1      44.615  27.241  25.501  1.00  0.00     0.031 C 
ATOM     41  C   UNL A   1      41.293  25.202  28.275  1.00  0.00     0.029 A 
ATOM     42  N   UNL A   1      42.136  27.199  28.682  1.00  0.00    -0.354 N 
ATOM     43  C   UNL A   1      45.973  28.425  26.901  1.00  0.00     0.074 A 
ATOM     44  C   UNL A   1      45.600  28.142  25.539  1.00  0.00     0.031 C 
ATOM     45  C   UNL A   1      40.286  25.961  28.760  1.00  0.00     0.029 A 
ATOM     46  C   UNL A   1      40.793  27.294  29.030  1.00  0.00     0.049 A 
ATOM     47  H   UNL A   1      42.788  27.909  28.878  1.00  0.00     0.167 HD
ATOM     48  C   UNL A   1      46.516  29.536  27.471  1.00  0.00     0.037 A 
ATOM     49  C   UNL A   1      40.137  28.397  29.472  1.00  0.00     0.037 A 
ATOM     50  C   UNL A   1      46.769  29.334  28.878  1.00  0.00     0.049 A 
ATOM     51  C   UNL A   1      41.161  29.346  29.977  1.00  0.00     0.074 A 
ATOM     52  C   UNL A   1      47.455  28.382  29.609  1.00  0.00     0.029 A 
ATOM     53  N   UNL A   1      45.950  29.965  29.785  1.00  0.00    -0.354 N 
ATOM     54  N   UNL A   1      41.858  29.153  31.061  1.00  0.00    -0.248 NA
ATOM     55  C   UNL A   1      41.732  30.287  29.024  1.00  0.00     0.031 C 
ATOM     56  C   UNL A   1      46.630  28.131  30.746  1.00  0.00     0.029 A 
ATOM     57  C   UNL A   1      45.548  29.009  30.682  1.00  0.00     0.049 A 
ATOM     58  H   UNL A   1      45.699  30.917  29.788  1.00  0.00     0.167 HD
ATOM     59  C   UNL A   1      43.139  29.562  30.724  1.00  0.00     0.074 A 
ATOM     60  C   UNL A   1      42.981  30.337  29.494  1.00  0.00     0.031 C 
ATOM     61  C   UNL A   1      44.241  28.992  31.293  1.00  0.00     0.037 A 
BRANCH  48  62
ATOM     62  C   UNL A   1      46.439  30.915  26.859  1.00  0.00     0.057 A 
ATOM     63  C   UNL A   1      47.577  31.742  26.885  1.00  0.00     0.134 A 
ATOM     64  C   UNL A   1      45.232  31.571  26.538  1.00  0.00     0.134 A 
ATOM     65  F   UNL A   1      48.783  31.243  27.194  1.00  0.00    -0.206 F 
ATOM     66  C   UNL A   1      47.503  33.127  26.693  1.00  0.00     0.040 A 
ATOM     67  C   UNL A   1      45.156  32.944  26.293  1.00  0.00     0.040 A 
ATOM     68  F   UNL A   1      44.048  30.948  26.550  1.00  0.00    -0.206 F 
ATOM     69  C   UNL A   1      46.288  33.734  26.405  1.00  0.00     0.006 A 
ENDBRANCH  48  62
BRANCH  49  70
ATOM     70  C   UNL A   1      38.723  28.802  29.265  1.00  0.00     0.057 A 
ATOM     71  C   UNL A   1      37.832  28.890  30.347  1.00  0.00     0.134 A 
ATOM     72  C   UNL A   1      38.279  29.377  28.063  1.00  0.00     0.134 A 
ATOM     73  F   UNL A   1      38.169  28.403  31.550  1.00  0.00    -0.206 F 
ATOM     74  C   UNL A   1      36.595  29.542  30.250  1.00  0.00     0.040 A 
ATOM     75  C   UNL A   1      37.042  30.021  27.951  1.00  0.00     0.040 A 
ATOM     76  F   UNL A   1      39.059  29.411  26.973  1.00  0.00    -0.206 F 
ATOM     77  C   UNL A   1      36.202  30.125  29.050  1.00  0.00     0.006 A 
ENDBRANCH  49  70
BRANCH  61  78
ATOM     78  C   UNL A   1      44.058  28.088  32.482  1.00  0.00     0.057 A 
ATOM     79  C   UNL A   1      43.878  26.697  32.407  1.00  0.00     0.134 A 
ATOM     80  C   UNL A   1      44.224  28.629  33.763  1.00  0.00     0.134 A 
ATOM     81  F   UNL A   1      43.815  26.063  31.230  1.00  0.00    -0.206 F 
ATOM     82  C   UNL A   1      43.818  25.896  33.554  1.00  0.00     0.040 A 
ATOM     83  C   UNL A   1      44.205  27.836  34.912  1.00  0.00     0.040 A 
ATOM     84  F   UNL A   1      44.457  29.943  33.917  1.00  0.00    -0.206 F 
ATOM     85  C   UNL A   1      43.988  26.465  34.811  1.00  0.00     0.006 A 
ENDBRANCH  61  78
ENDBRANCH  35  36
ENDBRANCH  27  30
ENDBRANCH  25  26
ENDBRANCH  24  25
ENDBRANCH   1  24
TORSDOF 13
ENDMDL
MODEL 2
REMARK VINA RESULT:     -12.0      1.935      5.795
REMARK SMILES O=C(Cn1c2c(sc1=O)C[C@H](c1ccccc1)CC2)NCCCCNC(=O)c1ccc(-c2c3nc(c(-c4c(F)cccc4F)c4ccc([nH]4)c(-c4c(F)cccc4F)c4nc(c(-c5c(F)cccc5F)c5ccc2[nH]5)C=C4)C=C3)cc1
REMARK SMILES IDX 22 1 21 2 20 3 1 4 2 5 3 7 4 8 5 9 8 10 6 11 19 12 7 13 9 14
REMARK SMILES IDX 10 15 18 16 11 17 12 18 13 19 17 20 14 21 16 22 15 23 23 24
REMARK SMILES IDX 24 25 25 26 26 27 27 29 28 30 29 31 81 32 30 33 80 34 31 35
REMARK SMILES IDX 32 36 33 37 74 38 34 39 79 40 73 41 75 42 35 43 78 44 72 45
REMARK SMILES IDX 71 46 36 48 62 49 45 50 61 51 46 52 49 53 60 54 76 55 47 56
REMARK SMILES IDX 48 57 59 59 77 60 50 61 37 62 38 63 43 64 39 65 40 66 42 67
REMARK SMILES IDX 44 68 41 69 63 70 64 71 69 72 65 73 66 74 68 75 70 76 67 77
REMARK SMILES IDX 51 78 52 79 57 80 53 81 54 82 56 83 58 84 55 85
REMARK H PARENT 20 6 25 28 75 47 49 58
REMARK Flexibility Score: inf
ROOT
ATOM      1  C   UNL A   1      36.321  20.360  25.069  1.00  0.00     0.023 C 
ENDROOT
BRANCH   1   2
ATOM      2  C   UNL A   1      35.904  21.833  24.969  1.00  0.00     0.116 C 
BRANCH   2   3
ATOM      3  N   UNL A   1      34.653  22.007  24.260  1.00  0.00    -0.355 N 
ATOM      4  O   UNL A   1      33.602  23.341  25.817  1.00  0.00    -0.273 OA
ATOM      5  C   UNL A   1      33.586  22.735  24.748  1.00  0.00     0.240 C 
ATOM      6  H   UNL A   1      34.557  21.579  23.377  1.00  0.00     0.163 HD
BRANCH   5   7
ATOM      7  C   UNL A   1      32.345  22.711  23.846  1.00  0.00     0.226 C 
BRANCH   7   8
ATOM      8  N   UNL A   1      32.218  23.939  23.082  1.00  0.00    -0.293 N 
ATOM      9  C   UNL A   1      31.365  24.983  23.390  1.00  0.00     0.036 A 
ATOM     10  C   UNL A   1      33.051  24.161  21.988  1.00  0.00     0.308 A 
ATOM     11  C   UNL A   1      31.511  26.045  22.585  1.00  0.00     0.030 A 
ATOM     12  C   UNL A   1      30.399  24.952  24.533  1.00  0.00     0.056 C 
ATOM     13  S   UNL A   1      32.693  25.770  21.345  1.00  0.00    -0.079 S 
ATOM     14  O   UNL A   1      33.914  23.423  21.559  1.00  0.00    -0.257 OA
ATOM     15  C   UNL A   1      30.819  27.352  22.788  1.00  0.00     0.057 C 
ATOM     16  C   UNL A   1      29.580  26.255  24.668  1.00  0.00     0.015 C 
ATOM     17  C   UNL A   1      30.358  27.534  24.263  1.00  0.00     0.025 C 
BRANCH  17  18
ATOM     18  C   UNL A   1      31.509  27.941  25.189  1.00  0.00    -0.045 A 
ATOM     19  C   UNL A   1      32.651  28.560  24.647  1.00  0.00     0.004 A 
ATOM     20  C   UNL A   1      31.490  27.732  26.575  1.00  0.00     0.004 A 
ATOM     21  C   UNL A   1      33.762  28.856  25.441  1.00  0.00     0.000 A 
ATOM     22  C   UNL A   1      32.605  28.013  27.369  1.00  0.00     0.000 A 
ATOM     23  C   UNL A   1      33.749  28.561  26.799  1.00  0.00     0.000 A 
ENDBRANCH  17  18
ENDBRANCH   7   8
ENDBRANCH   5   7
ENDBRANCH   2   3
ENDBRANCH   1   2
BRANCH   1  24
ATOM     24  C   UNL A   1      37.761  20.030  24.644  1.00  0.00     0.023 C 
BRANCH  24  25
ATOM     25  C   UNL A   1      38.825  20.317  25.696  1.00  0.00     0.116 C 
BRANCH  25  26
ATOM     26  N   UNL A   1      39.869  19.294  25.755  1.00  0.00    -0.352 N 
ATOM     27  C   UNL A   1      41.225  19.480  25.941  1.00  0.00     0.251 C 
ATOM     28  H   UNL A   1      39.569  18.362  25.650  1.00  0.00     0.163 HD
ATOM     29  O   UNL A   1      42.033  18.628  25.591  1.00  0.00    -0.269 OA
BRANCH  27  30
ATOM     30  C   UNL A   1      41.695  20.732  26.564  1.00  0.00     0.039 A 
ATOM     31  C   UNL A   1      42.094  21.822  25.785  1.00  0.00     0.014 A 
ATOM     32  C   UNL A   1      41.704  20.817  27.954  1.00  0.00     0.014 A 
ATOM     33  C   UNL A   1      42.409  23.022  26.416  1.00  0.00     0.010 A 
ATOM     34  C   UNL A   1      41.872  22.036  28.565  1.00  0.00     0.010 A 
ATOM     35  C   UNL A   1      42.265  23.136  27.811  1.00  0.00    -0.014 A 
BRANCH  35  36
ATOM     36  C   UNL A   1      42.385  24.441  28.460  1.00  0.00     0.031 A 
ATOM     37  C   UNL A   1      41.223  25.349  28.243  1.00  0.00     0.074 A 
ATOM     38  C   UNL A   1      43.344  24.752  29.361  1.00  0.00     0.049 A 
ATOM     39  N   UNL A   1      41.222  26.487  27.630  1.00  0.00    -0.248 NA
ATOM     40  C   UNL A   1      39.883  24.889  28.645  1.00  0.00     0.031 C 
ATOM     41  C   UNL A   1      44.382  23.881  29.921  1.00  0.00     0.029 A 
ATOM     42  N   UNL A   1      43.518  25.905  30.067  1.00  0.00    -0.354 N 
ATOM     43  C   UNL A   1      39.930  26.989  27.753  1.00  0.00     0.074 A 
ATOM     44  C   UNL A   1      39.116  25.899  28.225  1.00  0.00     0.031 C 
ATOM     45  C   UNL A   1      44.890  24.445  31.040  1.00  0.00     0.029 A 
ATOM     46  C   UNL A   1      44.336  25.778  31.184  1.00  0.00     0.049 A 
ATOM     47  H   UNL A   1      43.101  26.757  29.806  1.00  0.00     0.167 HD
ATOM     48  C   UNL A   1      39.694  28.329  27.698  1.00  0.00     0.037 A 
ATOM     49  C   UNL A   1      44.515  26.688  32.176  1.00  0.00     0.037 A 
ATOM     50  C   UNL A   1      40.797  29.032  27.087  1.00  0.00     0.049 A 
ATOM     51  C   UNL A   1      44.086  28.007  31.646  1.00  0.00     0.074 A 
ATOM     52  C   UNL A   1      41.482  28.903  25.893  1.00  0.00     0.029 A 
ATOM     53  N   UNL A   1      41.615  29.787  27.894  1.00  0.00    -0.354 N 
ATOM     54  N   UNL A   1      44.736  28.668  30.729  1.00  0.00    -0.248 NA
ATOM     55  C   UNL A   1      42.687  28.372  31.808  1.00  0.00     0.031 C 
ATOM     56  C   UNL A   1      42.853  29.101  26.237  1.00  0.00     0.029 A 
ATOM     57  C   UNL A   1      42.904  29.429  27.591  1.00  0.00     0.049 A 
ATOM     58  H   UNL A   1      41.331  30.454  28.560  1.00  0.00     0.167 HD
ATOM     59  C   UNL A   1      43.745  29.173  29.902  1.00  0.00     0.074 A 
ATOM     60  C   UNL A   1      42.505  29.041  30.667  1.00  0.00     0.031 C 
ATOM     61  C   UNL A   1      43.963  29.372  28.569  1.00  0.00     0.037 A 
BRANCH  48  62
ATOM     62  C   UNL A   1      38.665  29.034  28.550  1.00  0.00     0.057 A 
ATOM     63  C   UNL A   1      38.622  28.772  29.932  1.00  0.00     0.134 A 
ATOM     64  C   UNL A   1      37.535  29.701  28.033  1.00  0.00     0.134 A 
ATOM     65  F   UNL A   1      39.628  28.128  30.542  1.00  0.00    -0.206 F 
ATOM     66  C   UNL A   1      37.503  29.073  30.718  1.00  0.00     0.040 A 
ATOM     67  C   UNL A   1      36.436  30.053  28.820  1.00  0.00     0.040 A 
ATOM     68  F   UNL A   1      37.381  29.953  26.729  1.00  0.00    -0.206 F 
ATOM     69  C   UNL A   1      36.401  29.706  30.161  1.00  0.00     0.006 A 
ENDBRANCH  48  62
BRANCH  49  70
ATOM     70  C   UNL A   1      44.791  26.472  33.618  1.00  0.00     0.057 A 
ATOM     71  C   UNL A   1      45.835  27.153  34.264  1.00  0.00     0.134 A 
ATOM     72  C   UNL A   1      43.880  25.813  34.462  1.00  0.00     0.134 A 
ATOM     73  F   UNL A   1      46.741  27.842  33.557  1.00  0.00    -0.206 F 
ATOM     74  C   UNL A   1      45.944  27.209  35.661  1.00  0.00     0.040 A 
ATOM     75  C   UNL A   1      43.985  25.854  35.857  1.00  0.00     0.040 A 
ATOM     76  F   UNL A   1      42.807  25.177  33.972  1.00  0.00    -0.206 F 
ATOM     77  C   UNL A   1      45.006  26.569  36.464  1.00  0.00     0.006 A 
ENDBRANCH  49  70
BRANCH  61  78
ATOM     78  C   UNL A   1      45.371  29.281  28.043  1.00  0.00     0.057 A 
ATOM     79  C   UNL A   1      45.993  28.092  27.630  1.00  0.00     0.134 A 
ATOM     80  C   UNL A   1      46.070  30.470  27.801  1.00  0.00     0.134 A 
ATOM     81  F   UNL A   1      45.369  26.911  27.717  1.00  0.00    -0.206 F 
ATOM     82  C   UNL A   1      47.267  28.086  27.052  1.00  0.00     0.040 A 
ATOM     83  C   UNL A   1      47.325  30.481  27.190  1.00  0.00     0.040 A 
ATOM     84  F   UNL A   1      45.519  31.654  28.115  1.00  0.00    -0.206 F 
ATOM     85  C   UNL A   1      47.935  29.285  26.824  1.00  0.00     0.006 A 
ENDBRANCH  61  78
ENDBRANCH  35  36
ENDBRANCH  27  30
ENDBRANCH  25  26
ENDBRANCH  24  25
ENDBRANCH   1  24
TORSDOF 13
ENDMDL
MODEL 3
REMARK VINA RESULT:     -12.0      2.852      7.456
REMARK SMILES O=C(Cn1c2c(sc1=O)C[C@H](c1ccccc1)CC2)NCCCCNC(=O)c1ccc(-c2c3nc(c(-c4c(F)cccc4F)c4ccc([nH]4)c(-c4c(F)cccc4F)c4nc(c(-c5c(F)cccc5F)c5ccc2[nH]5)C=C4)C=C3)cc1
REMARK SMILES IDX 22 1 21 2 20 3 1 4 2 5 3 7 4 8 5 9 8 10 6 11 19 12 7 13 9 14
REMARK SMILES IDX 10 15 18 16 11 17 12 18 13 19 17 20 14 21 16 22 15 23 23 24
REMARK SMILES IDX 24 25 25 26 26 27 27 29 28 30 29 31 81 32 30 33 80 34 31 35
REMARK SMILES IDX 32 36 33 37 74 38 34 39 79 40 73 41 75 42 35 43 78 44 72 45
REMARK SMILES IDX 71 46 36 48 62 49 45 50 61 51 46 52 49 53 60 54 76 55 47 56
REMARK SMILES IDX 48 57 59 59 77 60 50 61 37 62 38 63 43 64 39 65 40 66 42 67
REMARK SMILES IDX 44 68 41 69 63 70 64 71 69 72 65 73 66 74 68 75 70 76 67 77
REMARK SMILES IDX 51 78 52 79 57 80 53 81 54 82 56 83 58 84 55 85
REMARK H PARENT 20 6 25 28 75 47 49 58
REMARK Flexibility Score: inf
ROOT
ATOM      1  C   UNL A   1      32.564  29.368  26.539  1.00  0.00     0.023 C 
ENDROOT
BRANCH   1   2
ATOM      2  C   UNL A   1      32.315  29.216  25.033  1.00  0.00     0.116 C 
BRANCH   2   3
ATOM      3  N   UNL A   1      31.441  28.102  24.727  1.00  0.00    -0.355 N 
ATOM      4  O   UNL A   1      32.982  26.803  23.610  1.00  0.00    -0.273 OA
ATOM      5  C   UNL A   1      31.838  26.985  24.019  1.00  0.00     0.240 C 
ATOM      6  H   UNL A   1      30.508  28.145  25.041  1.00  0.00     0.163 HD
BRANCH   5   7
ATOM      7  C   UNL A   1      30.711  25.975  23.759  1.00  0.00     0.226 C 
BRANCH   7   8
ATOM      8  N   UNL A   1      30.829  24.812  24.619  1.00  0.00    -0.293 N 
ATOM      9  C   UNL A   1      31.418  23.613  24.258  1.00  0.00     0.036 A 
ATOM     10  C   UNL A   1      30.398  24.884  25.941  1.00  0.00     0.308 A 
ATOM     11  C   UNL A   1      31.490  22.731  25.266  1.00  0.00     0.030 A 
ATOM     12  C   UNL A   1      31.958  23.334  22.890  1.00  0.00     0.056 C 
ATOM     13  S   UNL A   1      30.761  23.337  26.720  1.00  0.00    -0.079 S 
ATOM     14  O   UNL A   1      29.904  25.840  26.502  1.00  0.00    -0.257 OA
ATOM     15  C   UNL A   1      32.204  21.423  25.185  1.00  0.00     0.057 C 
ATOM     16  C   UNL A   1      32.581  21.927  22.760  1.00  0.00     0.015 C 
ATOM     17  C   UNL A   1      33.272  21.422  24.053  1.00  0.00     0.025 C 
BRANCH  17  18
ATOM     18  C   UNL A   1      34.554  22.156  24.460  1.00  0.00    -0.045 A 
ATOM     19  C   UNL A   1      35.385  22.708  23.466  1.00  0.00     0.004 A 
ATOM     20  C   UNL A   1      34.958  22.316  25.793  1.00  0.00     0.004 A 
ATOM     21  C   UNL A   1      36.610  23.296  23.787  1.00  0.00     0.000 A 
ATOM     22  C   UNL A   1      36.189  22.892  26.117  1.00  0.00     0.000 A 
ATOM     23  C   UNL A   1      37.024  23.367  25.113  1.00  0.00     0.000 A 
ENDBRANCH  17  18
ENDBRANCH   7   8
ENDBRANCH   5   7
ENDBRANCH   2   3
ENDBRANCH   1   2
BRANCH   1  24
ATOM     24  C   UNL A   1      33.603  28.418  27.157  1.00  0.00     0.023 C 
BRANCH  24  25
ATOM     25  C   UNL A   1      35.016  28.978  27.246  1.00  0.00     0.116 C 
BRANCH  25  26
ATOM     26  N   UNL A   1      35.185  29.950  28.326  1.00  0.00    -0.352 N 
ATOM     27  C   UNL A   1      36.206  30.010  29.256  1.00  0.00     0.251 C 
ATOM     28  H   UNL A   1      34.489  30.642  28.400  1.00  0.00     0.163 HD
ATOM     29  O   UNL A   1      36.054  30.595  30.323  1.00  0.00    -0.269 OA
BRANCH  27  30
ATOM     30  C   UNL A   1      37.489  29.349  28.952  1.00  0.00     0.039 A 
ATOM     31  C   UNL A   1      38.223  29.688  27.812  1.00  0.00     0.014 A 
ATOM     32  C   UNL A   1      37.970  28.394  29.844  1.00  0.00     0.014 A 
ATOM     33  C   UNL A   1      39.486  29.128  27.632  1.00  0.00     0.010 A 
ATOM     34  C   UNL A   1      39.268  27.956  29.744  1.00  0.00     0.010 A 
ATOM     35  C   UNL A   1      40.021  28.283  28.622  1.00  0.00    -0.014 A 
BRANCH  35  36
ATOM     36  C   UNL A   1      41.420  27.861  28.551  1.00  0.00     0.031 A 
ATOM     37  C   UNL A   1      41.650  26.613  27.768  1.00  0.00     0.074 A 
ATOM     38  C   UNL A   1      42.461  28.623  28.956  1.00  0.00     0.049 A 
ATOM     39  N   UNL A   1      42.110  25.488  28.207  1.00  0.00    -0.248 NA
ATOM     40  C   UNL A   1      41.207  26.568  26.364  1.00  0.00     0.031 C 
ATOM     41  C   UNL A   1      42.438  29.998  29.464  1.00  0.00     0.029 A 
ATOM     42  N   UNL A   1      43.796  28.359  28.885  1.00  0.00    -0.354 N 
ATOM     43  C   UNL A   1      42.217  24.657  27.096  1.00  0.00     0.074 A 
ATOM     44  C   UNL A   1      41.491  25.305  26.035  1.00  0.00     0.031 C 
ATOM     45  C   UNL A   1      43.682  30.522  29.403  1.00  0.00     0.029 A 
ATOM     46  C   UNL A   1      44.611  29.479  29.011  1.00  0.00     0.049 A 
ATOM     47  H   UNL A   1      44.154  27.451  28.757  1.00  0.00     0.167 HD
ATOM     48  C   UNL A   1      43.110  23.630  27.076  1.00  0.00     0.037 A 
ATOM     49  C   UNL A   1      45.946  29.552  28.772  1.00  0.00     0.037 A 
ATOM     50  C   UNL A   1      43.542  23.282  28.410  1.00  0.00     0.049 A 
ATOM     51  C   UNL A   1      46.478  28.167  28.823  1.00  0.00     0.074 A 
ATOM     52  C   UNL A   1      42.886  22.952  29.581  1.00  0.00     0.029 A 
ATOM     53  N   UNL A   1      44.815  23.630  28.793  1.00  0.00    -0.354 N 
ATOM     54  N   UNL A   1      46.569  27.463  29.917  1.00  0.00    -0.248 NA
ATOM     55  C   UNL A   1      46.481  27.403  27.585  1.00  0.00     0.031 C 
ATOM     56  C   UNL A   1      43.606  23.634  30.607  1.00  0.00     0.029 A 
ATOM     57  C   UNL A   1      44.702  24.256  30.008  1.00  0.00     0.049 A 
ATOM     58  H   UNL A   1      45.646  23.463  28.293  1.00  0.00     0.167 HD
ATOM     59  C   UNL A   1      46.168  26.191  29.541  1.00  0.00     0.074 A 
ATOM     60  C   UNL A   1      46.219  26.190  28.079  1.00  0.00     0.031 C 
ATOM     61  C   UNL A   1      45.546  25.351  30.420  1.00  0.00     0.037 A 
BRANCH  48  62
ATOM     62  C   UNL A   1      43.889  23.219  25.848  1.00  0.00     0.057 A 
ATOM     63  C   UNL A   1      43.999  21.853  25.530  1.00  0.00     0.134 A 
ATOM     64  C   UNL A   1      44.783  24.066  25.161  1.00  0.00     0.134 A 
ATOM     65  F   UNL A   1      43.217  20.942  26.128  1.00  0.00    -0.206 F 
ATOM     66  C   UNL A   1      44.980  21.361  24.660  1.00  0.00     0.040 A 
ATOM     67  C   UNL A   1      45.731  23.591  24.252  1.00  0.00     0.040 A 
ATOM     68  F   UNL A   1      44.865  25.379  25.406  1.00  0.00    -0.206 F 
ATOM     69  C   UNL A   1      45.857  22.230  24.025  1.00  0.00     0.006 A 
ENDBRANCH  48  62
BRANCH  49  70
ATOM     70  C   UNL A   1      46.753  30.687  28.260  1.00  0.00     0.057 A 
ATOM     71  C   UNL A   1      46.608  31.137  26.937  1.00  0.00     0.134 A 
ATOM     72  C   UNL A   1      47.479  31.534  29.115  1.00  0.00     0.134 A 
ATOM     73  F   UNL A   1      45.907  30.422  26.046  1.00  0.00    -0.206 F 
ATOM     74  C   UNL A   1      47.119  32.369  26.503  1.00  0.00     0.040 A 
ATOM     75  C   UNL A   1      48.001  32.760  28.690  1.00  0.00     0.040 A 
ATOM     76  F   UNL A   1      47.637  31.247  30.414  1.00  0.00    -0.206 F 
ATOM     77  C   UNL A   1      47.806  33.193  27.386  1.00  0.00     0.006 A 
ENDBRANCH  49  70
BRANCH  61  78
ATOM     78  C   UNL A   1      45.523  25.717  31.880  1.00  0.00     0.057 A 
ATOM     79  C   UNL A   1      46.575  25.480  32.778  1.00  0.00     0.134 A 
ATOM     80  C   UNL A   1      44.450  26.479  32.359  1.00  0.00     0.134 A 
ATOM     81  F   UNL A   1      47.695  24.855  32.394  1.00  0.00    -0.206 F 
ATOM     82  C   UNL A   1      46.536  25.938  34.101  1.00  0.00     0.040 A 
ATOM     83  C   UNL A   1      44.416  26.974  33.664  1.00  0.00     0.040 A 
ATOM     84  F   UNL A   1      43.429  26.797  31.545  1.00  0.00    -0.206 F 
ATOM     85  C   UNL A   1      45.456  26.694  34.545  1.00  0.00     0.006 A 
ENDBRANCH  61  78
ENDBRANCH  35  36
ENDBRANCH  27  30
ENDBRANCH  25  26
ENDBRANCH  24  25
ENDBRANCH   1  24
TORSDOF 13
ENDMDL
