MODEL 1
REMARK VINA RESULT:     -11.3      0.000      0.000
REMARK SMILES O=C(NCCCCNC(=O)[C@@H]1C=C[C@H](NC(=O)[C@@H]2CCSC2)C1)c1ccc(-c2c3nc(c(-c4c(F)cccc4F)c4ccc([nH]4)c(-c4c(F)cccc4F)c4nc(c(-c5c(F)cccc5F)c5ccc2[nH]5)C=C4)C=C3)cc1
REMARK SMILES IDX 5 1 4 2 3 3 1 4 2 5 24 7 25 8 77 9 26 10 76 11 27 12 28 13
REMARK SMILES IDX 29 14 70 15 30 16 75 17 69 18 71 19 31 20 74 21 68 22 67 23
REMARK SMILES IDX 32 25 58 26 41 27 57 28 42 29 45 30 56 31 72 32 43 33 44 34
REMARK SMILES IDX 55 36 73 37 46 38 33 39 34 40 39 41 35 42 36 43 38 44 40 45
REMARK SMILES IDX 37 46 59 47 60 48 65 49 61 50 62 51 64 52 66 53 63 54 47 55
REMARK SMILES IDX 48 56 53 57 49 58 50 59 52 60 54 61 51 62 6 63 7 64 8 65
REMARK SMILES IDX 9 66 10 68 11 69 12 70 23 71 13 72 14 73 15 74 16 75 17 77
REMARK SMILES IDX 18 78 19 79 22 80 20 81 21 82
REMARK H PARENT 3 6 71 24 45 35 8 67 15 76
REMARK Flexibility Score: inf
ROOT
ATOM      1  C   UNL A   1      38.097  19.990  24.775  1.00  0.00     0.023 C 
ENDROOT
BRANCH   1   2
ATOM      2  C   UNL A   1      39.081  20.051  25.937  1.00  0.00     0.116 C 
BRANCH   2   3
ATOM      3  N   UNL A   1      40.203  19.138  25.842  1.00  0.00    -0.352 N 
ATOM      4  O   UNL A   1      42.332  18.409  26.005  1.00  0.00    -0.269 OA
ATOM      5  C   UNL A   1      41.529  19.329  26.150  1.00  0.00     0.251 C 
ATOM      6  H   UNL A   1      39.980  18.240  25.504  1.00  0.00     0.163 HD
BRANCH   5   7
ATOM      7  C   UNL A   1      42.017  20.654  26.596  1.00  0.00     0.039 A 
ATOM      8  C   UNL A   1      42.130  20.982  27.948  1.00  0.00     0.014 A 
ATOM      9  C   UNL A   1      42.388  21.587  25.622  1.00  0.00     0.014 A 
ATOM     10  C   UNL A   1      42.468  22.282  28.323  1.00  0.00     0.010 A 
ATOM     11  C   UNL A   1      42.794  22.870  26.000  1.00  0.00     0.010 A 
ATOM     12  C   UNL A   1      42.803  23.242  27.353  1.00  0.00    -0.014 A 
BRANCH  12  13
ATOM     13  C   UNL A   1      43.220  24.612  27.758  1.00  0.00     0.031 A 
ATOM     14  C   UNL A   1      42.202  25.662  28.119  1.00  0.00     0.074 A 
ATOM     15  C   UNL A   1      44.532  24.917  27.778  1.00  0.00     0.049 A 
ATOM     16  N   UNL A   1      42.392  26.918  28.444  1.00  0.00    -0.248 NA
ATOM     17  C   UNL A   1      40.788  25.257  28.105  1.00  0.00     0.031 C 
ATOM     18  C   UNL A   1      45.617  23.997  27.430  1.00  0.00     0.029 A 
ATOM     19  N   UNL A   1      45.176  26.086  28.097  1.00  0.00    -0.354 N 
ATOM     20  C   UNL A   1      41.128  27.456  28.654  1.00  0.00     0.074 A 
ATOM     21  C   UNL A   1      40.174  26.396  28.403  1.00  0.00     0.031 C 
ATOM     22  C   UNL A   1      46.791  24.630  27.569  1.00  0.00     0.029 A 
ATOM     23  C   UNL A   1      46.541  26.012  27.963  1.00  0.00     0.049 A 
ATOM     24  H   UNL A   1      44.705  26.899  28.392  1.00  0.00     0.167 HD
ATOM     25  C   UNL A   1      40.797  28.715  29.029  1.00  0.00     0.037 A 
ATOM     26  C   UNL A   1      47.488  26.956  28.114  1.00  0.00     0.037 A 
ATOM     27  C   UNL A   1      41.747  29.762  29.305  1.00  0.00     0.049 A 
ATOM     28  C   UNL A   1      47.088  28.348  28.506  1.00  0.00     0.074 A 
ATOM     29  C   UNL A   1      41.504  31.048  29.760  1.00  0.00     0.029 A 
ATOM     30  N   UNL A   1      43.119  29.650  29.148  1.00  0.00    -0.354 N 
ATOM     31  N   UNL A   1      45.893  28.824  28.755  1.00  0.00    -0.248 NA
ATOM     32  C   UNL A   1      48.167  29.336  28.634  1.00  0.00     0.031 C 
ATOM     33  C   UNL A   1      42.724  31.728  29.832  1.00  0.00     0.029 A 
ATOM     34  C   UNL A   1      43.731  30.852  29.464  1.00  0.00     0.049 A 
ATOM     35  H   UNL A   1      43.590  28.836  28.854  1.00  0.00     0.167 HD
ATOM     36  C   UNL A   1      46.077  30.160  29.082  1.00  0.00     0.074 A 
ATOM     37  C   UNL A   1      47.501  30.415  29.022  1.00  0.00     0.031 C 
ATOM     38  C   UNL A   1      45.148  31.095  29.396  1.00  0.00     0.037 A 
BRANCH  25  39
ATOM     39  C   UNL A   1      39.340  29.054  29.162  1.00  0.00     0.057 A 
ATOM     40  C   UNL A   1      38.567  29.434  28.059  1.00  0.00     0.134 A 
ATOM     41  C   UNL A   1      38.684  28.899  30.391  1.00  0.00     0.134 A 
ATOM     42  F   UNL A   1      39.135  29.603  26.856  1.00  0.00    -0.206 F 
ATOM     43  C   UNL A   1      37.192  29.652  28.174  1.00  0.00     0.040 A 
ATOM     44  C   UNL A   1      37.308  29.097  30.514  1.00  0.00     0.040 A 
ATOM     45  F   UNL A   1      39.367  28.528  31.485  1.00  0.00    -0.206 F 
ATOM     46  C   UNL A   1      36.557  29.474  29.402  1.00  0.00     0.006 A 
ENDBRANCH  25  39
BRANCH  26  47
ATOM     47  C   UNL A   1      48.913  26.622  27.866  1.00  0.00     0.057 A 
ATOM     48  C   UNL A   1      49.477  26.753  26.592  1.00  0.00     0.134 A 
ATOM     49  C   UNL A   1      49.738  26.152  28.894  1.00  0.00     0.134 A 
ATOM     50  F   UNL A   1      48.729  27.178  25.563  1.00  0.00    -0.206 F 
ATOM     51  C   UNL A   1      50.807  26.411  26.345  1.00  0.00     0.040 A 
ATOM     52  C   UNL A   1      51.077  25.832  28.668  1.00  0.00     0.040 A 
ATOM     53  F   UNL A   1      49.256  26.008  30.137  1.00  0.00    -0.206 F 
ATOM     54  C   UNL A   1      51.612  25.953  27.387  1.00  0.00     0.006 A 
ENDBRANCH  26  47
BRANCH  38  55
ATOM     55  C   UNL A   1      45.649  32.472  29.715  1.00  0.00     0.057 A 
ATOM     56  C   UNL A   1      46.024  32.834  31.015  1.00  0.00     0.134 A 
ATOM     57  C   UNL A   1      45.776  33.439  28.711  1.00  0.00     0.134 A 
ATOM     58  F   UNL A   1      45.911  31.957  32.024  1.00  0.00    -0.206 F 
ATOM     59  C   UNL A   1      46.485  34.118  31.309  1.00  0.00     0.040 A 
ATOM     60  C   UNL A   1      46.258  34.719  28.988  1.00  0.00     0.040 A 
ATOM     61  F   UNL A   1      45.440  33.153  27.443  1.00  0.00    -0.206 F 
ATOM     62  C   UNL A   1      46.607  35.063  30.292  1.00  0.00     0.006 A 
ENDBRANCH  38  55
ENDBRANCH  12  13
ENDBRANCH   5   7
ENDBRANCH   2   3
ENDBRANCH   1   2
BRANCH   1  63
ATOM     63  C   UNL A   1      37.129  21.164  24.616  1.00  0.00     0.023 C 
BRANCH  63  64
ATOM     64  C   UNL A   1      37.335  22.385  25.516  1.00  0.00     0.116 C 
BRANCH  64  65
ATOM     65  N   UNL A   1      36.330  22.583  26.539  1.00  0.00    -0.356 N 
ATOM     66  C   UNL A   1      34.988  22.807  26.456  1.00  0.00     0.227 C 
ATOM     67  H   UNL A   1      36.678  22.551  27.459  1.00  0.00     0.163 HD
ATOM     68  O   UNL A   1      34.392  22.850  27.542  1.00  0.00    -0.274 OA
BRANCH  66  69
ATOM     69  C   UNL A   1      34.207  23.071  25.145  1.00  0.00     0.103 C 
ATOM     70  C   UNL A   1      32.807  23.571  25.458  1.00  0.00    -0.016 C 
ATOM     71  C   UNL A   1      33.862  21.952  24.167  1.00  0.00     0.047 C 
ATOM     72  C   UNL A   1      31.859  22.674  25.145  1.00  0.00    -0.006 C 
ATOM     73  C   UNL A   1      32.456  21.465  24.533  1.00  0.00     0.106 C 
BRANCH  73  74
ATOM     74  N   UNL A   1      32.429  20.280  25.380  1.00  0.00    -0.350 N 
ATOM     75  C   UNL A   1      32.764  18.966  25.263  1.00  0.00     0.224 C 
ATOM     76  H   UNL A   1      32.074  20.484  26.275  1.00  0.00     0.164 HD
ATOM     77  O   UNL A   1      32.361  18.228  26.167  1.00  0.00    -0.275 OA
BRANCH  75  78
ATOM     78  C   UNL A   1      33.650  18.431  24.148  1.00  0.00     0.089 C 
ATOM     79  C   UNL A   1      33.069  17.241  23.386  1.00  0.00     0.025 C 
ATOM     80  C   UNL A   1      35.000  18.005  24.707  1.00  0.00     0.083 C 
ATOM     81  C   UNL A   1      33.312  15.980  24.187  1.00  0.00     0.070 C 
ATOM     82  S   UNL A   1      34.967  16.192  24.878  1.00  0.00    -0.161 SA
ENDBRANCH  75  78
ENDBRANCH  73  74
ENDBRANCH  66  69
ENDBRANCH  64  65
ENDBRANCH  63  64
ENDBRANCH   1  63
TORSDOF 13
ENDMDL
MODEL 2
REMARK VINA RESULT:     -11.3      5.275      9.884
REMARK SMILES O=C(NCCCCNC(=O)[C@@H]1C=C[C@H](NC(=O)[C@@H]2CCSC2)C1)c1ccc(-c2c3nc(c(-c4c(F)cccc4F)c4ccc([nH]4)c(-c4c(F)cccc4F)c4nc(c(-c5c(F)cccc5F)c5ccc2[nH]5)C=C4)C=C3)cc1
REMARK SMILES IDX 5 1 4 2 3 3 1 4 2 5 24 7 25 8 77 9 26 10 76 11 27 12 28 13
REMARK SMILES IDX 29 14 70 15 30 16 75 17 69 18 71 19 31 20 74 21 68 22 67 23
REMARK SMILES IDX 32 25 58 26 41 27 57 28 42 29 45 30 56 31 72 32 43 33 44 34
REMARK SMILES IDX 55 36 73 37 46 38 33 39 34 40 39 41 35 42 36 43 38 44 40 45
REMARK SMILES IDX 37 46 59 47 60 48 65 49 61 50 62 51 64 52 66 53 63 54 47 55
REMARK SMILES IDX 48 56 53 57 49 58 50 59 52 60 54 61 51 62 6 63 7 64 8 65
REMARK SMILES IDX 9 66 10 68 11 69 12 70 23 71 13 72 14 73 15 74 16 75 17 77
REMARK SMILES IDX 18 78 19 79 22 80 20 81 21 82
REMARK H PARENT 3 6 71 24 45 35 8 67 15 76
REMARK Flexibility Score: inf
ROOT
ATOM      1  C   UNL A   1      31.245  31.963  26.501  1.00  0.00     0.023 C 
ENDROOT
BRANCH   1   2
ATOM      2  C   UNL A   1      32.506  32.661  26.997  1.00  0.00     0.116 C 
BRANCH   2   3
ATOM      3  N   UNL A   1      32.297  33.978  27.566  1.00  0.00    -0.352 N 
ATOM      4  O   UNL A   1      32.694  35.799  28.838  1.00  0.00    -0.269 OA
ATOM      5  C   UNL A   1      33.042  34.672  28.490  1.00  0.00     0.251 C 
ATOM      6  H   UNL A   1      31.497  34.450  27.239  1.00  0.00     0.163 HD
BRANCH   5   7
ATOM      7  C   UNL A   1      34.230  34.052  29.121  1.00  0.00     0.039 A 
ATOM      8  C   UNL A   1      35.529  34.369  28.721  1.00  0.00     0.014 A 
ATOM      9  C   UNL A   1      34.027  33.137  30.160  1.00  0.00     0.014 A 
ATOM     10  C   UNL A   1      36.611  33.666  29.250  1.00  0.00     0.010 A 
ATOM     11  C   UNL A   1      35.118  32.483  30.739  1.00  0.00     0.010 A 
ATOM     12  C   UNL A   1      36.418  32.714  30.265  1.00  0.00    -0.014 A 
BRANCH  12  13
ATOM     13  C   UNL A   1      37.580  32.008  30.869  1.00  0.00     0.031 A 
ATOM     14  C   UNL A   1      38.331  30.948  30.107  1.00  0.00     0.074 A 
ATOM     15  C   UNL A   1      37.947  32.312  32.130  1.00  0.00     0.049 A 
ATOM     16  N   UNL A   1      39.334  30.202  30.503  1.00  0.00    -0.248 NA
ATOM     17  C   UNL A   1      37.900  30.684  28.726  1.00  0.00     0.031 C 
ATOM     18  C   UNL A   1      37.290  33.304  32.983  1.00  0.00     0.029 A 
ATOM     19  N   UNL A   1      38.957  31.815  32.915  1.00  0.00    -0.354 N 
ATOM     20  C   UNL A   1      39.639  29.370  29.433  1.00  0.00     0.074 A 
ATOM     21  C   UNL A   1      38.705  29.689  28.373  1.00  0.00     0.031 C 
ATOM     22  C   UNL A   1      37.920  33.353  34.166  1.00  0.00     0.029 A 
ATOM     23  C   UNL A   1      38.990  32.362  34.174  1.00  0.00     0.049 A 
ATOM     24  H   UNL A   1      39.593  31.130  32.606  1.00  0.00     0.167 HD
ATOM     25  C   UNL A   1      40.612  28.432  29.342  1.00  0.00     0.037 A 
ATOM     26  C   UNL A   1      39.776  32.083  35.231  1.00  0.00     0.037 A 
ATOM     27  C   UNL A   1      41.559  28.132  30.386  1.00  0.00     0.049 A 
ATOM     28  C   UNL A   1      40.830  31.021  35.106  1.00  0.00     0.074 A 
ATOM     29  C   UNL A   1      42.625  27.248  30.354  1.00  0.00     0.029 A 
ATOM     30  N   UNL A   1      41.553  28.702  31.649  1.00  0.00    -0.354 N 
ATOM     31  N   UNL A   1      41.140  30.284  34.069  1.00  0.00    -0.248 NA
ATOM     32  C   UNL A   1      41.640  30.750  36.301  1.00  0.00     0.031 C 
ATOM     33  C   UNL A   1      43.234  27.247  31.614  1.00  0.00     0.029 A 
ATOM     34  C   UNL A   1      42.575  28.163  32.415  1.00  0.00     0.049 A 
ATOM     35  H   UNL A   1      40.916  29.387  31.957  1.00  0.00     0.167 HD
ATOM     36  C   UNL A   1      42.188  29.472  34.480  1.00  0.00     0.074 A 
ATOM     37  C   UNL A   1      42.476  29.823  35.855  1.00  0.00     0.031 C 
ATOM     38  C   UNL A   1      42.849  28.517  33.783  1.00  0.00     0.037 A 
BRANCH  25  39
ATOM     39  C   UNL A   1      40.716  27.640  28.070  1.00  0.00     0.057 A 
ATOM     40  C   UNL A   1      41.503  28.070  26.995  1.00  0.00     0.134 A 
ATOM     41  C   UNL A   1      40.102  26.385  27.962  1.00  0.00     0.134 A 
ATOM     42  F   UNL A   1      42.115  29.264  27.034  1.00  0.00    -0.206 F 
ATOM     43  C   UNL A   1      41.673  27.280  25.855  1.00  0.00     0.040 A 
ATOM     44  C   UNL A   1      40.279  25.580  26.836  1.00  0.00     0.040 A 
ATOM     45  F   UNL A   1      39.342  25.911  28.961  1.00  0.00    -0.206 F 
ATOM     46  C   UNL A   1      41.068  26.027  25.778  1.00  0.00     0.006 A 
ENDBRANCH  25  39
BRANCH  26  47
ATOM     47  C   UNL A   1      39.577  32.803  36.513  1.00  0.00     0.057 A 
ATOM     48  C   UNL A   1      38.600  32.397  37.429  1.00  0.00     0.134 A 
ATOM     49  C   UNL A   1      40.352  33.921  36.845  1.00  0.00     0.134 A 
ATOM     50  F   UNL A   1      37.813  31.346  37.155  1.00  0.00    -0.206 F 
ATOM     51  C   UNL A   1      38.387  33.089  38.621  1.00  0.00     0.040 A 
ATOM     52  C   UNL A   1      40.168  34.605  38.046  1.00  0.00     0.040 A 
ATOM     53  F   UNL A   1      41.306  34.356  36.010  1.00  0.00    -0.206 F 
ATOM     54  C   UNL A   1      39.177  34.194  38.935  1.00  0.00     0.006 A 
ENDBRANCH  26  47
BRANCH  38  55
ATOM     55  C   UNL A   1      43.956  27.798  34.494  1.00  0.00     0.057 A 
ATOM     56  C   UNL A   1      43.739  26.577  35.145  1.00  0.00     0.134 A 
ATOM     57  C   UNL A   1      45.254  28.322  34.513  1.00  0.00     0.134 A 
ATOM     58  F   UNL A   1      42.514  26.031  35.176  1.00  0.00    -0.206 F 
ATOM     59  C   UNL A   1      44.771  25.914  35.810  1.00  0.00     0.040 A 
ATOM     60  C   UNL A   1      46.299  27.656  35.155  1.00  0.00     0.040 A 
ATOM     61  F   UNL A   1      45.529  29.485  33.903  1.00  0.00    -0.206 F 
ATOM     62  C   UNL A   1      46.057  26.451  35.812  1.00  0.00     0.006 A 
ENDBRANCH  38  55
ENDBRANCH  12  13
ENDBRANCH   5   7
ENDBRANCH   2   3
ENDBRANCH   1   2
BRANCH   1  63
ATOM     63  C   UNL A   1      31.423  30.622  25.786  1.00  0.00     0.023 C 
BRANCH  63  64
ATOM     64  C   UNL A   1      32.490  29.665  26.321  1.00  0.00     0.116 C 
BRANCH  64  65
ATOM     65  N   UNL A   1      31.995  28.404  26.833  1.00  0.00    -0.356 N 
ATOM     66  C   UNL A   1      31.635  27.251  26.202  1.00  0.00     0.227 C 
ATOM     67  H   UNL A   1      31.902  28.374  27.813  1.00  0.00     0.163 HD
ATOM     68  O   UNL A   1      31.328  26.313  26.950  1.00  0.00    -0.274 OA
BRANCH  66  69
ATOM     69  C   UNL A   1      31.522  27.073  24.668  1.00  0.00     0.103 C 
ATOM     70  C   UNL A   1      30.070  27.178  24.231  1.00  0.00    -0.016 C 
ATOM     71  C   UNL A   1      31.899  25.767  23.973  1.00  0.00     0.047 C 
ATOM     72  C   UNL A   1      29.574  26.004  23.808  1.00  0.00    -0.006 C 
ATOM     73  C   UNL A   1      30.611  24.948  23.844  1.00  0.00     0.106 C 
BRANCH  73  74
ATOM     74  N   UNL A   1      30.424  23.949  24.888  1.00  0.00    -0.350 N 
ATOM     75  C   UNL A   1      31.093  22.860  25.353  1.00  0.00     0.224 C 
ATOM     76  H   UNL A   1      29.592  24.104  25.391  1.00  0.00     0.164 HD
ATOM     77  O   UNL A   1      30.462  22.133  26.127  1.00  0.00    -0.275 OA
BRANCH  75  78
ATOM     78  C   UNL A   1      32.552  22.578  25.026  1.00  0.00     0.089 C 
ATOM     79  C   UNL A   1      32.788  21.935  23.661  1.00  0.00     0.025 C 
ATOM     80  C   UNL A   1      33.160  21.662  26.079  1.00  0.00     0.083 C 
ATOM     81  C   UNL A   1      32.523  20.448  23.767  1.00  0.00     0.070 C 
ATOM     82  S   UNL A   1      33.194  19.982  25.378  1.00  0.00    -0.161 SA
ENDBRANCH  75  78
ENDBRANCH  73  74
ENDBRANCH  66  69
ENDBRANCH  64  65
ENDBRANCH  63  64
ENDBRANCH   1  63
TORSDOF 13
ENDMDL
MODEL 3
REMARK VINA RESULT:     -11.3      0.780      1.568
REMARK SMILES O=C(NCCCCNC(=O)[C@@H]1C=C[C@H](NC(=O)[C@@H]2CCSC2)C1)c1ccc(-c2c3nc(c(-c4c(F)cccc4F)c4ccc([nH]4)c(-c4c(F)cccc4F)c4nc(c(-c5c(F)cccc5F)c5ccc2[nH]5)C=C4)C=C3)cc1
REMARK SMILES IDX 5 1 4 2 3 3 1 4 2 5 24 7 25 8 77 9 26 10 76 11 27 12 28 13
REMARK SMILES IDX 29 14 70 15 30 16 75 17 69 18 71 19 31 20 74 21 68 22 67 23
REMARK SMILES IDX 32 25 58 26 41 27 57 28 42 29 45 30 56 31 72 32 43 33 44 34
REMARK SMILES IDX 55 36 73 37 46 38 33 39 34 40 39 41 35 42 36 43 38 44 40 45
REMARK SMILES IDX 37 46 59 47 60 48 65 49 61 50 62 51 64 52 66 53 63 54 47 55
REMARK SMILES IDX 48 56 53 57 49 58 50 59 52 60 54 61 51 62 6 63 7 64 8 65
REMARK SMILES IDX 9 66 10 68 11 69 12 70 23 71 13 72 14 73 15 74 16 75 17 77
REMARK SMILES IDX 18 78 19 79 22 80 20 81 21 82
REMARK H PARENT 3 6 71 24 45 35 8 67 15 76
REMARK Flexibility Score: inf
ROOT
ATOM      1  C   UNL A   1      38.123  19.991  24.681  1.00  0.00     0.023 C 
ENDROOT
BRANCH   1   2
ATOM      2  C   UNL A   1      39.073  20.013  25.873  1.00  0.00     0.116 C 
BRANCH   2   3
ATOM      3  N   UNL A   1      40.248  19.174  25.739  1.00  0.00    -0.352 N 
ATOM      4  O   UNL A   1      42.413  18.559  25.899  1.00  0.00    -0.269 OA
ATOM      5  C   UNL A   1      41.555  19.418  26.091  1.00  0.00     0.251 C 
ATOM      6  H   UNL A   1      40.085  18.292  25.332  1.00  0.00     0.163 HD
BRANCH   5   7
ATOM      7  C   UNL A   1      41.955  20.733  26.644  1.00  0.00     0.039 A 
ATOM      8  C   UNL A   1      41.935  20.994  28.015  1.00  0.00     0.014 A 
ATOM      9  C   UNL A   1      42.378  21.725  25.753  1.00  0.00     0.014 A 
ATOM     10  C   UNL A   1      42.193  22.283  28.481  1.00  0.00     0.010 A 
ATOM     11  C   UNL A   1      42.705  22.999  26.229  1.00  0.00     0.010 A 
ATOM     12  C   UNL A   1      42.580  23.301  27.593  1.00  0.00    -0.014 A 
BRANCH  12  13
ATOM     13  C   UNL A   1      42.911  24.660  28.100  1.00  0.00     0.031 A 
ATOM     14  C   UNL A   1      41.836  25.689  28.333  1.00  0.00     0.074 A 
ATOM     15  C   UNL A   1      44.201  24.975  28.331  1.00  0.00     0.049 A 
ATOM     16  N   UNL A   1      41.958  26.935  28.724  1.00  0.00    -0.248 NA
ATOM     17  C   UNL A   1      40.447  25.273  28.090  1.00  0.00     0.031 C 
ATOM     18  C   UNL A   1      45.338  24.076  28.126  1.00  0.00     0.029 A 
ATOM     19  N   UNL A   1      44.773  26.138  28.783  1.00  0.00    -0.354 N 
ATOM     20  C   UNL A   1      40.670  27.455  28.754  1.00  0.00     0.074 A 
ATOM     21  C   UNL A   1      39.779  26.397  28.326  1.00  0.00     0.031 C 
ATOM     22  C   UNL A   1      46.469  24.714  28.463  1.00  0.00     0.029 A 
ATOM     23  C   UNL A   1      46.143  26.080  28.858  1.00  0.00     0.049 A 
ATOM     24  H   UNL A   1      44.252  26.937  29.027  1.00  0.00     0.167 HD
ATOM     25  C   UNL A   1      40.268  28.698  29.113  1.00  0.00     0.037 A 
ATOM     26  C   UNL A   1      47.044  27.026  29.182  1.00  0.00     0.037 A 
ATOM     27  C   UNL A   1      41.151  29.744  29.565  1.00  0.00     0.049 A 
ATOM     28  C   UNL A   1      46.569  28.401  29.551  1.00  0.00     0.074 A 
ATOM     29  C   UNL A   1      40.824  31.011  30.017  1.00  0.00     0.029 A 
ATOM     30  N   UNL A   1      42.532  29.648  29.616  1.00  0.00    -0.354 N 
ATOM     31  N   UNL A   1      45.344  28.859  29.629  1.00  0.00    -0.248 NA
ATOM     32  C   UNL A   1      47.603  29.394  29.875  1.00  0.00     0.031 C 
ATOM     33  C   UNL A   1      42.009  31.699  30.297  1.00  0.00     0.029 A 
ATOM     34  C   UNL A   1      43.072  30.844  30.061  1.00  0.00     0.049 A 
ATOM     35  H   UNL A   1      43.053  28.848  29.373  1.00  0.00     0.167 HD
ATOM     36  C   UNL A   1      45.458  30.185  30.021  1.00  0.00     0.074 A 
ATOM     37  C   UNL A   1      46.871  30.453  30.189  1.00  0.00     0.031 C 
ATOM     38  C   UNL A   1      44.480  31.101  30.219  1.00  0.00     0.037 A 
BRANCH  25  39
ATOM     39  C   UNL A   1      38.804  29.020  29.031  1.00  0.00     0.057 A 
ATOM     40  C   UNL A   1      37.970  28.954  30.154  1.00  0.00     0.134 A 
ATOM     41  C   UNL A   1      38.247  29.500  27.839  1.00  0.00     0.134 A 
ATOM     42  F   UNL A   1      38.441  28.499  31.325  1.00  0.00    -0.206 F 
ATOM     43  C   UNL A   1      36.632  29.349  30.092  1.00  0.00     0.040 A 
ATOM     44  C   UNL A   1      36.916  29.915  27.769  1.00  0.00     0.040 A 
ATOM     45  F   UNL A   1      38.995  29.597  26.729  1.00  0.00    -0.206 F 
ATOM     46  C   UNL A   1      36.104  29.841  28.899  1.00  0.00     0.006 A 
ENDBRANCH  25  39
BRANCH  26  47
ATOM     47  C   UNL A   1      48.494  26.712  29.145  1.00  0.00     0.057 A 
ATOM     48  C   UNL A   1      49.154  26.199  30.267  1.00  0.00     0.134 A 
ATOM     49  C   UNL A   1      49.255  26.930  27.990  1.00  0.00     0.134 A 
ATOM     50  F   UNL A   1      48.481  25.990  31.409  1.00  0.00    -0.206 F 
ATOM     51  C   UNL A   1      50.522  25.931  30.248  1.00  0.00     0.040 A 
ATOM     52  C   UNL A   1      50.618  26.641  27.949  1.00  0.00     0.040 A 
ATOM     53  F   UNL A   1      48.678  27.417  26.881  1.00  0.00    -0.206 F 
ATOM     54  C   UNL A   1      51.258  26.148  29.084  1.00  0.00     0.006 A 
ENDBRANCH  26  47
BRANCH  38  55
ATOM     55  C   UNL A   1      44.907  32.470  30.654  1.00  0.00     0.057 A 
ATOM     56  C   UNL A   1      45.085  32.790  32.007  1.00  0.00     0.134 A 
ATOM     57  C   UNL A   1      45.163  33.474  29.712  1.00  0.00     0.134 A 
ATOM     58  F   UNL A   1      44.840  31.875  32.958  1.00  0.00    -0.206 F 
ATOM     59  C   UNL A   1      45.478  34.067  32.407  1.00  0.00     0.040 A 
ATOM     60  C   UNL A   1      45.579  34.748  30.100  1.00  0.00     0.040 A 
ATOM     61  F   UNL A   1      45.018  33.231  28.401  1.00  0.00    -0.206 F 
ATOM     62  C   UNL A   1      45.731  35.050  31.452  1.00  0.00     0.006 A 
ENDBRANCH  38  55
ENDBRANCH  12  13
ENDBRANCH   5   7
ENDBRANCH   2   3
ENDBRANCH   1   2
BRANCH   1  63
ATOM     63  C   UNL A   1      37.022  21.053  24.645  1.00  0.00     0.023 C 
BRANCH  63  64
ATOM     64  C   UNL A   1      37.228  22.323  25.474  1.00  0.00     0.116 C 
BRANCH  64  65
ATOM     65  N   UNL A   1      36.273  22.532  26.541  1.00  0.00    -0.356 N 
ATOM     66  C   UNL A   1      34.937  22.804  26.518  1.00  0.00     0.227 C 
ATOM     67  H   UNL A   1      36.657  22.468  27.445  1.00  0.00     0.163 HD
ATOM     68  O   UNL A   1      34.387  22.843  27.628  1.00  0.00    -0.274 OA
BRANCH  66  69
ATOM     69  C   UNL A   1      34.114  23.123  25.246  1.00  0.00     0.103 C 
ATOM     70  C   UNL A   1      32.725  23.609  25.626  1.00  0.00    -0.016 C 
ATOM     71  C   UNL A   1      33.735  22.045  24.234  1.00  0.00     0.047 C 
ATOM     72  C   UNL A   1      31.766  22.725  25.307  1.00  0.00    -0.006 C 
ATOM     73  C   UNL A   1      32.341  21.543  24.626  1.00  0.00     0.106 C 
BRANCH  73  74
ATOM     74  N   UNL A   1      32.341  20.323  25.422  1.00  0.00    -0.350 N 
ATOM     75  C   UNL A   1      32.714  19.026  25.255  1.00  0.00     0.224 C 
ATOM     76  H   UNL A   1      31.973  20.480  26.321  1.00  0.00     0.164 HD
ATOM     77  O   UNL A   1      32.324  18.240  26.123  1.00  0.00    -0.275 OA
BRANCH  75  78
ATOM     78  C   UNL A   1      33.624  18.562  24.127  1.00  0.00     0.089 C 
ATOM     79  C   UNL A   1      33.064  17.420  23.282  1.00  0.00     0.025 C 
ATOM     80  C   UNL A   1      34.965  18.107  24.686  1.00  0.00     0.083 C 
ATOM     81  C   UNL A   1      33.296  16.112  24.010  1.00  0.00     0.070 C 
ATOM     82  S   UNL A   1      34.937  16.288  24.745  1.00  0.00    -0.161 SA
ENDBRANCH  75  78
ENDBRANCH  73  74
ENDBRANCH  66  69
ENDBRANCH  64  65
ENDBRANCH  63  64
ENDBRANCH   1  63
TORSDOF 13
ENDMDL
