MODEL 1
REMARK VINA RESULT:     -12.9      0.000      0.000
REMARK SMILES O=C(NCCCCNC(=O)c1ccc2c(c1)[C@@H]1C=CC[C@@H]1[C@H](c1ccncc1)N2)c1ccc(-c2c3nc(c(-c4c(F)cccc4F)c4ccc([nH]4)c(-c4c(F)cccc4F)c4nc(c(-c5c(F)cccc5F)c5ccc2[nH]5)C=C4)C=C3)cc1
REMARK SMILES IDX 5 1 4 2 3 3 1 4 2 5 30 7 31 8 83 9 32 10 82 11 33 12 34 13
REMARK SMILES IDX 35 14 76 15 36 16 81 17 75 18 77 19 37 20 80 21 74 22 73 23
REMARK SMILES IDX 38 25 64 26 47 27 63 28 48 29 51 30 62 31 78 32 49 33 50 34
REMARK SMILES IDX 61 36 79 37 52 38 39 39 40 40 45 41 41 42 42 43 44 44 46 45
REMARK SMILES IDX 43 46 65 47 66 48 71 49 67 50 68 51 70 52 72 53 69 54 53 55
REMARK SMILES IDX 54 56 59 57 55 58 56 59 58 60 60 61 57 62 6 63 7 64 8 65
REMARK SMILES IDX 9 66 10 68 11 69 12 70 16 71 13 72 15 73 14 74 17 75 29 76
REMARK SMILES IDX 18 77 21 78 22 79 19 81 20 82 23 83 24 84 28 85 25 86 27 87
REMARK SMILES IDX 26 88
REMARK H PARENT 3 6 77 24 51 35 8 67 29 80
REMARK Flexibility Score: inf
ROOT
ATOM      1  C   UNL A   1      37.639  20.039  24.603  1.00  0.00     0.023 C 
ENDROOT
BRANCH   1   2
ATOM      2  C   UNL A   1      38.632  20.277  25.734  1.00  0.00     0.116 C 
BRANCH   2   3
ATOM      3  N   UNL A   1      39.750  19.345  25.715  1.00  0.00    -0.352 N 
ATOM      4  O   UNL A   1      41.898  18.670  25.826  1.00  0.00    -0.269 OA
ATOM      5  C   UNL A   1      41.070  19.553  26.033  1.00  0.00     0.251 C 
ATOM      6  H   UNL A   1      39.525  18.430  25.433  1.00  0.00     0.163 HD
BRANCH   5   7
ATOM      7  C   UNL A   1      41.503  20.850  26.596  1.00  0.00     0.039 A 
ATOM      8  C   UNL A   1      41.456  21.090  27.971  1.00  0.00     0.014 A 
ATOM      9  C   UNL A   1      41.969  21.841  25.726  1.00  0.00     0.014 A 
ATOM     10  C   UNL A   1      41.732  22.362  28.461  1.00  0.00     0.010 A 
ATOM     11  C   UNL A   1      42.320  23.096  26.228  1.00  0.00     0.010 A 
ATOM     12  C   UNL A   1      42.168  23.378  27.595  1.00  0.00    -0.014 A 
BRANCH  12  13
ATOM     13  C   UNL A   1      42.495  24.719  28.138  1.00  0.00     0.031 A 
ATOM     14  C   UNL A   1      43.904  25.075  28.523  1.00  0.00     0.074 A 
ATOM     15  C   UNL A   1      41.510  25.627  28.274  1.00  0.00     0.049 A 
ATOM     16  N   UNL A   1      44.362  26.189  29.036  1.00  0.00    -0.248 NA
ATOM     17  C   UNL A   1      44.931  24.042  28.312  1.00  0.00     0.031 C 
ATOM     18  C   UNL A   1      40.103  25.398  27.939  1.00  0.00     0.029 A 
ATOM     19  N   UNL A   1      41.540  26.922  28.723  1.00  0.00    -0.354 N 
ATOM     20  C   UNL A   1      45.723  25.986  29.230  1.00  0.00     0.074 A 
ATOM     21  C   UNL A   1      46.014  24.635  28.798  1.00  0.00     0.031 C 
ATOM     22  C   UNL A   1      39.410  26.524  28.166  1.00  0.00     0.029 A 
ATOM     23  C   UNL A   1      40.311  27.533  28.712  1.00  0.00     0.049 A 
ATOM     24  H   UNL A   1      42.364  27.370  29.024  1.00  0.00     0.167 HD
ATOM     25  C   UNL A   1      46.645  26.852  29.717  1.00  0.00     0.037 A 
ATOM     26  C   UNL A   1      39.944  28.763  29.115  1.00  0.00     0.037 A 
ATOM     27  C   UNL A   1      46.357  28.202  30.128  1.00  0.00     0.049 A 
ATOM     28  C   UNL A   1      40.981  29.696  29.667  1.00  0.00     0.074 A 
ATOM     29  C   UNL A   1      47.231  29.166  30.600  1.00  0.00     0.029 A 
ATOM     30  N   UNL A   1      45.096  28.779  30.116  1.00  0.00    -0.354 N 
ATOM     31  N   UNL A   1      42.267  29.498  29.823  1.00  0.00    -0.248 NA
ATOM     32  C   UNL A   1      40.515  31.018  30.105  1.00  0.00     0.031 C 
ATOM     33  C   UNL A   1      46.493  30.314  30.908  1.00  0.00     0.029 A 
ATOM     34  C   UNL A   1      45.165  30.079  30.590  1.00  0.00     0.049 A 
ATOM     35  H   UNL A   1      44.272  28.331  29.814  1.00  0.00     0.167 HD
ATOM     36  C   UNL A   1      42.769  30.675  30.360  1.00  0.00     0.074 A 
ATOM     37  C   UNL A   1      41.650  31.585  30.491  1.00  0.00     0.031 C 
ATOM     38  C   UNL A   1      44.043  30.973  30.714  1.00  0.00     0.037 A 
BRANCH  25  39
ATOM     39  C   UNL A   1      48.055  26.356  29.852  1.00  0.00     0.057 A 
ATOM     40  C   UNL A   1      48.991  26.494  28.819  1.00  0.00     0.134 A 
ATOM     41  C   UNL A   1      48.492  25.766  31.045  1.00  0.00     0.134 A 
ATOM     42  F   UNL A   1      48.633  27.039  27.646  1.00  0.00    -0.206 F 
ATOM     43  C   UNL A   1      50.305  26.043  28.959  1.00  0.00     0.040 A 
ATOM     44  C   UNL A   1      49.810  25.331  31.205  1.00  0.00     0.040 A 
ATOM     45  F   UNL A   1      47.650  25.611  32.077  1.00  0.00    -0.206 F 
ATOM     46  C   UNL A   1      50.718  25.465  30.158  1.00  0.00     0.006 A 
ENDBRANCH  25  39
BRANCH  26  47
ATOM     47  C   UNL A   1      38.524  29.172  29.005  1.00  0.00     0.057 A 
ATOM     48  C   UNL A   1      37.672  29.126  30.112  1.00  0.00     0.134 A 
ATOM     49  C   UNL A   1      37.997  29.651  27.799  1.00  0.00     0.134 A 
ATOM     50  F   UNL A   1      38.118  28.663  31.289  1.00  0.00    -0.206 F 
ATOM     51  C   UNL A   1      36.341  29.537  30.025  1.00  0.00     0.040 A 
ATOM     52  C   UNL A   1      36.675  30.085  27.704  1.00  0.00     0.040 A 
ATOM     53  F   UNL A   1      38.769  29.726  26.706  1.00  0.00    -0.206 F 
ATOM     54  C   UNL A   1      35.841  30.025  28.819  1.00  0.00     0.006 A 
ENDBRANCH  26  47
BRANCH  38  55
ATOM     55  C   UNL A   1      44.295  32.348  31.252  1.00  0.00     0.057 A 
ATOM     56  C   UNL A   1      44.262  32.619  32.625  1.00  0.00     0.134 A 
ATOM     57  C   UNL A   1      44.606  33.405  30.388  1.00  0.00     0.134 A 
ATOM     58  F   UNL A   1      43.955  31.651  33.502  1.00  0.00    -0.206 F 
ATOM     59  C   UNL A   1      44.512  33.900  33.119  1.00  0.00     0.040 A 
ATOM     60  C   UNL A   1      44.878  34.685  30.872  1.00  0.00     0.040 A 
ATOM     61  F   UNL A   1      44.658  33.208  29.062  1.00  0.00    -0.206 F 
ATOM     62  C   UNL A   1      44.826  34.936  32.241  1.00  0.00     0.006 A 
ENDBRANCH  38  55
ENDBRANCH  12  13
ENDBRANCH   5   7
ENDBRANCH   2   3
ENDBRANCH   1   2
BRANCH   1  63
ATOM     63  C   UNL A   1      36.167  20.086  25.005  1.00  0.00     0.023 C 
BRANCH  63  64
ATOM     64  C   UNL A   1      35.617  21.472  25.320  1.00  0.00     0.116 C 
BRANCH  64  65
ATOM     65  N   UNL A   1      35.180  21.612  26.702  1.00  0.00    -0.352 N 
ATOM     66  C   UNL A   1      34.246  22.475  27.225  1.00  0.00     0.251 C 
ATOM     67  H   UNL A   1      35.611  21.007  27.348  1.00  0.00     0.163 HD
ATOM     68  O   UNL A   1      34.072  22.545  28.437  1.00  0.00    -0.269 OA
BRANCH  66  69
ATOM     69  C   UNL A   1      33.472  23.341  26.314  1.00  0.00     0.040 A 
ATOM     70  C   UNL A   1      32.248  22.891  25.828  1.00  0.00     0.016 A 
ATOM     71  C   UNL A   1      33.927  24.621  25.998  1.00  0.00     0.020 A 
ATOM     72  C   UNL A   1      31.459  23.751  25.062  1.00  0.00     0.027 A 
ATOM     73  C   UNL A   1      33.100  25.513  25.298  1.00  0.00    -0.017 A 
ATOM     74  C   UNL A   1      31.878  25.060  24.777  1.00  0.00     0.038 A 
ATOM     75  C   UNL A   1      33.523  26.957  25.151  1.00  0.00     0.049 C 
ATOM     76  N   UNL A   1      31.028  25.904  24.075  1.00  0.00    -0.378 N 
ATOM     77  C   UNL A   1      33.800  27.617  26.483  1.00  0.00    -0.023 C 
ATOM     78  C   UNL A   1      32.412  27.876  24.613  1.00  0.00     0.031 C 
ATOM     79  C   UNL A   1      31.532  27.176  23.576  1.00  0.00     0.114 C 
ATOM     80  H   UNL A   1      30.091  25.646  23.916  1.00  0.00     0.161 HD
ATOM     81  C   UNL A   1      32.792  28.407  26.872  1.00  0.00    -0.030 C 
ATOM     82  C   UNL A   1      31.692  28.419  25.860  1.00  0.00     0.034 C 
BRANCH  79  83
ATOM     83  C   UNL A   1      30.412  28.080  23.084  1.00  0.00    -0.022 A 
ATOM     84  C   UNL A   1      29.081  27.733  23.358  1.00  0.00     0.026 A 
ATOM     85  C   UNL A   1      30.638  29.239  22.332  1.00  0.00     0.026 A 
ATOM     86  C   UNL A   1      28.061  28.544  22.886  1.00  0.00     0.111 A 
ATOM     87  C   UNL A   1      29.551  29.994  21.917  1.00  0.00     0.111 A 
ATOM     88  N   UNL A   1      28.268  29.671  22.177  1.00  0.00    -0.265 NA
ENDBRANCH  79  83
ENDBRANCH  66  69
ENDBRANCH  64  65
ENDBRANCH  63  64
ENDBRANCH   1  63
TORSDOF 12
ENDMDL
MODEL 2
REMARK VINA RESULT:     -12.8      0.272      6.158
REMARK SMILES O=C(NCCCCNC(=O)c1ccc2c(c1)[C@@H]1C=CC[C@@H]1[C@H](c1ccncc1)N2)c1ccc(-c2c3nc(c(-c4c(F)cccc4F)c4ccc([nH]4)c(-c4c(F)cccc4F)c4nc(c(-c5c(F)cccc5F)c5ccc2[nH]5)C=C4)C=C3)cc1
REMARK SMILES IDX 5 1 4 2 3 3 1 4 2 5 30 7 31 8 83 9 32 10 82 11 33 12 34 13
REMARK SMILES IDX 35 14 76 15 36 16 81 17 75 18 77 19 37 20 80 21 74 22 73 23
REMARK SMILES IDX 38 25 64 26 47 27 63 28 48 29 51 30 62 31 78 32 49 33 50 34
REMARK SMILES IDX 61 36 79 37 52 38 39 39 40 40 45 41 41 42 42 43 44 44 46 45
REMARK SMILES IDX 43 46 65 47 66 48 71 49 67 50 68 51 70 52 72 53 69 54 53 55
REMARK SMILES IDX 54 56 59 57 55 58 56 59 58 60 60 61 57 62 6 63 7 64 8 65
REMARK SMILES IDX 9 66 10 68 11 69 12 70 16 71 13 72 15 73 14 74 17 75 29 76
REMARK SMILES IDX 18 77 21 78 22 79 19 81 20 82 23 83 24 84 28 85 25 86 27 87
REMARK SMILES IDX 26 88
REMARK H PARENT 3 6 77 24 51 35 8 67 29 80
REMARK Flexibility Score: inf
ROOT
ATOM      1  C   UNL A   1      37.573  20.144  24.615  1.00  0.00     0.023 C 
ENDROOT
BRANCH   1   2
ATOM      2  C   UNL A   1      38.577  20.375  25.738  1.00  0.00     0.116 C 
BRANCH   2   3
ATOM      3  N   UNL A   1      39.659  19.402  25.743  1.00  0.00    -0.352 N 
ATOM      4  O   UNL A   1      41.780  18.649  25.883  1.00  0.00    -0.269 OA
ATOM      5  C   UNL A   1      40.983  19.565  26.070  1.00  0.00     0.251 C 
ATOM      6  H   UNL A   1      39.403  18.492  25.472  1.00  0.00     0.163 HD
BRANCH   5   7
ATOM      7  C   UNL A   1      41.460  20.853  26.618  1.00  0.00     0.039 A 
ATOM      8  C   UNL A   1      41.411  21.115  27.989  1.00  0.00     0.014 A 
ATOM      9  C   UNL A   1      41.969  21.813  25.738  1.00  0.00     0.014 A 
ATOM     10  C   UNL A   1      41.730  22.383  28.462  1.00  0.00     0.010 A 
ATOM     11  C   UNL A   1      42.362  23.062  26.225  1.00  0.00     0.010 A 
ATOM     12  C   UNL A   1      42.210  23.369  27.586  1.00  0.00    -0.014 A 
BRANCH  12  13
ATOM     13  C   UNL A   1      42.583  24.706  28.113  1.00  0.00     0.031 A 
ATOM     14  C   UNL A   1      41.541  25.765  28.338  1.00  0.00     0.074 A 
ATOM     15  C   UNL A   1      43.874  24.958  28.399  1.00  0.00     0.049 A 
ATOM     16  N   UNL A   1      41.693  26.993  28.767  1.00  0.00    -0.248 NA
ATOM     17  C   UNL A   1      40.148  25.403  28.034  1.00  0.00     0.031 C 
ATOM     18  C   UNL A   1      44.976  24.010  28.219  1.00  0.00     0.029 A 
ATOM     19  N   UNL A   1      44.476  26.079  28.907  1.00  0.00    -0.354 N 
ATOM     20  C   UNL A   1      40.424  27.557  28.764  1.00  0.00     0.074 A 
ATOM     21  C   UNL A   1      39.514  26.544  28.272  1.00  0.00     0.031 C 
ATOM     22  C   UNL A   1      46.116  24.581  28.638  1.00  0.00     0.029 A 
ATOM     23  C   UNL A   1      45.834  25.947  29.063  1.00  0.00     0.049 A 
ATOM     24  H   UNL A   1      43.983  26.900  29.137  1.00  0.00     0.167 HD
ATOM     25  C   UNL A   1      40.052  28.803  29.145  1.00  0.00     0.037 A 
ATOM     26  C   UNL A   1      46.754  26.834  29.484  1.00  0.00     0.037 A 
ATOM     27  C   UNL A   1      40.957  29.803  29.653  1.00  0.00     0.049 A 
ATOM     28  C   UNL A   1      46.320  28.212  29.882  1.00  0.00     0.074 A 
ATOM     29  C   UNL A   1      40.668  31.081  30.099  1.00  0.00     0.029 A 
ATOM     30  N   UNL A   1      42.327  29.635  29.782  1.00  0.00    -0.354 N 
ATOM     31  N   UNL A   1      45.113  28.723  29.897  1.00  0.00    -0.248 NA
ATOM     32  C   UNL A   1      47.373  29.138  30.317  1.00  0.00     0.031 C 
ATOM     33  C   UNL A   1      41.869  31.700  30.463  1.00  0.00     0.029 A 
ATOM     34  C   UNL A   1      42.901  30.793  30.282  1.00  0.00     0.049 A 
ATOM     35  H   UNL A   1      42.820  28.814  29.552  1.00  0.00     0.167 HD
ATOM     36  C   UNL A   1      45.257  30.025  30.357  1.00  0.00     0.074 A 
ATOM     37  C   UNL A   1      46.668  30.219  30.623  1.00  0.00     0.031 C 
ATOM     38  C   UNL A   1      44.307  30.972  30.541  1.00  0.00     0.037 A 
BRANCH  25  39
ATOM     39  C   UNL A   1      38.601  29.164  29.008  1.00  0.00     0.057 A 
ATOM     40  C   UNL A   1      37.718  29.105  30.093  1.00  0.00     0.134 A 
ATOM     41  C   UNL A   1      38.092  29.613  27.783  1.00  0.00     0.134 A 
ATOM     42  F   UNL A   1      38.140  28.672  31.291  1.00  0.00    -0.206 F 
ATOM     43  C   UNL A   1      36.373  29.457  29.959  1.00  0.00     0.040 A 
ATOM     44  C   UNL A   1      36.755  29.989  27.642  1.00  0.00     0.040 A 
ATOM     45  F   UNL A   1      38.886  29.701  26.706  1.00  0.00    -0.206 F 
ATOM     46  C   UNL A   1      35.890  29.907  28.731  1.00  0.00     0.006 A 
ENDBRANCH  25  39
BRANCH  26  47
ATOM     47  C   UNL A   1      48.179  26.430  29.545  1.00  0.00     0.057 A 
ATOM     48  C   UNL A   1      48.710  25.822  30.685  1.00  0.00     0.134 A 
ATOM     49  C   UNL A   1      49.033  26.614  28.450  1.00  0.00     0.134 A 
ATOM     50  F   UNL A   1      47.943  25.634  31.770  1.00  0.00    -0.206 F 
ATOM     51  C   UNL A   1      50.043  25.412  30.740  1.00  0.00     0.040 A 
ATOM     52  C   UNL A   1      50.362  26.189  28.483  1.00  0.00     0.040 A 
ATOM     53  F   UNL A   1      48.578  27.184  27.325  1.00  0.00    -0.206 F 
ATOM     54  C   UNL A   1      50.871  25.589  29.632  1.00  0.00     0.006 A 
ENDBRANCH  26  47
BRANCH  38  55
ATOM     55  C   UNL A   1      44.760  32.295  31.079  1.00  0.00     0.057 A 
ATOM     56  C   UNL A   1      45.123  33.348  30.232  1.00  0.00     0.134 A 
ATOM     57  C   UNL A   1      44.802  32.526  32.459  1.00  0.00     0.134 A 
ATOM     58  F   UNL A   1      45.117  33.183  28.901  1.00  0.00    -0.206 F 
ATOM     59  C   UNL A   1      45.531  34.582  30.740  1.00  0.00     0.040 A 
ATOM     60  C   UNL A   1      45.188  33.762  32.978  1.00  0.00     0.040 A 
ATOM     61  F   UNL A   1      44.461  31.558  33.323  1.00  0.00    -0.206 F 
ATOM     62  C   UNL A   1      45.559  34.793  32.118  1.00  0.00     0.006 A 
ENDBRANCH  38  55
ENDBRANCH  12  13
ENDBRANCH   5   7
ENDBRANCH   2   3
ENDBRANCH   1   2
BRANCH   1  63
ATOM     63  C   UNL A   1      36.108  20.321  25.001  1.00  0.00     0.023 C 
BRANCH  63  64
ATOM     64  C   UNL A   1      35.708  21.727  25.434  1.00  0.00     0.116 C 
BRANCH  64  65
ATOM     65  N   UNL A   1      35.175  21.777  26.788  1.00  0.00    -0.352 N 
ATOM     66  C   UNL A   1      34.158  22.558  27.283  1.00  0.00     0.251 C 
ATOM     67  H   UNL A   1      35.600  21.169  27.436  1.00  0.00     0.163 HD
ATOM     68  O   UNL A   1      33.902  22.562  28.483  1.00  0.00    -0.269 OA
BRANCH  66  69
ATOM     69  C   UNL A   1      33.391  23.417  26.360  1.00  0.00     0.040 A 
ATOM     70  C   UNL A   1      32.172  22.964  25.865  1.00  0.00     0.016 A 
ATOM     71  C   UNL A   1      33.849  24.696  26.039  1.00  0.00     0.020 A 
ATOM     72  C   UNL A   1      31.390  23.819  25.085  1.00  0.00     0.027 A 
ATOM     73  C   UNL A   1      33.028  25.583  25.326  1.00  0.00    -0.017 A 
ATOM     74  C   UNL A   1      31.811  25.126  24.796  1.00  0.00     0.038 A 
ATOM     75  C   UNL A   1      33.452  27.027  25.173  1.00  0.00     0.049 C 
ATOM     76  N   UNL A   1      30.968  25.965  24.081  1.00  0.00    -0.378 N 
ATOM     77  C   UNL A   1      33.716  27.695  26.504  1.00  0.00    -0.023 C 
ATOM     78  C   UNL A   1      32.346  27.941  24.619  1.00  0.00     0.031 C 
ATOM     79  C   UNL A   1      31.475  27.234  23.578  1.00  0.00     0.114 C 
ATOM     80  H   UNL A   1      30.033  25.705  23.915  1.00  0.00     0.161 HD
ATOM     81  C   UNL A   1      32.704  28.487  26.878  1.00  0.00    -0.030 C 
ATOM     82  C   UNL A   1      31.614  28.492  25.856  1.00  0.00     0.034 C 
BRANCH  79  83
ATOM     83  C   UNL A   1      30.360  28.134  23.070  1.00  0.00    -0.022 A 
ATOM     84  C   UNL A   1      29.027  27.789  23.335  1.00  0.00     0.026 A 
ATOM     85  C   UNL A   1      30.593  29.288  22.311  1.00  0.00     0.026 A 
ATOM     86  C   UNL A   1      28.010  28.596  22.848  1.00  0.00     0.111 A 
ATOM     87  C   UNL A   1      29.510  30.039  21.881  1.00  0.00     0.111 A 
ATOM     88  N   UNL A   1      28.224  29.718  22.132  1.00  0.00    -0.265 NA
ENDBRANCH  79  83
ENDBRANCH  66  69
ENDBRANCH  64  65
ENDBRANCH  63  64
ENDBRANCH   1  63
TORSDOF 12
ENDMDL
MODEL 3
REMARK VINA RESULT:     -12.7      3.463      8.892
REMARK SMILES O=C(NCCCCNC(=O)c1ccc2c(c1)[C@@H]1C=CC[C@@H]1[C@H](c1ccncc1)N2)c1ccc(-c2c3nc(c(-c4c(F)cccc4F)c4ccc([nH]4)c(-c4c(F)cccc4F)c4nc(c(-c5c(F)cccc5F)c5ccc2[nH]5)C=C4)C=C3)cc1
REMARK SMILES IDX 5 1 4 2 3 3 1 4 2 5 30 7 31 8 83 9 32 10 82 11 33 12 34 13
REMARK SMILES IDX 35 14 76 15 36 16 81 17 75 18 77 19 37 20 80 21 74 22 73 23
REMARK SMILES IDX 38 25 64 26 47 27 63 28 48 29 51 30 62 31 78 32 49 33 50 34
REMARK SMILES IDX 61 36 79 37 52 38 39 39 40 40 45 41 41 42 42 43 44 44 46 45
REMARK SMILES IDX 43 46 65 47 66 48 71 49 67 50 68 51 70 52 72 53 69 54 53 55
REMARK SMILES IDX 54 56 59 57 55 58 56 59 58 60 60 61 57 62 6 63 7 64 8 65
REMARK SMILES IDX 9 66 10 68 11 69 12 70 16 71 13 72 15 73 14 74 17 75 29 76
REMARK SMILES IDX 18 77 21 78 22 79 19 81 20 82 23 83 24 84 28 85 25 86 27 87
REMARK SMILES IDX 26 88
REMARK H PARENT 3 6 77 24 51 35 8 67 29 80
REMARK Flexibility Score: inf
ROOT
ATOM      1  C   UNL A   1      31.129  31.337  26.505  1.00  0.00     0.023 C 
ENDROOT
BRANCH   1   2
ATOM      2  C   UNL A   1      32.434  32.041  26.859  1.00  0.00     0.116 C 
BRANCH   2   3
ATOM      3  N   UNL A   1      32.241  33.422  27.273  1.00  0.00    -0.352 N 
ATOM      4  O   UNL A   1      32.601  35.312  28.450  1.00  0.00    -0.269 OA
ATOM      5  C   UNL A   1      33.000  34.201  28.113  1.00  0.00     0.251 C 
ATOM      6  H   UNL A   1      31.448  33.865  26.894  1.00  0.00     0.163 HD
BRANCH   5   7
ATOM      7  C   UNL A   1      34.284  33.690  28.638  1.00  0.00     0.039 A 
ATOM      8  C   UNL A   1      35.489  33.964  27.986  1.00  0.00     0.014 A 
ATOM      9  C   UNL A   1      34.279  32.927  29.810  1.00  0.00     0.014 A 
ATOM     10  C   UNL A   1      36.663  33.355  28.418  1.00  0.00     0.010 A 
ATOM     11  C   UNL A   1      35.471  32.379  30.287  1.00  0.00     0.010 A 
ATOM     12  C   UNL A   1      36.667  32.558  29.574  1.00  0.00    -0.014 A 
BRANCH  12  13
ATOM     13  C   UNL A   1      37.934  31.947  30.043  1.00  0.00     0.031 A 
ATOM     14  C   UNL A   1      38.770  32.616  31.098  1.00  0.00     0.074 A 
ATOM     15  C   UNL A   1      38.327  30.771  29.517  1.00  0.00     0.049 A 
ATOM     16  N   UNL A   1      39.916  32.236  31.606  1.00  0.00    -0.248 NA
ATOM     17  C   UNL A   1      38.258  33.880  31.649  1.00  0.00     0.031 C 
ATOM     18  C   UNL A   1      37.602  30.027  28.484  1.00  0.00     0.029 A 
ATOM     19  N   UNL A   1      39.424  29.993  29.781  1.00  0.00    -0.354 N 
ATOM     20  C   UNL A   1      40.273  33.221  32.518  1.00  0.00     0.074 A 
ATOM     21  C   UNL A   1      39.233  34.227  32.480  1.00  0.00     0.031 C 
ATOM     22  C   UNL A   1      38.260  28.887  28.223  1.00  0.00     0.029 A 
ATOM     23  C   UNL A   1      39.474  28.846  29.029  1.00  0.00     0.049 A 
ATOM     24  H   UNL A   1      40.109  30.234  30.446  1.00  0.00     0.167 HD
ATOM     25  C   UNL A   1      41.366  33.276  33.318  1.00  0.00     0.037 A 
ATOM     26  C   UNL A   1      40.406  27.876  28.978  1.00  0.00     0.037 A 
ATOM     27  C   UNL A   1      42.390  32.264  33.368  1.00  0.00     0.049 A 
ATOM     28  C   UNL A   1      41.615  27.970  29.860  1.00  0.00     0.074 A 
ATOM     29  C   UNL A   1      43.515  32.214  34.172  1.00  0.00     0.029 A 
ATOM     30  N   UNL A   1      42.412  31.124  32.578  1.00  0.00    -0.354 N 
ATOM     31  N   UNL A   1      41.927  28.895  30.734  1.00  0.00    -0.248 NA
ATOM     32  C   UNL A   1      42.602  26.889  29.746  1.00  0.00     0.031 C 
ATOM     33  C   UNL A   1      44.238  31.062  33.843  1.00  0.00     0.029 A 
ATOM     34  C   UNL A   1      43.542  30.374  32.863  1.00  0.00     0.049 A 
ATOM     35  H   UNL A   1      41.727  30.883  31.913  1.00  0.00     0.167 HD
ATOM     36  C   UNL A   1      43.138  28.502  31.286  1.00  0.00     0.074 A 
ATOM     37  C   UNL A   1      43.496  27.247  30.658  1.00  0.00     0.031 C 
ATOM     38  C   UNL A   1      43.884  29.126  32.229  1.00  0.00     0.037 A 
BRANCH  25  39
ATOM     39  C   UNL A   1      41.520  34.485  34.194  1.00  0.00     0.057 A 
ATOM     40  C   UNL A   1      42.159  35.648  33.746  1.00  0.00     0.134 A 
ATOM     41  C   UNL A   1      40.989  34.498  35.490  1.00  0.00     0.134 A 
ATOM     42  F   UNL A   1      42.699  35.696  32.519  1.00  0.00    -0.206 F 
ATOM     43  C   UNL A   1      42.284  36.773  34.563  1.00  0.00     0.040 A 
ATOM     44  C   UNL A   1      41.089  35.624  36.309  1.00  0.00     0.040 A 
ATOM     45  F   UNL A   1      40.359  33.420  35.979  1.00  0.00    -0.206 F 
ATOM     46  C   UNL A   1      41.742  36.764  35.847  1.00  0.00     0.006 A 
ENDBRANCH  25  39
BRANCH  26  47
ATOM     47  C   UNL A   1      40.219  26.736  28.050  1.00  0.00     0.057 A 
ATOM     48  C   UNL A   1      40.816  26.727  26.786  1.00  0.00     0.134 A 
ATOM     49  C   UNL A   1      39.467  25.614  28.420  1.00  0.00     0.134 A 
ATOM     50  F   UNL A   1      41.536  27.781  26.372  1.00  0.00    -0.206 F 
ATOM     51  C   UNL A   1      40.670  25.644  25.918  1.00  0.00     0.040 A 
ATOM     52  C   UNL A   1      39.331  24.515  27.571  1.00  0.00     0.040 A 
ATOM     53  F   UNL A   1      38.878  25.561  29.623  1.00  0.00    -0.206 F 
ATOM     54  C   UNL A   1      39.930  24.531  26.314  1.00  0.00     0.006 A 
ENDBRANCH  26  47
BRANCH  38  55
ATOM     55  C   UNL A   1      45.150  28.446  32.654  1.00  0.00     0.057 A 
ATOM     56  C   UNL A   1      46.378  28.728  32.044  1.00  0.00     0.134 A 
ATOM     57  C   UNL A   1      45.144  27.523  33.707  1.00  0.00     0.134 A 
ATOM     58  F   UNL A   1      46.446  29.592  31.019  1.00  0.00    -0.206 F 
ATOM     59  C   UNL A   1      47.555  28.100  32.454  1.00  0.00     0.040 A 
ATOM     60  C   UNL A   1      46.318  26.906  34.140  1.00  0.00     0.040 A 
ATOM     61  F   UNL A   1      44.000  27.215  34.335  1.00  0.00    -0.206 F 
ATOM     62  C   UNL A   1      47.527  27.190  33.509  1.00  0.00     0.006 A 
ENDBRANCH  38  55
ENDBRANCH  12  13
ENDBRANCH   5   7
ENDBRANCH   2   3
ENDBRANCH   1   2
BRANCH   1  63
ATOM     63  C   UNL A   1      31.207  30.367  25.331  1.00  0.00     0.023 C 
BRANCH  63  64
ATOM     64  C   UNL A   1      32.373  29.385  25.366  1.00  0.00     0.116 C 
BRANCH  64  65
ATOM     65  N   UNL A   1      33.271  29.525  24.229  1.00  0.00    -0.352 N 
ATOM     66  C   UNL A   1      33.810  28.542  23.433  1.00  0.00     0.251 C 
ATOM     67  H   UNL A   1      33.528  30.448  24.000  1.00  0.00     0.163 HD
ATOM     68  O   UNL A   1      34.645  28.820  22.579  1.00  0.00    -0.269 OA
BRANCH  66  69
ATOM     69  C   UNL A   1      33.393  27.140  23.634  1.00  0.00     0.040 A 
ATOM     70  C   UNL A   1      32.414  26.598  22.806  1.00  0.00     0.016 A 
ATOM     71  C   UNL A   1      34.020  26.348  24.596  1.00  0.00     0.020 A 
ATOM     72  C   UNL A   1      32.101  25.242  22.916  1.00  0.00     0.027 A 
ATOM     73  C   UNL A   1      33.766  24.968  24.651  1.00  0.00    -0.017 A 
ATOM     74  C   UNL A   1      32.758  24.418  23.843  1.00  0.00     0.038 A 
ATOM     75  C   UNL A   1      34.607  24.094  25.553  1.00  0.00     0.049 C 
ATOM     76  N   UNL A   1      32.469  23.060  23.866  1.00  0.00    -0.378 N 
ATOM     77  C   UNL A   1      36.087  24.225  25.268  1.00  0.00    -0.023 C 
ATOM     78  C   UNL A   1      34.411  22.587  25.313  1.00  0.00     0.031 C 
ATOM     79  C   UNL A   1      32.964  22.239  24.961  1.00  0.00     0.114 C 
ATOM     80  H   UNL A   1      31.932  22.655  23.146  1.00  0.00     0.161 HD
ATOM     81  C   UNL A   1      36.555  23.192  24.558  1.00  0.00    -0.030 C 
ATOM     82  C   UNL A   1      35.476  22.199  24.271  1.00  0.00     0.034 C 
BRANCH  79  83
ATOM     83  C   UNL A   1      32.793  20.754  24.684  1.00  0.00    -0.022 A 
ATOM     84  C   UNL A   1      32.394  20.337  23.405  1.00  0.00     0.026 A 
ATOM     85  C   UNL A   1      32.981  19.765  25.658  1.00  0.00     0.026 A 
ATOM     86  C   UNL A   1      32.212  18.984  23.161  1.00  0.00     0.111 A 
ATOM     87  C   UNL A   1      32.789  18.436  25.313  1.00  0.00     0.111 A 
ATOM     88  N   UNL A   1      32.408  18.024  24.087  1.00  0.00    -0.265 NA
ENDBRANCH  79  83
ENDBRANCH  66  69
ENDBRANCH  64  65
ENDBRANCH  63  64
ENDBRANCH   1  63
TORSDOF 12
ENDMDL
