MODEL 1
REMARK VINA RESULT:     -10.5      0.000      0.000
REMARK SMILES C[C@@H](C(=O)NCCCCNC(=O)c1ccc(-c2c3nc(c(-c4c(F)cccc4F)c4ccc([nH]4)c(-c4c(F)cccc4F)c4nc(c(-c5c(F)cccc5F)c5ccc2[nH]5)C=C4)C=C3)cc1)[C@@H](N[S@](=O)C(C)(C)C)C(C)(C)C
REMARK SMILES IDX 6 1 5 2 3 3 4 4 2 6 1 7 67 8 68 9 69 11 70 12 71 13 72 14
REMARK SMILES IDX 73 15 74 16 75 17 76 18 77 19 78 20 7 21 8 22 9 23 10 24
REMARK SMILES IDX 11 25 12 27 13 28 14 29 66 30 15 31 65 32 16 33 17 34 18 35
REMARK SMILES IDX 59 36 19 37 64 38 58 39 60 40 20 41 63 42 57 43 56 44 21 46
REMARK SMILES IDX 47 47 30 48 46 49 31 50 34 51 45 52 61 53 32 54 33 55 44 57
REMARK SMILES IDX 62 58 35 59 22 60 23 61 28 62 24 63 25 64 27 65 29 66 26 67
REMARK SMILES IDX 48 68 49 69 54 70 50 71 51 72 53 73 55 74 52 75 36 76 37 77
REMARK SMILES IDX 42 78 38 79 39 80 41 81 43 82 40 83
REMARK H PARENT 5 5 68 10 10 26 60 45 34 56
REMARK Flexibility Score: inf
ROOT
ATOM      1  C   UNL A   1      36.539  21.607  25.737  1.00  0.00     0.116 C 
ENDROOT
BRANCH   1   2
ATOM      2  N   UNL A   1      35.313  21.722  26.504  1.00  0.00    -0.356 N 
ATOM      3  C   UNL A   1      34.328  22.662  26.423  1.00  0.00     0.224 C 
ATOM      4  O   UNL A   1      33.609  22.825  27.408  1.00  0.00    -0.275 OA
ATOM      5  H   UNL A   1      35.172  21.021  27.181  1.00  0.00     0.163 HD
BRANCH   3   6
ATOM      6  C   UNL A   1      34.173  23.477  25.146  1.00  0.00     0.094 C 
ATOM      7  C   UNL A   1      35.088  24.704  25.317  1.00  0.00     0.020 C 
BRANCH   6   8
ATOM      8  C   UNL A   1      32.674  23.864  24.867  1.00  0.00     0.085 C 
BRANCH   8   9
ATOM      9  N   UNL A   1      32.506  25.314  25.142  1.00  0.00    -0.233 NA
ATOM     10  H   UNL A   1      32.014  25.701  24.335  1.00  0.00     0.138 HD
BRANCH   9  11
ATOM     11  S   UNL A   1      31.708  25.877  26.481  1.00  0.00     0.097 S 
ATOM     12  O   UNL A   1      30.223  25.722  26.405  1.00  0.00    -0.242 OA
BRANCH  11  13
ATOM     13  C   UNL A   1      32.140  27.692  26.309  1.00  0.00     0.052 C 
ATOM     14  C   UNL A   1      33.641  27.976  26.172  1.00  0.00     0.027 C 
ATOM     15  C   UNL A   1      31.428  28.235  25.056  1.00  0.00     0.027 C 
ATOM     16  C   UNL A   1      31.590  28.407  27.552  1.00  0.00     0.027 C 
ENDBRANCH  11  13
ENDBRANCH   9  11
ENDBRANCH   8   9
BRANCH   8  17
ATOM     17  C   UNL A   1      32.148  23.554  23.391  1.00  0.00    -0.021 C 
ATOM     18  C   UNL A   1      32.319  22.076  22.980  1.00  0.00     0.012 C 
ATOM     19  C   UNL A   1      30.627  23.821  23.285  1.00  0.00     0.012 C 
ATOM     20  C   UNL A   1      32.864  24.417  22.331  1.00  0.00     0.012 C 
ENDBRANCH   8  17
ENDBRANCH   6   8
ENDBRANCH   3   6
ENDBRANCH   1   2
BRANCH   1  21
ATOM     21  C   UNL A   1      36.582  20.263  25.007  1.00  0.00     0.023 C 
BRANCH  21  22
ATOM     22  C   UNL A   1      37.995  19.736  24.731  1.00  0.00     0.023 C 
BRANCH  22  23
ATOM     23  C   UNL A   1      39.041  20.127  25.768  1.00  0.00     0.116 C 
BRANCH  23  24
ATOM     24  N   UNL A   1      40.168  19.208  25.798  1.00  0.00    -0.352 N 
ATOM     25  C   UNL A   1      41.485  19.462  26.091  1.00  0.00     0.251 C 
ATOM     26  H   UNL A   1      39.956  18.271  25.578  1.00  0.00     0.163 HD
ATOM     27  O   UNL A   1      42.333  18.592  25.919  1.00  0.00    -0.269 OA
BRANCH  25  28
ATOM     28  C   UNL A   1      41.884  20.796  26.588  1.00  0.00     0.039 A 
ATOM     29  C   UNL A   1      42.263  21.775  25.666  1.00  0.00     0.014 A 
ATOM     30  C   UNL A   1      41.879  21.081  27.956  1.00  0.00     0.014 A 
ATOM     31  C   UNL A   1      42.580  23.060  26.112  1.00  0.00     0.010 A 
ATOM     32  C   UNL A   1      42.124  22.380  28.392  1.00  0.00     0.010 A 
ATOM     33  C   UNL A   1      42.481  23.381  27.476  1.00  0.00    -0.014 A 
BRANCH  33  34
ATOM     34  C   UNL A   1      42.756  24.755  27.970  1.00  0.00     0.031 A 
ATOM     35  C   UNL A   1      44.148  25.139  28.386  1.00  0.00     0.074 A 
ATOM     36  C   UNL A   1      41.743  25.630  28.114  1.00  0.00     0.049 A 
ATOM     37  N   UNL A   1      44.573  26.249  28.934  1.00  0.00    -0.248 NA
ATOM     38  C   UNL A   1      45.199  24.128  28.184  1.00  0.00     0.031 C 
ATOM     39  C   UNL A   1      40.341  25.366  27.786  1.00  0.00     0.029 A 
ATOM     40  N   UNL A   1      41.736  26.916  28.593  1.00  0.00    -0.354 N 
ATOM     41  C   UNL A   1      45.931  26.064  29.160  1.00  0.00     0.074 A 
ATOM     42  C   UNL A   1      46.249  24.716  28.738  1.00  0.00     0.031 C 
ATOM     43  C   UNL A   1      39.612  26.461  28.057  1.00  0.00     0.029 A 
ATOM     44  C   UNL A   1      40.487  27.489  28.615  1.00  0.00     0.049 A 
ATOM     45  H   UNL A   1      42.548  27.384  28.892  1.00  0.00     0.167 HD
ATOM     46  C   UNL A   1      46.836  26.942  29.653  1.00  0.00     0.037 A 
ATOM     47  C   UNL A   1      40.090  28.701  29.047  1.00  0.00     0.037 A 
ATOM     48  C   UNL A   1      46.520  28.290  30.049  1.00  0.00     0.049 A 
ATOM     49  C   UNL A   1      41.111  29.656  29.601  1.00  0.00     0.074 A 
ATOM     50  C   UNL A   1      47.377  29.276  30.507  1.00  0.00     0.029 A 
ATOM     51  N   UNL A   1      45.248  28.840  30.036  1.00  0.00    -0.354 N 
ATOM     52  N   UNL A   1      42.402  29.490  29.751  1.00  0.00    -0.248 NA
ATOM     53  C   UNL A   1      40.619  30.969  30.040  1.00  0.00     0.031 C 
ATOM     54  C   UNL A   1      46.615  30.408  30.813  1.00  0.00     0.029 A 
ATOM     55  C   UNL A   1      45.291  30.145  30.499  1.00  0.00     0.049 A 
ATOM     56  H   UNL A   1      44.433  28.372  29.743  1.00  0.00     0.167 HD
ATOM     57  C   UNL A   1      42.882  30.685  30.272  1.00  0.00     0.074 A 
ATOM     58  C   UNL A   1      41.744  31.571  30.402  1.00  0.00     0.031 C 
ATOM     59  C   UNL A   1      44.152  31.018  30.612  1.00  0.00     0.037 A 
BRANCH  46  60
ATOM     60  C   UNL A   1      48.254  26.468  29.792  1.00  0.00     0.057 A 
ATOM     61  C   UNL A   1      49.195  26.640  28.768  1.00  0.00     0.134 A 
ATOM     62  C   UNL A   1      48.691  25.857  30.974  1.00  0.00     0.134 A 
ATOM     63  F   UNL A   1      48.839  27.207  27.605  1.00  0.00    -0.206 F 
ATOM     64  C   UNL A   1      50.510  26.190  28.901  1.00  0.00     0.040 A 
ATOM     65  C   UNL A   1      50.011  25.431  31.130  1.00  0.00     0.040 A 
ATOM     66  F   UNL A   1      47.845  25.668  31.997  1.00  0.00    -0.206 F 
ATOM     67  C   UNL A   1      50.922  25.590  30.088  1.00  0.00     0.006 A 
ENDBRANCH  46  60
BRANCH  47  68
ATOM     68  C   UNL A   1      38.661  29.090  28.955  1.00  0.00     0.057 A 
ATOM     69  C   UNL A   1      38.120  29.573  27.758  1.00  0.00     0.134 A 
ATOM     70  C   UNL A   1      37.802  28.997  30.058  1.00  0.00     0.134 A 
ATOM     71  F   UNL A   1      38.896  29.703  26.672  1.00  0.00    -0.206 F 
ATOM     72  C   UNL A   1      36.784  29.967  27.663  1.00  0.00     0.040 A 
ATOM     73  C   UNL A   1      36.458  29.363  29.971  1.00  0.00     0.040 A 
ATOM     74  F   UNL A   1      38.256  28.535  31.232  1.00  0.00    -0.206 F 
ATOM     75  C   UNL A   1      35.948  29.857  28.773  1.00  0.00     0.006 A 
ENDBRANCH  47  68
BRANCH  59  76
ATOM     76  C   UNL A   1      44.386  32.413  31.116  1.00  0.00     0.057 A 
ATOM     77  C   UNL A   1      44.666  33.477  30.251  1.00  0.00     0.134 A 
ATOM     78  C   UNL A   1      44.287  32.700  32.485  1.00  0.00     0.134 A 
ATOM     79  F   UNL A   1      44.787  33.267  28.932  1.00  0.00    -0.206 F 
ATOM     80  C   UNL A   1      44.860  34.774  30.731  1.00  0.00     0.040 A 
ATOM     81  C   UNL A   1      44.452  33.996  32.973  1.00  0.00     0.040 A 
ATOM     82  F   UNL A   1      44.012  31.726  33.367  1.00  0.00    -0.206 F 
ATOM     83  C   UNL A   1      44.745  35.037  32.095  1.00  0.00     0.006 A 
ENDBRANCH  59  76
ENDBRANCH  33  34
ENDBRANCH  25  28
ENDBRANCH  23  24
ENDBRANCH  22  23
ENDBRANCH  21  22
ENDBRANCH   1  21
TORSDOF 16
ENDMDL
MODEL 2
REMARK VINA RESULT:     -10.4      4.416      9.290
REMARK SMILES C[C@@H](C(=O)NCCCCNC(=O)c1ccc(-c2c3nc(c(-c4c(F)cccc4F)c4ccc([nH]4)c(-c4c(F)cccc4F)c4nc(c(-c5c(F)cccc5F)c5ccc2[nH]5)C=C4)C=C3)cc1)[C@@H](N[S@](=O)C(C)(C)C)C(C)(C)C
REMARK SMILES IDX 6 1 5 2 3 3 4 4 2 6 1 7 67 8 68 9 69 11 70 12 71 13 72 14
REMARK SMILES IDX 73 15 74 16 75 17 76 18 77 19 78 20 7 21 8 22 9 23 10 24
REMARK SMILES IDX 11 25 12 27 13 28 14 29 66 30 15 31 65 32 16 33 17 34 18 35
REMARK SMILES IDX 59 36 19 37 64 38 58 39 60 40 20 41 63 42 57 43 56 44 21 46
REMARK SMILES IDX 47 47 30 48 46 49 31 50 34 51 45 52 61 53 32 54 33 55 44 57
REMARK SMILES IDX 62 58 35 59 22 60 23 61 28 62 24 63 25 64 27 65 29 66 26 67
REMARK SMILES IDX 48 68 49 69 54 70 50 71 51 72 53 73 55 74 52 75 36 76 37 77
REMARK SMILES IDX 42 78 38 79 39 80 41 81 43 82 40 83
REMARK H PARENT 5 5 68 10 10 26 60 45 34 56
REMARK Flexibility Score: inf
ROOT
ATOM      1  C   UNL A   1      31.185  30.074  25.106  1.00  0.00     0.116 C 
ENDROOT
BRANCH   1   2
ATOM      2  N   UNL A   1      32.244  29.612  24.227  1.00  0.00    -0.356 N 
ATOM      3  C   UNL A   1      32.982  28.467  24.292  1.00  0.00     0.224 C 
ATOM      4  O   UNL A   1      34.076  28.458  23.730  1.00  0.00    -0.275 OA
ATOM      5  H   UNL A   1      32.461  30.212  23.477  1.00  0.00     0.163 HD
BRANCH   3   6
ATOM      6  C   UNL A   1      32.443  27.270  25.063  1.00  0.00     0.094 C 
ATOM      7  C   UNL A   1      33.508  26.940  26.124  1.00  0.00     0.020 C 
BRANCH   6   8
ATOM      8  C   UNL A   1      32.117  26.053  24.121  1.00  0.00     0.085 C 
BRANCH   8   9
ATOM      9  N   UNL A   1      33.143  25.002  24.342  1.00  0.00    -0.233 NA
ATOM     10  H   UNL A   1      32.630  24.142  24.539  1.00  0.00     0.138 HD
BRANCH   9  11
ATOM     11  S   UNL A   1      34.274  24.611  23.196  1.00  0.00     0.097 S 
ATOM     12  O   UNL A   1      33.698  23.955  21.981  1.00  0.00    -0.242 OA
BRANCH  11  13
ATOM     13  C   UNL A   1      35.226  23.334  24.183  1.00  0.00     0.052 C 
ATOM     14  C   UNL A   1      34.418  22.082  24.546  1.00  0.00     0.027 C 
ATOM     15  C   UNL A   1      36.445  22.898  23.349  1.00  0.00     0.027 C 
ATOM     16  C   UNL A   1      35.713  24.025  25.465  1.00  0.00     0.027 C 
ENDBRANCH  11  13
ENDBRANCH   9  11
ENDBRANCH   8   9
BRANCH   8  17
ATOM     17  C   UNL A   1      30.668  25.408  24.308  1.00  0.00    -0.021 C 
ATOM     18  C   UNL A   1      30.377  24.970  25.759  1.00  0.00     0.012 C 
ATOM     19  C   UNL A   1      29.563  26.440  23.976  1.00  0.00     0.012 C 
ATOM     20  C   UNL A   1      30.465  24.177  23.401  1.00  0.00     0.012 C 
ENDBRANCH   8  17
ENDBRANCH   6   8
ENDBRANCH   3   6
ENDBRANCH   1   2
BRANCH   1  21
ATOM     21  C   UNL A   1      31.772  30.545  26.438  1.00  0.00     0.023 C 
BRANCH  21  22
ATOM     22  C   UNL A   1      31.515  32.022  26.757  1.00  0.00     0.023 C 
BRANCH  22  23
ATOM     23  C   UNL A   1      32.748  32.812  27.182  1.00  0.00     0.116 C 
BRANCH  23  24
ATOM     24  N   UNL A   1      32.428  34.175  27.577  1.00  0.00    -0.352 N 
ATOM     25  C   UNL A   1      32.993  34.945  28.564  1.00  0.00     0.251 C 
ATOM     26  H   UNL A   1      31.706  34.606  27.065  1.00  0.00     0.163 HD
ATOM     27  O   UNL A   1      32.494  36.026  28.863  1.00  0.00    -0.269 OA
BRANCH  25  28
ATOM     28  C   UNL A   1      34.187  34.456  29.286  1.00  0.00     0.039 A 
ATOM     29  C   UNL A   1      34.021  33.847  30.532  1.00  0.00     0.014 A 
ATOM     30  C   UNL A   1      35.463  34.595  28.734  1.00  0.00     0.014 A 
ATOM     31  C   UNL A   1      35.130  33.321  31.198  1.00  0.00     0.010 A 
ATOM     32  C   UNL A   1      36.556  34.007  29.364  1.00  0.00     0.010 A 
ATOM     33  C   UNL A   1      36.402  33.368  30.604  1.00  0.00    -0.014 A 
BRANCH  33  34
ATOM     34  C   UNL A   1      37.588  32.765  31.264  1.00  0.00     0.031 A 
ATOM     35  C   UNL A   1      38.257  31.564  30.655  1.00  0.00     0.074 A 
ATOM     36  C   UNL A   1      38.016  33.249  32.445  1.00  0.00     0.049 A 
ATOM     37  N   UNL A   1      39.238  30.835  31.124  1.00  0.00    -0.248 NA
ATOM     38  C   UNL A   1      37.735  31.107  29.357  1.00  0.00     0.031 C 
ATOM     39  C   UNL A   1      37.427  34.382  33.161  1.00  0.00     0.029 A 
ATOM     40  N   UNL A   1      39.038  32.835  33.262  1.00  0.00    -0.354 N 
ATOM     41  C   UNL A   1      39.436  29.825  30.193  1.00  0.00     0.074 A 
ATOM     42  C   UNL A   1      38.441  30.003  29.157  1.00  0.00     0.031 C 
ATOM     43  C   UNL A   1      38.108  34.584  34.301  1.00  0.00     0.029 A 
ATOM     44  C   UNL A   1      39.153  33.571  34.417  1.00  0.00     0.049 A 
ATOM     45  H   UNL A   1      39.633  32.083  33.041  1.00  0.00     0.167 HD
ATOM     46  C   UNL A   1      40.375  28.849  30.188  1.00  0.00     0.037 A 
ATOM     47  C   UNL A   1      39.999  33.438  35.456  1.00  0.00     0.037 A 
ATOM     48  C   UNL A   1      41.379  28.688  31.207  1.00  0.00     0.049 A 
ATOM     49  C   UNL A   1      41.026  32.340  35.433  1.00  0.00     0.074 A 
ATOM     50  C   UNL A   1      42.411  27.768  31.263  1.00  0.00     0.029 A 
ATOM     51  N   UNL A   1      41.476  29.468  32.349  1.00  0.00    -0.354 N 
ATOM     52  N   UNL A   1      41.243  31.429  34.517  1.00  0.00    -0.248 NA
ATOM     53  C   UNL A   1      41.931  32.256  36.589  1.00  0.00     0.031 C 
ATOM     54  C   UNL A   1      43.104  27.961  32.461  1.00  0.00     0.029 A 
ATOM     55  C   UNL A   1      42.536  29.035  33.129  1.00  0.00     0.049 A 
ATOM     56  H   UNL A   1      40.879  30.217  32.575  1.00  0.00     0.167 HD
ATOM     57  C   UNL A   1      42.326  30.684  34.967  1.00  0.00     0.074 A 
ATOM     58  C   UNL A   1      42.727  31.257  36.235  1.00  0.00     0.031 C 
ATOM     59  C   UNL A   1      42.932  29.622  34.383  1.00  0.00     0.037 A 
BRANCH  46  60
ATOM     60  C   UNL A   1      40.357  27.878  29.042  1.00  0.00     0.057 A 
ATOM     61  C   UNL A   1      39.556  26.728  29.059  1.00  0.00     0.134 A 
ATOM     62  C   UNL A   1      41.129  28.110  27.896  1.00  0.00     0.134 A 
ATOM     63  F   UNL A   1      38.802  26.441  30.131  1.00  0.00    -0.206 F 
ATOM     64  C   UNL A   1      39.550  25.826  27.993  1.00  0.00     0.040 A 
ATOM     65  C   UNL A   1      41.107  27.231  26.812  1.00  0.00     0.040 A 
ATOM     66  F   UNL A   1      41.912  29.195  27.809  1.00  0.00    -0.206 F 
ATOM     67  C   UNL A   1      40.322  26.081  26.862  1.00  0.00     0.006 A 
ENDBRANCH  46  60
BRANCH  47  68
ATOM     68  C   UNL A   1      39.924  34.381  36.600  1.00  0.00     0.057 A 
ATOM     69  C   UNL A   1      40.624  35.593  36.583  1.00  0.00     0.134 A 
ATOM     70  C   UNL A   1      39.158  34.096  37.738  1.00  0.00     0.134 A 
ATOM     71  F   UNL A   1      41.389  35.915  35.529  1.00  0.00    -0.206 F 
ATOM     72  C   UNL A   1      40.583  36.478  37.662  1.00  0.00     0.040 A 
ATOM     73  C   UNL A   1      39.088  34.982  38.813  1.00  0.00     0.040 A 
ATOM     74  F   UNL A   1      38.458  32.954  37.814  1.00  0.00    -0.206 F 
ATOM     75  C   UNL A   1      39.808  36.175  38.780  1.00  0.00     0.006 A 
ENDBRANCH  47  68
BRANCH  59  76
ATOM     76  C   UNL A   1      44.121  29.036  35.086  1.00  0.00     0.057 A 
ATOM     77  C   UNL A   1      43.995  28.002  36.022  1.00  0.00     0.134 A 
ATOM     78  C   UNL A   1      45.415  29.485  34.790  1.00  0.00     0.134 A 
ATOM     79  F   UNL A   1      42.784  27.535  36.361  1.00  0.00    -0.206 F 
ATOM     80  C   UNL A   1      45.112  27.450  36.654  1.00  0.00     0.040 A 
ATOM     81  C   UNL A   1      46.540  28.923  35.393  1.00  0.00     0.040 A 
ATOM     82  F   UNL A   1      45.607  30.467  33.895  1.00  0.00    -0.206 F 
ATOM     83  C   UNL A   1      46.389  27.906  36.333  1.00  0.00     0.006 A 
ENDBRANCH  59  76
ENDBRANCH  33  34
ENDBRANCH  25  28
ENDBRANCH  23  24
ENDBRANCH  22  23
ENDBRANCH  21  22
ENDBRANCH   1  21
TORSDOF 16
ENDMDL
MODEL 3
REMARK VINA RESULT:     -10.2      1.126      2.012
REMARK SMILES C[C@@H](C(=O)NCCCCNC(=O)c1ccc(-c2c3nc(c(-c4c(F)cccc4F)c4ccc([nH]4)c(-c4c(F)cccc4F)c4nc(c(-c5c(F)cccc5F)c5ccc2[nH]5)C=C4)C=C3)cc1)[C@@H](N[S@](=O)C(C)(C)C)C(C)(C)C
REMARK SMILES IDX 6 1 5 2 3 3 4 4 2 6 1 7 67 8 68 9 69 11 70 12 71 13 72 14
REMARK SMILES IDX 73 15 74 16 75 17 76 18 77 19 78 20 7 21 8 22 9 23 10 24
REMARK SMILES IDX 11 25 12 27 13 28 14 29 66 30 15 31 65 32 16 33 17 34 18 35
REMARK SMILES IDX 59 36 19 37 64 38 58 39 60 40 20 41 63 42 57 43 56 44 21 46
REMARK SMILES IDX 47 47 30 48 46 49 31 50 34 51 45 52 61 53 32 54 33 55 44 57
REMARK SMILES IDX 62 58 35 59 22 60 23 61 28 62 24 63 25 64 27 65 29 66 26 67
REMARK SMILES IDX 48 68 49 69 54 70 50 71 51 72 53 73 55 74 52 75 36 76 37 77
REMARK SMILES IDX 42 78 38 79 39 80 41 81 43 82 40 83
REMARK H PARENT 5 5 68 10 10 26 60 45 34 56
REMARK Flexibility Score: inf
ROOT
ATOM      1  C   UNL A   1      35.927  21.390  25.631  1.00  0.00     0.116 C 
ENDROOT
BRANCH   1   2
ATOM      2  N   UNL A   1      36.134  22.476  24.691  1.00  0.00    -0.356 N 
ATOM      3  C   UNL A   1      35.325  22.913  23.684  1.00  0.00     0.224 C 
ATOM      4  O   UNL A   1      35.845  23.542  22.763  1.00  0.00    -0.275 OA
ATOM      5  H   UNL A   1      36.981  22.968  24.795  1.00  0.00     0.163 HD
BRANCH   3   6
ATOM      6  C   UNL A   1      33.838  22.591  23.723  1.00  0.00     0.094 C 
ATOM      7  C   UNL A   1      33.298  22.924  22.320  1.00  0.00     0.020 C 
BRANCH   6   8
ATOM      8  C   UNL A   1      33.091  23.368  24.869  1.00  0.00     0.085 C 
BRANCH   8   9
ATOM      9  N   UNL A   1      32.224  24.400  24.246  1.00  0.00    -0.233 NA
ATOM     10  H   UNL A   1      31.363  24.417  24.795  1.00  0.00     0.138 HD
BRANCH   9  11
ATOM     11  S   UNL A   1      32.698  25.980  24.085  1.00  0.00     0.097 S 
ATOM     12  O   UNL A   1      33.946  26.312  24.838  1.00  0.00    -0.242 OA
BRANCH  11  13
ATOM     13  C   UNL A   1      31.239  26.788  24.937  1.00  0.00     0.052 C 
ATOM     14  C   UNL A   1      29.870  26.265  24.482  1.00  0.00     0.027 C 
ATOM     15  C   UNL A   1      31.373  26.540  26.450  1.00  0.00     0.027 C 
ATOM     16  C   UNL A   1      31.334  28.296  24.663  1.00  0.00     0.027 C 
ENDBRANCH  11  13
ENDBRANCH   9  11
ENDBRANCH   8   9
BRANCH   8  17
ATOM     17  C   UNL A   1      32.204  22.468  25.845  1.00  0.00    -0.021 C 
ATOM     18  C   UNL A   1      32.239  20.967  25.491  1.00  0.00     0.012 C 
ATOM     19  C   UNL A   1      32.738  22.545  27.296  1.00  0.00     0.012 C 
ATOM     20  C   UNL A   1      30.726  22.911  25.852  1.00  0.00     0.012 C 
ENDBRANCH   8  17
ENDBRANCH   6   8
ENDBRANCH   3   6
ENDBRANCH   1   2
BRANCH   1  21
ATOM     21  C   UNL A   1      36.319  20.056  24.991  1.00  0.00     0.023 C 
BRANCH  21  22
ATOM     22  C   UNL A   1      37.802  19.938  24.625  1.00  0.00     0.023 C 
BRANCH  22  23
ATOM     23  C   UNL A   1      38.770  20.215  25.769  1.00  0.00     0.116 C 
BRANCH  23  24
ATOM     24  N   UNL A   1      39.872  19.266  25.810  1.00  0.00    -0.352 N 
ATOM     25  C   UNL A   1      41.194  19.487  26.111  1.00  0.00     0.251 C 
ATOM     26  H   UNL A   1      39.636  18.335  25.592  1.00  0.00     0.163 HD
ATOM     27  O   UNL A   1      42.019  18.593  25.947  1.00  0.00    -0.269 OA
BRANCH  25  28
ATOM     28  C   UNL A   1      41.625  20.811  26.606  1.00  0.00     0.039 A 
ATOM     29  C   UNL A   1      42.088  21.756  25.688  1.00  0.00     0.014 A 
ATOM     30  C   UNL A   1      41.568  21.120  27.967  1.00  0.00     0.014 A 
ATOM     31  C   UNL A   1      42.439  23.035  26.128  1.00  0.00     0.010 A 
ATOM     32  C   UNL A   1      41.847  22.415  28.394  1.00  0.00     0.010 A 
ATOM     33  C   UNL A   1      42.289  23.384  27.480  1.00  0.00    -0.014 A 
BRANCH  33  34
ATOM     34  C   UNL A   1      42.598  24.753  27.966  1.00  0.00     0.031 A 
ATOM     35  C   UNL A   1      44.004  25.112  28.359  1.00  0.00     0.074 A 
ATOM     36  C   UNL A   1      41.605  25.649  28.123  1.00  0.00     0.049 A 
ATOM     37  N   UNL A   1      44.459  26.215  28.896  1.00  0.00    -0.248 NA
ATOM     38  C   UNL A   1      45.032  24.080  28.144  1.00  0.00     0.031 C 
ATOM     39  C   UNL A   1      40.193  25.411  27.818  1.00  0.00     0.029 A 
ATOM     40  N   UNL A   1      41.631  26.936  28.598  1.00  0.00    -0.354 N 
ATOM     41  C   UNL A   1      45.816  26.004  29.102  1.00  0.00     0.074 A 
ATOM     42  C   UNL A   1      46.102  24.649  28.679  1.00  0.00     0.031 C 
ATOM     43  C   UNL A   1      39.491  26.522  28.097  1.00  0.00     0.029 A 
ATOM     44  C   UNL A   1      40.394  27.534  28.638  1.00  0.00     0.049 A 
ATOM     45  H   UNL A   1      42.457  27.389  28.883  1.00  0.00     0.167 HD
ATOM     46  C   UNL A   1      46.746  26.866  29.578  1.00  0.00     0.037 A 
ATOM     47  C   UNL A   1      40.027  28.755  29.072  1.00  0.00     0.037 A 
ATOM     48  C   UNL A   1      46.463  28.221  29.974  1.00  0.00     0.049 A 
ATOM     49  C   UNL A   1      41.076  29.691  29.606  1.00  0.00     0.074 A 
ATOM     50  C   UNL A   1      47.346  29.191  30.415  1.00  0.00     0.029 A 
ATOM     51  N   UNL A   1      45.201  28.795  29.979  1.00  0.00    -0.354 N 
ATOM     52  N   UNL A   1      42.365  29.500  29.737  1.00  0.00    -0.248 NA
ATOM     53  C   UNL A   1      40.617  31.015  30.049  1.00  0.00     0.031 C 
ATOM     54  C   UNL A   1      46.612  30.339  30.729  1.00  0.00     0.029 A 
ATOM     55  C   UNL A   1      45.278  30.101  30.437  1.00  0.00     0.049 A 
ATOM     56  H   UNL A   1      44.373  28.342  29.700  1.00  0.00     0.167 HD
ATOM     57  C   UNL A   1      42.877  30.687  30.246  1.00  0.00     0.074 A 
ATOM     58  C   UNL A   1      41.758  31.595  30.391  1.00  0.00     0.031 C 
ATOM     59  C   UNL A   1      44.158  30.996  30.565  1.00  0.00     0.037 A 
BRANCH  46  60
ATOM     60  C   UNL A   1      48.156  26.365  29.696  1.00  0.00     0.057 A 
ATOM     61  C   UNL A   1      49.081  26.503  28.651  1.00  0.00     0.134 A 
ATOM     62  C   UNL A   1      48.604  25.760  30.878  1.00  0.00     0.134 A 
ATOM     63  F   UNL A   1      48.714  27.062  27.489  1.00  0.00    -0.206 F 
ATOM     64  C   UNL A   1      50.389  26.028  28.766  1.00  0.00     0.040 A 
ATOM     65  C   UNL A   1      49.918  25.309  31.015  1.00  0.00     0.040 A 
ATOM     66  F   UNL A   1      47.775  25.602  31.920  1.00  0.00    -0.206 F 
ATOM     67  C   UNL A   1      50.812  25.435  29.953  1.00  0.00     0.006 A 
ENDBRANCH  46  60
BRANCH  47  68
ATOM     68  C   UNL A   1      38.604  29.172  29.001  1.00  0.00     0.057 A 
ATOM     69  C   UNL A   1      37.769  29.076  30.119  1.00  0.00     0.134 A 
ATOM     70  C   UNL A   1      38.043  29.668  27.817  1.00  0.00     0.134 A 
ATOM     71  F   UNL A   1      38.243  28.592  31.276  1.00  0.00    -0.206 F 
ATOM     72  C   UNL A   1      36.422  29.441  30.061  1.00  0.00     0.040 A 
ATOM     73  C   UNL A   1      36.705  30.060  27.751  1.00  0.00     0.040 A 
ATOM     74  F   UNL A   1      38.793  29.791  26.712  1.00  0.00    -0.206 F 
ATOM     75  C   UNL A   1      35.889  29.939  28.873  1.00  0.00     0.006 A 
ENDBRANCH  47  68
BRANCH  59  76
ATOM     76  C   UNL A   1      44.427  32.388  31.061  1.00  0.00     0.057 A 
ATOM     77  C   UNL A   1      44.428  32.702  32.425  1.00  0.00     0.134 A 
ATOM     78  C   UNL A   1      44.730  33.417  30.159  1.00  0.00     0.134 A 
ATOM     79  F   UNL A   1      44.133  31.766  33.339  1.00  0.00    -0.206 F 
ATOM     80  C   UNL A   1      44.702  33.996  32.874  1.00  0.00     0.040 A 
ATOM     81  C   UNL A   1      45.032  34.707  30.598  1.00  0.00     0.040 A 
ATOM     82  F   UNL A   1      44.754  33.181  28.838  1.00  0.00    -0.206 F 
ATOM     83  C   UNL A   1      45.013  35.000  31.959  1.00  0.00     0.006 A 
ENDBRANCH  59  76
ENDBRANCH  33  34
ENDBRANCH  25  28
ENDBRANCH  23  24
ENDBRANCH  22  23
ENDBRANCH  21  22
ENDBRANCH   1  21
TORSDOF 16
ENDMDL
