MODEL 1
REMARK VINA RESULT:     -10.8      0.000      0.000
REMARK SMILES CC[C@]1(C(=O)NCCCCNC(=O)c2ccc(-c3c4nc(c(-c5c(F)cccc5F)c5ccc([nH]5)c(-c5c(F)cccc5F)c5nc(c(-c6c(F)cccc6F)c6ccc3[nH]6)C=C5)C=C4)cc2)CCCN(C(=O)C[C@H](C)COC)C1
REMARK SMILES IDX 7 1 6 2 4 3 5 4 3 6 68 7 80 8 69 9 71 10 70 11 2 12 1 13
REMARK SMILES IDX 72 14 73 15 74 16 75 17 76 18 77 19 78 20 79 21 8 22 9 23
REMARK SMILES IDX 10 24 11 25 12 26 13 28 14 29 15 30 67 31 16 32 66 33 17 34
REMARK SMILES IDX 18 35 19 36 60 37 20 38 65 39 59 40 61 41 21 42 64 43 58 44
REMARK SMILES IDX 57 45 22 47 48 48 31 49 47 50 32 51 35 52 46 53 62 54 33 55
REMARK SMILES IDX 34 56 45 58 63 59 36 60 23 61 24 62 29 63 25 64 26 65 28 66
REMARK SMILES IDX 30 67 27 68 49 69 50 70 55 71 51 72 52 73 54 74 56 75 53 76
REMARK SMILES IDX 37 77 38 78 43 79 39 80 40 81 42 82 44 83 41 84
REMARK H PARENT 6 5 11 27 61 46 35 57
REMARK Flexibility Score: inf
ROOT
ATOM      1  C   UNL A   1      31.186  26.571  25.834  1.00  0.00     0.116 C 
ENDROOT
BRANCH   1   2
ATOM      2  N   UNL A   1      30.673  25.375  26.481  1.00  0.00    -0.356 N 
ATOM      3  C   UNL A   1      31.121  24.088  26.531  1.00  0.00     0.228 C 
ATOM      4  O   UNL A   1      30.435  23.315  27.206  1.00  0.00    -0.274 OA
ATOM      5  H   UNL A   1      29.839  25.523  26.981  1.00  0.00     0.163 HD
BRANCH   3   6
ATOM      6  C   UNL A   1      32.414  23.622  25.819  1.00  0.00     0.066 C 
ATOM      7  C   UNL A   1      33.630  24.477  26.270  1.00  0.00     0.020 C 
ATOM      8  C   UNL A   1      32.585  22.103  26.127  1.00  0.00     0.136 C 
ATOM      9  C   UNL A   1      34.982  23.809  26.049  1.00  0.00     0.023 C 
ATOM     10  N   UNL A   1      33.958  21.624  25.912  1.00  0.00    -0.342 N 
ATOM     11  C   UNL A   1      34.979  22.391  26.604  1.00  0.00     0.119 C 
BRANCH   6  12
ATOM     12  C   UNL A   1      32.222  23.726  24.266  1.00  0.00     0.015 C 
ATOM     13  C   UNL A   1      31.077  22.925  23.654  1.00  0.00     0.005 C 
ENDBRANCH   6  12
BRANCH  10  14
ATOM     14  C   UNL A   1      34.182  20.542  25.076  1.00  0.00     0.222 C 
ATOM     15  O   UNL A   1      35.320  20.119  24.859  1.00  0.00    -0.275 OA
BRANCH  14  16
ATOM     16  C   UNL A   1      33.000  19.829  24.426  1.00  0.00     0.106 C 
BRANCH  16  17
ATOM     17  C   UNL A   1      33.147  18.306  24.196  1.00  0.00     0.021 C 
ATOM     18  C   UNL A   1      32.576  17.853  22.850  1.00  0.00     0.010 C 
BRANCH  17  19
ATOM     19  C   UNL A   1      32.655  17.465  25.385  1.00  0.00     0.163 C 
BRANCH  19  20
ATOM     20  O   UNL A   1      33.399  16.255  25.532  1.00  0.00    -0.384 OA
ATOM     21  C   UNL A   1      32.586  15.092  25.403  1.00  0.00     0.194 C 
ENDBRANCH  19  20
ENDBRANCH  17  19
ENDBRANCH  16  17
ENDBRANCH  14  16
ENDBRANCH  10  14
ENDBRANCH   3   6
ENDBRANCH   1   2
BRANCH   1  22
ATOM     22  C   UNL A   1      31.632  27.630  26.844  1.00  0.00     0.023 C 
BRANCH  22  23
ATOM     23  C   UNL A   1      32.638  28.643  26.308  1.00  0.00     0.023 C 
BRANCH  23  24
ATOM     24  C   UNL A   1      33.821  28.912  27.223  1.00  0.00     0.116 C 
BRANCH  24  25
ATOM     25  N   UNL A   1      33.808  30.241  27.816  1.00  0.00    -0.352 N 
ATOM     26  C   UNL A   1      34.831  30.868  28.490  1.00  0.00     0.251 C 
ATOM     27  H   UNL A   1      32.970  30.751  27.725  1.00  0.00     0.163 HD
ATOM     28  O   UNL A   1      34.673  31.958  29.019  1.00  0.00    -0.269 OA
BRANCH  26  29
ATOM     29  C   UNL A   1      36.121  30.159  28.590  1.00  0.00     0.039 A 
ATOM     30  C   UNL A   1      37.017  30.226  27.522  1.00  0.00     0.014 A 
ATOM     31  C   UNL A   1      36.477  29.544  29.792  1.00  0.00     0.014 A 
ATOM     32  C   UNL A   1      38.314  29.739  27.687  1.00  0.00     0.010 A 
ATOM     33  C   UNL A   1      37.786  29.125  29.977  1.00  0.00     0.010 A 
ATOM     34  C   UNL A   1      38.717  29.223  28.930  1.00  0.00    -0.014 A 
BRANCH  34  35
ATOM     35  C   UNL A   1      40.101  28.752  29.174  1.00  0.00     0.031 A 
ATOM     36  C   UNL A   1      41.094  29.696  29.786  1.00  0.00     0.074 A 
ATOM     37  C   UNL A   1      40.487  27.531  28.758  1.00  0.00     0.049 A 
ATOM     38  N   UNL A   1      42.391  29.577  29.898  1.00  0.00    -0.248 NA
ATOM     39  C   UNL A   1      40.556  30.964  30.307  1.00  0.00     0.031 C 
ATOM     40  C   UNL A   1      39.622  26.529  28.132  1.00  0.00     0.029 A 
ATOM     41  N   UNL A   1      41.722  26.933  28.781  1.00  0.00    -0.354 N 
ATOM     42  C   UNL A   1      42.827  30.767  30.468  1.00  0.00     0.074 A 
ATOM     43  C   UNL A   1      41.663  31.608  30.643  1.00  0.00     0.031 C 
ATOM     44  C   UNL A   1      40.351  25.438  27.841  1.00  0.00     0.029 A 
ATOM     45  C   UNL A   1      41.740  25.680  28.218  1.00  0.00     0.049 A 
ATOM     46  H   UNL A   1      42.521  27.363  29.164  1.00  0.00     0.167 HD
ATOM     47  C   UNL A   1      44.082  31.117  30.830  1.00  0.00     0.037 A 
ATOM     48  C   UNL A   1      42.766  24.832  28.016  1.00  0.00     0.037 A 
ATOM     49  C   UNL A   1      45.229  30.263  30.692  1.00  0.00     0.049 A 
ATOM     50  C   UNL A   1      44.152  25.244  28.432  1.00  0.00     0.074 A 
ATOM     51  C   UNL A   1      46.541  30.513  31.053  1.00  0.00     0.029 A 
ATOM     52  N   UNL A   1      45.193  28.982  30.163  1.00  0.00    -0.354 N 
ATOM     53  N   UNL A   1      44.549  26.365  28.983  1.00  0.00    -0.248 NA
ATOM     54  C   UNL A   1      45.231  24.274  28.198  1.00  0.00     0.031 C 
ATOM     55  C   UNL A   1      47.304  29.387  30.728  1.00  0.00     0.029 A 
ATOM     56  C   UNL A   1      46.461  28.426  30.193  1.00  0.00     0.049 A 
ATOM     57  H   UNL A   1      44.387  28.534  29.819  1.00  0.00     0.167 HD
ATOM     58  C   UNL A   1      45.914  26.220  29.196  1.00  0.00     0.074 A 
ATOM     59  C   UNL A   1      46.277  24.904  28.714  1.00  0.00     0.031 C 
ATOM     60  C   UNL A   1      46.789  27.099  29.743  1.00  0.00     0.037 A 
BRANCH  47  61
ATOM     61  C   UNL A   1      44.270  32.483  31.417  1.00  0.00     0.057 A 
ATOM     62  C   UNL A   1      44.193  32.706  32.798  1.00  0.00     0.134 A 
ATOM     63  C   UNL A   1      44.542  33.585  30.597  1.00  0.00     0.134 A 
ATOM     64  F   UNL A   1      43.916  31.693  33.635  1.00  0.00    -0.206 F 
ATOM     65  C   UNL A   1      44.357  33.980  33.341  1.00  0.00     0.040 A 
ATOM     66  C   UNL A   1      44.732  34.860  31.131  1.00  0.00     0.040 A 
ATOM     67  F   UNL A   1      44.629  33.440  29.266  1.00  0.00    -0.206 F 
ATOM     68  C   UNL A   1      44.634  35.061  32.507  1.00  0.00     0.006 A 
ENDBRANCH  47  61
BRANCH  48  69
ATOM     69  C   UNL A   1      42.529  23.501  27.406  1.00  0.00     0.057 A 
ATOM     70  C   UNL A   1      42.632  23.320  26.022  1.00  0.00     0.134 A 
ATOM     71  C   UNL A   1      42.172  22.389  28.177  1.00  0.00     0.134 A 
ATOM     72  F   UNL A   1      42.951  24.353  25.228  1.00  0.00    -0.206 F 
ATOM     73  C   UNL A   1      42.369  22.087  25.423  1.00  0.00     0.040 A 
ATOM     74  C   UNL A   1      41.927  21.144  27.594  1.00  0.00     0.040 A 
ATOM     75  F   UNL A   1      42.063  22.497  29.510  1.00  0.00    -0.206 F 
ATOM     76  C   UNL A   1      42.018  20.993  26.212  1.00  0.00     0.006 A 
ENDBRANCH  48  69
BRANCH  60  77
ATOM     77  C   UNL A   1      48.205  26.644  29.913  1.00  0.00     0.057 A 
ATOM     78  C   UNL A   1      48.625  25.945  31.051  1.00  0.00     0.134 A 
ATOM     79  C   UNL A   1      49.142  26.854  28.893  1.00  0.00     0.134 A 
ATOM     80  F   UNL A   1      47.776  25.725  32.065  1.00  0.00    -0.206 F 
ATOM     81  C   UNL A   1      49.935  25.479  31.172  1.00  0.00     0.040 A 
ATOM     82  C   UNL A   1      50.447  26.375  28.995  1.00  0.00     0.040 A 
ATOM     83  F   UNL A   1      48.795  27.511  27.776  1.00  0.00    -0.206 F 
ATOM     84  C   UNL A   1      50.847  25.687  30.139  1.00  0.00     0.006 A 
ENDBRANCH  60  77
ENDBRANCH  34  35
ENDBRANCH  26  29
ENDBRANCH  24  25
ENDBRANCH  23  24
ENDBRANCH  22  23
ENDBRANCH   1  22
TORSDOF 17
ENDMDL
MODEL 2
REMARK VINA RESULT:     -10.6      2.592      7.947
REMARK SMILES CC[C@]1(C(=O)NCCCCNC(=O)c2ccc(-c3c4nc(c(-c5c(F)cccc5F)c5ccc([nH]5)c(-c5c(F)cccc5F)c5nc(c(-c6c(F)cccc6F)c6ccc3[nH]6)C=C5)C=C4)cc2)CCCN(C(=O)C[C@H](C)COC)C1
REMARK SMILES IDX 7 1 6 2 4 3 5 4 3 6 68 7 80 8 69 9 71 10 70 11 2 12 1 13
REMARK SMILES IDX 72 14 73 15 74 16 75 17 76 18 77 19 78 20 79 21 8 22 9 23
REMARK SMILES IDX 10 24 11 25 12 26 13 28 14 29 15 30 67 31 16 32 66 33 17 34
REMARK SMILES IDX 18 35 19 36 60 37 20 38 65 39 59 40 61 41 21 42 64 43 58 44
REMARK SMILES IDX 57 45 22 47 48 48 31 49 47 50 32 51 35 52 46 53 62 54 33 55
REMARK SMILES IDX 34 56 45 58 63 59 36 60 23 61 24 62 29 63 25 64 26 65 28 66
REMARK SMILES IDX 30 67 27 68 49 69 50 70 55 71 51 72 52 73 54 74 56 75 53 76
REMARK SMILES IDX 37 77 38 78 43 79 39 80 40 81 42 82 44 83 41 84
REMARK H PARENT 6 5 11 27 61 46 35 57
REMARK Flexibility Score: inf
ROOT
ATOM      1  C   UNL A   1      35.841  21.452  25.853  1.00  0.00     0.116 C 
ENDROOT
BRANCH   1   2
ATOM      2  N   UNL A   1      34.609  20.726  25.593  1.00  0.00    -0.356 N 
ATOM      3  C   UNL A   1      33.348  21.132  25.273  1.00  0.00     0.228 C 
ATOM      4  O   UNL A   1      32.529  20.226  25.096  1.00  0.00    -0.274 OA
ATOM      5  H   UNL A   1      34.705  19.749  25.662  1.00  0.00     0.163 HD
BRANCH   3   6
ATOM      6  C   UNL A   1      32.963  22.623  25.109  1.00  0.00     0.066 C 
ATOM      7  C   UNL A   1      33.494  23.463  26.303  1.00  0.00     0.020 C 
ATOM      8  C   UNL A   1      33.524  23.093  23.732  1.00  0.00     0.136 C 
ATOM      9  C   UNL A   1      33.627  24.953  26.010  1.00  0.00     0.023 C 
ATOM     10  N   UNL A   1      33.638  24.554  23.626  1.00  0.00    -0.342 N 
ATOM     11  C   UNL A   1      34.381  25.179  24.707  1.00  0.00     0.119 C 
BRANCH   6  12
ATOM     12  C   UNL A   1      31.404  22.751  25.005  1.00  0.00     0.015 C 
ATOM     13  C   UNL A   1      30.627  22.847  26.315  1.00  0.00     0.005 C 
ENDBRANCH   6  12
BRANCH  10  14
ATOM     14  C   UNL A   1      33.031  25.213  22.570  1.00  0.00     0.222 C 
ATOM     15  O   UNL A   1      33.665  25.542  21.564  1.00  0.00    -0.275 OA
BRANCH  14  16
ATOM     16  C   UNL A   1      31.537  25.519  22.624  1.00  0.00     0.106 C 
BRANCH  16  17
ATOM     17  C   UNL A   1      31.101  26.701  23.521  1.00  0.00     0.021 C 
ATOM     18  C   UNL A   1      30.254  26.257  24.716  1.00  0.00     0.010 C 
BRANCH  17  19
ATOM     19  C   UNL A   1      30.481  27.864  22.729  1.00  0.00     0.163 C 
BRANCH  19  20
ATOM     20  O   UNL A   1      29.085  28.010  22.992  1.00  0.00    -0.384 OA
ATOM     21  C   UNL A   1      28.566  29.251  22.522  1.00  0.00     0.194 C 
ENDBRANCH  19  20
ENDBRANCH  17  19
ENDBRANCH  16  17
ENDBRANCH  14  16
ENDBRANCH  10  14
ENDBRANCH   3   6
ENDBRANCH   1   2
BRANCH   1  22
ATOM     22  C   UNL A   1      36.889  21.224  24.763  1.00  0.00     0.023 C 
BRANCH  22  23
ATOM     23  C   UNL A   1      37.806  20.027  24.996  1.00  0.00     0.023 C 
BRANCH  23  24
ATOM     24  C   UNL A   1      39.090  20.343  25.745  1.00  0.00     0.116 C 
BRANCH  24  25
ATOM     25  N   UNL A   1      40.002  19.213  25.840  1.00  0.00    -0.352 N 
ATOM     26  C   UNL A   1      41.345  19.243  26.139  1.00  0.00     0.251 C 
ATOM     27  H   UNL A   1      39.613  18.324  25.670  1.00  0.00     0.163 HD
ATOM     28  O   UNL A   1      42.029  18.231  26.106  1.00  0.00    -0.269 OA
BRANCH  26  29
ATOM     29  C   UNL A   1      41.947  20.551  26.460  1.00  0.00     0.039 A 
ATOM     30  C   UNL A   1      42.502  21.314  25.430  1.00  0.00     0.014 A 
ATOM     31  C   UNL A   1      41.838  21.059  27.756  1.00  0.00     0.014 A 
ATOM     32  C   UNL A   1      42.881  22.631  25.685  1.00  0.00     0.010 A 
ATOM     33  C   UNL A   1      42.152  22.390  27.989  1.00  0.00     0.010 A 
ATOM     34  C   UNL A   1      42.669  23.190  26.956  1.00  0.00    -0.014 A 
BRANCH  34  35
ATOM     35  C   UNL A   1      42.998  24.603  27.260  1.00  0.00     0.031 A 
ATOM     36  C   UNL A   1      44.434  25.037  27.229  1.00  0.00     0.074 A 
ATOM     37  C   UNL A   1      42.035  25.455  27.658  1.00  0.00     0.049 A 
ATOM     38  N   UNL A   1      44.973  26.150  27.656  1.00  0.00    -0.248 NA
ATOM     39  C   UNL A   1      45.399  24.071  26.679  1.00  0.00     0.031 C 
ATOM     40  C   UNL A   1      40.606  25.147  27.748  1.00  0.00     0.029 A 
ATOM     41  N   UNL A   1      42.121  26.757  28.084  1.00  0.00    -0.354 N 
ATOM     42  C   UNL A   1      46.340  26.002  27.457  1.00  0.00     0.074 A 
ATOM     43  C   UNL A   1      46.551  24.680  26.910  1.00  0.00     0.031 C 
ATOM     44  C   UNL A   1      39.949  26.233  28.191  1.00  0.00     0.029 A 
ATOM     45  C   UNL A   1      40.913  27.296  28.457  1.00  0.00     0.049 A 
ATOM     46  H   UNL A   1      42.968  27.257  28.120  1.00  0.00     0.167 HD
ATOM     47  C   UNL A   1      47.327  26.896  27.694  1.00  0.00     0.037 A 
ATOM     48  C   UNL A   1      40.624  28.506  28.971  1.00  0.00     0.037 A 
ATOM     49  C   UNL A   1      47.108  28.223  28.200  1.00  0.00     0.049 A 
ATOM     50  C   UNL A   1      41.739  29.485  29.220  1.00  0.00     0.074 A 
ATOM     51  C   UNL A   1      48.038  29.216  28.450  1.00  0.00     0.029 A 
ATOM     52  N   UNL A   1      45.864  28.746  28.517  1.00  0.00    -0.354 N 
ATOM     53  N   UNL A   1      43.026  29.339  29.016  1.00  0.00    -0.248 NA
ATOM     54  C   UNL A   1      41.363  30.795  29.771  1.00  0.00     0.031 C 
ATOM     55  C   UNL A   1      47.357  30.338  28.934  1.00  0.00     0.029 A 
ATOM     56  C   UNL A   1      46.001  30.052  28.955  1.00  0.00     0.049 A 
ATOM     57  H   UNL A   1      45.010  28.262  28.441  1.00  0.00     0.167 HD
ATOM     58  C   UNL A   1      43.607  30.548  29.377  1.00  0.00     0.074 A 
ATOM     59  C   UNL A   1      42.533  31.416  29.814  1.00  0.00     0.031 C 
ATOM     60  C   UNL A   1      44.913  30.908  29.348  1.00  0.00     0.037 A 
BRANCH  47  61
ATOM     61  C   UNL A   1      48.730  26.462  27.398  1.00  0.00     0.057 A 
ATOM     62  C   UNL A   1      49.527  25.841  28.368  1.00  0.00     0.134 A 
ATOM     63  C   UNL A   1      49.287  26.655  26.127  1.00  0.00     0.134 A 
ATOM     64  F   UNL A   1      49.057  25.646  29.609  1.00  0.00    -0.206 F 
ATOM     65  C   UNL A   1      50.837  25.449  28.092  1.00  0.00     0.040 A 
ATOM     66  C   UNL A   1      50.587  26.245  25.833  1.00  0.00     0.040 A 
ATOM     67  F   UNL A   1      48.577  27.244  25.153  1.00  0.00    -0.206 F 
ATOM     68  C   UNL A   1      51.369  25.645  26.819  1.00  0.00     0.006 A 
ENDBRANCH  47  61
BRANCH  48  69
ATOM     69  C   UNL A   1      39.218  28.876  29.271  1.00  0.00     0.057 A 
ATOM     70  C   UNL A   1      38.676  28.651  30.542  1.00  0.00     0.134 A 
ATOM     71  C   UNL A   1      38.380  29.435  28.301  1.00  0.00     0.134 A 
ATOM     72  F   UNL A   1      39.426  28.100  31.508  1.00  0.00    -0.206 F 
ATOM     73  C   UNL A   1      37.344  28.950  30.833  1.00  0.00     0.040 A 
ATOM     74  C   UNL A   1      37.051  29.758  28.584  1.00  0.00     0.040 A 
ATOM     75  F   UNL A   1      38.842  29.679  27.066  1.00  0.00    -0.206 F 
ATOM     76  C   UNL A   1      36.528  29.509  29.851  1.00  0.00     0.006 A 
ENDBRANCH  48  69
BRANCH  60  77
ATOM     77  C   UNL A   1      45.247  32.315  29.734  1.00  0.00     0.057 A 
ATOM     78  C   UNL A   1      45.244  33.358  28.800  1.00  0.00     0.134 A 
ATOM     79  C   UNL A   1      45.512  32.638  31.070  1.00  0.00     0.134 A 
ATOM     80  F   UNL A   1      45.009  33.109  27.503  1.00  0.00    -0.206 F 
ATOM     81  C   UNL A   1      45.504  34.675  29.183  1.00  0.00     0.040 A 
ATOM     82  C   UNL A   1      45.753  33.952  31.468  1.00  0.00     0.040 A 
ATOM     83  F   UNL A   1      45.522  31.681  32.012  1.00  0.00    -0.206 F 
ATOM     84  C   UNL A   1      45.751  34.975  30.521  1.00  0.00     0.006 A 
ENDBRANCH  60  77
ENDBRANCH  34  35
ENDBRANCH  26  29
ENDBRANCH  24  25
ENDBRANCH  23  24
ENDBRANCH  22  23
ENDBRANCH   1  22
TORSDOF 17
ENDMDL
MODEL 3
REMARK VINA RESULT:     -10.6      2.128      7.447
REMARK SMILES CC[C@]1(C(=O)NCCCCNC(=O)c2ccc(-c3c4nc(c(-c5c(F)cccc5F)c5ccc([nH]5)c(-c5c(F)cccc5F)c5nc(c(-c6c(F)cccc6F)c6ccc3[nH]6)C=C5)C=C4)cc2)CCCN(C(=O)C[C@H](C)COC)C1
REMARK SMILES IDX 7 1 6 2 4 3 5 4 3 6 68 7 80 8 69 9 71 10 70 11 2 12 1 13
REMARK SMILES IDX 72 14 73 15 74 16 75 17 76 18 77 19 78 20 79 21 8 22 9 23
REMARK SMILES IDX 10 24 11 25 12 26 13 28 14 29 15 30 67 31 16 32 66 33 17 34
REMARK SMILES IDX 18 35 19 36 60 37 20 38 65 39 59 40 61 41 21 42 64 43 58 44
REMARK SMILES IDX 57 45 22 47 48 48 31 49 47 50 32 51 35 52 46 53 62 54 33 55
REMARK SMILES IDX 34 56 45 58 63 59 36 60 23 61 24 62 29 63 25 64 26 65 28 66
REMARK SMILES IDX 30 67 27 68 49 69 50 70 55 71 51 72 52 73 54 74 56 75 53 76
REMARK SMILES IDX 37 77 38 78 43 79 39 80 40 81 42 82 44 83 41 84
REMARK H PARENT 6 5 11 27 61 46 35 57
REMARK Flexibility Score: inf
ROOT
ATOM      1  C   UNL A   1      34.995  20.416  24.963  1.00  0.00     0.116 C 
ENDROOT
BRANCH   1   2
ATOM      2  N   UNL A   1      34.573  20.921  26.258  1.00  0.00    -0.356 N 
ATOM      3  C   UNL A   1      33.860  22.020  26.634  1.00  0.00     0.228 C 
ATOM      4  O   UNL A   1      33.660  22.133  27.846  1.00  0.00    -0.274 OA
ATOM      5  H   UNL A   1      34.859  20.358  27.014  1.00  0.00     0.163 HD
BRANCH   3   6
ATOM      6  C   UNL A   1      33.306  23.048  25.616  1.00  0.00     0.066 C 
ATOM      7  C   UNL A   1      32.229  22.397  24.707  1.00  0.00     0.020 C 
ATOM      8  C   UNL A   1      32.765  24.259  26.437  1.00  0.00     0.136 C 
ATOM      9  C   UNL A   1      31.281  23.392  24.048  1.00  0.00     0.023 C 
ATOM     10  N   UNL A   1      31.825  25.094  25.676  1.00  0.00    -0.342 N 
ATOM     11  C   UNL A   1      30.720  24.364  25.078  1.00  0.00     0.119 C 
BRANCH   6  12
ATOM     12  C   UNL A   1      34.485  23.609  24.748  1.00  0.00     0.015 C 
ATOM     13  C   UNL A   1      35.636  24.279  25.492  1.00  0.00     0.005 C 
ENDBRANCH   6  12
BRANCH  10  14
ATOM     14  C   UNL A   1      32.059  26.453  25.558  1.00  0.00     0.222 C 
ATOM     15  O   UNL A   1      32.215  27.171  26.550  1.00  0.00    -0.275 OA
BRANCH  14  16
ATOM     16  C   UNL A   1      32.158  27.089  24.174  1.00  0.00     0.106 C 
BRANCH  16  17
ATOM     17  C   UNL A   1      33.569  27.168  23.545  1.00  0.00     0.021 C 
ATOM     18  C   UNL A   1      33.898  28.562  23.004  1.00  0.00     0.010 C 
BRANCH  17  19
ATOM     19  C   UNL A   1      33.847  26.039  22.539  1.00  0.00     0.163 C 
BRANCH  19  20
ATOM     20  O   UNL A   1      33.474  26.400  21.208  1.00  0.00    -0.384 OA
ATOM     21  C   UNL A   1      32.377  25.634  20.720  1.00  0.00     0.194 C 
ENDBRANCH  19  20
ENDBRANCH  17  19
ENDBRANCH  16  17
ENDBRANCH  14  16
ENDBRANCH  10  14
ENDBRANCH   3   6
ENDBRANCH   1   2
BRANCH   1  22
ATOM     22  C   UNL A   1      36.479  20.049  24.938  1.00  0.00     0.023 C 
BRANCH  22  23
ATOM     23  C   UNL A   1      37.429  21.229  24.762  1.00  0.00     0.023 C 
BRANCH  23  24
ATOM     24  C   UNL A   1      38.625  21.230  25.700  1.00  0.00     0.116 C 
BRANCH  24  25
ATOM     25  N   UNL A   1      39.454  20.039  25.587  1.00  0.00    -0.352 N 
ATOM     26  C   UNL A   1      40.778  19.903  25.938  1.00  0.00     0.251 C 
ATOM     27  H   UNL A   1      39.016  19.237  25.217  1.00  0.00     0.163 HD
ATOM     28  O   UNL A   1      41.393  18.871  25.717  1.00  0.00    -0.269 OA
BRANCH  26  29
ATOM     29  C   UNL A   1      41.446  21.065  26.553  1.00  0.00     0.039 A 
ATOM     30  C   UNL A   1      41.989  22.052  25.727  1.00  0.00     0.014 A 
ATOM     31  C   UNL A   1      41.414  21.224  27.940  1.00  0.00     0.014 A 
ATOM     32  C   UNL A   1      42.433  23.247  26.293  1.00  0.00     0.010 A 
ATOM     33  C   UNL A   1      41.791  22.439  28.491  1.00  0.00     0.010 A 
ATOM     34  C   UNL A   1      42.298  23.463  27.674  1.00  0.00    -0.014 A 
BRANCH  34  35
ATOM     35  C   UNL A   1      42.698  24.739  28.313  1.00  0.00     0.031 A 
ATOM     36  C   UNL A   1      41.659  25.800  28.530  1.00  0.00     0.074 A 
ATOM     37  C   UNL A   1      43.992  24.981  28.598  1.00  0.00     0.049 A 
ATOM     38  N   UNL A   1      41.812  27.053  28.873  1.00  0.00    -0.248 NA
ATOM     39  C   UNL A   1      40.261  25.405  28.291  1.00  0.00     0.031 C 
ATOM     40  C   UNL A   1      45.097  24.039  28.414  1.00  0.00     0.029 A 
ATOM     41  N   UNL A   1      44.597  26.112  29.085  1.00  0.00    -0.354 N 
ATOM     42  C   UNL A   1      40.537  27.602  28.856  1.00  0.00     0.074 A 
ATOM     43  C   UNL A   1      39.628  26.559  28.432  1.00  0.00     0.031 C 
ATOM     44  C   UNL A   1      46.244  24.628  28.794  1.00  0.00     0.029 A 
ATOM     45  C   UNL A   1      45.961  25.999  29.205  1.00  0.00     0.049 A 
ATOM     46  H   UNL A   1      44.101  26.928  29.325  1.00  0.00     0.167 HD
ATOM     47  C   UNL A   1      40.156  28.859  29.182  1.00  0.00     0.037 A 
ATOM     48  C   UNL A   1      46.878  26.908  29.588  1.00  0.00     0.037 A 
ATOM     49  C   UNL A   1      41.057  29.880  29.641  1.00  0.00     0.049 A 
ATOM     50  C   UNL A   1      46.429  28.297  29.951  1.00  0.00     0.074 A 
ATOM     51  C   UNL A   1      40.769  31.178  30.022  1.00  0.00     0.029 A 
ATOM     52  N   UNL A   1      42.424  29.708  29.796  1.00  0.00    -0.354 N 
ATOM     53  N   UNL A   1      45.219  28.801  29.944  1.00  0.00    -0.248 NA
ATOM     54  C   UNL A   1      47.472  29.244  30.373  1.00  0.00     0.031 C 
ATOM     55  C   UNL A   1      41.966  31.798  30.395  1.00  0.00     0.029 A 
ATOM     56  C   UNL A   1      42.993  30.876  30.274  1.00  0.00     0.049 A 
ATOM     57  H   UNL A   1      42.917  28.879  29.597  1.00  0.00     0.167 HD
ATOM     58  C   UNL A   1      45.350  30.108  30.396  1.00  0.00     0.074 A 
ATOM     59  C   UNL A   1      46.756  30.320  30.666  1.00  0.00     0.031 C 
ATOM     60  C   UNL A   1      44.391  31.049  30.572  1.00  0.00     0.037 A 
BRANCH  47  61
ATOM     61  C   UNL A   1      38.700  29.188  29.058  1.00  0.00     0.057 A 
ATOM     62  C   UNL A   1      37.836  29.119  30.158  1.00  0.00     0.134 A 
ATOM     63  C   UNL A   1      38.158  29.591  27.831  1.00  0.00     0.134 A 
ATOM     64  F   UNL A   1      38.292  28.721  31.356  1.00  0.00    -0.206 F 
ATOM     65  C   UNL A   1      36.478  29.415  30.038  1.00  0.00     0.040 A 
ATOM     66  C   UNL A   1      36.806  29.913  27.704  1.00  0.00     0.040 A 
ATOM     67  F   UNL A   1      38.931  29.678  26.739  1.00  0.00    -0.206 F 
ATOM     68  C   UNL A   1      35.961  29.819  28.808  1.00  0.00     0.006 A 
ENDBRANCH  47  61
BRANCH  48  69
ATOM     69  C   UNL A   1      48.313  26.537  29.668  1.00  0.00     0.057 A 
ATOM     70  C   UNL A   1      49.175  26.780  28.593  1.00  0.00     0.134 A 
ATOM     71  C   UNL A   1      48.851  25.913  30.799  1.00  0.00     0.134 A 
ATOM     72  F   UNL A   1      48.713  27.357  27.474  1.00  0.00    -0.206 F 
ATOM     73  C   UNL A   1      50.517  26.398  28.631  1.00  0.00     0.040 A 
ATOM     74  C   UNL A   1      50.197  25.544  30.859  1.00  0.00     0.040 A 
ATOM     75  F   UNL A   1      48.077  25.658  31.864  1.00  0.00    -0.206 F 
ATOM     76  C   UNL A   1      51.032  25.781  29.768  1.00  0.00     0.006 A 
ENDBRANCH  48  69
BRANCH  60  77
ATOM     77  C   UNL A   1      44.815  32.366  31.144  1.00  0.00     0.057 A 
ATOM     78  C   UNL A   1      44.867  32.590  32.524  1.00  0.00     0.134 A 
ATOM     79  C   UNL A   1      45.238  33.400  30.299  1.00  0.00     0.134 A 
ATOM     80  F   UNL A   1      44.463  31.642  33.382  1.00  0.00    -0.206 F 
ATOM     81  C   UNL A   1      45.317  33.804  33.045  1.00  0.00     0.040 A 
ATOM     82  C   UNL A   1      45.709  34.609  30.808  1.00  0.00     0.040 A 
ATOM     83  F   UNL A   1      45.218  33.241  28.966  1.00  0.00    -0.206 F 
ATOM     84  C   UNL A   1      45.747  34.814  32.186  1.00  0.00     0.006 A 
ENDBRANCH  60  77
ENDBRANCH  34  35
ENDBRANCH  26  29
ENDBRANCH  24  25
ENDBRANCH  23  24
ENDBRANCH  22  23
ENDBRANCH   1  22
TORSDOF 17
ENDMDL
