MODEL 1
REMARK VINA RESULT:     -11.9      0.000      0.000
REMARK SMILES CC1(C)CCC[C@@H]1NC(=O)CC1(C(=O)NCCCCNC(=O)c2ccc(-c3c4nc(c(-c5c(F)cccc5F)c5ccc([nH]5)c(-c5c(F)cccc5F)c5nc(c(-c6c(F)cccc6F)c6ccc3[nH]6)C=C5)C=C4)cc2)CCCCC1
REMARK SMILES IDX 17 1 16 2 15 3 13 4 14 5 12 7 77 8 81 9 78 10 80 11 79 12
REMARK SMILES IDX 11 13 9 14 8 15 10 17 7 18 1 19 2 20 3 21 4 22 5 23 6 24
REMARK SMILES IDX 18 25 19 26 20 27 21 28 22 30 23 31 24 32 76 33 25 34 75 35
REMARK SMILES IDX 26 36 27 37 28 38 69 39 29 40 74 41 68 42 70 43 30 44 73 45
REMARK SMILES IDX 67 46 66 47 31 49 57 50 40 51 56 52 41 53 44 54 55 55 71 56
REMARK SMILES IDX 42 57 43 58 54 60 72 61 45 62 32 63 33 64 38 65 34 66 35 67
REMARK SMILES IDX 37 68 39 69 36 70 58 71 59 72 64 73 60 74 61 75 63 76 65 77
REMARK SMILES IDX 62 78 46 79 47 80 52 81 48 82 49 83 51 84 53 85 50 86
REMARK H PARENT 15 6 8 16 20 29 70 48 44 59
REMARK Flexibility Score: inf
ROOT
ATOM      1  C   UNL A   1      36.259  20.419  24.959  1.00  0.00     0.023 C 
ENDROOT
BRANCH   1   2
ATOM      2  C   UNL A   1      35.275  20.970  25.986  1.00  0.00     0.116 C 
BRANCH   2   3
ATOM      3  N   UNL A   1      33.924  20.600  25.664  1.00  0.00    -0.356 N 
ATOM      4  C   UNL A   1      32.799  21.247  25.309  1.00  0.00     0.226 C 
ATOM      5  O   UNL A   1      31.834  20.467  25.295  1.00  0.00    -0.274 OA
ATOM      6  H   UNL A   1      33.787  19.627  25.717  1.00  0.00     0.163 HD
BRANCH   4   7
ATOM      7  C   UNL A   1      32.627  22.747  24.882  1.00  0.00     0.058 C 
ATOM      8  C   UNL A   1      33.043  22.908  23.388  1.00  0.00     0.017 C 
ATOM      9  C   UNL A   1      33.314  23.881  25.679  1.00  0.00     0.017 C 
ATOM     10  C   UNL A   1      34.527  23.164  23.112  1.00  0.00     0.001 C 
ATOM     11  C   UNL A   1      34.789  24.145  25.477  1.00  0.00     0.001 C 
ATOM     12  C   UNL A   1      35.177  24.216  24.010  1.00  0.00     0.000 C 
BRANCH   7  13
ATOM     13  C   UNL A   1      31.051  22.990  24.980  1.00  0.00     0.117 C 
BRANCH  13  14
ATOM     14  C   UNL A   1      30.558  24.074  25.923  1.00  0.00     0.221 C 
ATOM     15  N   UNL A   1      30.060  25.271  25.525  1.00  0.00    -0.353 N 
ATOM     16  H   UNL A   1      29.713  25.805  26.277  1.00  0.00     0.163 HD
ATOM     17  O   UNL A   1      30.594  23.876  27.144  1.00  0.00    -0.275 OA
BRANCH  15  18
ATOM     18  C   UNL A   1      29.918  25.952  24.240  1.00  0.00     0.087 C 
ATOM     19  C   UNL A   1      32.355  26.553  23.702  1.00  0.00     0.013 C 
ATOM     20  C   UNL A   1      30.964  27.092  24.042  1.00  0.00    -0.015 C 
ATOM     21  C   UNL A   1      31.079  28.042  25.259  1.00  0.00     0.013 C 
ATOM     22  C   UNL A   1      30.368  27.860  22.848  1.00  0.00     0.008 C 
ATOM     23  C   UNL A   1      28.863  27.848  23.073  1.00  0.00     0.003 C 
ATOM     24  C   UNL A   1      28.602  26.724  24.070  1.00  0.00     0.025 C 
ENDBRANCH  15  18
ENDBRANCH  13  14
ENDBRANCH   7  13
ENDBRANCH   4   7
ENDBRANCH   2   3
ENDBRANCH   1   2
BRANCH   1  25
ATOM     25  C   UNL A   1      37.443  21.343  24.678  1.00  0.00     0.023 C 
BRANCH  25  26
ATOM     26  C   UNL A   1      38.569  21.272  25.703  1.00  0.00     0.116 C 
BRANCH  26  27
ATOM     27  N   UNL A   1      39.391  20.068  25.601  1.00  0.00    -0.352 N 
ATOM     28  C   UNL A   1      40.702  19.904  25.971  1.00  0.00     0.251 C 
ATOM     29  H   UNL A   1      38.949  19.276  25.220  1.00  0.00     0.163 HD
ATOM     30  O   UNL A   1      41.293  18.863  25.773  1.00  0.00    -0.269 OA
BRANCH  28  31
ATOM     31  C   UNL A   1      41.394  21.061  26.578  1.00  0.00     0.039 A 
ATOM     32  C   UNL A   1      41.981  22.008  25.737  1.00  0.00     0.014 A 
ATOM     33  C   UNL A   1      41.344  21.255  27.961  1.00  0.00     0.014 A 
ATOM     34  C   UNL A   1      42.451  23.200  26.283  1.00  0.00     0.010 A 
ATOM     35  C   UNL A   1      41.742  22.473  28.489  1.00  0.00     0.010 A 
ATOM     36  C   UNL A   1      42.291  23.460  27.654  1.00  0.00    -0.014 A 
BRANCH  36  37
ATOM     37  C   UNL A   1      42.681  24.764  28.242  1.00  0.00     0.031 A 
ATOM     38  C   UNL A   1      41.640  25.824  28.457  1.00  0.00     0.074 A 
ATOM     39  C   UNL A   1      43.978  25.019  28.497  1.00  0.00     0.049 A 
ATOM     40  N   UNL A   1      41.791  27.058  28.863  1.00  0.00    -0.248 NA
ATOM     41  C   UNL A   1      40.250  25.458  28.138  1.00  0.00     0.031 C 
ATOM     42  C   UNL A   1      45.088  24.091  28.270  1.00  0.00     0.029 A 
ATOM     43  N   UNL A   1      44.585  26.145  28.993  1.00  0.00    -0.354 N 
ATOM     44  C   UNL A   1      40.523  27.621  28.824  1.00  0.00     0.074 A 
ATOM     45  C   UNL A   1      39.624  26.613  28.307  1.00  0.00     0.031 C 
ATOM     46  C   UNL A   1      46.237  24.677  28.648  1.00  0.00     0.029 A 
ATOM     47  C   UNL A   1      45.948  26.030  29.112  1.00  0.00     0.049 A 
ATOM     48  H   UNL A   1      44.089  26.960  29.239  1.00  0.00     0.167 HD
ATOM     49  C   UNL A   1      40.137  28.861  29.208  1.00  0.00     0.037 A 
ATOM     50  C   UNL A   1      46.862  26.919  29.546  1.00  0.00     0.037 A 
ATOM     51  C   UNL A   1      41.026  29.845  29.763  1.00  0.00     0.049 A 
ATOM     52  C   UNL A   1      46.404  28.278  29.997  1.00  0.00     0.074 A 
ATOM     53  C   UNL A   1      40.723  31.103  30.252  1.00  0.00     0.029 A 
ATOM     54  N   UNL A   1      42.395  29.676  29.909  1.00  0.00    -0.354 N 
ATOM     55  N   UNL A   1      45.192  28.775  30.018  1.00  0.00    -0.248 NA
ATOM     56  C   UNL A   1      47.440  29.195  30.491  1.00  0.00     0.031 C 
ATOM     57  C   UNL A   1      41.914  31.707  30.668  1.00  0.00     0.029 A 
ATOM     58  C   UNL A   1      42.953  30.812  30.470  1.00  0.00     0.049 A 
ATOM     59  H   UNL A   1      42.895  28.869  29.652  1.00  0.00     0.167 HD
ATOM     60  C   UNL A   1      45.314  30.053  30.548  1.00  0.00     0.074 A 
ATOM     61  C   UNL A   1      46.718  30.249  30.846  1.00  0.00     0.031 C 
ATOM     62  C   UNL A   1      44.352  30.980  30.768  1.00  0.00     0.037 A 
BRANCH  49  63
ATOM     63  C   UNL A   1      38.688  29.208  29.050  1.00  0.00     0.057 A 
ATOM     64  C   UNL A   1      37.797  29.162  30.131  1.00  0.00     0.134 A 
ATOM     65  C   UNL A   1      38.179  29.607  27.808  1.00  0.00     0.134 A 
ATOM     66  F   UNL A   1      38.220  28.772  31.343  1.00  0.00    -0.206 F 
ATOM     67  C   UNL A   1      36.446  29.474  29.976  1.00  0.00     0.040 A 
ATOM     68  C   UNL A   1      36.834  29.945  27.647  1.00  0.00     0.040 A 
ATOM     69  F   UNL A   1      38.978  29.675  26.732  1.00  0.00    -0.206 F 
ATOM     70  C   UNL A   1      35.962  29.872  28.732  1.00  0.00     0.006 A 
ENDBRANCH  49  63
BRANCH  50  71
ATOM     71  C   UNL A   1      48.295  26.543  29.609  1.00  0.00     0.057 A 
ATOM     72  C   UNL A   1      48.816  25.888  30.730  1.00  0.00     0.134 A 
ATOM     73  C   UNL A   1      49.176  26.831  28.560  1.00  0.00     0.134 A 
ATOM     74  F   UNL A   1      48.023  25.601  31.772  1.00  0.00    -0.206 F 
ATOM     75  C   UNL A   1      50.167  25.548  30.816  1.00  0.00     0.040 A 
ATOM     76  C   UNL A   1      50.525  26.478  28.623  1.00  0.00     0.040 A 
ATOM     77  F   UNL A   1      48.735  27.449  27.454  1.00  0.00    -0.206 F 
ATOM     78  C   UNL A   1      51.025  25.841  29.758  1.00  0.00     0.006 A 
ENDBRANCH  50  71
BRANCH  62  79
ATOM     79  C   UNL A   1      44.779  32.276  31.387  1.00  0.00     0.057 A 
ATOM     80  C   UNL A   1      45.150  33.378  30.607  1.00  0.00     0.134 A 
ATOM     81  C   UNL A   1      44.775  32.435  32.779  1.00  0.00     0.134 A 
ATOM     82  F   UNL A   1      45.186  33.282  29.270  1.00  0.00    -0.206 F 
ATOM     83  C   UNL A   1      45.518  34.590  31.191  1.00  0.00     0.040 A 
ATOM     84  C   UNL A   1      45.120  33.649  33.374  1.00  0.00     0.040 A 
ATOM     85  F   UNL A   1      44.423  31.418  33.580  1.00  0.00    -0.206 F 
ATOM     86  C   UNL A   1      45.496  34.730  32.579  1.00  0.00     0.006 A 
ENDBRANCH  62  79
ENDBRANCH  36  37
ENDBRANCH  28  31
ENDBRANCH  26  27
ENDBRANCH  25  26
ENDBRANCH   1  25
TORSDOF 14
ENDMDL
MODEL 2
REMARK VINA RESULT:     -11.9      1.529      6.422
REMARK SMILES CC1(C)CCC[C@@H]1NC(=O)CC1(C(=O)NCCCCNC(=O)c2ccc(-c3c4nc(c(-c5c(F)cccc5F)c5ccc([nH]5)c(-c5c(F)cccc5F)c5nc(c(-c6c(F)cccc6F)c6ccc3[nH]6)C=C5)C=C4)cc2)CCCCC1
REMARK SMILES IDX 17 1 16 2 15 3 13 4 14 5 12 7 77 8 81 9 78 10 80 11 79 12
REMARK SMILES IDX 11 13 9 14 8 15 10 17 7 18 1 19 2 20 3 21 4 22 5 23 6 24
REMARK SMILES IDX 18 25 19 26 20 27 21 28 22 30 23 31 24 32 76 33 25 34 75 35
REMARK SMILES IDX 26 36 27 37 28 38 69 39 29 40 74 41 68 42 70 43 30 44 73 45
REMARK SMILES IDX 67 46 66 47 31 49 57 50 40 51 56 52 41 53 44 54 55 55 71 56
REMARK SMILES IDX 42 57 43 58 54 60 72 61 45 62 32 63 33 64 38 65 34 66 35 67
REMARK SMILES IDX 37 68 39 69 36 70 58 71 59 72 64 73 60 74 61 75 63 76 65 77
REMARK SMILES IDX 62 78 46 79 47 80 52 81 48 82 49 83 51 84 53 85 50 86
REMARK H PARENT 15 6 8 16 20 29 70 48 44 59
REMARK Flexibility Score: inf
ROOT
ATOM      1  C   UNL A   1      36.875  21.187  25.172  1.00  0.00     0.023 C 
ENDROOT
BRANCH   1   2
ATOM      2  C   UNL A   1      35.447  20.679  25.002  1.00  0.00     0.116 C 
BRANCH   2   3
ATOM      3  N   UNL A   1      34.668  20.908  26.188  1.00  0.00    -0.356 N 
ATOM      4  C   UNL A   1      33.781  21.831  26.604  1.00  0.00     0.226 C 
ATOM      5  O   UNL A   1      33.506  21.661  27.802  1.00  0.00    -0.274 OA
ATOM      6  H   UNL A   1      34.823  20.214  26.869  1.00  0.00     0.163 HD
BRANCH   4   7
ATOM      7  C   UNL A   1      33.077  22.956  25.768  1.00  0.00     0.058 C 
ATOM      8  C   UNL A   1      32.126  22.299  24.721  1.00  0.00     0.017 C 
ATOM      9  C   UNL A   1      33.907  24.031  25.029  1.00  0.00     0.017 C 
ATOM     10  C   UNL A   1      32.748  21.909  23.377  1.00  0.00     0.001 C 
ATOM     11  C   UNL A   1      34.580  23.684  23.720  1.00  0.00     0.001 C 
ATOM     12  C   UNL A   1      33.650  22.973  22.752  1.00  0.00     0.000 C 
BRANCH   7  13
ATOM     13  C   UNL A   1      32.171  23.715  26.842  1.00  0.00     0.117 C 
BRANCH  13  14
ATOM     14  C   UNL A   1      30.662  23.648  26.671  1.00  0.00     0.221 C 
ATOM     15  N   UNL A   1      29.895  24.666  26.211  1.00  0.00    -0.353 N 
ATOM     16  H   UNL A   1      28.953  24.404  26.089  1.00  0.00     0.163 HD
ATOM     17  O   UNL A   1      30.068  22.601  26.956  1.00  0.00    -0.275 OA
BRANCH  15  18
ATOM     18  C   UNL A   1      30.141  26.062  25.853  1.00  0.00     0.087 C 
ATOM     19  C   UNL A   1      28.534  26.380  23.877  1.00  0.00     0.013 C 
ATOM     20  C   UNL A   1      29.996  26.327  24.323  1.00  0.00    -0.015 C 
ATOM     21  C   UNL A   1      30.750  25.300  23.445  1.00  0.00     0.013 C 
ATOM     22  C   UNL A   1      30.662  27.708  24.181  1.00  0.00     0.008 C 
ATOM     23  C   UNL A   1      31.851  27.681  25.131  1.00  0.00     0.003 C 
ATOM     24  C   UNL A   1      31.579  26.538  26.103  1.00  0.00     0.025 C 
ENDBRANCH  15  18
ENDBRANCH  13  14
ENDBRANCH   7  13
ENDBRANCH   4   7
ENDBRANCH   2   3
ENDBRANCH   1   2
BRANCH   1  25
ATOM     25  C   UNL A   1      37.941  20.106  25.001  1.00  0.00     0.023 C 
BRANCH  25  26
ATOM     26  C   UNL A   1      39.242  20.363  25.752  1.00  0.00     0.116 C 
BRANCH  26  27
ATOM     27  N   UNL A   1      40.131  19.204  25.816  1.00  0.00    -0.352 N 
ATOM     28  C   UNL A   1      41.472  19.181  26.105  1.00  0.00     0.251 C 
ATOM     29  H   UNL A   1      39.715  18.332  25.628  1.00  0.00     0.163 HD
ATOM     30  O   UNL A   1      42.113  18.151  26.062  1.00  0.00    -0.269 OA
BRANCH  28  31
ATOM     31  C   UNL A   1      42.127  20.466  26.425  1.00  0.00     0.039 A 
ATOM     32  C   UNL A   1      42.536  21.290  25.375  1.00  0.00     0.014 A 
ATOM     33  C   UNL A   1      42.216  20.890  27.754  1.00  0.00     0.014 A 
ATOM     34  C   UNL A   1      42.962  22.585  25.658  1.00  0.00     0.010 A 
ATOM     35  C   UNL A   1      42.567  22.204  28.024  1.00  0.00     0.010 A 
ATOM     36  C   UNL A   1      42.936  23.066  26.978  1.00  0.00    -0.014 A 
BRANCH  36  37
ATOM     37  C   UNL A   1      43.279  24.473  27.293  1.00  0.00     0.031 A 
ATOM     38  C   UNL A   1      44.709  24.923  27.224  1.00  0.00     0.074 A 
ATOM     39  C   UNL A   1      42.319  25.314  27.721  1.00  0.00     0.049 A 
ATOM     40  N   UNL A   1      45.228  26.077  27.555  1.00  0.00    -0.248 NA
ATOM     41  C   UNL A   1      45.691  23.931  26.756  1.00  0.00     0.031 C 
ATOM     42  C   UNL A   1      40.904  24.975  27.889  1.00  0.00     0.029 A 
ATOM     43  N   UNL A   1      42.392  26.628  28.109  1.00  0.00    -0.354 N 
ATOM     44  C   UNL A   1      46.596  25.941  27.360  1.00  0.00     0.074 A 
ATOM     45  C   UNL A   1      46.833  24.580  26.931  1.00  0.00     0.031 C 
ATOM     46  C   UNL A   1      40.239  26.059  28.322  1.00  0.00     0.029 A 
ATOM     47  C   UNL A   1      41.184  27.158  28.493  1.00  0.00     0.049 A 
ATOM     48  H   UNL A   1      43.232  27.142  28.111  1.00  0.00     0.167 HD
ATOM     49  C   UNL A   1      47.566  26.874  27.501  1.00  0.00     0.037 A 
ATOM     50  C   UNL A   1      40.877  28.392  28.935  1.00  0.00     0.037 A 
ATOM     51  C   UNL A   1      47.322  28.238  27.884  1.00  0.00     0.049 A 
ATOM     52  C   UNL A   1      41.967  29.420  29.052  1.00  0.00     0.074 A 
ATOM     53  C   UNL A   1      48.225  29.281  27.984  1.00  0.00     0.029 A 
ATOM     54  N   UNL A   1      46.078  28.749  28.223  1.00  0.00    -0.354 N 
ATOM     55  N   UNL A   1      43.247  29.298  28.800  1.00  0.00    -0.248 NA
ATOM     56  C   UNL A   1      41.568  30.759  29.509  1.00  0.00     0.031 C 
ATOM     57  C   UNL A   1      47.531  30.419  28.412  1.00  0.00     0.029 A 
ATOM     58  C   UNL A   1      46.192  30.091  28.545  1.00  0.00     0.049 A 
ATOM     59  H   UNL A   1      45.239  28.235  28.234  1.00  0.00     0.167 HD
ATOM     60  C   UNL A   1      43.804  30.546  29.043  1.00  0.00     0.074 A 
ATOM     61  C   UNL A   1      42.719  31.416  29.452  1.00  0.00     0.031 C 
ATOM     62  C   UNL A   1      45.096  30.939  28.938  1.00  0.00     0.037 A 
BRANCH  49  63
ATOM     63  C   UNL A   1      48.975  26.447  27.225  1.00  0.00     0.057 A 
ATOM     64  C   UNL A   1      49.812  25.968  28.243  1.00  0.00     0.134 A 
ATOM     65  C   UNL A   1      49.500  26.500  25.928  1.00  0.00     0.134 A 
ATOM     66  F   UNL A   1      49.374  25.908  29.510  1.00  0.00    -0.206 F 
ATOM     67  C   UNL A   1      51.128  25.583  27.985  1.00  0.00     0.040 A 
ATOM     68  C   UNL A   1      50.807  26.094  25.653  1.00  0.00     0.040 A 
ATOM     69  F   UNL A   1      48.751  26.946  24.908  1.00  0.00    -0.206 F 
ATOM     70  C   UNL A   1      51.627  25.641  26.685  1.00  0.00     0.006 A 
ENDBRANCH  49  63
BRANCH  50  71
ATOM     71  C   UNL A   1      39.473  28.735  29.266  1.00  0.00     0.057 A 
ATOM     72  C   UNL A   1      38.616  29.263  28.294  1.00  0.00     0.134 A 
ATOM     73  C   UNL A   1      38.956  28.552  30.553  1.00  0.00     0.134 A 
ATOM     74  F   UNL A   1      39.060  29.477  27.047  1.00  0.00    -0.206 F 
ATOM     75  C   UNL A   1      37.298  29.615  28.594  1.00  0.00     0.040 A 
ATOM     76  C   UNL A   1      37.634  28.879  30.863  1.00  0.00     0.040 A 
ATOM     77  F   UNL A   1      39.726  28.042  31.526  1.00  0.00    -0.206 F 
ATOM     78  C   UNL A   1      36.804  29.419  29.882  1.00  0.00     0.006 A 
ENDBRANCH  50  71
BRANCH  62  79
ATOM     79  C   UNL A   1      45.401  32.375  29.240  1.00  0.00     0.057 A 
ATOM     80  C   UNL A   1      45.807  32.789  30.514  1.00  0.00     0.134 A 
ATOM     81  C   UNL A   1      45.333  33.344  28.230  1.00  0.00     0.134 A 
ATOM     82  F   UNL A   1      45.877  31.910  31.524  1.00  0.00    -0.206 F 
ATOM     83  C   UNL A   1      46.118  34.123  30.778  1.00  0.00     0.040 A 
ATOM     84  C   UNL A   1      45.663  34.676  28.477  1.00  0.00     0.040 A 
ATOM     85  F   UNL A   1      44.958  33.007  26.987  1.00  0.00    -0.206 F 
ATOM     86  C   UNL A   1      46.053  35.070  29.756  1.00  0.00     0.006 A 
ENDBRANCH  62  79
ENDBRANCH  36  37
ENDBRANCH  28  31
ENDBRANCH  26  27
ENDBRANCH  25  26
ENDBRANCH   1  25
TORSDOF 14
ENDMDL
MODEL 3
REMARK VINA RESULT:     -11.8      1.844      6.584
REMARK SMILES CC1(C)CCC[C@@H]1NC(=O)CC1(C(=O)NCCCCNC(=O)c2ccc(-c3c4nc(c(-c5c(F)cccc5F)c5ccc([nH]5)c(-c5c(F)cccc5F)c5nc(c(-c6c(F)cccc6F)c6ccc3[nH]6)C=C5)C=C4)cc2)CCCCC1
REMARK SMILES IDX 17 1 16 2 15 3 13 4 14 5 12 7 77 8 81 9 78 10 80 11 79 12
REMARK SMILES IDX 11 13 9 14 8 15 10 17 7 18 1 19 2 20 3 21 4 22 5 23 6 24
REMARK SMILES IDX 18 25 19 26 20 27 21 28 22 30 23 31 24 32 76 33 25 34 75 35
REMARK SMILES IDX 26 36 27 37 28 38 69 39 29 40 74 41 68 42 70 43 30 44 73 45
REMARK SMILES IDX 67 46 66 47 31 49 57 50 40 51 56 52 41 53 44 54 55 55 71 56
REMARK SMILES IDX 42 57 43 58 54 60 72 61 45 62 32 63 33 64 38 65 34 66 35 67
REMARK SMILES IDX 37 68 39 69 36 70 58 71 59 72 64 73 60 74 61 75 63 76 65 77
REMARK SMILES IDX 62 78 46 79 47 80 52 81 48 82 49 83 51 84 53 85 50 86
REMARK H PARENT 15 6 8 16 20 29 70 48 44 59
REMARK Flexibility Score: inf
ROOT
ATOM      1  C   UNL A   1      37.368  21.210  24.603  1.00  0.00     0.023 C 
ENDROOT
BRANCH   1   2
ATOM      2  C   UNL A   1      37.450  22.372  25.588  1.00  0.00     0.116 C 
BRANCH   2   3
ATOM      3  N   UNL A   1      36.334  22.366  26.494  1.00  0.00    -0.356 N 
ATOM      4  C   UNL A   1      35.049  22.763  26.454  1.00  0.00     0.226 C 
ATOM      5  O   UNL A   1      34.532  22.679  27.579  1.00  0.00    -0.274 OA
ATOM      6  H   UNL A   1      36.570  21.972  27.365  1.00  0.00     0.163 HD
BRANCH   4   7
ATOM      7  C   UNL A   1      34.205  23.216  25.212  1.00  0.00     0.058 C 
ATOM      8  C   UNL A   1      32.749  23.536  25.669  1.00  0.00     0.017 C 
ATOM      9  C   UNL A   1      34.110  22.326  23.950  1.00  0.00     0.017 C 
ATOM     10  C   UNL A   1      31.768  22.361  25.707  1.00  0.00     0.001 C 
ATOM     11  C   UNL A   1      33.190  21.126  23.953  1.00  0.00     0.001 C 
ATOM     12  C   UNL A   1      31.803  21.452  24.479  1.00  0.00     0.000 C 
BRANCH   7  13
ATOM     13  C   UNL A   1      34.890  24.590  24.769  1.00  0.00     0.117 C 
BRANCH  13  14
ATOM     14  C   UNL A   1      34.060  25.565  23.951  1.00  0.00     0.221 C 
ATOM     15  N   UNL A   1      33.409  26.638  24.463  1.00  0.00    -0.353 N 
ATOM     16  H   UNL A   1      32.997  27.198  23.765  1.00  0.00     0.163 HD
ATOM     17  O   UNL A   1      33.961  25.397  22.729  1.00  0.00    -0.275 OA
BRANCH  15  18
ATOM     18  C   UNL A   1      33.177  27.157  25.810  1.00  0.00     0.087 C 
ATOM     19  C   UNL A   1      30.710  26.552  26.178  1.00  0.00     0.013 C 
ATOM     20  C   UNL A   1      31.723  27.685  26.010  1.00  0.00    -0.015 C 
ATOM     21  C   UNL A   1      31.245  28.622  24.875  1.00  0.00     0.013 C 
ATOM     22  C   UNL A   1      31.862  28.492  27.315  1.00  0.00     0.008 C 
ATOM     23  C   UNL A   1      33.220  29.173  27.225  1.00  0.00     0.003 C 
ATOM     24  C   UNL A   1      33.998  28.404  26.162  1.00  0.00     0.025 C 
ENDBRANCH  15  18
ENDBRANCH  13  14
ENDBRANCH   7  13
ENDBRANCH   4   7
ENDBRANCH   2   3
ENDBRANCH   1   2
BRANCH   1  25
ATOM     25  C   UNL A   1      38.120  19.960  25.055  1.00  0.00     0.023 C 
BRANCH  25  26
ATOM     26  C   UNL A   1      39.432  20.229  25.784  1.00  0.00     0.116 C 
BRANCH  26  27
ATOM     27  N   UNL A   1      40.339  19.084  25.817  1.00  0.00    -0.352 N 
ATOM     28  C   UNL A   1      41.681  19.074  26.104  1.00  0.00     0.251 C 
ATOM     29  H   UNL A   1      39.937  18.210  25.607  1.00  0.00     0.163 HD
ATOM     30  O   UNL A   1      42.339  18.056  26.034  1.00  0.00    -0.269 OA
BRANCH  28  31
ATOM     31  C   UNL A   1      42.316  20.361  26.456  1.00  0.00     0.039 A 
ATOM     32  C   UNL A   1      42.846  21.150  25.433  1.00  0.00     0.014 A 
ATOM     33  C   UNL A   1      42.269  20.823  27.774  1.00  0.00     0.014 A 
ATOM     34  C   UNL A   1      43.257  22.449  25.723  1.00  0.00     0.010 A 
ATOM     35  C   UNL A   1      42.608  22.140  28.043  1.00  0.00     0.010 A 
ATOM     36  C   UNL A   1      43.096  22.968  27.018  1.00  0.00    -0.014 A 
BRANCH  36  37
ATOM     37  C   UNL A   1      43.423  24.380  27.329  1.00  0.00     0.031 A 
ATOM     38  C   UNL A   1      44.853  24.836  27.300  1.00  0.00     0.074 A 
ATOM     39  C   UNL A   1      42.446  25.221  27.718  1.00  0.00     0.049 A 
ATOM     40  N   UNL A   1      45.357  25.995  27.634  1.00  0.00    -0.248 NA
ATOM     41  C   UNL A   1      45.854  23.844  26.874  1.00  0.00     0.031 C 
ATOM     42  C   UNL A   1      41.029  24.876  27.845  1.00  0.00     0.029 A 
ATOM     43  N   UNL A   1      42.502  26.539  28.094  1.00  0.00    -0.354 N 
ATOM     44  C   UNL A   1      46.730  25.864  27.484  1.00  0.00     0.074 A 
ATOM     45  C   UNL A   1      46.986  24.499  27.078  1.00  0.00     0.031 C 
ATOM     46  C   UNL A   1      40.346  25.962  28.246  1.00  0.00     0.029 A 
ATOM     47  C   UNL A   1      41.280  27.066  28.435  1.00  0.00     0.049 A 
ATOM     48  H   UNL A   1      43.339  27.057  28.117  1.00  0.00     0.167 HD
ATOM     49  C   UNL A   1      47.691  26.804  27.645  1.00  0.00     0.037 A 
ATOM     50  C   UNL A   1      40.954  28.304  28.854  1.00  0.00     0.037 A 
ATOM     51  C   UNL A   1      47.429  28.170  28.005  1.00  0.00     0.049 A 
ATOM     52  C   UNL A   1      42.035  29.339  28.994  1.00  0.00     0.074 A 
ATOM     53  C   UNL A   1      48.324  29.219  28.123  1.00  0.00     0.029 A 
ATOM     54  N   UNL A   1      46.173  28.679  28.301  1.00  0.00    -0.354 N 
ATOM     55  N   UNL A   1      43.323  29.220  28.783  1.00  0.00    -0.248 NA
ATOM     56  C   UNL A   1      41.616  30.680  29.423  1.00  0.00     0.031 C 
ATOM     57  C   UNL A   1      47.612  30.357  28.516  1.00  0.00     0.029 A 
ATOM     58  C   UNL A   1      46.270  30.024  28.611  1.00  0.00     0.049 A 
ATOM     59  H   UNL A   1      45.337  28.161  28.291  1.00  0.00     0.167 HD
ATOM     60  C   UNL A   1      43.866  30.474  29.029  1.00  0.00     0.074 A 
ATOM     61  C   UNL A   1      42.765  31.342  29.395  1.00  0.00     0.031 C 
ATOM     62  C   UNL A   1      45.159  30.871  28.961  1.00  0.00     0.037 A 
BRANCH  49  63
ATOM     63  C   UNL A   1      49.110  26.380  27.418  1.00  0.00     0.057 A 
ATOM     64  C   UNL A   1      49.685  26.384  26.139  1.00  0.00     0.134 A 
ATOM     65  C   UNL A   1      49.917  25.976  28.489  1.00  0.00     0.134 A 
ATOM     66  F   UNL A   1      48.958  26.744  25.070  1.00  0.00    -0.206 F 
ATOM     67  C   UNL A   1      51.002  25.975  25.931  1.00  0.00     0.040 A 
ATOM     68  C   UNL A   1      51.244  25.590  28.295  1.00  0.00     0.040 A 
ATOM     69  F   UNL A   1      49.430  25.951  29.739  1.00  0.00    -0.206 F 
ATOM     70  C   UNL A   1      51.788  25.582  27.012  1.00  0.00     0.006 A 
ENDBRANCH  49  63
BRANCH  50  71
ATOM     71  C   UNL A   1      39.538  28.644  29.137  1.00  0.00     0.057 A 
ATOM     72  C   UNL A   1      38.990  28.433  30.406  1.00  0.00     0.134 A 
ATOM     73  C   UNL A   1      38.701  29.180  28.152  1.00  0.00     0.134 A 
ATOM     74  F   UNL A   1      39.739  27.906  31.385  1.00  0.00    -0.206 F 
ATOM     75  C   UNL A   1      37.653  28.724  30.684  1.00  0.00     0.040 A 
ATOM     76  C   UNL A   1      37.368  29.497  28.420  1.00  0.00     0.040 A 
ATOM     77  F   UNL A   1      39.171  29.415  26.917  1.00  0.00    -0.206 F 
ATOM     78  C   UNL A   1      36.839  29.261  29.688  1.00  0.00     0.006 A 
ENDBRANCH  50  71
BRANCH  62  79
ATOM     79  C   UNL A   1      45.449  32.312  29.256  1.00  0.00     0.057 A 
ATOM     80  C   UNL A   1      45.395  33.293  28.259  1.00  0.00     0.134 A 
ATOM     81  C   UNL A   1      45.739  32.725  30.563  1.00  0.00     0.134 A 
ATOM     82  F   UNL A   1      45.135  32.956  26.988  1.00  0.00    -0.206 F 
ATOM     83  C   UNL A   1      45.636  34.636  28.549  1.00  0.00     0.040 A 
ATOM     84  C   UNL A   1      45.961  34.068  30.869  1.00  0.00     0.040 A 
ATOM     85  F   UNL A   1      45.798  31.833  31.562  1.00  0.00    -0.206 F 
ATOM     86  C   UNL A   1      45.913  35.028  29.859  1.00  0.00     0.006 A 
ENDBRANCH  62  79
ENDBRANCH  36  37
ENDBRANCH  28  31
ENDBRANCH  26  27
ENDBRANCH  25  26
ENDBRANCH   1  25
TORSDOF 14
ENDMDL
