MODEL 1
REMARK VINA RESULT:     -10.5      0.000      0.000
REMARK SMILES CC(C)C[N@@H+](C[C@@H](C)C(=O)NCCCCNC(=O)c1ccc(-c2c3nc(c(-c4c(F)cccc4F)c4ccc([nH]4)c(-c4c(F)cccc4F)c4nc(c(-c5c(F)cccc5F)c5ccc2[nH]5)C=C4)C=C3)cc1)C1CCCC1
REMARK SMILES IDX 12 1 11 2 9 3 10 4 7 6 8 7 6 8 5 9 4 11 2 12 1 13 3 14 73 15
REMARK SMILES IDX 74 16 77 17 75 18 76 19 13 20 14 21 15 22 16 23 17 24 18 26
REMARK SMILES IDX 19 27 20 28 72 29 21 30 71 31 22 32 23 33 24 34 65 35 25 36
REMARK SMILES IDX 70 37 64 38 66 39 26 40 69 41 63 42 62 43 27 45 53 46 36 47
REMARK SMILES IDX 52 48 37 49 40 50 51 51 67 52 38 53 39 54 50 56 68 57 41 58
REMARK SMILES IDX 28 59 29 60 34 61 30 62 31 63 33 64 35 65 32 66 54 67 55 68
REMARK SMILES IDX 60 69 56 70 57 71 59 72 61 73 58 74 42 75 43 76 48 77 44 78
REMARK SMILES IDX 45 79 47 80 49 81 46 82
REMARK H PARENT 11 5 5 10 16 25 66 44 40 55
REMARK Flexibility Score: inf
ROOT
ATOM      1  C   UNL A   1      35.130  20.531  25.148  1.00  0.00     0.116 C 
ENDROOT
BRANCH   1   2
ATOM      2  N   UNL A   1      34.148  19.477  25.291  1.00  0.00    -0.356 N 
ATOM      3  C   UNL A   1      32.792  19.515  25.155  1.00  0.00     0.228 C 
ATOM      4  O   UNL A   1      32.167  18.472  25.365  1.00  0.00    -0.275 OA
ATOM      5  H   UNL A   1      34.517  18.594  25.525  1.00  0.00     0.163 HD
BRANCH   3   6
ATOM      6  C   UNL A   1      32.065  20.788  24.718  1.00  0.00     0.130 C 
ATOM      7  C   UNL A   1      32.453  21.111  23.278  1.00  0.00     0.024 C 
BRANCH   6   8
ATOM      8  C   UNL A   1      32.211  21.890  25.796  1.00  0.00     0.275 C 
BRANCH   8   9
ATOM      9  N   UNL A   1      32.270  23.316  25.430  1.00  0.00    -0.332 N 
ATOM     10  H   UNL A   1      32.606  23.285  24.467  1.00  0.00     0.348 HD
BRANCH   9  11
ATOM     11  C   UNL A   1      33.310  24.057  26.161  1.00  0.00     0.265 C 
BRANCH  11  12
ATOM     12  C   UNL A   1      34.432  24.735  25.325  1.00  0.00     0.038 C 
ATOM     13  C   UNL A   1      34.743  24.061  23.986  1.00  0.00     0.013 C 
ATOM     14  C   UNL A   1      34.025  26.187  25.030  1.00  0.00     0.013 C 
ENDBRANCH  11  12
ENDBRANCH   9  11
BRANCH   9  15
ATOM     15  C   UNL A   1      31.031  24.019  25.100  1.00  0.00     0.184 C 
ATOM     16  C   UNL A   1      30.623  25.232  25.955  1.00  0.00     0.065 C 
ATOM     17  C   UNL A   1      30.825  24.469  23.641  1.00  0.00     0.065 C 
ATOM     18  C   UNL A   1      29.603  25.968  25.099  1.00  0.00     0.006 C 
ATOM     19  C   UNL A   1      30.156  25.840  23.690  1.00  0.00     0.006 C 
ENDBRANCH   9  15
ENDBRANCH   8   9
ENDBRANCH   6   8
ENDBRANCH   3   6
ENDBRANCH   1   2
BRANCH   1  20
ATOM     20  C   UNL A   1      36.532  19.964  24.946  1.00  0.00     0.023 C 
BRANCH  20  21
ATOM     21  C   UNL A   1      37.590  21.034  24.686  1.00  0.00     0.023 C 
BRANCH  21  22
ATOM     22  C   UNL A   1      38.716  21.075  25.714  1.00  0.00     0.116 C 
BRANCH  22  23
ATOM     23  N   UNL A   1      39.601  19.921  25.649  1.00  0.00    -0.352 N 
ATOM     24  C   UNL A   1      40.931  19.861  25.995  1.00  0.00     0.251 C 
ATOM     25  H   UNL A   1      39.200  19.085  25.318  1.00  0.00     0.163 HD
ATOM     26  O   UNL A   1      41.594  18.854  25.794  1.00  0.00    -0.269 OA
BRANCH  24  27
ATOM     27  C   UNL A   1      41.552  21.064  26.581  1.00  0.00     0.039 A 
ATOM     28  C   UNL A   1      42.095  22.026  25.731  1.00  0.00     0.014 A 
ATOM     29  C   UNL A   1      41.502  21.271  27.962  1.00  0.00     0.014 A 
ATOM     30  C   UNL A   1      42.530  23.240  26.264  1.00  0.00     0.010 A 
ATOM     31  C   UNL A   1      41.866  22.508  28.480  1.00  0.00     0.010 A 
ATOM     32  C   UNL A   1      42.381  23.504  27.636  1.00  0.00    -0.014 A 
BRANCH  32  33
ATOM     33  C   UNL A   1      42.762  24.816  28.211  1.00  0.00     0.031 A 
ATOM     34  C   UNL A   1      41.717  25.876  28.414  1.00  0.00     0.074 A 
ATOM     35  C   UNL A   1      44.055  25.078  28.483  1.00  0.00     0.049 A 
ATOM     36  N   UNL A   1      41.858  27.108  28.831  1.00  0.00    -0.248 NA
ATOM     37  C   UNL A   1      40.332  25.512  28.073  1.00  0.00     0.031 C 
ATOM     38  C   UNL A   1      45.171  24.152  28.274  1.00  0.00     0.029 A 
ATOM     39  N   UNL A   1      44.652  26.209  28.981  1.00  0.00    -0.354 N 
ATOM     40  C   UNL A   1      40.587  27.667  28.789  1.00  0.00     0.074 A 
ATOM     41  C   UNL A   1      39.699  26.660  28.251  1.00  0.00     0.031 C 
ATOM     42  C   UNL A   1      46.312  24.744  28.662  1.00  0.00     0.029 A 
ATOM     43  C   UNL A   1      46.015  26.099  29.114  1.00  0.00     0.049 A 
ATOM     44  H   UNL A   1      44.151  27.021  29.222  1.00  0.00     0.167 HD
ATOM     45  C   UNL A   1      40.192  28.898  29.189  1.00  0.00     0.037 A 
ATOM     46  C   UNL A   1      46.923  26.996  29.547  1.00  0.00     0.037 A 
ATOM     47  C   UNL A   1      41.073  29.887  29.749  1.00  0.00     0.049 A 
ATOM     48  C   UNL A   1      46.457  28.353  29.994  1.00  0.00     0.074 A 
ATOM     49  C   UNL A   1      40.761  31.143  30.237  1.00  0.00     0.029 A 
ATOM     50  N   UNL A   1      42.443  29.728  29.896  1.00  0.00    -0.354 N 
ATOM     51  N   UNL A   1      45.242  28.846  30.013  1.00  0.00    -0.248 NA
ATOM     52  C   UNL A   1      47.487  29.279  30.487  1.00  0.00     0.031 C 
ATOM     53  C   UNL A   1      41.948  31.759  30.648  1.00  0.00     0.029 A 
ATOM     54  C   UNL A   1      42.993  30.870  30.455  1.00  0.00     0.049 A 
ATOM     55  H   UNL A   1      42.950  28.922  29.642  1.00  0.00     0.167 HD
ATOM     56  C   UNL A   1      45.357  30.124  30.542  1.00  0.00     0.074 A 
ATOM     57  C   UNL A   1      46.759  30.326  30.846  1.00  0.00     0.031 C 
ATOM     58  C   UNL A   1      44.389  31.049  30.758  1.00  0.00     0.037 A 
BRANCH  45  59
ATOM     59  C   UNL A   1      38.737  29.234  29.044  1.00  0.00     0.057 A 
ATOM     60  C   UNL A   1      38.192  29.630  27.814  1.00  0.00     0.134 A 
ATOM     61  C   UNL A   1      37.866  29.143  30.136  1.00  0.00     0.134 A 
ATOM     62  F   UNL A   1      38.976  29.752  26.732  1.00  0.00    -0.206 F 
ATOM     63  C   UNL A   1      36.840  29.948  27.683  1.00  0.00     0.040 A 
ATOM     64  C   UNL A   1      36.506  29.432  30.011  1.00  0.00     0.040 A 
ATOM     65  F   UNL A   1      38.321  28.767  31.341  1.00  0.00    -0.206 F 
ATOM     66  C   UNL A   1      35.991  29.842  28.783  1.00  0.00     0.006 A 
ENDBRANCH  45  59
BRANCH  46  67
ATOM     67  C   UNL A   1      48.361  26.630  29.605  1.00  0.00     0.057 A 
ATOM     68  C   UNL A   1      49.228  26.942  28.553  1.00  0.00     0.134 A 
ATOM     69  C   UNL A   1      48.898  25.953  30.706  1.00  0.00     0.134 A 
ATOM     70  F   UNL A   1      48.767  27.575  27.464  1.00  0.00    -0.206 F 
ATOM     71  C   UNL A   1      50.576  26.578  28.583  1.00  0.00     0.040 A 
ATOM     72  C   UNL A   1      50.248  25.604  30.760  1.00  0.00     0.040 A 
ATOM     73  F   UNL A   1      48.120  25.632  31.751  1.00  0.00    -0.206 F 
ATOM     74  C   UNL A   1      51.090  25.911  29.692  1.00  0.00     0.006 A 
ENDBRANCH  46  67
BRANCH  58  75
ATOM     75  C   UNL A   1      44.808  32.347  31.380  1.00  0.00     0.057 A 
ATOM     76  C   UNL A   1      44.850  32.522  32.769  1.00  0.00     0.134 A 
ATOM     77  C   UNL A   1      45.216  33.421  30.579  1.00  0.00     0.134 A 
ATOM     78  F   UNL A   1      44.460  31.535  33.590  1.00  0.00    -0.206 F 
ATOM     79  C   UNL A   1      45.263  33.727  33.339  1.00  0.00     0.040 A 
ATOM     80  C   UNL A   1      45.654  34.621  31.137  1.00  0.00     0.040 A 
ATOM     81  F   UNL A   1      45.207  33.315  29.241  1.00  0.00    -0.206 F 
ATOM     82  C   UNL A   1      45.674  34.779  32.522  1.00  0.00     0.006 A 
ENDBRANCH  58  75
ENDBRANCH  32  33
ENDBRANCH  24  27
ENDBRANCH  22  23
ENDBRANCH  21  22
ENDBRANCH  20  21
ENDBRANCH   1  20
TORSDOF 16
ENDMDL
MODEL 2
REMARK VINA RESULT:     -10.4      2.458      7.386
REMARK SMILES CC(C)C[N@@H+](C[C@@H](C)C(=O)NCCCCNC(=O)c1ccc(-c2c3nc(c(-c4c(F)cccc4F)c4ccc([nH]4)c(-c4c(F)cccc4F)c4nc(c(-c5c(F)cccc5F)c5ccc2[nH]5)C=C4)C=C3)cc1)C1CCCC1
REMARK SMILES IDX 12 1 11 2 9 3 10 4 7 6 8 7 6 8 5 9 4 11 2 12 1 13 3 14 73 15
REMARK SMILES IDX 74 16 77 17 75 18 76 19 13 20 14 21 15 22 16 23 17 24 18 26
REMARK SMILES IDX 19 27 20 28 72 29 21 30 71 31 22 32 23 33 24 34 65 35 25 36
REMARK SMILES IDX 70 37 64 38 66 39 26 40 69 41 63 42 62 43 27 45 53 46 36 47
REMARK SMILES IDX 52 48 37 49 40 50 51 51 67 52 38 53 39 54 50 56 68 57 41 58
REMARK SMILES IDX 28 59 29 60 34 61 30 62 31 63 33 64 35 65 32 66 54 67 55 68
REMARK SMILES IDX 60 69 56 70 57 71 59 72 61 73 58 74 42 75 43 76 48 77 44 78
REMARK SMILES IDX 45 79 47 80 49 81 46 82
REMARK H PARENT 11 5 5 10 16 25 66 44 40 55
REMARK Flexibility Score: inf
ROOT
ATOM      1  C   UNL A   1      33.974  26.133  25.577  1.00  0.00     0.116 C 
ENDROOT
BRANCH   1   2
ATOM      2  N   UNL A   1      34.257  25.269  24.450  1.00  0.00    -0.356 N 
ATOM      3  C   UNL A   1      35.055  24.166  24.367  1.00  0.00     0.228 C 
ATOM      4  O   UNL A   1      35.156  23.616  23.268  1.00  0.00    -0.275 OA
ATOM      5  H   UNL A   1      33.802  25.516  23.612  1.00  0.00     0.163 HD
BRANCH   3   6
ATOM      6  C   UNL A   1      35.771  23.599  25.594  1.00  0.00     0.130 C 
ATOM      7  C   UNL A   1      37.238  23.364  25.247  1.00  0.00     0.024 C 
BRANCH   6   8
ATOM      8  C   UNL A   1      34.953  22.436  26.207  1.00  0.00     0.275 C 
BRANCH   8   9
ATOM      9  N   UNL A   1      33.698  21.973  25.587  1.00  0.00    -0.332 N 
ATOM     10  H   UNL A   1      33.601  22.599  24.787  1.00  0.00     0.348 HD
BRANCH   9  11
ATOM     11  C   UNL A   1      32.512  22.245  26.414  1.00  0.00     0.265 C 
BRANCH  11  12
ATOM     12  C   UNL A   1      31.555  23.378  25.949  1.00  0.00     0.038 C 
ATOM     13  C   UNL A   1      31.194  23.355  24.462  1.00  0.00     0.013 C 
ATOM     14  C   UNL A   1      30.244  23.281  26.745  1.00  0.00     0.013 C 
ENDBRANCH  11  12
ENDBRANCH   9  11
BRANCH   9  15
ATOM     15  C   UNL A   1      33.708  20.751  24.783  1.00  0.00     0.184 C 
ATOM     16  C   UNL A   1      34.892  19.781  24.934  1.00  0.00     0.065 C 
ATOM     17  C   UNL A   1      32.451  19.860  24.814  1.00  0.00     0.065 C 
ATOM     18  C   UNL A   1      34.381  18.473  24.348  1.00  0.00     0.006 C 
ATOM     19  C   UNL A   1      32.935  18.413  24.808  1.00  0.00     0.006 C 
ENDBRANCH   9  15
ENDBRANCH   8   9
ENDBRANCH   6   8
ENDBRANCH   3   6
ENDBRANCH   1   2
BRANCH   1  20
ATOM     20  C   UNL A   1      33.186  27.367  25.150  1.00  0.00     0.023 C 
BRANCH  20  21
ATOM     21  C   UNL A   1      33.730  28.669  25.734  1.00  0.00     0.023 C 
BRANCH  21  22
ATOM     22  C   UNL A   1      33.800  28.701  27.257  1.00  0.00     0.116 C 
BRANCH  22  23
ATOM     23  N   UNL A   1      33.757  30.047  27.809  1.00  0.00    -0.352 N 
ATOM     24  C   UNL A   1      34.767  30.725  28.453  1.00  0.00     0.251 C 
ATOM     25  H   UNL A   1      32.905  30.529  27.712  1.00  0.00     0.163 HD
ATOM     26  O   UNL A   1      34.573  31.816  28.968  1.00  0.00    -0.269 OA
BRANCH  24  27
ATOM     27  C   UNL A   1      36.091  30.078  28.542  1.00  0.00     0.039 A 
ATOM     28  C   UNL A   1      36.963  30.174  27.458  1.00  0.00     0.014 A 
ATOM     29  C   UNL A   1      36.490  29.467  29.734  1.00  0.00     0.014 A 
ATOM     30  C   UNL A   1      38.273  29.715  27.595  1.00  0.00     0.010 A 
ATOM     31  C   UNL A   1      37.815  29.080  29.892  1.00  0.00     0.010 A 
ATOM     32  C   UNL A   1      38.719  29.202  28.825  1.00  0.00    -0.014 A 
BRANCH  32  33
ATOM     33  C   UNL A   1      40.128  28.783  29.017  1.00  0.00     0.031 A 
ATOM     34  C   UNL A   1      41.121  29.743  29.608  1.00  0.00     0.074 A 
ATOM     35  C   UNL A   1      40.528  27.568  28.594  1.00  0.00     0.049 A 
ATOM     36  N   UNL A   1      42.408  29.596  29.787  1.00  0.00    -0.248 NA
ATOM     37  C   UNL A   1      40.602  31.056  30.024  1.00  0.00     0.031 C 
ATOM     38  C   UNL A   1      39.672  26.568  27.952  1.00  0.00     0.029 A 
ATOM     39  N   UNL A   1      41.764  26.972  28.630  1.00  0.00    -0.354 N 
ATOM     40  C   UNL A   1      42.853  30.797  30.323  1.00  0.00     0.074 A 
ATOM     41  C   UNL A   1      41.711  31.683  30.383  1.00  0.00     0.031 C 
ATOM     42  C   UNL A   1      40.403  25.476  27.674  1.00  0.00     0.029 A 
ATOM     43  C   UNL A   1      41.783  25.710  28.088  1.00  0.00     0.049 A 
ATOM     44  H   UNL A   1      42.561  27.407  29.011  1.00  0.00     0.167 HD
ATOM     45  C   UNL A   1      44.094  31.124  30.751  1.00  0.00     0.037 A 
ATOM     46  C   UNL A   1      42.802  24.842  27.936  1.00  0.00     0.037 A 
ATOM     47  C   UNL A   1      45.222  30.232  30.714  1.00  0.00     0.049 A 
ATOM     48  C   UNL A   1      44.170  25.226  28.428  1.00  0.00     0.074 A 
ATOM     49  C   UNL A   1      46.508  30.448  31.175  1.00  0.00     0.029 A 
ATOM     50  N   UNL A   1      45.195  28.950  30.185  1.00  0.00    -0.354 N 
ATOM     51  N   UNL A   1      44.563  26.341  28.995  1.00  0.00    -0.248 NA
ATOM     52  C   UNL A   1      45.237  24.226  28.266  1.00  0.00     0.031 C 
ATOM     53  C   UNL A   1      47.270  29.308  30.893  1.00  0.00     0.029 A 
ATOM     54  C   UNL A   1      46.446  28.368  30.295  1.00  0.00     0.049 A 
ATOM     55  H   UNL A   1      44.403  28.518  29.790  1.00  0.00     0.167 HD
ATOM     56  C   UNL A   1      45.911  26.169  29.280  1.00  0.00     0.074 A 
ATOM     57  C   UNL A   1      46.265  24.836  28.838  1.00  0.00     0.031 C 
ATOM     58  C   UNL A   1      46.778  27.037  29.857  1.00  0.00     0.037 A 
BRANCH  45  59
ATOM     59  C   UNL A   1      44.290  32.504  31.307  1.00  0.00     0.057 A 
ATOM     60  C   UNL A   1      44.078  32.788  32.663  1.00  0.00     0.134 A 
ATOM     61  C   UNL A   1      44.715  33.555  30.486  1.00  0.00     0.134 A 
ATOM     62  F   UNL A   1      43.655  31.828  33.500  1.00  0.00    -0.206 F 
ATOM     63  C   UNL A   1      44.255  34.073  33.177  1.00  0.00     0.040 A 
ATOM     64  C   UNL A   1      44.922  34.839  30.993  1.00  0.00     0.040 A 
ATOM     65  F   UNL A   1      44.939  33.352  29.179  1.00  0.00    -0.206 F 
ATOM     66  C   UNL A   1      44.686  35.102  32.341  1.00  0.00     0.006 A 
ENDBRANCH  45  59
BRANCH  46  67
ATOM     67  C   UNL A   1      42.563  23.515  27.316  1.00  0.00     0.057 A 
ATOM     68  C   UNL A   1      42.139  22.425  28.084  1.00  0.00     0.134 A 
ATOM     69  C   UNL A   1      42.761  23.302  25.947  1.00  0.00     0.134 A 
ATOM     70  F   UNL A   1      41.948  22.564  29.405  1.00  0.00    -0.206 F 
ATOM     71  C   UNL A   1      41.938  21.164  27.518  1.00  0.00     0.040 A 
ATOM     72  C   UNL A   1      42.541  22.053  25.363  1.00  0.00     0.040 A 
ATOM     73  F   UNL A   1      43.160  24.308  25.155  1.00  0.00    -0.206 F 
ATOM     74  C   UNL A   1      42.135  20.977  26.152  1.00  0.00     0.006 A 
ENDBRANCH  46  67
BRANCH  58  75
ATOM     75  C   UNL A   1      48.183  26.560  30.072  1.00  0.00     0.057 A 
ATOM     76  C   UNL A   1      49.185  26.758  29.114  1.00  0.00     0.134 A 
ATOM     77  C   UNL A   1      48.547  25.933  31.271  1.00  0.00     0.134 A 
ATOM     78  F   UNL A   1      48.898  27.340  27.940  1.00  0.00    -0.206 F 
ATOM     79  C   UNL A   1      50.496  26.330  29.333  1.00  0.00     0.040 A 
ATOM     80  C   UNL A   1      49.858  25.525  31.511  1.00  0.00     0.040 A 
ATOM     81  F   UNL A   1      47.635  25.722  32.233  1.00  0.00    -0.206 F 
ATOM     82  C   UNL A   1      50.837  25.719  30.538  1.00  0.00     0.006 A 
ENDBRANCH  58  75
ENDBRANCH  32  33
ENDBRANCH  24  27
ENDBRANCH  22  23
ENDBRANCH  21  22
ENDBRANCH  20  21
ENDBRANCH   1  20
TORSDOF 16
ENDMDL
MODEL 3
REMARK VINA RESULT:     -10.3      1.711      6.961
REMARK SMILES CC(C)C[N@@H+](C[C@@H](C)C(=O)NCCCCNC(=O)c1ccc(-c2c3nc(c(-c4c(F)cccc4F)c4ccc([nH]4)c(-c4c(F)cccc4F)c4nc(c(-c5c(F)cccc5F)c5ccc2[nH]5)C=C4)C=C3)cc1)C1CCCC1
REMARK SMILES IDX 12 1 11 2 9 3 10 4 7 6 8 7 6 8 5 9 4 11 2 12 1 13 3 14 73 15
REMARK SMILES IDX 74 16 77 17 75 18 76 19 13 20 14 21 15 22 16 23 17 24 18 26
REMARK SMILES IDX 19 27 20 28 72 29 21 30 71 31 22 32 23 33 24 34 65 35 25 36
REMARK SMILES IDX 70 37 64 38 66 39 26 40 69 41 63 42 62 43 27 45 53 46 36 47
REMARK SMILES IDX 52 48 37 49 40 50 51 51 67 52 38 53 39 54 50 56 68 57 41 58
REMARK SMILES IDX 28 59 29 60 34 61 30 62 31 63 33 64 35 65 32 66 54 67 55 68
REMARK SMILES IDX 60 69 56 70 57 71 59 72 61 73 58 74 42 75 43 76 48 77 44 78
REMARK SMILES IDX 45 79 47 80 49 81 46 82
REMARK H PARENT 11 5 5 10 16 25 66 44 40 55
REMARK Flexibility Score: inf
ROOT
ATOM      1  C   UNL A   1      37.258  22.209  24.672  1.00  0.00     0.116 C 
ENDROOT
BRANCH   1   2
ATOM      2  N   UNL A   1      36.456  22.558  23.518  1.00  0.00    -0.356 N 
ATOM      3  C   UNL A   1      35.255  23.199  23.444  1.00  0.00     0.228 C 
ATOM      4  O   UNL A   1      34.755  23.349  22.327  1.00  0.00    -0.275 OA
ATOM      5  H   UNL A   1      36.837  22.289  22.650  1.00  0.00     0.163 HD
BRANCH   3   6
ATOM      6  C   UNL A   1      34.564  23.753  24.691  1.00  0.00     0.130 C 
ATOM      7  C   UNL A   1      35.601  24.455  25.564  1.00  0.00     0.024 C 
BRANCH   6   8
ATOM      8  C   UNL A   1      33.658  22.672  25.331  1.00  0.00     0.275 C 
BRANCH   8   9
ATOM      9  N   UNL A   1      32.498  22.120  24.608  1.00  0.00    -0.332 N 
ATOM     10  H   UNL A   1      32.773  22.226  23.631  1.00  0.00     0.348 HD
BRANCH   9  11
ATOM     11  C   UNL A   1      31.288  22.945  24.744  1.00  0.00     0.265 C 
BRANCH  11  12
ATOM     12  C   UNL A   1      31.075  23.694  26.090  1.00  0.00     0.038 C 
ATOM     13  C   UNL A   1      30.592  25.140  25.960  1.00  0.00     0.013 C 
ATOM     14  C   UNL A   1      30.035  22.932  26.925  1.00  0.00     0.013 C 
ENDBRANCH  11  12
ENDBRANCH   9  11
BRANCH   9  15
ATOM     15  C   UNL A   1      32.333  20.669  24.528  1.00  0.00     0.184 C 
ATOM     16  C   UNL A   1      32.273  20.011  23.138  1.00  0.00     0.065 C 
ATOM     17  C   UNL A   1      33.296  19.788  25.347  1.00  0.00     0.065 C 
ATOM     18  C   UNL A   1      32.559  18.541  23.406  1.00  0.00     0.006 C 
ATOM     19  C   UNL A   1      33.628  18.573  24.486  1.00  0.00     0.006 C 
ENDBRANCH   9  15
ENDBRANCH   8   9
ENDBRANCH   6   8
ENDBRANCH   3   6
ENDBRANCH   1   2
BRANCH   1  20
ATOM     20  C   UNL A   1      36.941  20.801  25.167  1.00  0.00     0.023 C 
BRANCH  20  21
ATOM     21  C   UNL A   1      38.082  19.809  24.956  1.00  0.00     0.023 C 
BRANCH  21  22
ATOM     22  C   UNL A   1      39.352  20.129  25.736  1.00  0.00     0.116 C 
BRANCH  22  23
ATOM     23  N   UNL A   1      40.287  19.015  25.803  1.00  0.00    -0.352 N 
ATOM     24  C   UNL A   1      41.634  19.062  26.080  1.00  0.00     0.251 C 
ATOM     25  H   UNL A   1      39.910  18.123  25.628  1.00  0.00     0.163 HD
ATOM     26  O   UNL A   1      42.333  18.063  26.001  1.00  0.00    -0.269 OA
BRANCH  24  27
ATOM     27  C   UNL A   1      42.225  20.365  26.438  1.00  0.00     0.039 A 
ATOM     28  C   UNL A   1      42.753  21.168  25.427  1.00  0.00     0.014 A 
ATOM     29  C   UNL A   1      42.160  20.821  27.757  1.00  0.00     0.014 A 
ATOM     30  C   UNL A   1      43.158  22.468  25.730  1.00  0.00     0.010 A 
ATOM     31  C   UNL A   1      42.493  22.140  28.041  1.00  0.00     0.010 A 
ATOM     32  C   UNL A   1      42.994  22.976  27.030  1.00  0.00    -0.014 A 
BRANCH  32  33
ATOM     33  C   UNL A   1      43.342  24.380  27.356  1.00  0.00     0.031 A 
ATOM     34  C   UNL A   1      44.778  24.820  27.328  1.00  0.00     0.074 A 
ATOM     35  C   UNL A   1      42.377  25.235  27.746  1.00  0.00     0.049 A 
ATOM     36  N   UNL A   1      45.295  25.978  27.652  1.00  0.00    -0.248 NA
ATOM     37  C   UNL A   1      45.769  23.816  26.909  1.00  0.00     0.031 C 
ATOM     38  C   UNL A   1      40.954  24.910  27.871  1.00  0.00     0.029 A 
ATOM     39  N   UNL A   1      42.451  26.552  28.125  1.00  0.00    -0.354 N 
ATOM     40  C   UNL A   1      46.666  25.836  27.489  1.00  0.00     0.074 A 
ATOM     41  C   UNL A   1      46.907  24.465  27.096  1.00  0.00     0.031 C 
ATOM     42  C   UNL A   1      40.287  26.004  28.274  1.00  0.00     0.029 A 
ATOM     43  C   UNL A   1      41.236  27.095  28.469  1.00  0.00     0.049 A 
ATOM     44  H   UNL A   1      43.294  27.060  28.145  1.00  0.00     0.167 HD
ATOM     45  C   UNL A   1      47.635  26.771  27.628  1.00  0.00     0.037 A 
ATOM     46  C   UNL A   1      40.927  28.333  28.899  1.00  0.00     0.037 A 
ATOM     47  C   UNL A   1      47.389  28.140  27.993  1.00  0.00     0.049 A 
ATOM     48  C   UNL A   1      42.020  29.356  29.036  1.00  0.00     0.074 A 
ATOM     49  C   UNL A   1      48.296  29.179  28.106  1.00  0.00     0.029 A 
ATOM     50  N   UNL A   1      46.142  28.661  28.304  1.00  0.00    -0.354 N 
ATOM     51  N   UNL A   1      43.306  29.227  28.813  1.00  0.00    -0.248 NA
ATOM     52  C   UNL A   1      41.618  30.700  29.478  1.00  0.00     0.031 C 
ATOM     53  C   UNL A   1      47.601  30.321  28.519  1.00  0.00     0.029 A 
ATOM     54  C   UNL A   1      46.257  30.003  28.623  1.00  0.00     0.049 A 
ATOM     55  H   UNL A   1      45.299  28.151  28.298  1.00  0.00     0.167 HD
ATOM     56  C   UNL A   1      43.862  30.475  29.062  1.00  0.00     0.074 A 
ATOM     57  C   UNL A   1      42.772  31.352  29.437  1.00  0.00     0.031 C 
ATOM     58  C   UNL A   1      45.159  30.862  28.986  1.00  0.00     0.037 A 
BRANCH  45  59
ATOM     59  C   UNL A   1      49.049  26.340  27.371  1.00  0.00     0.057 A 
ATOM     60  C   UNL A   1      49.886  25.905  28.408  1.00  0.00     0.134 A 
ATOM     61  C   UNL A   1      49.575  26.341  26.073  1.00  0.00     0.134 A 
ATOM     62  F   UNL A   1      49.448  25.895  29.676  1.00  0.00    -0.206 F 
ATOM     63  C   UNL A   1      51.203  25.510  28.167  1.00  0.00     0.040 A 
ATOM     64  C   UNL A   1      50.881  25.922  25.816  1.00  0.00     0.040 A 
ATOM     65  F   UNL A   1      48.827  26.742  25.034  1.00  0.00    -0.206 F 
ATOM     66  C   UNL A   1      51.701  25.512  26.865  1.00  0.00     0.006 A 
ENDBRANCH  45  59
BRANCH  46  67
ATOM     67  C   UNL A   1      39.517  28.684  29.204  1.00  0.00     0.057 A 
ATOM     68  C   UNL A   1      38.976  28.460  30.475  1.00  0.00     0.134 A 
ATOM     69  C   UNL A   1      38.676  29.241  28.233  1.00  0.00     0.134 A 
ATOM     70  F   UNL A   1      39.729  27.913  31.441  1.00  0.00    -0.206 F 
ATOM     71  C   UNL A   1      37.644  28.758  30.767  1.00  0.00     0.040 A 
ATOM     72  C   UNL A   1      37.348  29.566  28.518  1.00  0.00     0.040 A 
ATOM     73  F   UNL A   1      39.136  29.487  26.998  1.00  0.00    -0.206 F 
ATOM     74  C   UNL A   1      36.827  29.318  29.787  1.00  0.00     0.006 A 
ENDBRANCH  46  67
BRANCH  58  75
ATOM     75  C   UNL A   1      45.464  32.299  29.282  1.00  0.00     0.057 A 
ATOM     76  C   UNL A   1      45.419  33.285  28.288  1.00  0.00     0.134 A 
ATOM     77  C   UNL A   1      45.766  32.708  30.588  1.00  0.00     0.134 A 
ATOM     78  F   UNL A   1      45.148  32.955  27.016  1.00  0.00    -0.206 F 
ATOM     79  C   UNL A   1      45.683  34.624  28.579  1.00  0.00     0.040 A 
ATOM     80  C   UNL A   1      46.007  34.047  30.894  1.00  0.00     0.040 A 
ATOM     81  F   UNL A   1      45.817  31.814  31.586  1.00  0.00    -0.206 F 
ATOM     82  C   UNL A   1      45.970  35.009  29.887  1.00  0.00     0.006 A 
ENDBRANCH  58  75
ENDBRANCH  32  33
ENDBRANCH  24  27
ENDBRANCH  22  23
ENDBRANCH  21  22
ENDBRANCH  20  21
ENDBRANCH   1  20
TORSDOF 16
ENDMDL
