MODEL 1
REMARK VINA RESULT:     -12.2      0.000      0.000
REMARK SMILES CC(C)CN(C)c1cc2c(cc1Cl)C=C(C(=O)NCCCCNC(=O)c1ccc(-c3c4nc(c(-c5c(F)cccc5F)c5ccc([nH]5)c(-c5c(F)cccc5F)c5nc(c(-c6c(F)cccc6F)c6ccc3[nH]6)C=C5)C=C4)cc1)[C@H](C(F)(F)F)O2
REMARK SMILES IDX 20 1 19 2 18 3 16 4 17 5 15 7 7 8 8 9 12 10 9 11 11 12 13 13
REMARK SMILES IDX 10 14 85 15 14 16 80 17 5 18 6 19 4 20 2 21 1 22 3 23 81 24
REMARK SMILES IDX 82 25 83 26 84 27 21 28 22 29 23 30 24 31 25 33 26 34 27 35
REMARK SMILES IDX 79 36 28 37 78 38 29 39 30 40 31 41 72 42 32 43 77 44 71 45
REMARK SMILES IDX 73 46 33 47 76 48 70 49 69 50 34 52 60 53 43 54 59 55 44 56
REMARK SMILES IDX 47 57 58 58 74 59 45 60 46 61 57 63 75 64 48 65 35 66 36 67
REMARK SMILES IDX 41 68 37 69 38 70 40 71 42 72 39 73 61 74 62 75 67 76 63 77
REMARK SMILES IDX 64 78 66 79 68 80 65 81 49 82 50 83 55 84 51 85 52 86 54 87
REMARK SMILES IDX 56 88 53 89
REMARK H PARENT 18 6 23 32 73 51 47 62
REMARK Flexibility Score: inf
ROOT
ATOM      1  C   UNL A   1      32.119  30.135  26.881  1.00  0.00     0.023 C 
ENDROOT
BRANCH   1   2
ATOM      2  C   UNL A   1      33.312  29.573  26.108  1.00  0.00     0.116 C 
BRANCH   2   3
ATOM      3  N   UNL A   1      33.102  29.696  24.680  1.00  0.00    -0.352 N 
ATOM      4  C   UNL A   1      32.850  28.814  23.686  1.00  0.00     0.251 C 
ATOM      5  O   UNL A   1      32.674  29.280  22.558  1.00  0.00    -0.270 OA
ATOM      6  H   UNL A   1      33.154  30.627  24.364  1.00  0.00     0.163 HD
BRANCH   4   7
ATOM      7  C   UNL A   1      32.746  27.346  23.904  1.00  0.00     0.067 C 
ATOM      8  C   UNL A   1      33.835  22.641  25.414  1.00  0.00     0.059 A 
ATOM      9  C   UNL A   1      32.680  23.295  24.953  1.00  0.00     0.074 A 
ATOM     10  C   UNL A   1      35.037  23.379  25.432  1.00  0.00     0.065 A 
ATOM     11  C   UNL A   1      32.710  24.636  24.567  1.00  0.00     0.130 A 
ATOM     12  C   UNL A   1      35.056  24.736  25.089  1.00  0.00     0.034 A 
ATOM     13  Cl  UNL A   1      36.552  22.654  25.849  1.00  0.00    -0.082 Cl
ATOM     14  C   UNL A   1      33.887  25.369  24.663  1.00  0.00     0.019 A 
ATOM     15  O   UNL A   1      31.537  25.146  24.099  1.00  0.00    -0.475 OA
ATOM     16  C   UNL A   1      33.886  26.782  24.335  1.00  0.00     0.025 C 
ATOM     17  C   UNL A   1      31.467  26.559  23.760  1.00  0.00     0.314 C 
BRANCH   8  18
ATOM     18  N   UNL A   1      33.766  21.306  25.839  1.00  0.00    -0.373 N 
ATOM     19  C   UNL A   1      33.893  21.122  27.284  1.00  0.00     0.143 C 
BRANCH  18  20
ATOM     20  C   UNL A   1      34.453  20.308  24.993  1.00  0.00     0.119 C 
BRANCH  20  21
ATOM     21  C   UNL A   1      33.573  19.077  24.692  1.00  0.00     0.002 C 
ATOM     22  C   UNL A   1      32.530  19.368  23.609  1.00  0.00     0.009 C 
ATOM     23  C   UNL A   1      34.432  17.889  24.250  1.00  0.00     0.009 C 
ENDBRANCH  20  21
ENDBRANCH  18  20
ENDBRANCH   8  18
BRANCH  17  24
ATOM     24  C   UNL A   1      30.242  27.142  24.488  1.00  0.00     0.429 C 
ATOM     25  F   UNL A   1      30.509  27.488  25.768  1.00  0.00    -0.167 F 
ATOM     26  F   UNL A   1      29.725  28.235  23.886  1.00  0.00    -0.167 F 
ATOM     27  F   UNL A   1      29.251  26.211  24.531  1.00  0.00    -0.167 F 
ENDBRANCH  17  24
ENDBRANCH   4   7
ENDBRANCH   2   3
ENDBRANCH   1   2
BRANCH   1  28
ATOM     28  C   UNL A   1      31.907  31.637  26.702  1.00  0.00     0.023 C 
BRANCH  28  29
ATOM     29  C   UNL A   1      32.906  32.510  27.443  1.00  0.00     0.116 C 
BRANCH  29  30
ATOM     30  N   UNL A   1      32.443  33.877  27.650  1.00  0.00    -0.352 N 
ATOM     31  C   UNL A   1      32.970  34.828  28.491  1.00  0.00     0.251 C 
ATOM     32  H   UNL A   1      31.658  34.152  27.124  1.00  0.00     0.163 HD
ATOM     33  O   UNL A   1      32.436  35.921  28.634  1.00  0.00    -0.269 OA
BRANCH  31  34
ATOM     34  C   UNL A   1      34.176  34.472  29.258  1.00  0.00     0.039 A 
ATOM     35  C   UNL A   1      35.431  34.600  28.657  1.00  0.00     0.014 A 
ATOM     36  C   UNL A   1      34.032  33.869  30.507  1.00  0.00     0.014 A 
ATOM     37  C   UNL A   1      36.521  33.962  29.231  1.00  0.00     0.010 A 
ATOM     38  C   UNL A   1      35.150  33.307  31.124  1.00  0.00     0.010 A 
ATOM     39  C   UNL A   1      36.390  33.303  30.465  1.00  0.00    -0.014 A 
BRANCH  39  40
ATOM     40  C   UNL A   1      37.563  32.608  31.046  1.00  0.00     0.031 A 
ATOM     41  C   UNL A   1      38.167  33.070  32.344  1.00  0.00     0.074 A 
ATOM     42  C   UNL A   1      38.052  31.525  30.416  1.00  0.00     0.049 A 
ATOM     43  N   UNL A   1      39.230  32.620  32.962  1.00  0.00    -0.248 NA
ATOM     44  C   UNL A   1      37.495  34.180  33.037  1.00  0.00     0.031 C 
ATOM     45  C   UNL A   1      37.529  30.970  29.164  1.00  0.00     0.029 A 
ATOM     46  N   UNL A   1      39.084  30.688  30.746  1.00  0.00    -0.354 N 
ATOM     47  C   UNL A   1      39.369  33.406  34.101  1.00  0.00     0.074 A 
ATOM     48  C   UNL A   1      38.291  34.372  34.081  1.00  0.00     0.031 C 
ATOM     49  C   UNL A   1      38.215  29.862  28.855  1.00  0.00     0.029 A 
ATOM     50  C   UNL A   1      39.273  29.675  29.839  1.00  0.00     0.049 A 
ATOM     51  H   UNL A   1      39.635  30.802  31.554  1.00  0.00     0.167 HD
ATOM     52  C   UNL A   1      40.307  33.322  35.073  1.00  0.00     0.037 A 
ATOM     53  C   UNL A   1      40.220  28.722  29.785  1.00  0.00     0.037 A 
ATOM     54  C   UNL A   1      41.362  32.341  35.098  1.00  0.00     0.049 A 
ATOM     55  C   UNL A   1      41.284  28.694  30.839  1.00  0.00     0.074 A 
ATOM     56  C   UNL A   1      42.346  32.153  36.054  1.00  0.00     0.029 A 
ATOM     57  N   UNL A   1      41.566  31.381  34.119  1.00  0.00    -0.354 N 
ATOM     58  N   UNL A   1      41.419  29.458  31.895  1.00  0.00    -0.248 NA
ATOM     59  C   UNL A   1      42.344  27.690  30.676  1.00  0.00     0.031 C 
ATOM     60  C   UNL A   1      43.168  31.100  35.633  1.00  0.00     0.029 A 
ATOM     61  C   UNL A   1      42.677  30.614  34.432  1.00  0.00     0.049 A 
ATOM     62  H   UNL A   1      41.006  31.261  33.319  1.00  0.00     0.167 HD
ATOM     63  C   UNL A   1      42.586  29.040  32.516  1.00  0.00     0.074 A 
ATOM     64  C   UNL A   1      43.100  27.930  31.738  1.00  0.00     0.031 C 
ATOM     65  C   UNL A   1      43.186  29.536  33.624  1.00  0.00     0.037 A 
BRANCH  52  66
ATOM     66  C   UNL A   1      40.249  34.329  36.184  1.00  0.00     0.057 A 
ATOM     67  C   UNL A   1      39.486  34.081  37.333  1.00  0.00     0.134 A 
ATOM     68  C   UNL A   1      40.916  35.558  36.105  1.00  0.00     0.134 A 
ATOM     69  F   UNL A   1      38.820  32.924  37.470  1.00  0.00    -0.206 F 
ATOM     70  C   UNL A   1      39.384  35.021  38.359  1.00  0.00     0.040 A 
ATOM     71  C   UNL A   1      40.837  36.498  37.134  1.00  0.00     0.040 A 
ATOM     72  F   UNL A   1      41.675  35.850  35.039  1.00  0.00    -0.206 F 
ATOM     73  C   UNL A   1      40.064  36.233  38.263  1.00  0.00     0.006 A 
ENDBRANCH  52  66
BRANCH  53  74
ATOM     74  C   UNL A   1      40.227  27.760  28.658  1.00  0.00     0.057 A 
ATOM     75  C   UNL A   1      39.567  26.528  28.751  1.00  0.00     0.134 A 
ATOM     76  C   UNL A   1      40.912  28.041  27.473  1.00  0.00     0.134 A 
ATOM     77  F   UNL A   1      38.897  26.202  29.867  1.00  0.00    -0.206 F 
ATOM     78  C   UNL A   1      39.605  25.599  27.712  1.00  0.00     0.040 A 
ATOM     79  C   UNL A   1      40.939  27.130  26.414  1.00  0.00     0.040 A 
ATOM     80  F   UNL A   1      41.547  29.211  27.320  1.00  0.00    -0.206 F 
ATOM     81  C   UNL A   1      40.289  25.903  26.537  1.00  0.00     0.006 A 
ENDBRANCH  53  74
BRANCH  65  82
ATOM     82  C   UNL A   1      44.473  28.891  34.031  1.00  0.00     0.057 A 
ATOM     83  C   UNL A   1      44.487  27.775  34.875  1.00  0.00     0.134 A 
ATOM     84  C   UNL A   1      45.705  29.381  33.576  1.00  0.00     0.134 A 
ATOM     85  F   UNL A   1      43.340  27.262  35.344  1.00  0.00    -0.206 F 
ATOM     86  C   UNL A   1      45.683  27.165  35.252  1.00  0.00     0.040 A 
ATOM     87  C   UNL A   1      46.907  28.767  33.931  1.00  0.00     0.040 A 
ATOM     88  F   UNL A   1      45.754  30.434  32.749  1.00  0.00    -0.206 F 
ATOM     89  C   UNL A   1      46.897  27.658  34.775  1.00  0.00     0.006 A 
ENDBRANCH  65  82
ENDBRANCH  39  40
ENDBRANCH  31  34
ENDBRANCH  29  30
ENDBRANCH  28  29
ENDBRANCH   1  28
TORSDOF 15
ENDMDL
MODEL 2
REMARK VINA RESULT:     -12.2      4.404      9.227
REMARK SMILES CC(C)CN(C)c1cc2c(cc1Cl)C=C(C(=O)NCCCCNC(=O)c1ccc(-c3c4nc(c(-c5c(F)cccc5F)c5ccc([nH]5)c(-c5c(F)cccc5F)c5nc(c(-c6c(F)cccc6F)c6ccc3[nH]6)C=C5)C=C4)cc1)[C@H](C(F)(F)F)O2
REMARK SMILES IDX 20 1 19 2 18 3 16 4 17 5 15 7 7 8 8 9 12 10 9 11 11 12 13 13
REMARK SMILES IDX 10 14 85 15 14 16 80 17 5 18 6 19 4 20 2 21 1 22 3 23 81 24
REMARK SMILES IDX 82 25 83 26 84 27 21 28 22 29 23 30 24 31 25 33 26 34 27 35
REMARK SMILES IDX 79 36 28 37 78 38 29 39 30 40 31 41 72 42 32 43 77 44 71 45
REMARK SMILES IDX 73 46 33 47 76 48 70 49 69 50 34 52 60 53 43 54 59 55 44 56
REMARK SMILES IDX 47 57 58 58 74 59 45 60 46 61 57 63 75 64 48 65 35 66 36 67
REMARK SMILES IDX 41 68 37 69 38 70 40 71 42 72 39 73 61 74 62 75 67 76 63 77
REMARK SMILES IDX 64 78 66 79 68 80 65 81 49 82 50 83 55 84 51 85 52 86 54 87
REMARK SMILES IDX 56 88 53 89
REMARK H PARENT 18 6 23 32 73 51 47 62
REMARK Flexibility Score: inf
ROOT
ATOM      1  C   UNL A   1      37.054  22.384  24.532  1.00  0.00     0.023 C 
ENDROOT
BRANCH   1   2
ATOM      2  C   UNL A   1      36.609  23.265  25.697  1.00  0.00     0.116 C 
BRANCH   2   3
ATOM      3  N   UNL A   1      35.696  22.548  26.564  1.00  0.00    -0.352 N 
ATOM      4  C   UNL A   1      34.356  22.576  26.749  1.00  0.00     0.251 C 
ATOM      5  O   UNL A   1      33.888  21.773  27.559  1.00  0.00    -0.270 OA
ATOM      6  H   UNL A   1      36.151  21.897  27.145  1.00  0.00     0.163 HD
BRANCH   4   7
ATOM      7  C   UNL A   1      33.448  23.491  26.006  1.00  0.00     0.067 C 
ATOM      8  C   UNL A   1      31.481  27.704  24.011  1.00  0.00     0.059 A 
ATOM      9  C   UNL A   1      31.300  26.327  23.801  1.00  0.00     0.074 A 
ATOM     10  C   UNL A   1      32.353  28.096  25.047  1.00  0.00     0.065 A 
ATOM     11  C   UNL A   1      31.988  25.380  24.563  1.00  0.00     0.130 A 
ATOM     12  C   UNL A   1      33.077  27.146  25.778  1.00  0.00     0.034 A 
ATOM     13  Cl  UNL A   1      32.560  29.755  25.495  1.00  0.00    -0.082 Cl
ATOM     14  C   UNL A   1      32.901  25.785  25.529  1.00  0.00     0.019 A 
ATOM     15  O   UNL A   1      31.697  24.077  24.295  1.00  0.00    -0.475 OA
ATOM     16  C   UNL A   1      33.667  24.791  26.258  1.00  0.00     0.025 C 
ATOM     17  C   UNL A   1      32.436  23.032  24.985  1.00  0.00     0.314 C 
BRANCH   8  18
ATOM     18  N   UNL A   1      30.812  28.634  23.200  1.00  0.00    -0.373 N 
ATOM     19  C   UNL A   1      31.630  29.208  22.132  1.00  0.00     0.143 C 
BRANCH  18  20
ATOM     20  C   UNL A   1      29.891  29.564  23.886  1.00  0.00     0.119 C 
BRANCH  20  21
ATOM     21  C   UNL A   1      28.715  30.006  22.990  1.00  0.00     0.002 C 
ATOM     22  C   UNL A   1      27.613  28.945  22.924  1.00  0.00     0.009 C 
ATOM     23  C   UNL A   1      28.112  31.321  23.493  1.00  0.00     0.009 C 
ENDBRANCH  20  21
ENDBRANCH  18  20
ENDBRANCH   8  18
BRANCH  17  24
ATOM     24  C   UNL A   1      32.967  22.064  23.911  1.00  0.00     0.429 C 
ATOM     25  F   UNL A   1      34.087  22.520  23.304  1.00  0.00    -0.167 F 
ATOM     26  F   UNL A   1      33.252  20.833  24.386  1.00  0.00    -0.167 F 
ATOM     27  F   UNL A   1      32.031  21.904  22.938  1.00  0.00    -0.167 F 
ENDBRANCH  17  24
ENDBRANCH   4   7
ENDBRANCH   2   3
ENDBRANCH   1   2
BRANCH   1  28
ATOM     28  C   UNL A   1      37.645  21.039  24.952  1.00  0.00     0.023 C 
BRANCH  28  29
ATOM     29  C   UNL A   1      38.916  21.136  25.779  1.00  0.00     0.116 C 
BRANCH  29  30
ATOM     30  N   UNL A   1      39.750  19.943  25.707  1.00  0.00    -0.352 N 
ATOM     31  C   UNL A   1      41.078  19.820  26.040  1.00  0.00     0.251 C 
ATOM     32  H   UNL A   1      39.308  19.126  25.380  1.00  0.00     0.163 HD
ATOM     33  O   UNL A   1      41.689  18.774  25.856  1.00  0.00    -0.269 OA
BRANCH  31  34
ATOM     34  C   UNL A   1      41.761  21.008  26.580  1.00  0.00     0.039 A 
ATOM     35  C   UNL A   1      41.772  21.222  27.960  1.00  0.00     0.014 A 
ATOM     36  C   UNL A   1      42.248  21.972  25.696  1.00  0.00     0.014 A 
ATOM     37  C   UNL A   1      42.105  22.478  28.445  1.00  0.00     0.010 A 
ATOM     38  C   UNL A   1      42.667  23.204  26.198  1.00  0.00     0.010 A 
ATOM     39  C   UNL A   1      42.549  23.483  27.569  1.00  0.00    -0.014 A 
BRANCH  39  40
ATOM     40  C   UNL A   1      42.876  24.824  28.108  1.00  0.00     0.031 A 
ATOM     41  C   UNL A   1      41.796  25.843  28.348  1.00  0.00     0.074 A 
ATOM     42  C   UNL A   1      44.154  25.101  28.425  1.00  0.00     0.049 A 
ATOM     43  N   UNL A   1      41.910  27.083  28.753  1.00  0.00    -0.248 NA
ATOM     44  C   UNL A   1      40.409  25.419  28.099  1.00  0.00     0.031 C 
ATOM     45  C   UNL A   1      45.281  24.179  28.260  1.00  0.00     0.029 A 
ATOM     46  N   UNL A   1      44.719  26.225  28.964  1.00  0.00    -0.354 N 
ATOM     47  C   UNL A   1      40.618  27.594  28.783  1.00  0.00     0.074 A 
ATOM     48  C   UNL A   1      39.735  26.536  28.341  1.00  0.00     0.031 C 
ATOM     49  C   UNL A   1      46.395  24.760  28.728  1.00  0.00     0.029 A 
ATOM     50  C   UNL A   1      46.074  26.117  29.150  1.00  0.00     0.049 A 
ATOM     51  H   UNL A   1      44.203  27.031  29.196  1.00  0.00     0.167 HD
ATOM     52  C   UNL A   1      40.209  28.831  29.153  1.00  0.00     0.037 A 
ATOM     53  C   UNL A   1      46.969  27.026  29.577  1.00  0.00     0.037 A 
ATOM     54  C   UNL A   1      41.092  29.871  29.616  1.00  0.00     0.049 A 
ATOM     55  C   UNL A   1      46.497  28.406  29.915  1.00  0.00     0.074 A 
ATOM     56  C   UNL A   1      40.774  31.149  30.042  1.00  0.00     0.029 A 
ATOM     57  N   UNL A   1      42.469  29.747  29.716  1.00  0.00    -0.354 N 
ATOM     58  N   UNL A   1      45.277  28.884  29.915  1.00  0.00    -0.248 NA
ATOM     59  C   UNL A   1      47.531  29.382  30.285  1.00  0.00     0.031 C 
ATOM     60  C   UNL A   1      41.965  31.811  30.365  1.00  0.00     0.029 A 
ATOM     61  C   UNL A   1      43.021  30.934  30.170  1.00  0.00     0.049 A 
ATOM     62  H   UNL A   1      42.981  28.935  29.495  1.00  0.00     0.167 HD
ATOM     63  C   UNL A   1      45.395  30.219  30.269  1.00  0.00     0.074 A 
ATOM     64  C   UNL A   1      46.802  30.466  30.512  1.00  0.00     0.031 C 
ATOM     65  C   UNL A   1      44.428  31.162  30.372  1.00  0.00     0.037 A 
BRANCH  52  66
ATOM     66  C   UNL A   1      38.743  29.137  29.055  1.00  0.00     0.057 A 
ATOM     67  C   UNL A   1      38.177  29.531  27.835  1.00  0.00     0.134 A 
ATOM     68  C   UNL A   1      37.899  29.081  30.171  1.00  0.00     0.134 A 
ATOM     69  F   UNL A   1      38.932  29.610  26.728  1.00  0.00    -0.206 F 
ATOM     70  C   UNL A   1      36.826  29.861  27.730  1.00  0.00     0.040 A 
ATOM     71  C   UNL A   1      36.541  29.390  30.074  1.00  0.00     0.040 A 
ATOM     72  F   UNL A   1      38.376  28.696  31.364  1.00  0.00    -0.206 F 
ATOM     73  C   UNL A   1      36.002  29.787  28.851  1.00  0.00     0.006 A 
ENDBRANCH  52  66
BRANCH  53  74
ATOM     74  C   UNL A   1      48.404  26.664  29.645  1.00  0.00     0.057 A 
ATOM     75  C   UNL A   1      49.272  26.936  28.580  1.00  0.00     0.134 A 
ATOM     76  C   UNL A   1      48.934  26.018  30.765  1.00  0.00     0.134 A 
ATOM     77  F   UNL A   1      48.818  27.549  27.476  1.00  0.00    -0.206 F 
ATOM     78  C   UNL A   1      50.614  26.560  28.618  1.00  0.00     0.040 A 
ATOM     79  C   UNL A   1      50.282  25.658  30.827  1.00  0.00     0.040 A 
ATOM     80  F   UNL A   1      48.155  25.749  31.822  1.00  0.00    -0.206 F 
ATOM     81  C   UNL A   1      51.123  25.923  29.747  1.00  0.00     0.006 A 
ENDBRANCH  53  74
BRANCH  65  82
ATOM     82  C   UNL A   1      44.877  32.541  30.739  1.00  0.00     0.057 A 
ATOM     83  C   UNL A   1      45.185  33.486  29.754  1.00  0.00     0.134 A 
ATOM     84  C   UNL A   1      44.999  32.932  32.079  1.00  0.00     0.134 A 
ATOM     85  F   UNL A   1      45.088  33.171  28.453  1.00  0.00    -0.206 F 
ATOM     86  C   UNL A   1      45.598  34.776  30.089  1.00  0.00     0.040 A 
ATOM     87  C   UNL A   1      45.393  34.225  32.426  1.00  0.00     0.040 A 
ATOM     88  F   UNL A   1      44.699  32.076  33.066  1.00  0.00    -0.206 F 
ATOM     89  C   UNL A   1      45.697  35.149  31.428  1.00  0.00     0.006 A 
ENDBRANCH  65  82
ENDBRANCH  39  40
ENDBRANCH  31  34
ENDBRANCH  29  30
ENDBRANCH  28  29
ENDBRANCH   1  28
TORSDOF 15
ENDMDL
MODEL 3
REMARK VINA RESULT:     -12.1      4.162      9.372
REMARK SMILES CC(C)CN(C)c1cc2c(cc1Cl)C=C(C(=O)NCCCCNC(=O)c1ccc(-c3c4nc(c(-c5c(F)cccc5F)c5ccc([nH]5)c(-c5c(F)cccc5F)c5nc(c(-c6c(F)cccc6F)c6ccc3[nH]6)C=C5)C=C4)cc1)[C@H](C(F)(F)F)O2
REMARK SMILES IDX 20 1 19 2 18 3 16 4 17 5 15 7 7 8 8 9 12 10 9 11 11 12 13 13
REMARK SMILES IDX 10 14 85 15 14 16 80 17 5 18 6 19 4 20 2 21 1 22 3 23 81 24
REMARK SMILES IDX 82 25 83 26 84 27 21 28 22 29 23 30 24 31 25 33 26 34 27 35
REMARK SMILES IDX 79 36 28 37 78 38 29 39 30 40 31 41 72 42 32 43 77 44 71 45
REMARK SMILES IDX 73 46 33 47 76 48 70 49 69 50 34 52 60 53 43 54 59 55 44 56
REMARK SMILES IDX 47 57 58 58 74 59 45 60 46 61 57 63 75 64 48 65 35 66 36 67
REMARK SMILES IDX 41 68 37 69 38 70 40 71 42 72 39 73 61 74 62 75 67 76 63 77
REMARK SMILES IDX 64 78 66 79 68 80 65 81 49 82 50 83 55 84 51 85 52 86 54 87
REMARK SMILES IDX 56 88 53 89
REMARK H PARENT 18 6 23 32 73 51 47 62
REMARK Flexibility Score: inf
ROOT
ATOM      1  C   UNL A   1      37.086  22.136  24.490  1.00  0.00     0.023 C 
ENDROOT
BRANCH   1   2
ATOM      2  C   UNL A   1      36.669  23.120  25.582  1.00  0.00     0.116 C 
BRANCH   2   3
ATOM      3  N   UNL A   1      35.763  22.491  26.521  1.00  0.00    -0.352 N 
ATOM      4  C   UNL A   1      34.424  22.538  26.715  1.00  0.00     0.251 C 
ATOM      5  O   UNL A   1      33.963  21.818  27.602  1.00  0.00    -0.270 OA
ATOM      6  H   UNL A   1      36.222  21.897  27.158  1.00  0.00     0.163 HD
BRANCH   4   7
ATOM      7  C   UNL A   1      33.511  23.380  25.896  1.00  0.00     0.067 C 
ATOM      8  C   UNL A   1      31.351  27.431  23.770  1.00  0.00     0.059 A 
ATOM      9  C   UNL A   1      31.329  26.049  23.523  1.00  0.00     0.074 A 
ATOM     10  C   UNL A   1      32.072  27.880  24.896  1.00  0.00     0.065 A 
ATOM     11  C   UNL A   1      32.026  25.154  24.337  1.00  0.00     0.130 A 
ATOM     12  C   UNL A   1      32.808  26.987  25.684  1.00  0.00     0.034 A 
ATOM     13  Cl  UNL A   1      32.068  29.539  25.387  1.00  0.00    -0.082 Cl
ATOM     14  C   UNL A   1      32.792  25.621  25.399  1.00  0.00     0.019 A 
ATOM     15  O   UNL A   1      31.893  23.836  24.022  1.00  0.00    -0.475 OA
ATOM     16  C   UNL A   1      33.575  24.689  26.187  1.00  0.00     0.025 C 
ATOM     17  C   UNL A   1      32.658  22.851  24.770  1.00  0.00     0.314 C 
BRANCH   8  18
ATOM     18  N   UNL A   1      30.680  28.312  22.908  1.00  0.00    -0.373 N 
ATOM     19  C   UNL A   1      31.554  29.214  22.160  1.00  0.00     0.143 C 
BRANCH  18  20
ATOM     20  C   UNL A   1      29.420  28.897  23.414  1.00  0.00     0.119 C 
BRANCH  20  21
ATOM     21  C   UNL A   1      29.120  30.282  22.803  1.00  0.00     0.002 C 
ATOM     22  C   UNL A   1      27.804  30.290  22.020  1.00  0.00     0.009 C 
ATOM     23  C   UNL A   1      29.058  31.355  23.893  1.00  0.00     0.009 C 
ENDBRANCH  20  21
ENDBRANCH  18  20
ENDBRANCH   8  18
BRANCH  17  24
ATOM     24  C   UNL A   1      33.387  21.965  23.742  1.00  0.00     0.429 C 
ATOM     25  F   UNL A   1      32.561  21.488  22.783  1.00  0.00    -0.167 F 
ATOM     26  F   UNL A   1      34.401  22.593  23.110  1.00  0.00    -0.167 F 
ATOM     27  F   UNL A   1      33.924  20.885  24.371  1.00  0.00    -0.167 F 
ENDBRANCH  17  24
ENDBRANCH   4   7
ENDBRANCH   2   3
ENDBRANCH   1   2
BRANCH   1  28
ATOM     28  C   UNL A   1      37.686  20.833  25.015  1.00  0.00     0.023 C 
BRANCH  28  29
ATOM     29  C   UNL A   1      38.993  20.998  25.772  1.00  0.00     0.116 C 
BRANCH  29  30
ATOM     30  N   UNL A   1      39.858  19.827  25.701  1.00  0.00    -0.352 N 
ATOM     31  C   UNL A   1      41.185  19.735  26.050  1.00  0.00     0.251 C 
ATOM     32  H   UNL A   1      39.442  19.001  25.363  1.00  0.00     0.163 HD
ATOM     33  O   UNL A   1      41.824  18.706  25.866  1.00  0.00    -0.269 OA
BRANCH  31  34
ATOM     34  C   UNL A   1      41.831  20.935  26.608  1.00  0.00     0.039 A 
ATOM     35  C   UNL A   1      41.777  21.162  27.985  1.00  0.00     0.014 A 
ATOM     36  C   UNL A   1      42.346  21.895  25.737  1.00  0.00     0.014 A 
ATOM     37  C   UNL A   1      42.076  22.427  28.471  1.00  0.00     0.010 A 
ATOM     38  C   UNL A   1      42.731  23.136  26.244  1.00  0.00     0.010 A 
ATOM     39  C   UNL A   1      42.548  23.427  27.605  1.00  0.00    -0.014 A 
BRANCH  39  40
ATOM     40  C   UNL A   1      42.837  24.778  28.144  1.00  0.00     0.031 A 
ATOM     41  C   UNL A   1      44.242  25.181  28.499  1.00  0.00     0.074 A 
ATOM     42  C   UNL A   1      41.826  25.657  28.267  1.00  0.00     0.049 A 
ATOM     43  N   UNL A   1      44.666  26.295  29.040  1.00  0.00    -0.248 NA
ATOM     44  C   UNL A   1      45.310  24.209  28.215  1.00  0.00     0.031 C 
ATOM     45  C   UNL A   1      40.427  25.384  27.927  1.00  0.00     0.029 A 
ATOM     46  N   UNL A   1      41.819  26.957  28.693  1.00  0.00    -0.354 N 
ATOM     47  C   UNL A   1      46.041  26.150  29.184  1.00  0.00     0.074 A 
ATOM     48  C   UNL A   1      46.380  24.833  28.688  1.00  0.00     0.031 C 
ATOM     49  C   UNL A   1      39.705  26.496  28.118  1.00  0.00     0.029 A 
ATOM     50  C   UNL A   1      40.572  27.531  28.667  1.00  0.00     0.049 A 
ATOM     51  H   UNL A   1      42.628  27.434  28.988  1.00  0.00     0.167 HD
ATOM     52  C   UNL A   1      46.936  27.038  29.678  1.00  0.00     0.037 A 
ATOM     53  C   UNL A   1      40.164  28.745  29.077  1.00  0.00     0.037 A 
ATOM     54  C   UNL A   1      46.593  28.356  30.147  1.00  0.00     0.049 A 
ATOM     55  C   UNL A   1      41.164  29.682  29.681  1.00  0.00     0.074 A 
ATOM     56  C   UNL A   1      47.429  29.344  30.640  1.00  0.00     0.029 A 
ATOM     57  N   UNL A   1      45.306  28.871  30.176  1.00  0.00    -0.354 N 
ATOM     58  N   UNL A   1      42.455  29.522  29.834  1.00  0.00    -0.248 NA
ATOM     59  C   UNL A   1      40.644  30.955  30.196  1.00  0.00     0.031 C 
ATOM     60  C   UNL A   1      46.642  30.443  31.002  1.00  0.00     0.029 A 
ATOM     61  C   UNL A   1      45.320  30.152  30.705  1.00  0.00     0.049 A 
ATOM     62  H   UNL A   1      44.501  28.397  29.868  1.00  0.00     0.167 HD
ATOM     63  C   UNL A   1      42.903  30.666  30.477  1.00  0.00     0.074 A 
ATOM     64  C   UNL A   1      41.750  31.527  30.651  1.00  0.00     0.031 C 
ATOM     65  C   UNL A   1      44.153  30.974  30.897  1.00  0.00     0.037 A 
BRANCH  52  66
ATOM     66  C   UNL A   1      48.371  26.609  29.757  1.00  0.00     0.057 A 
ATOM     67  C   UNL A   1      48.847  25.913  30.876  1.00  0.00     0.134 A 
ATOM     68  C   UNL A   1      49.292  26.914  28.747  1.00  0.00     0.134 A 
ATOM     69  F   UNL A   1      48.018  25.592  31.881  1.00  0.00    -0.206 F 
ATOM     70  C   UNL A   1      50.187  25.541  30.989  1.00  0.00     0.040 A 
ATOM     71  C   UNL A   1      50.631  26.530  28.840  1.00  0.00     0.040 A 
ATOM     72  F   UNL A   1      48.897  27.565  27.643  1.00  0.00    -0.206 F 
ATOM     73  C   UNL A   1      51.083  25.846  29.967  1.00  0.00     0.006 A 
ENDBRANCH  52  66
BRANCH  53  74
ATOM     74  C   UNL A   1      38.730  29.107  28.979  1.00  0.00     0.057 A 
ATOM     75  C   UNL A   1      38.178  29.564  27.775  1.00  0.00     0.134 A 
ATOM     76  C   UNL A   1      37.887  29.027  30.090  1.00  0.00     0.134 A 
ATOM     77  F   UNL A   1      38.941  29.667  26.677  1.00  0.00    -0.206 F 
ATOM     78  C   UNL A   1      36.841  29.948  27.685  1.00  0.00     0.040 A 
ATOM     79  C   UNL A   1      36.540  29.385  30.009  1.00  0.00     0.040 A 
ATOM     80  F   UNL A   1      38.356  28.579  31.263  1.00  0.00    -0.206 F 
ATOM     81  C   UNL A   1      36.017  29.854  28.804  1.00  0.00     0.006 A 
ENDBRANCH  53  74
BRANCH  65  82
ATOM     82  C   UNL A   1      44.316  32.282  31.604  1.00  0.00     0.057 A 
ATOM     83  C   UNL A   1      44.215  32.368  32.997  1.00  0.00     0.134 A 
ATOM     84  C   UNL A   1      44.580  33.461  30.895  1.00  0.00     0.134 A 
ATOM     85  F   UNL A   1      43.964  31.274  33.731  1.00  0.00    -0.206 F 
ATOM     86  C   UNL A   1      44.373  33.584  33.662  1.00  0.00     0.040 A 
ATOM     87  C   UNL A   1      44.759  34.680  31.551  1.00  0.00     0.040 A 
ATOM     88  F   UNL A   1      44.708  33.438  29.560  1.00  0.00    -0.206 F 
ATOM     89  C   UNL A   1      44.651  34.743  32.939  1.00  0.00     0.006 A 
ENDBRANCH  65  82
ENDBRANCH  39  40
ENDBRANCH  31  34
ENDBRANCH  29  30
ENDBRANCH  28  29
ENDBRANCH   1  28
TORSDOF 15
ENDMDL
