MODEL 1
REMARK VINA RESULT:     -11.5      0.000      0.000
REMARK SMILES COc1ccc([C@H](C)[N@H+]2CC[C@H](C(=O)NCCCCNC(=O)c3ccc(-c4c5nc(c(-c6c(F)cccc6F)c6ccc([nH]6)c(-c6c(F)cccc6F)c6nc(c(-c7c(F)cccc7F)c7ccc4[nH]7)C=C6)C=C5)cc3)[C@@H]2C)cc1
REMARK SMILES IDX 17 1 16 2 15 3 13 4 14 5 12 7 9 8 10 9 77 10 11 12 78 13
REMARK SMILES IDX 7 14 8 15 6 16 3 17 4 18 80 19 5 20 79 21 2 22 1 23 18 24
REMARK SMILES IDX 19 25 20 26 21 27 22 29 23 30 24 31 76 32 25 33 75 34 26 35
REMARK SMILES IDX 27 36 28 37 69 38 29 39 74 40 68 41 70 42 30 43 73 44 67 45
REMARK SMILES IDX 66 46 31 48 57 49 40 50 56 51 41 52 44 53 55 54 71 55 42 56
REMARK SMILES IDX 43 57 54 59 72 60 45 61 32 62 33 63 38 64 34 65 35 66 37 67
REMARK SMILES IDX 39 68 36 69 58 70 59 71 64 72 60 73 61 74 63 75 65 76 62 77
REMARK SMILES IDX 46 78 47 79 52 80 48 81 49 82 51 83 53 84 50 85
REMARK H PARENT 15 6 9 11 20 28 70 47 44 58
REMARK Flexibility Score: inf
ROOT
ATOM      1  C   UNL A   1      36.389  19.827  24.963  1.00  0.00     0.023 C 
ENDROOT
BRANCH   1   2
ATOM      2  C   UNL A   1      35.001  20.469  24.941  1.00  0.00     0.116 C 
BRANCH   2   3
ATOM      3  N   UNL A   1      34.598  20.947  26.243  1.00  0.00    -0.356 N 
ATOM      4  C   UNL A   1      33.638  21.815  26.645  1.00  0.00     0.229 C 
ATOM      5  O   UNL A   1      33.546  21.975  27.870  1.00  0.00    -0.275 OA
ATOM      6  H   UNL A   1      35.123  20.569  26.984  1.00  0.00     0.163 HD
BRANCH   4   7
ATOM      7  C   UNL A   1      32.664  22.563  25.733  1.00  0.00     0.142 C 
ATOM      8  N   UNL A   1      31.975  24.879  25.807  1.00  0.00    -0.326 N 
ATOM      9  C   UNL A   1      30.935  24.087  26.455  1.00  0.00     0.264 C 
ATOM     10  C   UNL A   1      33.055  23.998  25.330  1.00  0.00     0.194 C 
ATOM     11  H   UNL A   1      32.411  25.486  26.500  1.00  0.00     0.348 HD
ATOM     12  C   UNL A   1      31.190  22.642  26.076  1.00  0.00     0.081 C 
ATOM     13  C   UNL A   1      34.406  24.493  25.839  1.00  0.00     0.076 C 
BRANCH   8  14
ATOM     14  C   UNL A   1      31.463  25.892  24.860  1.00  0.00     0.212 C 
ATOM     15  C   UNL A   1      30.073  25.541  24.292  1.00  0.00     0.081 C 
BRANCH  14  16
ATOM     16  C   UNL A   1      31.538  27.271  25.533  1.00  0.00     0.009 A 
ATOM     17  C   UNL A   1      32.075  29.845  26.555  1.00  0.00     0.118 A 
ATOM     18  C   UNL A   1      31.609  29.694  25.252  1.00  0.00     0.047 A 
ATOM     19  C   UNL A   1      32.195  28.727  27.377  1.00  0.00     0.047 A 
ATOM     20  C   UNL A   1      31.350  28.419  24.741  1.00  0.00     0.013 A 
ATOM     21  C   UNL A   1      31.927  27.451  26.871  1.00  0.00     0.013 A 
BRANCH  17  22
ATOM     22  O   UNL A   1      32.363  31.123  26.951  1.00  0.00    -0.497 OA
ATOM     23  C   UNL A   1      31.360  32.077  26.606  1.00  0.00     0.278 C 
ENDBRANCH  17  22
ENDBRANCH  14  16
ENDBRANCH   8  14
ENDBRANCH   4   7
ENDBRANCH   2   3
ENDBRANCH   1   2
BRANCH   1  24
ATOM     24  C   UNL A   1      37.537  20.791  24.663  1.00  0.00     0.023 C 
BRANCH  24  25
ATOM     25  C   UNL A   1      38.638  20.843  25.718  1.00  0.00     0.116 C 
BRANCH  25  26
ATOM     26  N   UNL A   1      39.600  19.754  25.629  1.00  0.00    -0.352 N 
ATOM     27  C   UNL A   1      40.930  19.765  25.992  1.00  0.00     0.251 C 
ATOM     28  H   UNL A   1      39.259  18.905  25.265  1.00  0.00     0.163 HD
ATOM     29  O   UNL A   1      41.644  18.797  25.797  1.00  0.00    -0.269 OA
BRANCH  27  30
ATOM     30  C   UNL A   1      41.486  21.003  26.577  1.00  0.00     0.039 A 
ATOM     31  C   UNL A   1      42.014  21.970  25.721  1.00  0.00     0.014 A 
ATOM     32  C   UNL A   1      41.403  21.234  27.953  1.00  0.00     0.014 A 
ATOM     33  C   UNL A   1      42.388  23.210  26.239  1.00  0.00     0.010 A 
ATOM     34  C   UNL A   1      41.706  22.493  28.454  1.00  0.00     0.010 A 
ATOM     35  C   UNL A   1      42.195  23.495  27.601  1.00  0.00    -0.014 A 
BRANCH  35  36
ATOM     36  C   UNL A   1      42.495  24.839  28.151  1.00  0.00     0.031 A 
ATOM     37  C   UNL A   1      43.886  25.173  28.605  1.00  0.00     0.074 A 
ATOM     38  C   UNL A   1      41.497  25.732  28.304  1.00  0.00     0.049 A 
ATOM     39  N   UNL A   1      44.334  26.273  29.155  1.00  0.00    -0.248 NA
ATOM     40  C   UNL A   1      44.904  24.121  28.452  1.00  0.00     0.031 C 
ATOM     41  C   UNL A   1      40.091  25.500  27.965  1.00  0.00     0.029 A 
ATOM     42  N   UNL A   1      41.513  27.014  28.793  1.00  0.00    -0.354 N 
ATOM     43  C   UNL A   1      45.674  26.038  29.428  1.00  0.00     0.074 A 
ATOM     44  C   UNL A   1      45.956  24.676  29.034  1.00  0.00     0.031 C 
ATOM     45  C   UNL A   1      39.386  26.611  28.232  1.00  0.00     0.029 A 
ATOM     46  C   UNL A   1      40.281  27.623  28.784  1.00  0.00     0.049 A 
ATOM     47  H   UNL A   1      42.330  27.455  29.119  1.00  0.00     0.167 HD
ATOM     48  C   UNL A   1      46.595  26.891  29.937  1.00  0.00     0.037 A 
ATOM     49  C   UNL A   1      39.919  28.859  29.174  1.00  0.00     0.037 A 
ATOM     50  C   UNL A   1      46.321  28.257  30.290  1.00  0.00     0.049 A 
ATOM     51  C   UNL A   1      40.967  29.798  29.703  1.00  0.00     0.074 A 
ATOM     52  C   UNL A   1      47.202  29.224  30.740  1.00  0.00     0.029 A 
ATOM     53  N   UNL A   1      45.070  28.850  30.231  1.00  0.00    -0.354 N 
ATOM     54  N   UNL A   1      42.250  29.589  29.878  1.00  0.00    -0.248 NA
ATOM     55  C   UNL A   1      40.520  31.146  30.081  1.00  0.00     0.031 C 
ATOM     56  C   UNL A   1      46.477  30.395  30.983  1.00  0.00     0.029 A 
ATOM     57  C   UNL A   1      45.151  30.167  30.650  1.00  0.00     0.049 A 
ATOM     58  H   UNL A   1      44.245  28.401  29.935  1.00  0.00     0.167 HD
ATOM     59  C   UNL A   1      42.766  30.784  30.362  1.00  0.00     0.074 A 
ATOM     60  C   UNL A   1      41.661  31.717  30.440  1.00  0.00     0.031 C 
ATOM     61  C   UNL A   1      44.040  31.081  30.713  1.00  0.00     0.037 A 
BRANCH  48  62
ATOM     62  C   UNL A   1      47.988  26.369  30.125  1.00  0.00     0.057 A 
ATOM     63  C   UNL A   1      48.394  25.770  31.325  1.00  0.00     0.134 A 
ATOM     64  C   UNL A   1      48.926  26.443  29.089  1.00  0.00     0.134 A 
ATOM     65  F   UNL A   1      47.546  25.681  32.362  1.00  0.00    -0.206 F 
ATOM     66  C   UNL A   1      49.691  25.285  31.495  1.00  0.00     0.040 A 
ATOM     67  C   UNL A   1      50.219  25.938  29.239  1.00  0.00     0.040 A 
ATOM     68  F   UNL A   1      48.601  27.002  27.914  1.00  0.00    -0.206 F 
ATOM     69  C   UNL A   1      50.606  25.363  30.448  1.00  0.00     0.006 A 
ENDBRANCH  48  62
BRANCH  49  70
ATOM     70  C   UNL A   1      38.507  29.297  29.045  1.00  0.00     0.057 A 
ATOM     71  C   UNL A   1      37.642  29.268  30.145  1.00  0.00     0.134 A 
ATOM     72  C   UNL A   1      37.987  29.742  27.824  1.00  0.00     0.134 A 
ATOM     73  F   UNL A   1      38.079  28.834  31.335  1.00  0.00    -0.206 F 
ATOM     74  C   UNL A   1      36.304  29.648  30.033  1.00  0.00     0.040 A 
ATOM     75  C   UNL A   1      36.657  30.147  27.703  1.00  0.00     0.040 A 
ATOM     76  F   UNL A   1      38.768  29.801  26.736  1.00  0.00    -0.206 F 
ATOM     77  C   UNL A   1      35.808  30.093  28.808  1.00  0.00     0.006 A 
ENDBRANCH  49  70
BRANCH  61  78
ATOM     78  C   UNL A   1      44.311  32.478  31.185  1.00  0.00     0.057 A 
ATOM     79  C   UNL A   1      44.627  33.508  30.291  1.00  0.00     0.134 A 
ATOM     80  C   UNL A   1      44.214  32.802  32.544  1.00  0.00     0.134 A 
ATOM     81  F   UNL A   1      44.747  33.256  28.979  1.00  0.00    -0.206 F 
ATOM     82  C   UNL A   1      44.855  34.811  30.736  1.00  0.00     0.040 A 
ATOM     83  C   UNL A   1      44.417  34.106  32.998  1.00  0.00     0.040 A 
ATOM     84  F   UNL A   1      43.907  31.861  33.450  1.00  0.00    -0.206 F 
ATOM     85  C   UNL A   1      44.743  35.113  32.092  1.00  0.00     0.006 A 
ENDBRANCH  61  78
ENDBRANCH  35  36
ENDBRANCH  27  30
ENDBRANCH  25  26
ENDBRANCH  24  25
ENDBRANCH   1  24
TORSDOF 14
ENDMDL
MODEL 2
REMARK VINA RESULT:     -11.5      1.183      2.125
REMARK SMILES COc1ccc([C@H](C)[N@H+]2CC[C@H](C(=O)NCCCCNC(=O)c3ccc(-c4c5nc(c(-c6c(F)cccc6F)c6ccc([nH]6)c(-c6c(F)cccc6F)c6nc(c(-c7c(F)cccc7F)c7ccc4[nH]7)C=C6)C=C5)cc3)[C@@H]2C)cc1
REMARK SMILES IDX 17 1 16 2 15 3 13 4 14 5 12 7 9 8 10 9 77 10 11 12 78 13
REMARK SMILES IDX 7 14 8 15 6 16 3 17 4 18 80 19 5 20 79 21 2 22 1 23 18 24
REMARK SMILES IDX 19 25 20 26 21 27 22 29 23 30 24 31 76 32 25 33 75 34 26 35
REMARK SMILES IDX 27 36 28 37 69 38 29 39 74 40 68 41 70 42 30 43 73 44 67 45
REMARK SMILES IDX 66 46 31 48 57 49 40 50 56 51 41 52 44 53 55 54 71 55 42 56
REMARK SMILES IDX 43 57 54 59 72 60 45 61 32 62 33 63 38 64 34 65 35 66 37 67
REMARK SMILES IDX 39 68 36 69 58 70 59 71 64 72 60 73 61 74 63 75 65 76 62 77
REMARK SMILES IDX 46 78 47 79 52 80 48 81 49 82 51 83 53 84 50 85
REMARK H PARENT 15 6 9 11 20 28 70 47 44 58
REMARK Flexibility Score: inf
ROOT
ATOM      1  C   UNL A   1      36.761  21.238  24.997  1.00  0.00     0.023 C 
ENDROOT
BRANCH   1   2
ATOM      2  C   UNL A   1      35.305  20.769  24.981  1.00  0.00     0.116 C 
BRANCH   2   3
ATOM      3  N   UNL A   1      34.642  20.997  26.243  1.00  0.00    -0.356 N 
ATOM      4  C   UNL A   1      33.537  21.703  26.585  1.00  0.00     0.229 C 
ATOM      5  O   UNL A   1      33.228  21.659  27.784  1.00  0.00    -0.275 OA
ATOM      6  H   UNL A   1      35.077  20.554  27.006  1.00  0.00     0.163 HD
BRANCH   4   7
ATOM      7  C   UNL A   1      32.647  22.499  25.627  1.00  0.00     0.142 C 
ATOM      8  N   UNL A   1      31.847  24.771  25.817  1.00  0.00    -0.326 N 
ATOM      9  C   UNL A   1      30.775  23.886  26.258  1.00  0.00     0.264 C 
ATOM     10  C   UNL A   1      33.017  23.978  25.404  1.00  0.00     0.194 C 
ATOM     11  H   UNL A   1      32.167  25.327  26.611  1.00  0.00     0.348 HD
ATOM     12  C   UNL A   1      31.141  22.494  25.788  1.00  0.00     0.081 C 
ATOM     13  C   UNL A   1      34.272  24.470  26.120  1.00  0.00     0.076 C 
BRANCH   8  14
ATOM     14  C   UNL A   1      31.407  25.850  24.906  1.00  0.00     0.212 C 
ATOM     15  C   UNL A   1      29.899  25.798  24.592  1.00  0.00     0.081 C 
BRANCH  14  16
ATOM     16  C   UNL A   1      31.886  27.195  25.476  1.00  0.00     0.009 A 
ATOM     17  C   UNL A   1      32.322  29.767  26.548  1.00  0.00     0.118 A 
ATOM     18  C   UNL A   1      31.930  28.721  27.379  1.00  0.00     0.047 A 
ATOM     19  C   UNL A   1      32.578  29.518  25.201  1.00  0.00     0.047 A 
ATOM     20  C   UNL A   1      31.706  27.448  26.848  1.00  0.00     0.013 A 
ATOM     21  C   UNL A   1      32.364  28.242  24.670  1.00  0.00     0.013 A 
BRANCH  17  22
ATOM     22  O   UNL A   1      32.457  30.993  27.140  1.00  0.00    -0.497 OA
ATOM     23  C   UNL A   1      33.797  31.315  27.510  1.00  0.00     0.278 C 
ENDBRANCH  17  22
ENDBRANCH  14  16
ENDBRANCH   8  14
ENDBRANCH   4   7
ENDBRANCH   2   3
ENDBRANCH   1   2
BRANCH   1  24
ATOM     24  C   UNL A   1      37.790  20.108  24.983  1.00  0.00     0.023 C 
BRANCH  24  25
ATOM     25  C   UNL A   1      39.067  20.378  25.772  1.00  0.00     0.116 C 
BRANCH  25  26
ATOM     26  N   UNL A   1      40.011  19.271  25.777  1.00  0.00    -0.352 N 
ATOM     27  C   UNL A   1      41.354  19.301  26.088  1.00  0.00     0.251 C 
ATOM     28  H   UNL A   1      39.646  18.391  25.526  1.00  0.00     0.163 HD
ATOM     29  O   UNL A   1      42.047  18.304  25.982  1.00  0.00    -0.269 OA
BRANCH  27  30
ATOM     30  C   UNL A   1      41.947  20.589  26.505  1.00  0.00     0.039 A 
ATOM     31  C   UNL A   1      42.390  21.472  25.520  1.00  0.00     0.014 A 
ATOM     32  C   UNL A   1      41.981  20.947  27.855  1.00  0.00     0.014 A 
ATOM     33  C   UNL A   1      42.796  22.755  25.886  1.00  0.00     0.010 A 
ATOM     34  C   UNL A   1      42.315  22.248  28.209  1.00  0.00     0.010 A 
ATOM     35  C   UNL A   1      42.719  23.166  27.227  1.00  0.00    -0.014 A 
BRANCH  35  36
ATOM     36  C   UNL A   1      43.053  24.556  27.621  1.00  0.00     0.031 A 
ATOM     37  C   UNL A   1      44.487  24.994  27.689  1.00  0.00     0.074 A 
ATOM     38  C   UNL A   1      42.066  25.399  27.984  1.00  0.00     0.049 A 
ATOM     39  N   UNL A   1      44.981  26.149  28.057  1.00  0.00    -0.248 NA
ATOM     40  C   UNL A   1      45.504  23.994  27.328  1.00  0.00     0.031 C 
ATOM     41  C   UNL A   1      40.640  25.068  28.027  1.00  0.00     0.029 A 
ATOM     42  N   UNL A   1      42.115  26.707  28.395  1.00  0.00    -0.354 N 
ATOM     43  C   UNL A   1      46.360  26.008  27.988  1.00  0.00     0.074 A 
ATOM     44  C   UNL A   1      46.627  24.642  27.596  1.00  0.00     0.031 C 
ATOM     45  C   UNL A   1      39.949  26.152  28.416  1.00  0.00     0.029 A 
ATOM     46  C   UNL A   1      40.881  27.244  28.674  1.00  0.00     0.049 A 
ATOM     47  H   UNL A   1      42.955  27.213  28.482  1.00  0.00     0.167 HD
ATOM     48  C   UNL A   1      47.317  26.941  28.206  1.00  0.00     0.037 A 
ATOM     49  C   UNL A   1      40.544  28.479  29.088  1.00  0.00     0.037 A 
ATOM     50  C   UNL A   1      47.046  28.308  28.556  1.00  0.00     0.049 A 
ATOM     51  C   UNL A   1      41.623  29.506  29.290  1.00  0.00     0.074 A 
ATOM     52  C   UNL A   1      47.943  29.349  28.722  1.00  0.00     0.029 A 
ATOM     53  N   UNL A   1      45.782  28.825  28.793  1.00  0.00    -0.354 N 
ATOM     54  N   UNL A   1      42.920  29.381  29.140  1.00  0.00    -0.248 NA
ATOM     55  C   UNL A   1      41.193  30.847  29.709  1.00  0.00     0.031 C 
ATOM     56  C   UNL A   1      47.222  30.490  29.089  1.00  0.00     0.029 A 
ATOM     57  C   UNL A   1      45.874  30.168  29.118  1.00  0.00     0.049 A 
ATOM     58  H   UNL A   1      44.943  28.313  28.737  1.00  0.00     0.167 HD
ATOM     59  C   UNL A   1      43.457  30.630  29.422  1.00  0.00     0.074 A 
ATOM     60  C   UNL A   1      42.345  31.503  29.738  1.00  0.00     0.031 C 
ATOM     61  C   UNL A   1      44.754  31.020  29.421  1.00  0.00     0.037 A 
BRANCH  48  62
ATOM     62  C   UNL A   1      48.745  26.510  28.054  1.00  0.00     0.057 A 
ATOM     63  C   UNL A   1      49.399  26.554  26.815  1.00  0.00     0.134 A 
ATOM     64  C   UNL A   1      49.482  26.069  29.159  1.00  0.00     0.134 A 
ATOM     65  F   UNL A   1      48.743  26.952  25.714  1.00  0.00    -0.206 F 
ATOM     66  C   UNL A   1      50.728  26.153  26.678  1.00  0.00     0.040 A 
ATOM     67  C   UNL A   1      50.820  25.690  29.039  1.00  0.00     0.040 A 
ATOM     68  F   UNL A   1      48.916  26.006  30.374  1.00  0.00    -0.206 F 
ATOM     69  C   UNL A   1      51.445  25.725  27.793  1.00  0.00     0.006 A 
ENDBRANCH  48  62
BRANCH  49  70
ATOM     70  C   UNL A   1      39.118  28.828  29.305  1.00  0.00     0.057 A 
ATOM     71  C   UNL A   1      38.344  29.369  28.272  1.00  0.00     0.134 A 
ATOM     72  C   UNL A   1      38.499  28.640  30.546  1.00  0.00     0.134 A 
ATOM     73  F   UNL A   1      38.889  29.588  27.066  1.00  0.00    -0.206 F 
ATOM     74  C   UNL A   1      37.010  29.730  28.469  1.00  0.00     0.040 A 
ATOM     75  C   UNL A   1      37.159  28.975  30.751  1.00  0.00     0.040 A 
ATOM     76  F   UNL A   1      39.184  28.118  31.574  1.00  0.00    -0.206 F 
ATOM     77  C   UNL A   1      36.413  29.529  29.712  1.00  0.00     0.006 A 
ENDBRANCH  49  70
BRANCH  61  78
ATOM     78  C   UNL A   1      45.037  32.456  29.746  1.00  0.00     0.057 A 
ATOM     79  C   UNL A   1      45.329  32.871  31.051  1.00  0.00     0.134 A 
ATOM     80  C   UNL A   1      45.060  33.424  28.735  1.00  0.00     0.134 A 
ATOM     81  F   UNL A   1      45.310  31.992  32.064  1.00  0.00    -0.206 F 
ATOM     82  C   UNL A   1      45.614  34.205  31.342  1.00  0.00     0.040 A 
ATOM     83  C   UNL A   1      45.366  34.757  29.010  1.00  0.00     0.040 A 
ATOM     84  F   UNL A   1      44.796  33.088  27.462  1.00  0.00    -0.206 F 
ATOM     85  C   UNL A   1      45.640  35.151  30.318  1.00  0.00     0.006 A 
ENDBRANCH  61  78
ENDBRANCH  35  36
ENDBRANCH  27  30
ENDBRANCH  25  26
ENDBRANCH  24  25
ENDBRANCH   1  24
TORSDOF 14
ENDMDL
MODEL 3
REMARK VINA RESULT:     -11.4      0.867      6.313
REMARK SMILES COc1ccc([C@H](C)[N@H+]2CC[C@H](C(=O)NCCCCNC(=O)c3ccc(-c4c5nc(c(-c6c(F)cccc6F)c6ccc([nH]6)c(-c6c(F)cccc6F)c6nc(c(-c7c(F)cccc7F)c7ccc4[nH]7)C=C6)C=C5)cc3)[C@@H]2C)cc1
REMARK SMILES IDX 17 1 16 2 15 3 13 4 14 5 12 7 9 8 10 9 77 10 11 12 78 13
REMARK SMILES IDX 7 14 8 15 6 16 3 17 4 18 80 19 5 20 79 21 2 22 1 23 18 24
REMARK SMILES IDX 19 25 20 26 21 27 22 29 23 30 24 31 76 32 25 33 75 34 26 35
REMARK SMILES IDX 27 36 28 37 69 38 29 39 74 40 68 41 70 42 30 43 73 44 67 45
REMARK SMILES IDX 66 46 31 48 57 49 40 50 56 51 41 52 44 53 55 54 71 55 42 56
REMARK SMILES IDX 43 57 54 59 72 60 45 61 32 62 33 63 38 64 34 65 35 66 37 67
REMARK SMILES IDX 39 68 36 69 58 70 59 71 64 72 60 73 61 74 63 75 65 76 62 77
REMARK SMILES IDX 46 78 47 79 52 80 48 81 49 82 51 83 53 84 50 85
REMARK H PARENT 15 6 9 11 20 28 70 47 44 58
REMARK Flexibility Score: inf
ROOT
ATOM      1  C   UNL A   1      36.334  20.002  24.988  1.00  0.00     0.023 C 
ENDROOT
BRANCH   1   2
ATOM      2  C   UNL A   1      34.934  20.614  24.919  1.00  0.00     0.116 C 
BRANCH   2   3
ATOM      3  N   UNL A   1      34.385  20.872  26.230  1.00  0.00    -0.356 N 
ATOM      4  C   UNL A   1      34.079  22.017  26.887  1.00  0.00     0.229 C 
ATOM      5  O   UNL A   1      33.584  21.866  28.013  1.00  0.00    -0.275 OA
ATOM      6  H   UNL A   1      34.195  20.057  26.748  1.00  0.00     0.163 HD
BRANCH   4   7
ATOM      7  C   UNL A   1      34.259  23.438  26.349  1.00  0.00     0.142 C 
ATOM      8  N   UNL A   1      33.812  24.301  24.136  1.00  0.00    -0.326 N 
ATOM      9  C   UNL A   1      35.243  24.033  24.226  1.00  0.00     0.264 C 
ATOM     10  C   UNL A   1      33.157  23.969  25.412  1.00  0.00     0.194 C 
ATOM     11  H   UNL A   1      33.398  23.669  23.450  1.00  0.00     0.348 HD
ATOM     12  C   UNL A   1      35.560  23.857  25.697  1.00  0.00     0.081 C 
ATOM     13  C   UNL A   1      31.972  23.036  25.174  1.00  0.00     0.076 C 
BRANCH   8  14
ATOM     14  C   UNL A   1      33.477  25.605  23.524  1.00  0.00     0.212 C 
ATOM     15  C   UNL A   1      32.461  25.488  22.371  1.00  0.00     0.081 C 
BRANCH  14  16
ATOM     16  C   UNL A   1      33.055  26.573  24.640  1.00  0.00     0.009 A 
ATOM     17  C   UNL A   1      32.281  28.669  26.362  1.00  0.00     0.118 A 
ATOM     18  C   UNL A   1      31.347  28.081  25.515  1.00  0.00     0.047 A 
ATOM     19  C   UNL A   1      33.578  28.163  26.415  1.00  0.00     0.047 A 
ATOM     20  C   UNL A   1      31.730  27.047  24.655  1.00  0.00     0.013 A 
ATOM     21  C   UNL A   1      33.961  27.123  25.563  1.00  0.00     0.013 A 
BRANCH  17  22
ATOM     22  O   UNL A   1      31.834  29.715  27.123  1.00  0.00    -0.497 OA
ATOM     23  C   UNL A   1      32.698  30.851  27.113  1.00  0.00     0.278 C 
ENDBRANCH  17  22
ENDBRANCH  14  16
ENDBRANCH   8  14
ENDBRANCH   4   7
ENDBRANCH   2   3
ENDBRANCH   1   2
BRANCH   1  24
ATOM     24  C   UNL A   1      37.469  20.984  24.695  1.00  0.00     0.023 C 
BRANCH  24  25
ATOM     25  C   UNL A   1      38.605  20.992  25.714  1.00  0.00     0.116 C 
BRANCH  25  26
ATOM     26  N   UNL A   1      39.498  19.847  25.619  1.00  0.00    -0.352 N 
ATOM     27  C   UNL A   1      40.826  19.774  25.982  1.00  0.00     0.251 C 
ATOM     28  H   UNL A   1      39.106  19.023  25.250  1.00  0.00     0.163 HD
ATOM     29  O   UNL A   1      41.479  18.765  25.782  1.00  0.00    -0.269 OA
BRANCH  27  30
ATOM     30  C   UNL A   1      41.456  20.972  26.575  1.00  0.00     0.039 A 
ATOM     31  C   UNL A   1      42.030  21.918  25.724  1.00  0.00     0.014 A 
ATOM     32  C   UNL A   1      41.400  21.192  27.954  1.00  0.00     0.014 A 
ATOM     33  C   UNL A   1      42.478  23.128  26.252  1.00  0.00     0.010 A 
ATOM     34  C   UNL A   1      41.778  22.426  28.465  1.00  0.00     0.010 A 
ATOM     35  C   UNL A   1      42.315  23.408  27.619  1.00  0.00    -0.014 A 
BRANCH  35  36
ATOM     36  C   UNL A   1      42.695  24.727  28.179  1.00  0.00     0.031 A 
ATOM     37  C   UNL A   1      41.649  25.783  28.393  1.00  0.00     0.074 A 
ATOM     38  C   UNL A   1      43.992  24.995  28.429  1.00  0.00     0.049 A 
ATOM     39  N   UNL A   1      41.790  27.010  28.826  1.00  0.00    -0.248 NA
ATOM     40  C   UNL A   1      40.265  25.426  28.043  1.00  0.00     0.031 C 
ATOM     41  C   UNL A   1      45.108  24.076  28.197  1.00  0.00     0.029 A 
ATOM     42  N   UNL A   1      44.591  26.124  28.927  1.00  0.00    -0.354 N 
ATOM     43  C   UNL A   1      40.522  27.573  28.783  1.00  0.00     0.074 A 
ATOM     44  C   UNL A   1      39.633  26.574  28.233  1.00  0.00     0.031 C 
ATOM     45  C   UNL A   1      46.252  24.668  28.576  1.00  0.00     0.029 A 
ATOM     46  C   UNL A   1      45.955  26.015  29.052  1.00  0.00     0.049 A 
ATOM     47  H   UNL A   1      44.090  26.936  29.171  1.00  0.00     0.167 HD
ATOM     48  C   UNL A   1      40.129  28.802  29.191  1.00  0.00     0.037 A 
ATOM     49  C   UNL A   1      46.860  26.902  29.504  1.00  0.00     0.037 A 
ATOM     50  C   UNL A   1      41.008  29.778  29.775  1.00  0.00     0.049 A 
ATOM     51  C   UNL A   1      46.394  28.248  29.983  1.00  0.00     0.074 A 
ATOM     52  C   UNL A   1      40.693  31.022  30.292  1.00  0.00     0.029 A 
ATOM     53  N   UNL A   1      42.377  29.617  29.921  1.00  0.00    -0.354 N 
ATOM     54  N   UNL A   1      45.177  28.737  30.015  1.00  0.00    -0.248 NA
ATOM     55  C   UNL A   1      47.422  29.163  30.497  1.00  0.00     0.031 C 
ATOM     56  C   UNL A   1      41.878  31.628  30.724  1.00  0.00     0.029 A 
ATOM     57  C   UNL A   1      42.925  30.745  30.507  1.00  0.00     0.049 A 
ATOM     58  H   UNL A   1      42.885  28.819  29.649  1.00  0.00     0.167 HD
ATOM     59  C   UNL A   1      45.290  30.003  30.573  1.00  0.00     0.074 A 
ATOM     60  C   UNL A   1      46.692  30.202  30.878  1.00  0.00     0.031 C 
ATOM     61  C   UNL A   1      44.322  30.920  30.810  1.00  0.00     0.037 A 
BRANCH  48  62
ATOM     62  C   UNL A   1      38.679  29.150  29.032  1.00  0.00     0.057 A 
ATOM     63  C   UNL A   1      37.780  29.064  30.104  1.00  0.00     0.134 A 
ATOM     64  C   UNL A   1      38.179  29.596  27.803  1.00  0.00     0.134 A 
ATOM     65  F   UNL A   1      38.193  28.629  31.305  1.00  0.00    -0.206 F 
ATOM     66  C   UNL A   1      36.432  29.389  29.953  1.00  0.00     0.040 A 
ATOM     67  C   UNL A   1      36.837  29.947  27.646  1.00  0.00     0.040 A 
ATOM     68  F   UNL A   1      38.988  29.703  26.738  1.00  0.00    -0.206 F 
ATOM     69  C   UNL A   1      35.958  29.838  28.722  1.00  0.00     0.006 A 
ENDBRANCH  48  62
BRANCH  49  70
ATOM     70  C   UNL A   1      48.297  26.536  29.560  1.00  0.00     0.057 A 
ATOM     71  C   UNL A   1      48.822  25.852  30.663  1.00  0.00     0.134 A 
ATOM     72  C   UNL A   1      49.179  26.867  28.525  1.00  0.00     0.134 A 
ATOM     73  F   UNL A   1      48.029  25.524  31.693  1.00  0.00    -0.206 F 
ATOM     74  C   UNL A   1      50.177  25.527  30.745  1.00  0.00     0.040 A 
ATOM     75  C   UNL A   1      50.532  26.528  28.583  1.00  0.00     0.040 A 
ATOM     76  F   UNL A   1      48.735  27.515  27.438  1.00  0.00    -0.206 F 
ATOM     77  C   UNL A   1      51.036  25.862  29.699  1.00  0.00     0.006 A 
ENDBRANCH  49  70
BRANCH  61  78
ATOM     78  C   UNL A   1      44.741  32.207  31.454  1.00  0.00     0.057 A 
ATOM     79  C   UNL A   1      44.777  32.356  32.846  1.00  0.00     0.134 A 
ATOM     80  C   UNL A   1      45.154  33.293  30.672  1.00  0.00     0.134 A 
ATOM     81  F   UNL A   1      44.382  31.355  33.646  1.00  0.00    -0.206 F 
ATOM     82  C   UNL A   1      45.190  33.549  33.438  1.00  0.00     0.040 A 
ATOM     83  C   UNL A   1      45.591  34.484  31.254  1.00  0.00     0.040 A 
ATOM     84  F   UNL A   1      45.150  33.211  29.333  1.00  0.00    -0.206 F 
ATOM     85  C   UNL A   1      45.606  34.615  32.641  1.00  0.00     0.006 A 
ENDBRANCH  61  78
ENDBRANCH  35  36
ENDBRANCH  27  30
ENDBRANCH  25  26
ENDBRANCH  24  25
ENDBRANCH   1  24
TORSDOF 14
ENDMDL
