MODEL 1
REMARK VINA RESULT:     -11.9      0.000      0.000
REMARK SMILES O=C(NCCCCNC(=O)c1c(F)cccc1N[C@H]1CCCc2ccccc21)c1ccc(-c2c3nc(c(-c4c(F)cccc4F)c4ccc([nH]4)c(-c4c(F)cccc4F)c4nc(c(-c5c(F)cccc5F)c5ccc2[nH]5)C=C4)C=C3)cc1
REMARK SMILES IDX 5 1 4 2 3 3 1 4 2 5 29 7 30 8 82 9 31 10 81 11 32 12 33 13
REMARK SMILES IDX 34 14 75 15 35 16 80 17 74 18 76 19 36 20 79 21 73 22 72 23
REMARK SMILES IDX 37 25 63 26 46 27 62 28 47 29 50 30 61 31 77 32 48 33 49 34
REMARK SMILES IDX 60 36 78 37 51 38 38 39 39 40 44 41 40 42 41 43 43 44 45 45
REMARK SMILES IDX 42 46 64 47 65 48 70 49 66 50 67 51 69 52 71 53 68 54 52 55
REMARK SMILES IDX 53 56 58 57 54 58 55 59 57 60 59 61 56 62 6 63 7 64 8 65
REMARK SMILES IDX 9 66 10 68 11 69 12 70 17 71 13 72 14 73 16 74 15 75 18 76
REMARK SMILES IDX 19 78 20 79 28 80 21 81 23 82 27 83 22 84 24 85 26 86 25 87
REMARK H PARENT 3 6 76 24 50 35 8 67 18 77
REMARK Flexibility Score: inf
ROOT
ATOM      1  C   UNL A   1      33.265  28.483  25.676  1.00  0.00     0.023 C 
ENDROOT
BRANCH   1   2
ATOM      2  C   UNL A   1      33.963  28.617  27.025  1.00  0.00     0.116 C 
BRANCH   2   3
ATOM      3  N   UNL A   1      33.865  29.957  27.581  1.00  0.00    -0.352 N 
ATOM      4  O   UNL A   1      34.447  31.736  28.838  1.00  0.00    -0.269 OA
ATOM      5  C   UNL A   1      34.773  30.670  28.323  1.00  0.00     0.251 C 
ATOM      6  H   UNL A   1      33.018  30.425  27.397  1.00  0.00     0.163 HD
BRANCH   5   7
ATOM      7  C   UNL A   1      36.139  30.144  28.529  1.00  0.00     0.039 A 
ATOM      8  C   UNL A   1      36.508  29.556  29.743  1.00  0.00     0.014 A 
ATOM      9  C   UNL A   1      37.060  30.230  27.483  1.00  0.00     0.014 A 
ATOM     10  C   UNL A   1      37.831  29.184  29.959  1.00  0.00     0.010 A 
ATOM     11  C   UNL A   1      38.367  29.783  27.673  1.00  0.00     0.010 A 
ATOM     12  C   UNL A   1      38.772  29.286  28.922  1.00  0.00    -0.014 A 
BRANCH  12  13
ATOM     13  C   UNL A   1      40.169  28.831  29.129  1.00  0.00     0.031 A 
ATOM     14  C   UNL A   1      41.204  29.762  29.690  1.00  0.00     0.074 A 
ATOM     15  C   UNL A   1      40.507  27.576  28.778  1.00  0.00     0.049 A 
ATOM     16  N   UNL A   1      42.489  29.569  29.845  1.00  0.00    -0.248 NA
ATOM     17  C   UNL A   1      40.738  31.086  30.128  1.00  0.00     0.031 C 
ATOM     18  C   UNL A   1      39.585  26.578  28.235  1.00  0.00     0.029 A 
ATOM     19  N   UNL A   1      41.716  26.930  28.815  1.00  0.00    -0.354 N 
ATOM     20  C   UNL A   1      42.989  30.751  30.373  1.00  0.00     0.074 A 
ATOM     21  C   UNL A   1      41.874  31.665  30.492  1.00  0.00     0.031 C 
ATOM     22  C   UNL A   1      40.257  25.441  28.005  1.00  0.00     0.029 A 
ATOM     23  C   UNL A   1      41.667  25.651  28.318  1.00  0.00     0.049 A 
ATOM     24  H   UNL A   1      42.540  27.343  29.163  1.00  0.00     0.167 HD
ATOM     25  C   UNL A   1      44.264  31.041  30.729  1.00  0.00     0.037 A 
ATOM     26  C   UNL A   1      42.648  24.755  28.103  1.00  0.00     0.037 A 
ATOM     27  C   UNL A   1      45.364  30.117  30.617  1.00  0.00     0.049 A 
ATOM     28  C   UNL A   1      44.062  25.115  28.450  1.00  0.00     0.074 A 
ATOM     29  C   UNL A   1      46.683  30.304  30.991  1.00  0.00     0.029 A 
ATOM     30  N   UNL A   1      45.275  28.840  30.084  1.00  0.00    -0.354 N 
ATOM     31  N   UNL A   1      44.521  26.229  28.969  1.00  0.00    -0.248 NA
ATOM     32  C   UNL A   1      45.095  24.107  28.180  1.00  0.00     0.031 C 
ATOM     33  C   UNL A   1      47.404  29.164  30.627  1.00  0.00     0.029 A 
ATOM     34  C   UNL A   1      46.523  28.239  30.088  1.00  0.00     0.049 A 
ATOM     35  H   UNL A   1      44.448  28.421  29.752  1.00  0.00     0.167 HD
ATOM     36  C   UNL A   1      45.889  26.048  29.110  1.00  0.00     0.074 A 
ATOM     37  C   UNL A   1      46.188  24.718  28.620  1.00  0.00     0.031 C 
ATOM     38  C   UNL A   1      46.810  26.910  29.607  1.00  0.00     0.037 A 
BRANCH  25  39
ATOM     39  C   UNL A   1      44.551  32.422  31.248  1.00  0.00     0.057 A 
ATOM     40  C   UNL A   1      44.934  33.446  30.370  1.00  0.00     0.134 A 
ATOM     41  C   UNL A   1      44.508  32.728  32.613  1.00  0.00     0.134 A 
ATOM     42  F   UNL A   1      45.007  33.220  29.050  1.00  0.00    -0.206 F 
ATOM     43  C   UNL A   1      45.267  34.720  30.833  1.00  0.00     0.040 A 
ATOM     44  C   UNL A   1      44.810  34.006  33.086  1.00  0.00     0.040 A 
ATOM     45  F   UNL A   1      44.143  31.796  33.508  1.00  0.00    -0.206 F 
ATOM     46  C   UNL A   1      45.200  35.005  32.194  1.00  0.00     0.006 A 
ENDBRANCH  25  39
BRANCH  26  47
ATOM     47  C   UNL A   1      42.296  23.432  27.533  1.00  0.00     0.057 A 
ATOM     48  C   UNL A   1      42.179  23.243  26.149  1.00  0.00     0.134 A 
ATOM     49  C   UNL A   1      41.977  22.353  28.362  1.00  0.00     0.134 A 
ATOM     50  F   UNL A   1      42.458  24.247  25.303  1.00  0.00    -0.206 F 
ATOM     51  C   UNL A   1      41.721  22.040  25.612  1.00  0.00     0.040 A 
ATOM     52  C   UNL A   1      41.541  21.135  27.837  1.00  0.00     0.040 A 
ATOM     53  F   UNL A   1      42.082  22.472  29.693  1.00  0.00    -0.206 F 
ATOM     54  C   UNL A   1      41.399  20.981  26.459  1.00  0.00     0.006 A 
ENDBRANCH  26  47
BRANCH  38  55
ATOM     55  C   UNL A   1      48.235  26.449  29.691  1.00  0.00     0.057 A 
ATOM     56  C   UNL A   1      48.710  25.829  30.854  1.00  0.00     0.134 A 
ATOM     57  C   UNL A   1      49.161  26.732  28.681  1.00  0.00     0.134 A 
ATOM     58  F   UNL A   1      47.873  25.540  31.862  1.00  0.00    -0.206 F 
ATOM     59  C   UNL A   1      50.064  25.538  31.024  1.00  0.00     0.040 A 
ATOM     60  C   UNL A   1      50.515  26.423  28.829  1.00  0.00     0.040 A 
ATOM     61  F   UNL A   1      48.767  27.314  27.539  1.00  0.00    -0.206 F 
ATOM     62  C   UNL A   1      50.971  25.838  30.010  1.00  0.00     0.006 A 
ENDBRANCH  38  55
ENDBRANCH  12  13
ENDBRANCH   5   7
ENDBRANCH   2   3
ENDBRANCH   1   2
BRANCH   1  63
ATOM     63  C   UNL A   1      34.188  28.218  24.490  1.00  0.00     0.023 C 
BRANCH  63  64
ATOM     64  C   UNL A   1      33.608  28.563  23.122  1.00  0.00     0.116 C 
BRANCH  64  65
ATOM     65  N   UNL A   1      33.778  27.496  22.148  1.00  0.00    -0.352 N 
ATOM     66  C   UNL A   1      33.151  26.271  22.101  1.00  0.00     0.256 C 
ATOM     67  H   UNL A   1      34.426  27.673  21.429  1.00  0.00     0.163 HD
ATOM     68  O   UNL A   1      33.480  25.447  21.250  1.00  0.00    -0.269 OA
BRANCH  66  69
ATOM     69  C   UNL A   1      32.134  25.924  23.113  1.00  0.00     0.098 A 
ATOM     70  C   UNL A   1      30.879  26.541  23.040  1.00  0.00     0.138 A 
ATOM     71  C   UNL A   1      32.422  24.993  24.133  1.00  0.00     0.050 A 
ATOM     72  F   UNL A   1      30.569  27.355  22.018  1.00  0.00    -0.206 F 
ATOM     73  C   UNL A   1      29.934  26.357  24.039  1.00  0.00     0.040 A 
ATOM     74  C   UNL A   1      31.476  24.878  25.167  1.00  0.00     0.027 A 
ATOM     75  C   UNL A   1      30.247  25.548  25.123  1.00  0.00     0.005 A 
BRANCH  71  76
ATOM     76  N   UNL A   1      33.606  24.260  24.133  1.00  0.00    -0.377 N 
ATOM     77  H   UNL A   1      34.325  24.555  23.528  1.00  0.00     0.161 HD
BRANCH  76  78
ATOM     78  C   UNL A   1      33.865  23.083  24.967  1.00  0.00     0.110 C 
ATOM     79  C   UNL A   1      33.314  21.825  24.266  1.00  0.00     0.030 C 
ATOM     80  C   UNL A   1      35.360  22.960  25.261  1.00  0.00    -0.023 A 
ATOM     81  C   UNL A   1      33.793  20.559  24.959  1.00  0.00     0.007 C 
ATOM     82  C   UNL A   1      36.019  21.711  25.223  1.00  0.00    -0.043 A 
ATOM     83  C   UNL A   1      36.097  24.093  25.655  1.00  0.00     0.006 A 
ATOM     84  C   UNL A   1      35.304  20.444  24.823  1.00  0.00     0.036 C 
ATOM     85  C   UNL A   1      37.391  21.635  25.513  1.00  0.00     0.004 A 
ATOM     86  C   UNL A   1      37.457  24.001  25.955  1.00  0.00     0.000 A 
ATOM     87  C   UNL A   1      38.105  22.773  25.878  1.00  0.00     0.000 A 
ENDBRANCH  76  78
ENDBRANCH  71  76
ENDBRANCH  66  69
ENDBRANCH  64  65
ENDBRANCH  63  64
ENDBRANCH   1  63
TORSDOF 13
ENDMDL
MODEL 2
REMARK VINA RESULT:     -11.8      2.750      7.474
REMARK SMILES O=C(NCCCCNC(=O)c1c(F)cccc1N[C@H]1CCCc2ccccc21)c1ccc(-c2c3nc(c(-c4c(F)cccc4F)c4ccc([nH]4)c(-c4c(F)cccc4F)c4nc(c(-c5c(F)cccc5F)c5ccc2[nH]5)C=C4)C=C3)cc1
REMARK SMILES IDX 5 1 4 2 3 3 1 4 2 5 29 7 30 8 82 9 31 10 81 11 32 12 33 13
REMARK SMILES IDX 34 14 75 15 35 16 80 17 74 18 76 19 36 20 79 21 73 22 72 23
REMARK SMILES IDX 37 25 63 26 46 27 62 28 47 29 50 30 61 31 77 32 48 33 49 34
REMARK SMILES IDX 60 36 78 37 51 38 38 39 39 40 44 41 40 42 41 43 43 44 45 45
REMARK SMILES IDX 42 46 64 47 65 48 70 49 66 50 67 51 69 52 71 53 68 54 52 55
REMARK SMILES IDX 53 56 58 57 54 58 55 59 57 60 59 61 56 62 6 63 7 64 8 65
REMARK SMILES IDX 9 66 10 68 11 69 12 70 17 71 13 72 14 73 16 74 15 75 18 76
REMARK SMILES IDX 19 78 20 79 28 80 21 81 23 82 27 83 22 84 24 85 26 86 25 87
REMARK H PARENT 3 6 76 24 50 35 8 67 18 77
REMARK Flexibility Score: inf
ROOT
ATOM      1  C   UNL A   1      38.002  19.855  24.691  1.00  0.00     0.023 C 
ENDROOT
BRANCH   1   2
ATOM      2  C   UNL A   1      39.003  20.109  25.812  1.00  0.00     0.116 C 
BRANCH   2   3
ATOM      3  N   UNL A   1      40.080  19.131  25.839  1.00  0.00    -0.352 N 
ATOM      4  O   UNL A   1      42.205  18.377  25.893  1.00  0.00    -0.269 OA
ATOM      5  C   UNL A   1      41.422  19.309  26.067  1.00  0.00     0.251 C 
ATOM      6  H   UNL A   1      39.805  18.202  25.668  1.00  0.00     0.163 HD
BRANCH   5   7
ATOM      7  C   UNL A   1      41.936  20.627  26.493  1.00  0.00     0.039 A 
ATOM      8  C   UNL A   1      42.115  20.927  27.847  1.00  0.00     0.014 A 
ATOM      9  C   UNL A   1      42.255  21.573  25.517  1.00  0.00     0.014 A 
ATOM     10  C   UNL A   1      42.478  22.215  28.229  1.00  0.00     0.010 A 
ATOM     11  C   UNL A   1      42.695  22.841  25.899  1.00  0.00     0.010 A 
ATOM     12  C   UNL A   1      42.780  23.182  27.259  1.00  0.00    -0.014 A 
BRANCH  12  13
ATOM     13  C   UNL A   1      43.228  24.536  27.663  1.00  0.00     0.031 A 
ATOM     14  C   UNL A   1      42.234  25.581  28.079  1.00  0.00     0.074 A 
ATOM     15  C   UNL A   1      44.541  24.830  27.623  1.00  0.00     0.049 A 
ATOM     16  N   UNL A   1      42.435  26.842  28.368  1.00  0.00    -0.248 NA
ATOM     17  C   UNL A   1      40.829  25.158  28.179  1.00  0.00     0.031 C 
ATOM     18  C   UNL A   1      45.602  23.894  27.247  1.00  0.00     0.029 A 
ATOM     19  N   UNL A   1      45.206  25.999  27.891  1.00  0.00    -0.354 N 
ATOM     20  C   UNL A   1      41.183  27.369  28.657  1.00  0.00     0.074 A 
ATOM     21  C   UNL A   1      40.226  26.297  28.489  1.00  0.00     0.031 C 
ATOM     22  C   UNL A   1      46.785  24.519  27.324  1.00  0.00     0.029 A 
ATOM     23  C   UNL A   1      46.562  25.915  27.687  1.00  0.00     0.049 A 
ATOM     24  H   UNL A   1      44.757  26.819  28.199  1.00  0.00     0.167 HD
ATOM     25  C   UNL A   1      40.869  28.632  29.033  1.00  0.00     0.037 A 
ATOM     26  C   UNL A   1      47.519  26.860  27.747  1.00  0.00     0.037 A 
ATOM     27  C   UNL A   1      41.834  29.686  29.210  1.00  0.00     0.049 A 
ATOM     28  C   UNL A   1      47.142  28.266  28.109  1.00  0.00     0.074 A 
ATOM     29  C   UNL A   1      41.617  30.987  29.629  1.00  0.00     0.029 A 
ATOM     30  N   UNL A   1      43.194  29.565  28.966  1.00  0.00    -0.354 N 
ATOM     31  N   UNL A   1      45.959  28.748  28.402  1.00  0.00    -0.248 NA
ATOM     32  C   UNL A   1      48.223  29.259  28.145  1.00  0.00     0.031 C 
ATOM     33  C   UNL A   1      42.835  31.669  29.580  1.00  0.00     0.029 A 
ATOM     34  C   UNL A   1      43.824  30.777  29.195  1.00  0.00     0.049 A 
ATOM     35  H   UNL A   1      43.646  28.740  28.675  1.00  0.00     0.167 HD
ATOM     36  C   UNL A   1      46.153  30.093  28.680  1.00  0.00     0.074 A 
ATOM     37  C   UNL A   1      47.570  30.353  28.519  1.00  0.00     0.031 C 
ATOM     38  C   UNL A   1      45.237  31.024  29.042  1.00  0.00     0.037 A 
BRANCH  25  39
ATOM     39  C   UNL A   1      39.418  28.957  29.255  1.00  0.00     0.057 A 
ATOM     40  C   UNL A   1      38.830  28.759  30.511  1.00  0.00     0.134 A 
ATOM     41  C   UNL A   1      38.590  29.409  28.220  1.00  0.00     0.134 A 
ATOM     42  F   UNL A   1      39.561  28.318  31.546  1.00  0.00    -0.206 F 
ATOM     43  C   UNL A   1      37.471  28.994  30.728  1.00  0.00     0.040 A 
ATOM     44  C   UNL A   1      37.236  29.675  28.431  1.00  0.00     0.040 A 
ATOM     45  F   UNL A   1      39.090  29.626  26.994  1.00  0.00    -0.206 F 
ATOM     46  C   UNL A   1      36.671  29.459  29.687  1.00  0.00     0.006 A 
ENDBRANCH  25  39
BRANCH  26  47
ATOM     47  C   UNL A   1      48.922  26.476  27.458  1.00  0.00     0.057 A 
ATOM     48  C   UNL A   1      49.413  26.445  26.146  1.00  0.00     0.134 A 
ATOM     49  C   UNL A   1      49.773  26.041  28.478  1.00  0.00     0.134 A 
ATOM     50  F   UNL A   1      48.638  26.837  25.124  1.00  0.00    -0.206 F 
ATOM     51  C   UNL A   1      50.688  25.960  25.855  1.00  0.00     0.040 A 
ATOM     52  C   UNL A   1      51.061  25.576  28.203  1.00  0.00     0.040 A 
ATOM     53  F   UNL A   1      49.362  26.060  29.754  1.00  0.00    -0.206 F 
ATOM     54  C   UNL A   1      51.516  25.522  26.887  1.00  0.00     0.006 A 
ENDBRANCH  26  47
BRANCH  38  55
ATOM     55  C   UNL A   1      45.719  32.415  29.329  1.00  0.00     0.057 A 
ATOM     56  C   UNL A   1      46.084  32.781  30.632  1.00  0.00     0.134 A 
ATOM     57  C   UNL A   1      45.700  33.418  28.354  1.00  0.00     0.134 A 
ATOM     58  F   UNL A   1      46.113  31.866  31.613  1.00  0.00    -0.206 F 
ATOM     59  C   UNL A   1      46.379  34.104  30.962  1.00  0.00     0.040 A 
ATOM     60  C   UNL A   1      46.018  34.741  28.667  1.00  0.00     0.040 A 
ATOM     61  F   UNL A   1      45.371  33.129  27.087  1.00  0.00    -0.206 F 
ATOM     62  C   UNL A   1      46.344  35.089  29.978  1.00  0.00     0.006 A 
ENDBRANCH  38  55
ENDBRANCH  12  13
ENDBRANCH   5   7
ENDBRANCH   2   3
ENDBRANCH   1   2
BRANCH   1  63
ATOM     63  C   UNL A   1      36.563  20.258  25.001  1.00  0.00     0.023 C 
BRANCH  63  64
ATOM     64  C   UNL A   1      36.364  21.719  25.390  1.00  0.00     0.116 C 
BRANCH  64  65
ATOM     65  N   UNL A   1      35.463  21.888  26.519  1.00  0.00    -0.352 N 
ATOM     66  C   UNL A   1      34.087  21.943  26.517  1.00  0.00     0.256 C 
ATOM     67  H   UNL A   1      35.893  21.972  27.400  1.00  0.00     0.163 HD
ATOM     68  O   UNL A   1      33.481  22.178  27.560  1.00  0.00    -0.269 OA
BRANCH  66  69
ATOM     69  C   UNL A   1      33.345  21.786  25.249  1.00  0.00     0.098 A 
ATOM     70  C   UNL A   1      32.948  20.502  24.859  1.00  0.00     0.138 A 
ATOM     71  C   UNL A   1      33.046  22.909  24.448  1.00  0.00     0.050 A 
ATOM     72  F   UNL A   1      33.148  19.445  25.662  1.00  0.00    -0.206 F 
ATOM     73  C   UNL A   1      32.371  20.281  23.617  1.00  0.00     0.040 A 
ATOM     74  C   UNL A   1      32.525  22.649  23.169  1.00  0.00     0.027 A 
ATOM     75  C   UNL A   1      32.188  21.354  22.756  1.00  0.00     0.005 A 
BRANCH  71  76
ATOM     76  N   UNL A   1      33.299  24.205  24.892  1.00  0.00    -0.377 N 
ATOM     77  H   UNL A   1      34.216  24.417  25.181  1.00  0.00     0.161 HD
BRANCH  76  78
ATOM     78  C   UNL A   1      32.303  25.278  24.960  1.00  0.00     0.110 C 
ATOM     79  C   UNL A   1      31.950  25.559  26.434  1.00  0.00     0.030 C 
ATOM     80  C   UNL A   1      32.823  26.529  24.252  1.00  0.00    -0.023 A 
ATOM     81  C   UNL A   1      31.131  26.834  26.566  1.00  0.00     0.007 C 
ATOM     82  C   UNL A   1      32.633  27.818  24.798  1.00  0.00    -0.043 A 
ATOM     83  C   UNL A   1      33.439  26.421  22.990  1.00  0.00     0.006 A 
ATOM     84  C   UNL A   1      31.973  28.027  26.138  1.00  0.00     0.036 C 
ATOM     85  C   UNL A   1      33.112  28.946  24.112  1.00  0.00     0.004 A 
ATOM     86  C   UNL A   1      33.897  27.552  22.312  1.00  0.00     0.000 A 
ATOM     87  C   UNL A   1      33.740  28.813  22.876  1.00  0.00     0.000 A 
ENDBRANCH  76  78
ENDBRANCH  71  76
ENDBRANCH  66  69
ENDBRANCH  64  65
ENDBRANCH  63  64
ENDBRANCH   1  63
TORSDOF 13
ENDMDL
MODEL 3
REMARK VINA RESULT:     -11.8      2.452      7.299
REMARK SMILES O=C(NCCCCNC(=O)c1c(F)cccc1N[C@H]1CCCc2ccccc21)c1ccc(-c2c3nc(c(-c4c(F)cccc4F)c4ccc([nH]4)c(-c4c(F)cccc4F)c4nc(c(-c5c(F)cccc5F)c5ccc2[nH]5)C=C4)C=C3)cc1
REMARK SMILES IDX 5 1 4 2 3 3 1 4 2 5 29 7 30 8 82 9 31 10 81 11 32 12 33 13
REMARK SMILES IDX 34 14 75 15 35 16 80 17 74 18 76 19 36 20 79 21 73 22 72 23
REMARK SMILES IDX 37 25 63 26 46 27 62 28 47 29 50 30 61 31 77 32 48 33 49 34
REMARK SMILES IDX 60 36 78 37 51 38 38 39 39 40 44 41 40 42 41 43 43 44 45 45
REMARK SMILES IDX 42 46 64 47 65 48 70 49 66 50 67 51 69 52 71 53 68 54 52 55
REMARK SMILES IDX 53 56 58 57 54 58 55 59 57 60 59 61 56 62 6 63 7 64 8 65
REMARK SMILES IDX 9 66 10 68 11 69 12 70 17 71 13 72 14 73 16 74 15 75 18 76
REMARK SMILES IDX 19 78 20 79 28 80 21 81 23 82 27 83 22 84 24 85 26 86 25 87
REMARK H PARENT 3 6 76 24 50 35 8 67 18 77
REMARK Flexibility Score: inf
ROOT
ATOM      1  C   UNL A   1      37.746  19.823  24.734  1.00  0.00     0.023 C 
ENDROOT
BRANCH   1   2
ATOM      2  C   UNL A   1      38.814  20.158  25.769  1.00  0.00     0.116 C 
BRANCH   2   3
ATOM      3  N   UNL A   1      39.898  19.190  25.795  1.00  0.00    -0.352 N 
ATOM      4  O   UNL A   1      42.027  18.451  25.879  1.00  0.00    -0.269 OA
ATOM      5  C   UNL A   1      41.233  19.372  26.058  1.00  0.00     0.251 C 
ATOM      6  H   UNL A   1      39.635  18.262  25.594  1.00  0.00     0.163 HD
BRANCH   5   7
ATOM      7  C   UNL A   1      41.725  20.683  26.530  1.00  0.00     0.039 A 
ATOM      8  C   UNL A   1      41.846  20.958  27.896  1.00  0.00     0.014 A 
ATOM      9  C   UNL A   1      42.084  21.647  25.586  1.00  0.00     0.014 A 
ATOM     10  C   UNL A   1      42.189  22.239  28.316  1.00  0.00     0.010 A 
ATOM     11  C   UNL A   1      42.505  22.908  26.009  1.00  0.00     0.010 A 
ATOM     12  C   UNL A   1      42.531  23.224  27.377  1.00  0.00    -0.014 A 
BRANCH  12  13
ATOM     13  C   UNL A   1      42.959  24.571  27.825  1.00  0.00     0.031 A 
ATOM     14  C   UNL A   1      41.947  25.610  28.209  1.00  0.00     0.074 A 
ATOM     15  C   UNL A   1      44.273  24.865  27.854  1.00  0.00     0.049 A 
ATOM     16  N   UNL A   1      42.133  26.866  28.528  1.00  0.00    -0.248 NA
ATOM     17  C   UNL A   1      40.538  25.187  28.234  1.00  0.00     0.031 C 
ATOM     18  C   UNL A   1      45.350  23.934  27.515  1.00  0.00     0.029 A 
ATOM     19  N   UNL A   1      44.924  26.029  28.172  1.00  0.00    -0.354 N 
ATOM     20  C   UNL A   1      40.868  27.389  28.764  1.00  0.00     0.074 A 
ATOM     21  C   UNL A   1      39.920  26.321  28.532  1.00  0.00     0.031 C 
ATOM     22  C   UNL A   1      46.528  24.557  27.660  1.00  0.00     0.029 A 
ATOM     23  C   UNL A   1      46.288  25.947  28.033  1.00  0.00     0.049 A 
ATOM     24  H   UNL A   1      44.460  26.844  28.472  1.00  0.00     0.167 HD
ATOM     25  C   UNL A   1      40.536  28.646  29.145  1.00  0.00     0.037 A 
ATOM     26  C   UNL A   1      47.241  26.890  28.156  1.00  0.00     0.037 A 
ATOM     27  C   UNL A   1      41.491  29.697  29.385  1.00  0.00     0.049 A 
ATOM     28  C   UNL A   1      46.847  28.290  28.522  1.00  0.00     0.074 A 
ATOM     29  C   UNL A   1      41.255  30.991  29.815  1.00  0.00     0.029 A 
ATOM     30  N   UNL A   1      42.862  29.578  29.206  1.00  0.00    -0.354 N 
ATOM     31  N   UNL A   1      45.650  28.769  28.765  1.00  0.00    -0.248 NA
ATOM     32  C   UNL A   1      47.925  29.282  28.626  1.00  0.00     0.031 C 
ATOM     33  C   UNL A   1      42.473  31.673  29.836  1.00  0.00     0.029 A 
ATOM     34  C   UNL A   1      43.480  30.786  29.485  1.00  0.00     0.049 A 
ATOM     35  H   UNL A   1      43.327  28.757  28.924  1.00  0.00     0.167 HD
ATOM     36  C   UNL A   1      45.832  30.109  29.073  1.00  0.00     0.074 A 
ATOM     37  C   UNL A   1      47.254  30.370  28.986  1.00  0.00     0.031 C 
ATOM     38  C   UNL A   1      44.899  31.034  29.405  1.00  0.00     0.037 A 
BRANCH  25  39
ATOM     39  C   UNL A   1      39.076  28.969  29.301  1.00  0.00     0.057 A 
ATOM     40  C   UNL A   1      38.346  29.492  28.225  1.00  0.00     0.134 A 
ATOM     41  C   UNL A   1      38.407  28.819  30.521  1.00  0.00     0.134 A 
ATOM     42  F   UNL A   1      38.926  29.672  27.029  1.00  0.00    -0.206 F 
ATOM     43  C   UNL A   1      37.006  29.859  28.361  1.00  0.00     0.040 A 
ATOM     44  C   UNL A   1      37.059  29.155  30.662  1.00  0.00     0.040 A 
ATOM     45  F   UNL A   1      39.045  28.317  31.590  1.00  0.00    -0.206 F 
ATOM     46  C   UNL A   1      36.357  29.685  29.580  1.00  0.00     0.006 A 
ENDBRANCH  25  39
BRANCH  26  47
ATOM     47  C   UNL A   1      48.656  26.509  27.929  1.00  0.00     0.057 A 
ATOM     48  C   UNL A   1      49.214  26.511  26.644  1.00  0.00     0.134 A 
ATOM     49  C   UNL A   1      49.453  26.047  28.980  1.00  0.00     0.134 A 
ATOM     50  F   UNL A   1      48.493  26.930  25.593  1.00  0.00    -0.206 F 
ATOM     51  C   UNL A   1      50.501  26.030  26.406  1.00  0.00     0.040 A 
ATOM     52  C   UNL A   1      50.753  25.586  28.760  1.00  0.00     0.040 A 
ATOM     53  F   UNL A   1      48.977  26.034  30.233  1.00  0.00    -0.206 F 
ATOM     54  C   UNL A   1      51.275  25.563  27.467  1.00  0.00     0.006 A 
ENDBRANCH  26  47
BRANCH  38  55
ATOM     55  C   UNL A   1      45.366  32.420  29.738  1.00  0.00     0.057 A 
ATOM     56  C   UNL A   1      45.664  32.765  31.063  1.00  0.00     0.134 A 
ATOM     57  C   UNL A   1      45.397  33.438  28.779  1.00  0.00     0.134 A 
ATOM     58  F   UNL A   1      45.643  31.836  32.030  1.00  0.00    -0.206 F 
ATOM     59  C   UNL A   1      45.944  34.083  31.428  1.00  0.00     0.040 A 
ATOM     60  C   UNL A   1      45.699  34.756  29.128  1.00  0.00     0.040 A 
ATOM     61  F   UNL A   1      45.133  33.169  27.492  1.00  0.00    -0.206 F 
ATOM     62  C   UNL A   1      45.958  35.083  30.459  1.00  0.00     0.006 A 
ENDBRANCH  38  55
ENDBRANCH  12  13
ENDBRANCH   5   7
ENDBRANCH   2   3
ENDBRANCH   1   2
BRANCH   1  63
ATOM     63  C   UNL A   1      36.376  20.447  24.987  1.00  0.00     0.023 C 
BRANCH  63  64
ATOM     64  C   UNL A   1      36.345  21.972  24.994  1.00  0.00     0.116 C 
BRANCH  64  65
ATOM     65  N   UNL A   1      35.913  22.535  23.725  1.00  0.00    -0.352 N 
ATOM     66  C   UNL A   1      34.664  22.997  23.373  1.00  0.00     0.256 C 
ATOM     67  H   UNL A   1      36.604  22.594  23.026  1.00  0.00     0.163 HD
ATOM     68  O   UNL A   1      34.449  23.364  22.220  1.00  0.00    -0.269 OA
BRANCH  66  69
ATOM     69  C   UNL A   1      33.569  22.988  24.363  1.00  0.00     0.098 A 
ATOM     70  C   UNL A   1      32.871  21.794  24.579  1.00  0.00     0.138 A 
ATOM     71  C   UNL A   1      33.233  24.160  25.075  1.00  0.00     0.050 A 
ATOM     72  F   UNL A   1      33.247  20.657  23.974  1.00  0.00    -0.206 F 
ATOM     73  C   UNL A   1      31.749  21.762  25.394  1.00  0.00     0.040 A 
ATOM     74  C   UNL A   1      32.054  24.116  25.838  1.00  0.00     0.027 A 
ATOM     75  C   UNL A   1      31.320  22.934  26.001  1.00  0.00     0.005 A 
BRANCH  71  76
ATOM     76  N   UNL A   1      34.011  25.312  24.984  1.00  0.00    -0.377 N 
ATOM     77  H   UNL A   1      34.883  25.311  25.442  1.00  0.00     0.161 HD
BRANCH  76  78
ATOM     78  C   UNL A   1      33.629  26.526  24.258  1.00  0.00     0.110 C 
ATOM     79  C   UNL A   1      32.533  26.187  23.228  1.00  0.00     0.030 C 
ATOM     80  C   UNL A   1      33.172  27.607  25.238  1.00  0.00    -0.023 A 
ATOM     81  C   UNL A   1      31.920  27.451  22.646  1.00  0.00     0.007 C 
ATOM     82  C   UNL A   1      32.046  28.417  24.970  1.00  0.00    -0.043 A 
ATOM     83  C   UNL A   1      33.921  27.867  26.401  1.00  0.00     0.006 A 
ATOM     84  C   UNL A   1      31.194  28.217  23.741  1.00  0.00     0.036 C 
ATOM     85  C   UNL A   1      31.665  29.410  25.887  1.00  0.00     0.004 A 
ATOM     86  C   UNL A   1      33.539  28.867  27.297  1.00  0.00     0.000 A 
ATOM     87  C   UNL A   1      32.407  29.634  27.043  1.00  0.00     0.000 A 
ENDBRANCH  76  78
ENDBRANCH  71  76
ENDBRANCH  66  69
ENDBRANCH  64  65
ENDBRANCH  63  64
ENDBRANCH   1  63
TORSDOF 13
ENDMDL
