MODEL 1
REMARK VINA RESULT:     -12.1      0.000      0.000
REMARK SMILES O=C(C[C@H](C(=O)NCCCCNC(=O)c1ccc(-c2c3nc(c(-c4c(F)cccc4F)c4ccc([nH]4)c(-c4c(F)cccc4F)c4nc(c(-c5c(F)cccc5F)c5ccc2[nH]5)C=C4)C=C3)cc1)c1ccccc1)Nc1ccc(Cl)cc1Cl
REMARK SMILES IDX 9 1 8 2 7 3 5 4 6 5 4 7 3 8 2 9 1 10 75 11 76 13 77 14 82 15
REMARK SMILES IDX 78 16 81 17 83 18 79 19 80 20 69 21 70 22 74 23 71 24 73 25
REMARK SMILES IDX 72 26 10 27 11 28 12 29 13 30 14 32 15 33 16 34 68 35 17 36
REMARK SMILES IDX 67 37 18 38 19 39 20 40 61 41 21 42 66 43 60 44 62 45 22 46
REMARK SMILES IDX 65 47 59 48 58 49 23 51 49 52 32 53 48 54 33 55 36 56 47 57
REMARK SMILES IDX 63 58 34 59 35 60 46 62 64 63 37 64 24 65 25 66 30 67 26 68
REMARK SMILES IDX 27 69 29 70 31 71 28 72 50 73 51 74 56 75 52 76 53 77 55 78
REMARK SMILES IDX 57 79 54 80 38 81 39 82 44 83 40 84 41 85 43 86 45 87 42 88
REMARK H PARENT 7 6 75 12 12 31 62 50 36 61
REMARK Flexibility Score: inf
ROOT
ATOM      1  C   UNL A   1      37.317  21.681  24.268  1.00  0.00     0.023 C 
ENDROOT
BRANCH   1   2
ATOM      2  C   UNL A   1      36.154  22.434  24.916  1.00  0.00     0.116 C 
BRANCH   2   3
ATOM      3  N   UNL A   1      35.115  22.750  23.956  1.00  0.00    -0.356 N 
ATOM      4  C   UNL A   1      33.885  22.173  23.792  1.00  0.00     0.228 C 
ATOM      5  O   UNL A   1      33.240  22.480  22.791  1.00  0.00    -0.274 OA
ATOM      6  H   UNL A   1      35.323  23.484  23.334  1.00  0.00     0.163 HD
BRANCH   4   7
ATOM      7  C   UNL A   1      33.366  21.187  24.851  1.00  0.00     0.118 C 
BRANCH   7   8
ATOM      8  C   UNL A   1      31.971  21.570  25.365  1.00  0.00     0.118 C 
BRANCH   8   9
ATOM      9  C   UNL A   1      31.929  22.902  26.098  1.00  0.00     0.225 C 
ATOM     10  O   UNL A   1      31.726  22.951  27.308  1.00  0.00    -0.275 OA
ATOM     11  N   UNL A   1      32.121  24.009  25.284  1.00  0.00    -0.325 N 
ATOM     12  H   UNL A   1      32.217  23.854  24.317  1.00  0.00     0.169 HD
BRANCH  11  13
ATOM     13  C   UNL A   1      32.187  25.345  25.747  1.00  0.00     0.060 A 
ATOM     14  C   UNL A   1      33.480  25.868  25.918  1.00  0.00     0.029 A 
ATOM     15  C   UNL A   1      31.082  26.161  26.062  1.00  0.00     0.066 A 
ATOM     16  C   UNL A   1      33.668  27.199  26.302  1.00  0.00     0.023 A 
ATOM     17  C   UNL A   1      31.276  27.494  26.444  1.00  0.00     0.043 A 
ATOM     18  Cl  UNL A   1      29.471  25.550  26.227  1.00  0.00    -0.082 Cl
ATOM     19  C   UNL A   1      32.564  28.009  26.548  1.00  0.00     0.042 A 
ATOM     20  Cl  UNL A   1      32.798  29.647  27.018  1.00  0.00    -0.084 Cl
ENDBRANCH  11  13
ENDBRANCH   8   9
ENDBRANCH   7   8
BRANCH   7  21
ATOM     21  C   UNL A   1      33.378  19.756  24.325  1.00  0.00    -0.035 A 
ATOM     22  C   UNL A   1      34.412  18.878  24.692  1.00  0.00     0.004 A 
ATOM     23  C   UNL A   1      32.406  19.311  23.414  1.00  0.00     0.004 A 
ATOM     24  C   UNL A   1      34.509  17.614  24.110  1.00  0.00     0.000 A 
ATOM     25  C   UNL A   1      32.504  18.043  22.838  1.00  0.00     0.000 A 
ATOM     26  C   UNL A   1      33.562  17.202  23.175  1.00  0.00     0.000 A 
ENDBRANCH   7  21
ENDBRANCH   4   7
ENDBRANCH   2   3
ENDBRANCH   1   2
BRANCH   1  27
ATOM     27  C   UNL A   1      37.760  20.423  25.018  1.00  0.00     0.023 C 
BRANCH  27  28
ATOM     28  C   UNL A   1      38.969  20.605  25.925  1.00  0.00     0.116 C 
BRANCH  28  29
ATOM     29  N   UNL A   1      39.913  19.500  25.854  1.00  0.00    -0.352 N 
ATOM     30  C   UNL A   1      41.266  19.521  26.090  1.00  0.00     0.251 C 
ATOM     31  H   UNL A   1      39.534  18.626  25.605  1.00  0.00     0.163 HD
ATOM     32  O   UNL A   1      41.952  18.524  25.887  1.00  0.00    -0.269 OA
BRANCH  30  33
ATOM     33  C   UNL A   1      41.894  20.775  26.553  1.00  0.00     0.039 A 
ATOM     34  C   UNL A   1      42.317  21.710  25.607  1.00  0.00     0.014 A 
ATOM     35  C   UNL A   1      42.015  21.043  27.919  1.00  0.00     0.014 A 
ATOM     36  C   UNL A   1      42.798  22.950  26.030  1.00  0.00     0.010 A 
ATOM     37  C   UNL A   1      42.431  22.302  28.337  1.00  0.00     0.010 A 
ATOM     38  C   UNL A   1      42.823  23.269  27.397  1.00  0.00    -0.014 A 
BRANCH  38  39
ATOM     39  C   UNL A   1      43.252  24.606  27.877  1.00  0.00     0.031 A 
ATOM     40  C   UNL A   1      42.219  25.650  28.199  1.00  0.00     0.074 A 
ATOM     41  C   UNL A   1      44.564  24.912  27.931  1.00  0.00     0.049 A 
ATOM     42  N   UNL A   1      42.385  26.913  28.496  1.00  0.00    -0.248 NA
ATOM     43  C   UNL A   1      40.811  25.223  28.151  1.00  0.00     0.031 C 
ATOM     44  C   UNL A   1      45.663  24.001  27.603  1.00  0.00     0.029 A 
ATOM     45  N   UNL A   1      45.195  26.085  28.260  1.00  0.00    -0.354 N 
ATOM     46  C   UNL A   1      41.106  27.438  28.636  1.00  0.00     0.074 A 
ATOM     47  C   UNL A   1      40.174  26.366  28.362  1.00  0.00     0.031 C 
ATOM     48  C   UNL A   1      46.831  24.646  27.756  1.00  0.00     0.029 A 
ATOM     49  C   UNL A   1      46.564  26.026  28.152  1.00  0.00     0.049 A 
ATOM     50  H   UNL A   1      44.712  26.894  28.545  1.00  0.00     0.167 HD
ATOM     51  C   UNL A   1      40.743  28.696  28.978  1.00  0.00     0.037 A 
ATOM     52  C   UNL A   1      47.496  26.981  28.336  1.00  0.00     0.037 A 
ATOM     53  C   UNL A   1      41.672  29.745  29.303  1.00  0.00     0.049 A 
ATOM     54  C   UNL A   1      47.062  28.366  28.730  1.00  0.00     0.074 A 
ATOM     55  C   UNL A   1      41.399  31.028  29.745  1.00  0.00     0.029 A 
ATOM     56  N   UNL A   1      43.051  29.632  29.224  1.00  0.00    -0.354 N 
ATOM     57  N   UNL A   1      45.851  28.828  28.930  1.00  0.00    -0.248 NA
ATOM     58  C   UNL A   1      48.124  29.365  28.924  1.00  0.00     0.031 C 
ATOM     59  C   UNL A   1      42.612  31.703  29.901  1.00  0.00     0.029 A 
ATOM     60  C   UNL A   1      43.641  30.828  29.593  1.00  0.00     0.049 A 
ATOM     61  H   UNL A   1      43.537  28.822  28.948  1.00  0.00     0.167 HD
ATOM     62  C   UNL A   1      46.009  30.154  29.311  1.00  0.00     0.074 A 
ATOM     63  C   UNL A   1      47.431  30.424  29.317  1.00  0.00     0.031 C 
ATOM     64  C   UNL A   1      45.061  31.069  29.625  1.00  0.00     0.037 A 
BRANCH  51  65
ATOM     65  C   UNL A   1      39.280  29.013  29.030  1.00  0.00     0.057 A 
ATOM     66  C   UNL A   1      38.571  29.414  27.890  1.00  0.00     0.134 A 
ATOM     67  C   UNL A   1      38.558  28.848  30.219  1.00  0.00     0.134 A 
ATOM     68  F   UNL A   1      39.207  29.601  26.725  1.00  0.00    -0.206 F 
ATOM     69  C   UNL A   1      37.196  29.652  27.936  1.00  0.00     0.040 A 
ATOM     70  C   UNL A   1      37.180  29.061  30.270  1.00  0.00     0.040 A 
ATOM     71  F   UNL A   1      39.178  28.461  31.344  1.00  0.00    -0.206 F 
ATOM     72  C   UNL A   1      36.495  29.466  29.126  1.00  0.00     0.006 A 
ENDBRANCH  51  65
BRANCH  52  73
ATOM     73  C   UNL A   1      48.937  26.671  28.161  1.00  0.00     0.057 A 
ATOM     74  C   UNL A   1      49.540  26.741  26.899  1.00  0.00     0.134 A 
ATOM     75  C   UNL A   1      49.735  26.258  29.234  1.00  0.00     0.134 A 
ATOM     76  F   UNL A   1      48.822  27.110  25.828  1.00  0.00    -0.206 F 
ATOM     77  C   UNL A   1      50.875  26.382  26.704  1.00  0.00     0.040 A 
ATOM     78  C   UNL A   1      51.077  25.920  29.059  1.00  0.00     0.040 A 
ATOM     79  F   UNL A   1      49.218  26.176  30.469  1.00  0.00    -0.206 F 
ATOM     80  C   UNL A   1      51.648  25.971  27.788  1.00  0.00     0.006 A 
ENDBRANCH  52  73
BRANCH  64  81
ATOM     81  C   UNL A   1      45.525  32.425  30.061  1.00  0.00     0.057 A 
ATOM     82  C   UNL A   1      45.827  32.710  31.398  1.00  0.00     0.134 A 
ATOM     83  C   UNL A   1      45.727  33.442  29.118  1.00  0.00     0.134 A 
ATOM     84  F   UNL A   1      45.642  31.782  32.349  1.00  0.00    -0.206 F 
ATOM     85  C   UNL A   1      46.297  33.966  31.785  1.00  0.00     0.040 A 
ATOM     86  C   UNL A   1      46.220  34.693  29.490  1.00  0.00     0.040 A 
ATOM     87  F   UNL A   1      45.466  33.229  27.819  1.00  0.00    -0.206 F 
ATOM     88  C   UNL A   1      46.503  34.959  30.828  1.00  0.00     0.006 A 
ENDBRANCH  64  81
ENDBRANCH  38  39
ENDBRANCH  30  33
ENDBRANCH  28  29
ENDBRANCH  27  28
ENDBRANCH   1  27
TORSDOF 15
ENDMDL
MODEL 2
REMARK VINA RESULT:     -11.9      4.995      9.934
REMARK SMILES O=C(C[C@H](C(=O)NCCCCNC(=O)c1ccc(-c2c3nc(c(-c4c(F)cccc4F)c4ccc([nH]4)c(-c4c(F)cccc4F)c4nc(c(-c5c(F)cccc5F)c5ccc2[nH]5)C=C4)C=C3)cc1)c1ccccc1)Nc1ccc(Cl)cc1Cl
REMARK SMILES IDX 9 1 8 2 7 3 5 4 6 5 4 7 3 8 2 9 1 10 75 11 76 13 77 14 82 15
REMARK SMILES IDX 78 16 81 17 83 18 79 19 80 20 69 21 70 22 74 23 71 24 73 25
REMARK SMILES IDX 72 26 10 27 11 28 12 29 13 30 14 32 15 33 16 34 68 35 17 36
REMARK SMILES IDX 67 37 18 38 19 39 20 40 61 41 21 42 66 43 60 44 62 45 22 46
REMARK SMILES IDX 65 47 59 48 58 49 23 51 49 52 32 53 48 54 33 55 36 56 47 57
REMARK SMILES IDX 63 58 34 59 35 60 46 62 64 63 37 64 24 65 25 66 30 67 26 68
REMARK SMILES IDX 27 69 29 70 31 71 28 72 50 73 51 74 56 75 52 76 53 77 55 78
REMARK SMILES IDX 57 79 54 80 38 81 39 82 44 83 40 84 41 85 43 86 45 87 42 88
REMARK H PARENT 7 6 75 12 12 31 62 50 36 61
REMARK Flexibility Score: inf
ROOT
ATOM      1  C   UNL A   1      31.068  30.777  25.392  1.00  0.00     0.023 C 
ENDROOT
BRANCH   1   2
ATOM      2  C   UNL A   1      32.163  29.710  25.367  1.00  0.00     0.116 C 
BRANCH   2   3
ATOM      3  N   UNL A   1      31.643  28.395  25.687  1.00  0.00    -0.356 N 
ATOM      4  C   UNL A   1      31.081  27.462  24.859  1.00  0.00     0.228 C 
ATOM      5  O   UNL A   1      30.541  26.489  25.379  1.00  0.00    -0.274 OA
ATOM      6  H   UNL A   1      31.703  28.136  26.635  1.00  0.00     0.163 HD
BRANCH   4   7
ATOM      7  C   UNL A   1      31.155  27.662  23.337  1.00  0.00     0.118 C 
BRANCH   7   8
ATOM      8  C   UNL A   1      31.231  26.328  22.580  1.00  0.00     0.118 C 
BRANCH   8   9
ATOM      9  C   UNL A   1      32.558  25.602  22.746  1.00  0.00     0.225 C 
ATOM     10  O   UNL A   1      33.509  25.848  22.010  1.00  0.00    -0.275 OA
ATOM     11  N   UNL A   1      32.569  24.660  23.764  1.00  0.00    -0.325 N 
ATOM     12  H   UNL A   1      31.730  24.505  24.253  1.00  0.00     0.169 HD
BRANCH  11  13
ATOM     13  C   UNL A   1      33.705  23.906  24.148  1.00  0.00     0.060 A 
ATOM     14  C   UNL A   1      34.785  24.647  24.656  1.00  0.00     0.029 A 
ATOM     15  C   UNL A   1      33.837  22.508  24.041  1.00  0.00     0.066 A 
ATOM     16  C   UNL A   1      35.931  24.004  25.133  1.00  0.00     0.023 A 
ATOM     17  C   UNL A   1      34.986  21.869  24.523  1.00  0.00     0.043 A 
ATOM     18  Cl  UNL A   1      32.744  21.520  23.132  1.00  0.00    -0.082 Cl
ATOM     19  C   UNL A   1      36.019  22.617  25.079  1.00  0.00     0.042 A 
ATOM     20  Cl  UNL A   1      37.429  21.829  25.669  1.00  0.00    -0.084 Cl
ENDBRANCH  11  13
ENDBRANCH   8   9
ENDBRANCH   7   8
BRANCH   7  21
ATOM     21  C   UNL A   1      29.989  28.506  22.834  1.00  0.00    -0.035 A 
ATOM     22  C   UNL A   1      30.229  29.633  22.029  1.00  0.00     0.004 A 
ATOM     23  C   UNL A   1      28.669  28.222  23.221  1.00  0.00     0.004 A 
ATOM     24  C   UNL A   1      29.185  30.490  21.679  1.00  0.00     0.000 A 
ATOM     25  C   UNL A   1      27.626  29.079  22.864  1.00  0.00     0.000 A 
ATOM     26  C   UNL A   1      27.887  30.219  22.107  1.00  0.00     0.000 A 
ENDBRANCH   7  21
ENDBRANCH   4   7
ENDBRANCH   2   3
ENDBRANCH   1   2
BRANCH   1  27
ATOM     27  C   UNL A   1      31.125  31.724  26.592  1.00  0.00     0.023 C 
BRANCH  27  28
ATOM     28  C   UNL A   1      32.432  32.490  26.746  1.00  0.00     0.116 C 
BRANCH  28  29
ATOM     29  N   UNL A   1      32.258  33.812  27.329  1.00  0.00    -0.352 N 
ATOM     30  C   UNL A   1      33.029  34.427  28.285  1.00  0.00     0.251 C 
ATOM     31  H   UNL A   1      31.490  34.331  26.997  1.00  0.00     0.163 HD
ATOM     32  O   UNL A   1      32.694  35.509  28.758  1.00  0.00    -0.269 OA
BRANCH  30  33
ATOM     33  C   UNL A   1      34.248  33.749  28.770  1.00  0.00     0.039 A 
ATOM     34  C   UNL A   1      35.493  34.316  28.493  1.00  0.00     0.014 A 
ATOM     35  C   UNL A   1      34.152  32.586  29.537  1.00  0.00     0.014 A 
ATOM     36  C   UNL A   1      36.645  33.755  29.048  1.00  0.00     0.010 A 
ATOM     37  C   UNL A   1      35.292  32.068  30.144  1.00  0.00     0.010 A 
ATOM     38  C   UNL A   1      36.548  32.650  29.908  1.00  0.00    -0.014 A 
BRANCH  38  39
ATOM     39  C   UNL A   1      37.742  32.077  30.579  1.00  0.00     0.031 A 
ATOM     40  C   UNL A   1      38.509  30.968  29.916  1.00  0.00     0.074 A 
ATOM     41  C   UNL A   1      38.076  32.485  31.820  1.00  0.00     0.049 A 
ATOM     42  N   UNL A   1      39.488  30.241  30.390  1.00  0.00    -0.248 NA
ATOM     43  C   UNL A   1      38.102  30.609  28.547  1.00  0.00     0.031 C 
ATOM     44  C   UNL A   1      37.385  33.522  32.588  1.00  0.00     0.029 A 
ATOM     45  N   UNL A   1      39.070  32.056  32.663  1.00  0.00    -0.354 N 
ATOM     46  C   UNL A   1      39.789  29.319  29.395  1.00  0.00     0.074 A 
ATOM     47  C   UNL A   1      38.871  29.557  28.303  1.00  0.00     0.031 C 
ATOM     48  C   UNL A   1      37.981  33.656  33.785  1.00  0.00     0.029 A 
ATOM     49  C   UNL A   1      39.069  32.687  33.884  1.00  0.00     0.049 A 
ATOM     50  H   UNL A   1      39.723  31.362  32.417  1.00  0.00     0.167 HD
ATOM     51  C   UNL A   1      40.755  28.371  29.388  1.00  0.00     0.037 A 
ATOM     52  C   UNL A   1      39.846  32.494  34.967  1.00  0.00     0.037 A 
ATOM     53  C   UNL A   1      41.701  28.173  30.452  1.00  0.00     0.049 A 
ATOM     54  C   UNL A   1      40.921  31.442  34.922  1.00  0.00     0.074 A 
ATOM     55  C   UNL A   1      42.771  27.295  30.499  1.00  0.00     0.029 A 
ATOM     56  N   UNL A   1      41.694  28.862  31.654  1.00  0.00    -0.354 N 
ATOM     57  N   UNL A   1      41.242  30.628  33.946  1.00  0.00    -0.248 NA
ATOM     58  C   UNL A   1      41.744  31.281  36.132  1.00  0.00     0.031 C 
ATOM     59  C   UNL A   1      43.391  27.429  31.744  1.00  0.00     0.029 A 
ATOM     60  C   UNL A   1      42.730  28.417  32.456  1.00  0.00     0.049 A 
ATOM     61  H   UNL A   1      41.048  29.563  31.900  1.00  0.00     0.167 HD
ATOM     62  C   UNL A   1      42.324  29.889  34.407  1.00  0.00     0.074 A 
ATOM     63  C   UNL A   1      42.609  30.353  35.749  1.00  0.00     0.031 C 
ATOM     64  C   UNL A   1      43.019  28.913  33.777  1.00  0.00     0.037 A 
BRANCH  51  65
ATOM     65  C   UNL A   1      40.849  27.478  28.189  1.00  0.00     0.057 A 
ATOM     66  C   UNL A   1      40.131  26.278  28.104  1.00  0.00     0.134 A 
ATOM     67  C   UNL A   1      41.614  27.857  27.078  1.00  0.00     0.134 A 
ATOM     68  F   UNL A   1      39.391  25.855  29.138  1.00  0.00    -0.206 F 
ATOM     69  C   UNL A   1      40.181  25.480  26.960  1.00  0.00     0.040 A 
ATOM     70  C   UNL A   1      41.653  27.078  25.920  1.00  0.00     0.040 A 
ATOM     71  F   UNL A   1      42.320  28.996  27.094  1.00  0.00    -0.206 F 
ATOM     72  C   UNL A   1      40.935  25.885  25.860  1.00  0.00     0.006 A 
ENDBRANCH  51  65
BRANCH  52  73
ATOM     73  C   UNL A   1      39.654  33.313  36.189  1.00  0.00     0.057 A 
ATOM     74  C   UNL A   1      38.766  32.909  37.194  1.00  0.00     0.134 A 
ATOM     75  C   UNL A   1      40.314  34.535  36.366  1.00  0.00     0.134 A 
ATOM     76  F   UNL A   1      38.087  31.759  37.072  1.00  0.00    -0.206 F 
ATOM     77  C   UNL A   1      38.517  33.704  38.315  1.00  0.00     0.040 A 
ATOM     78  C   UNL A   1      40.094  35.328  37.493  1.00  0.00     0.040 A 
ATOM     79  F   UNL A   1      41.182  34.974  35.443  1.00  0.00    -0.206 F 
ATOM     80  C   UNL A   1      39.185  34.918  38.466  1.00  0.00     0.006 A 
ENDBRANCH  52  73
BRANCH  64  81
ATOM     81  C   UNL A   1      44.190  28.321  34.500  1.00  0.00     0.057 A 
ATOM     82  C   UNL A   1      44.071  27.165  35.281  1.00  0.00     0.134 A 
ATOM     83  C   UNL A   1      45.466  28.886  34.367  1.00  0.00     0.134 A 
ATOM     84  F   UNL A   1      42.874  26.585  35.458  1.00  0.00    -0.206 F 
ATOM     85  C   UNL A   1      45.177  26.600  35.918  1.00  0.00     0.040 A 
ATOM     86  C   UNL A   1      46.583  28.316  34.978  1.00  0.00     0.040 A 
ATOM     87  F   UNL A   1      45.648  29.988  33.624  1.00  0.00    -0.206 F 
ATOM     88  C   UNL A   1      46.439  27.171  35.759  1.00  0.00     0.006 A 
ENDBRANCH  64  81
ENDBRANCH  38  39
ENDBRANCH  30  33
ENDBRANCH  28  29
ENDBRANCH  27  28
ENDBRANCH   1  27
TORSDOF 15
ENDMDL
MODEL 3
REMARK VINA RESULT:     -11.9      0.963      6.219
REMARK SMILES O=C(C[C@H](C(=O)NCCCCNC(=O)c1ccc(-c2c3nc(c(-c4c(F)cccc4F)c4ccc([nH]4)c(-c4c(F)cccc4F)c4nc(c(-c5c(F)cccc5F)c5ccc2[nH]5)C=C4)C=C3)cc1)c1ccccc1)Nc1ccc(Cl)cc1Cl
REMARK SMILES IDX 9 1 8 2 7 3 5 4 6 5 4 7 3 8 2 9 1 10 75 11 76 13 77 14 82 15
REMARK SMILES IDX 78 16 81 17 83 18 79 19 80 20 69 21 70 22 74 23 71 24 73 25
REMARK SMILES IDX 72 26 10 27 11 28 12 29 13 30 14 32 15 33 16 34 68 35 17 36
REMARK SMILES IDX 67 37 18 38 19 39 20 40 61 41 21 42 66 43 60 44 62 45 22 46
REMARK SMILES IDX 65 47 59 48 58 49 23 51 49 52 32 53 48 54 33 55 36 56 47 57
REMARK SMILES IDX 63 58 34 59 35 60 46 62 64 63 37 64 24 65 25 66 30 67 26 68
REMARK SMILES IDX 27 69 29 70 31 71 28 72 50 73 51 74 56 75 52 76 53 77 55 78
REMARK SMILES IDX 57 79 54 80 38 81 39 82 44 83 40 84 41 85 43 86 45 87 42 88
REMARK H PARENT 7 6 75 12 12 31 62 50 36 61
REMARK Flexibility Score: inf
ROOT
ATOM      1  C   UNL A   1      37.854  21.806  24.991  1.00  0.00     0.023 C 
ENDROOT
BRANCH   1   2
ATOM      2  C   UNL A   1      36.411  21.942  25.480  1.00  0.00     0.116 C 
BRANCH   2   3
ATOM      3  N   UNL A   1      35.553  22.531  24.470  1.00  0.00    -0.356 N 
ATOM      4  C   UNL A   1      34.285  22.175  24.099  1.00  0.00     0.228 C 
ATOM      5  O   UNL A   1      33.818  22.699  23.089  1.00  0.00    -0.274 OA
ATOM      6  H   UNL A   1      35.937  23.295  23.982  1.00  0.00     0.163 HD
BRANCH   4   7
ATOM      7  C   UNL A   1      33.506  21.159  24.949  1.00  0.00     0.118 C 
BRANCH   7   8
ATOM      8  C   UNL A   1      32.074  21.627  25.245  1.00  0.00     0.118 C 
BRANCH   8   9
ATOM      9  C   UNL A   1      32.002  22.934  26.022  1.00  0.00     0.225 C 
ATOM     10  O   UNL A   1      31.782  22.939  27.229  1.00  0.00    -0.275 OA
ATOM     11  N   UNL A   1      32.188  24.069  25.247  1.00  0.00    -0.325 N 
ATOM     12  H   UNL A   1      32.300  23.949  24.278  1.00  0.00     0.169 HD
BRANCH  11  13
ATOM     13  C   UNL A   1      32.227  25.391  25.756  1.00  0.00     0.060 A 
ATOM     14  C   UNL A   1      33.509  25.936  25.936  1.00  0.00     0.029 A 
ATOM     15  C   UNL A   1      31.107  26.170  26.105  1.00  0.00     0.066 A 
ATOM     16  C   UNL A   1      33.670  27.258  26.365  1.00  0.00     0.023 A 
ATOM     17  C   UNL A   1      31.273  27.493  26.532  1.00  0.00     0.043 A 
ATOM     18  Cl  UNL A   1      29.510  25.517  26.259  1.00  0.00    -0.082 Cl
ATOM     19  C   UNL A   1      32.550  28.034  26.645  1.00  0.00     0.042 A 
ATOM     20  Cl  UNL A   1      32.750  29.660  27.169  1.00  0.00    -0.084 Cl
ENDBRANCH  11  13
ENDBRANCH   8   9
ENDBRANCH   7   8
BRANCH   7  21
ATOM     21  C   UNL A   1      33.503  19.781  24.296  1.00  0.00    -0.035 A 
ATOM     22  C   UNL A   1      32.466  19.418  23.421  1.00  0.00     0.004 A 
ATOM     23  C   UNL A   1      34.487  18.829  24.610  1.00  0.00     0.004 A 
ATOM     24  C   UNL A   1      32.378  18.116  22.927  1.00  0.00     0.000 A 
ATOM     25  C   UNL A   1      34.398  17.528  24.110  1.00  0.00     0.000 A 
ATOM     26  C   UNL A   1      33.337  17.169  23.282  1.00  0.00     0.000 A 
ENDBRANCH   7  21
ENDBRANCH   4   7
ENDBRANCH   2   3
ENDBRANCH   1   2
BRANCH   1  27
ATOM     27  C   UNL A   1      38.423  20.388  25.066  1.00  0.00     0.023 C 
BRANCH  27  28
ATOM     28  C   UNL A   1      39.294  20.106  26.282  1.00  0.00     0.116 C 
BRANCH  28  29
ATOM     29  N   UNL A   1      40.409  19.216  25.997  1.00  0.00    -0.352 N 
ATOM     30  C   UNL A   1      41.754  19.492  26.056  1.00  0.00     0.251 C 
ATOM     31  H   UNL A   1      40.170  18.300  25.727  1.00  0.00     0.163 HD
ATOM     32  O   UNL A   1      42.579  18.664  25.682  1.00  0.00    -0.269 OA
BRANCH  30  33
ATOM     33  C   UNL A   1      42.194  20.817  26.536  1.00  0.00     0.039 A 
ATOM     34  C   UNL A   1      42.576  21.783  25.603  1.00  0.00     0.014 A 
ATOM     35  C   UNL A   1      42.178  21.116  27.901  1.00  0.00     0.014 A 
ATOM     36  C   UNL A   1      42.875  23.077  26.034  1.00  0.00     0.010 A 
ATOM     37  C   UNL A   1      42.411  22.421  28.321  1.00  0.00     0.010 A 
ATOM     38  C   UNL A   1      42.758  23.415  27.391  1.00  0.00    -0.014 A 
BRANCH  38  39
ATOM     39  C   UNL A   1      42.991  24.799  27.873  1.00  0.00     0.031 A 
ATOM     40  C   UNL A   1      44.370  25.218  28.300  1.00  0.00     0.074 A 
ATOM     41  C   UNL A   1      41.951  25.645  28.017  1.00  0.00     0.049 A 
ATOM     42  N   UNL A   1      44.755  26.326  28.878  1.00  0.00    -0.248 NA
ATOM     43  C   UNL A   1      45.455  24.248  28.075  1.00  0.00     0.031 C 
ATOM     44  C   UNL A   1      40.558  25.344  27.678  1.00  0.00     0.029 A 
ATOM     45  N   UNL A   1      41.901  26.924  28.509  1.00  0.00    -0.354 N 
ATOM     46  C   UNL A   1      46.116  26.173  29.116  1.00  0.00     0.074 A 
ATOM     47  C   UNL A   1      46.484  24.855  28.649  1.00  0.00     0.031 C 
ATOM     48  C   UNL A   1      39.794  26.411  27.964  1.00  0.00     0.029 A 
ATOM     49  C   UNL A   1      40.635  27.455  28.543  1.00  0.00     0.049 A 
ATOM     50  H   UNL A   1      42.700  27.416  28.810  1.00  0.00     0.167 HD
ATOM     51  C   UNL A   1      46.982  27.060  29.660  1.00  0.00     0.037 A 
ATOM     52  C   UNL A   1      40.198  28.643  29.005  1.00  0.00     0.037 A 
ATOM     53  C   UNL A   1      46.624  28.390  30.073  1.00  0.00     0.049 A 
ATOM     54  C   UNL A   1      41.188  29.613  29.591  1.00  0.00     0.074 A 
ATOM     55  C   UNL A   1      47.449  29.392  30.555  1.00  0.00     0.029 A 
ATOM     56  N   UNL A   1      45.338  28.905  30.051  1.00  0.00    -0.354 N 
ATOM     57  N   UNL A   1      42.484  29.483  29.742  1.00  0.00    -0.248 NA
ATOM     58  C   UNL A   1      40.655  30.897  30.073  1.00  0.00     0.031 C 
ATOM     59  C   UNL A   1      46.657  30.502  30.857  1.00  0.00     0.029 A 
ATOM     60  C   UNL A   1      45.344  30.204  30.527  1.00  0.00     0.049 A 
ATOM     61  H   UNL A   1      44.539  28.419  29.742  1.00  0.00     0.167 HD
ATOM     62  C   UNL A   1      42.924  30.678  30.295  1.00  0.00     0.074 A 
ATOM     63  C   UNL A   1      41.759  31.523  30.452  1.00  0.00     0.031 C 
ATOM     64  C   UNL A   1      44.180  31.043  30.645  1.00  0.00     0.037 A 
BRANCH  51  65
ATOM     65  C   UNL A   1      48.406  26.630  29.833  1.00  0.00     0.057 A 
ATOM     66  C   UNL A   1      48.842  25.969  30.988  1.00  0.00     0.134 A 
ATOM     67  C   UNL A   1      49.337  26.819  28.803  1.00  0.00     0.134 A 
ATOM     68  F   UNL A   1      48.003  25.768  32.014  1.00  0.00    -0.206 F 
ATOM     69  C   UNL A   1      50.158  25.521  31.118  1.00  0.00     0.040 A 
ATOM     70  C   UNL A   1      50.649  26.355  28.913  1.00  0.00     0.040 A 
ATOM     71  F   UNL A   1      48.981  27.441  27.670  1.00  0.00    -0.206 F 
ATOM     72  C   UNL A   1      51.063  25.705  30.074  1.00  0.00     0.006 A 
ENDBRANCH  51  65
BRANCH  52  73
ATOM     73  C   UNL A   1      38.759  28.998  28.931  1.00  0.00     0.057 A 
ATOM     74  C   UNL A   1      38.210  29.536  27.761  1.00  0.00     0.134 A 
ATOM     75  C   UNL A   1      37.908  28.850  30.033  1.00  0.00     0.134 A 
ATOM     76  F   UNL A   1      38.979  29.721  26.678  1.00  0.00    -0.206 F 
ATOM     77  C   UNL A   1      36.876  29.943  27.698  1.00  0.00     0.040 A 
ATOM     78  C   UNL A   1      36.567  29.230  29.976  1.00  0.00     0.040 A 
ATOM     79  F   UNL A   1      38.372  28.335  31.181  1.00  0.00    -0.206 F 
ATOM     80  C   UNL A   1      36.050  29.789  28.809  1.00  0.00     0.006 A 
ENDBRANCH  52  73
BRANCH  64  81
ATOM     81  C   UNL A   1      44.374  32.431  31.174  1.00  0.00     0.057 A 
ATOM     82  C   UNL A   1      44.597  33.522  30.325  1.00  0.00     0.134 A 
ATOM     83  C   UNL A   1      44.282  32.687  32.549  1.00  0.00     0.134 A 
ATOM     84  F   UNL A   1      44.709  33.341  29.000  1.00  0.00    -0.206 F 
ATOM     85  C   UNL A   1      44.737  34.818  30.826  1.00  0.00     0.040 A 
ATOM     86  C   UNL A   1      44.395  33.980  33.059  1.00  0.00     0.040 A 
ATOM     87  F   UNL A   1      44.060  31.686  33.414  1.00  0.00    -0.206 F 
ATOM     88  C   UNL A   1      44.627  35.049  32.197  1.00  0.00     0.006 A 
ENDBRANCH  64  81
ENDBRANCH  38  39
ENDBRANCH  30  33
ENDBRANCH  28  29
ENDBRANCH  27  28
ENDBRANCH   1  27
TORSDOF 15
ENDMDL
