MODEL 1
REMARK VINA RESULT:     -12.0      0.000      0.000
REMARK SMILES COc1ccc(NS(=O)(=O)c2ccc(Cl)c(C(=O)NCCCCNC(=O)c3ccc(-c4c5nc(c(-c6c(F)cccc6F)c6ccc([nH]6)c(-c6c(F)cccc6F)c6nc(c(-c7c(F)cccc7F)c7ccc4[nH]7)C=C6)C=C5)cc3)c2)cc1Cl
REMARK SMILES IDX 20 1 19 2 17 3 18 4 16 6 11 7 12 8 81 9 13 10 14 11 15 12
REMARK SMILES IDX 8 13 9 14 10 15 7 16 6 18 3 19 4 20 83 21 5 22 82 23 84 24
REMARK SMILES IDX 2 25 1 26 21 27 22 28 23 29 24 30 25 31 26 33 27 34 28 35
REMARK SMILES IDX 80 36 29 37 79 38 30 39 31 40 32 41 73 42 33 43 78 44 72 45
REMARK SMILES IDX 74 46 34 47 77 48 71 49 70 50 35 52 61 53 44 54 60 55 45 56
REMARK SMILES IDX 48 57 59 58 75 59 46 60 47 61 58 63 76 64 49 65 36 66 37 67
REMARK SMILES IDX 42 68 38 69 39 70 41 71 43 72 40 73 62 74 63 75 68 76 64 77
REMARK SMILES IDX 65 78 67 79 69 80 66 81 50 82 51 83 56 84 52 85 53 86 55 87
REMARK SMILES IDX 57 88 54 89
REMARK H PARENT 19 5 7 17 24 32 74 51 48 62
REMARK Flexibility Score: inf
ROOT
ATOM      1  C   UNL A   1      33.156  29.414  26.518  1.00  0.00     0.116 C 
ENDROOT
BRANCH   1   2
ATOM      2  N   UNL A   1      33.647  29.546  25.162  1.00  0.00    -0.352 N 
ATOM      3  C   UNL A   1      33.227  28.942  23.996  1.00  0.00     0.252 C 
ATOM      4  O   UNL A   1      33.725  29.330  22.939  1.00  0.00    -0.269 OA
ATOM      5  H   UNL A   1      34.403  30.168  25.055  1.00  0.00     0.163 HD
BRANCH   3   6
ATOM      6  C   UNL A   1      32.345  27.740  23.966  1.00  0.00     0.059 A 
ATOM      7  C   UNL A   1      32.347  25.298  24.060  1.00  0.00     0.088 A 
ATOM      8  C   UNL A   1      30.976  25.292  24.313  1.00  0.00     0.024 A 
ATOM      9  C   UNL A   1      33.025  26.511  23.875  1.00  0.00     0.037 A 
ATOM     10  C   UNL A   1      30.278  26.500  24.275  1.00  0.00     0.023 A 
ATOM     11  C   UNL A   1      30.948  27.711  24.033  1.00  0.00     0.053 A 
ATOM     12  Cl  UNL A   1      29.945  29.062  23.639  1.00  0.00    -0.083 Cl
BRANCH   7  13
ATOM     13  S   UNL A   1      33.228  23.771  23.863  1.00  0.00     0.261 S 
ATOM     14  O   UNL A   1      34.164  23.940  22.767  1.00  0.00    -0.201 OA
ATOM     15  O   UNL A   1      32.251  22.707  23.823  1.00  0.00    -0.201 OA
BRANCH  13  16
ATOM     16  N   UNL A   1      34.139  23.508  25.269  1.00  0.00    -0.280 N 
ATOM     17  H   UNL A   1      33.742  23.724  26.143  1.00  0.00     0.180 HD
BRANCH  16  18
ATOM     18  C   UNL A   1      35.473  22.979  25.221  1.00  0.00     0.051 A 
ATOM     19  C   UNL A   1      38.038  21.827  25.469  1.00  0.00     0.137 A 
ATOM     20  C   UNL A   1      37.826  23.177  25.758  1.00  0.00     0.050 A 
ATOM     21  C   UNL A   1      36.944  21.044  25.079  1.00  0.00     0.085 A 
ATOM     22  C   UNL A   1      36.552  23.734  25.673  1.00  0.00     0.030 A 
ATOM     23  C   UNL A   1      35.672  21.628  24.933  1.00  0.00     0.051 A 
ATOM     24  Cl  UNL A   1      37.027  19.328  24.890  1.00  0.00    -0.080 Cl
BRANCH  19  25
ATOM     25  O   UNL A   1      39.308  21.408  25.752  1.00  0.00    -0.495 OA
ATOM     26  C   UNL A   1      39.988  22.099  26.793  1.00  0.00     0.278 C 
ENDBRANCH  19  25
ENDBRANCH  16  18
ENDBRANCH  13  16
ENDBRANCH   7  13
ENDBRANCH   3   6
ENDBRANCH   1   2
BRANCH   1  27
ATOM     27  C   UNL A   1      31.832  30.104  26.821  1.00  0.00     0.023 C 
BRANCH  27  28
ATOM     28  C   UNL A   1      31.777  31.615  26.620  1.00  0.00     0.023 C 
BRANCH  28  29
ATOM     29  C   UNL A   1      32.887  32.435  27.271  1.00  0.00     0.116 C 
BRANCH  29  30
ATOM     30  N   UNL A   1      32.502  33.798  27.612  1.00  0.00    -0.352 N 
ATOM     31  C   UNL A   1      33.042  34.659  28.542  1.00  0.00     0.251 C 
ATOM     32  H   UNL A   1      31.740  34.158  27.103  1.00  0.00     0.163 HD
ATOM     33  O   UNL A   1      32.528  35.754  28.745  1.00  0.00    -0.269 OA
BRANCH  31  34
ATOM     34  C   UNL A   1      34.224  34.245  29.330  1.00  0.00     0.039 A 
ATOM     35  C   UNL A   1      34.033  33.565  30.536  1.00  0.00     0.014 A 
ATOM     36  C   UNL A   1      35.515  34.487  28.859  1.00  0.00     0.014 A 
ATOM     37  C   UNL A   1      35.135  33.041  31.218  1.00  0.00     0.010 A 
ATOM     38  C   UNL A   1      36.600  33.881  29.486  1.00  0.00     0.010 A 
ATOM     39  C   UNL A   1      36.424  33.150  30.671  1.00  0.00    -0.014 A 
BRANCH  39  40
ATOM     40  C   UNL A   1      37.605  32.519  31.316  1.00  0.00     0.031 A 
ATOM     41  C   UNL A   1      38.292  31.358  30.647  1.00  0.00     0.074 A 
ATOM     42  C   UNL A   1      38.010  32.928  32.534  1.00  0.00     0.049 A 
ATOM     43  N   UNL A   1      39.262  30.601  31.092  1.00  0.00    -0.248 NA
ATOM     44  C   UNL A   1      37.799  30.980  29.313  1.00  0.00     0.031 C 
ATOM     45  C   UNL A   1      37.404  34.011  33.312  1.00  0.00     0.029 A 
ATOM     46  N   UNL A   1      39.021  32.467  33.343  1.00  0.00    -0.354 N 
ATOM     47  C   UNL A   1      39.478  29.647  30.104  1.00  0.00     0.074 A 
ATOM     48  C   UNL A   1      38.498  29.883  29.068  1.00  0.00     0.031 C 
ATOM     49  C   UNL A   1      38.069  34.146  34.471  1.00  0.00     0.029 A 
ATOM     50  C   UNL A   1      39.115  33.132  34.543  1.00  0.00     0.049 A 
ATOM     51  H   UNL A   1      39.621  31.730  33.087  1.00  0.00     0.167 HD
ATOM     52  C   UNL A   1      40.423  28.679  30.053  1.00  0.00     0.037 A 
ATOM     53  C   UNL A   1      39.943  32.937  35.587  1.00  0.00     0.037 A 
ATOM     54  C   UNL A   1      41.412  28.461  31.075  1.00  0.00     0.049 A 
ATOM     55  C   UNL A   1      40.973  31.842  35.515  1.00  0.00     0.074 A 
ATOM     56  C   UNL A   1      42.447  27.544  31.091  1.00  0.00     0.029 A 
ATOM     57  N   UNL A   1      41.486  29.168  32.265  1.00  0.00    -0.354 N 
ATOM     58  N   UNL A   1      41.209  30.990  34.546  1.00  0.00    -0.248 NA
ATOM     59  C   UNL A   1      41.858  31.685  36.679  1.00  0.00     0.031 C 
ATOM     60  C   UNL A   1      43.114  27.658  32.313  1.00  0.00     0.029 A 
ATOM     61  C   UNL A   1      42.535  28.691  33.034  1.00  0.00     0.049 A 
ATOM     62  H   UNL A   1      40.883  29.901  32.526  1.00  0.00     0.167 HD
ATOM     63  C   UNL A   1      42.288  30.222  34.968  1.00  0.00     0.074 A 
ATOM     64  C   UNL A   1      42.667  30.716  36.274  1.00  0.00     0.031 C 
ATOM     65  C   UNL A   1      42.910  29.201  34.328  1.00  0.00     0.037 A 
BRANCH  52  66
ATOM     66  C   UNL A   1      40.430  27.783  28.847  1.00  0.00     0.057 A 
ATOM     67  C   UNL A   1      41.210  28.066  27.717  1.00  0.00     0.134 A 
ATOM     68  C   UNL A   1      39.667  26.609  28.824  1.00  0.00     0.134 A 
ATOM     69  F   UNL A   1      41.957  29.180  27.667  1.00  0.00    -0.206 F 
ATOM     70  C   UNL A   1      41.204  27.233  26.597  1.00  0.00     0.040 A 
ATOM     71  C   UNL A   1      39.678  25.751  27.722  1.00  0.00     0.040 A 
ATOM     72  F   UNL A   1      38.902  26.272  29.873  1.00  0.00    -0.206 F 
ATOM     73  C   UNL A   1      40.442  26.067  26.601  1.00  0.00     0.006 A 
ENDBRANCH  52  66
BRANCH  53  74
ATOM     74  C   UNL A   1      39.850  33.808  36.789  1.00  0.00     0.057 A 
ATOM     75  C   UNL A   1      39.038  33.455  37.874  1.00  0.00     0.134 A 
ATOM     76  C   UNL A   1      40.551  35.016  36.877  1.00  0.00     0.134 A 
ATOM     77  F   UNL A   1      38.325  32.320  37.842  1.00  0.00    -0.206 F 
ATOM     78  C   UNL A   1      38.907  34.283  38.991  1.00  0.00     0.040 A 
ATOM     79  C   UNL A   1      40.452  35.839  38.000  1.00  0.00     0.040 A 
ATOM     80  F   UNL A   1      41.353  35.409  35.876  1.00  0.00    -0.206 F 
ATOM     81  C   UNL A   1      39.620  35.479  39.057  1.00  0.00     0.006 A 
ENDBRANCH  53  74
BRANCH  65  82
ATOM     82  C   UNL A   1      44.099  28.582  35.005  1.00  0.00     0.057 A 
ATOM     83  C   UNL A   1      45.397  29.078  34.834  1.00  0.00     0.134 A 
ATOM     84  C   UNL A   1      43.932  27.500  35.881  1.00  0.00     0.134 A 
ATOM     85  F   UNL A   1      45.627  30.105  34.001  1.00  0.00    -0.206 F 
ATOM     86  C   UNL A   1      46.488  28.508  35.490  1.00  0.00     0.040 A 
ATOM     87  C   UNL A   1      45.011  26.941  36.566  1.00  0.00     0.040 A 
ATOM     88  F   UNL A   1      42.714  26.982  36.099  1.00  0.00    -0.206 F 
ATOM     89  C   UNL A   1      46.295  27.441  36.366  1.00  0.00     0.006 A 
ENDBRANCH  65  82
ENDBRANCH  39  40
ENDBRANCH  31  34
ENDBRANCH  29  30
ENDBRANCH  28  29
ENDBRANCH  27  28
ENDBRANCH   1  27
TORSDOF 15
ENDMDL
MODEL 2
REMARK VINA RESULT:     -11.9      1.142      6.208
REMARK SMILES COc1ccc(NS(=O)(=O)c2ccc(Cl)c(C(=O)NCCCCNC(=O)c3ccc(-c4c5nc(c(-c6c(F)cccc6F)c6ccc([nH]6)c(-c6c(F)cccc6F)c6nc(c(-c7c(F)cccc7F)c7ccc4[nH]7)C=C6)C=C5)cc3)c2)cc1Cl
REMARK SMILES IDX 20 1 19 2 17 3 18 4 16 6 11 7 12 8 81 9 13 10 14 11 15 12
REMARK SMILES IDX 8 13 9 14 10 15 7 16 6 18 3 19 4 20 83 21 5 22 82 23 84 24
REMARK SMILES IDX 2 25 1 26 21 27 22 28 23 29 24 30 25 31 26 33 27 34 28 35
REMARK SMILES IDX 80 36 29 37 79 38 30 39 31 40 32 41 73 42 33 43 78 44 72 45
REMARK SMILES IDX 74 46 34 47 77 48 71 49 70 50 35 52 61 53 44 54 60 55 45 56
REMARK SMILES IDX 48 57 59 58 75 59 46 60 47 61 58 63 76 64 49 65 36 66 37 67
REMARK SMILES IDX 42 68 38 69 39 70 41 71 43 72 40 73 62 74 63 75 68 76 64 77
REMARK SMILES IDX 65 78 67 79 69 80 66 81 50 82 51 83 56 84 52 85 53 86 55 87
REMARK SMILES IDX 57 88 54 89
REMARK H PARENT 19 5 7 17 24 32 74 51 48 62
REMARK Flexibility Score: inf
ROOT
ATOM      1  C   UNL A   1      32.711  30.031  26.008  1.00  0.00     0.116 C 
ENDROOT
BRANCH   1   2
ATOM      2  N   UNL A   1      33.373  29.623  24.786  1.00  0.00    -0.352 N 
ATOM      3  C   UNL A   1      32.923  28.840  23.744  1.00  0.00     0.252 C 
ATOM      4  O   UNL A   1      33.638  28.752  22.744  1.00  0.00    -0.269 OA
ATOM      5  H   UNL A   1      34.293  29.958  24.683  1.00  0.00     0.163 HD
BRANCH   3   6
ATOM      6  C   UNL A   1      31.718  27.967  23.833  1.00  0.00     0.059 A 
ATOM      7  C   UNL A   1      30.812  25.972  24.916  1.00  0.00     0.088 A 
ATOM      8  C   UNL A   1      29.522  26.329  24.528  1.00  0.00     0.024 A 
ATOM      9  C   UNL A   1      31.904  26.777  24.560  1.00  0.00     0.037 A 
ATOM     10  C   UNL A   1      29.350  27.439  23.698  1.00  0.00     0.023 A 
ATOM     11  C   UNL A   1      30.450  28.213  23.295  1.00  0.00     0.053 A 
ATOM     12  Cl  UNL A   1      30.164  29.307  21.988  1.00  0.00    -0.083 Cl
BRANCH   7  13
ATOM     13  S   UNL A   1      31.100  24.443  25.768  1.00  0.00     0.261 S 
ATOM     14  O   UNL A   1      31.133  23.385  24.776  1.00  0.00    -0.201 OA
ATOM     15  O   UNL A   1      30.166  24.376  26.868  1.00  0.00    -0.201 OA
BRANCH  13  16
ATOM     16  N   UNL A   1      32.641  24.521  26.474  1.00  0.00    -0.280 N 
ATOM     17  H   UNL A   1      32.837  25.244  27.112  1.00  0.00     0.180 HD
BRANCH  16  18
ATOM     18  C   UNL A   1      33.664  23.563  26.167  1.00  0.00     0.051 A 
ATOM     19  C   UNL A   1      35.435  21.528  25.336  1.00  0.00     0.137 A 
ATOM     20  C   UNL A   1      34.639  21.367  26.473  1.00  0.00     0.050 A 
ATOM     21  C   UNL A   1      35.318  22.711  24.596  1.00  0.00     0.085 A 
ATOM     22  C   UNL A   1      33.737  22.357  26.859  1.00  0.00     0.030 A 
ATOM     23  C   UNL A   1      34.453  23.733  25.028  1.00  0.00     0.051 A 
ATOM     24  Cl  UNL A   1      36.089  22.952  23.068  1.00  0.00    -0.080 Cl
BRANCH  19  25
ATOM     25  O   UNL A   1      36.146  20.405  25.013  1.00  0.00    -0.495 OA
ATOM     26  C   UNL A   1      37.563  20.531  25.002  1.00  0.00     0.278 C 
ENDBRANCH  19  25
ENDBRANCH  16  18
ENDBRANCH  13  16
ENDBRANCH   7  13
ENDBRANCH   3   6
ENDBRANCH   1   2
BRANCH   1  27
ATOM     27  C   UNL A   1      31.479  30.912  25.839  1.00  0.00     0.023 C 
BRANCH  27  28
ATOM     28  C   UNL A   1      31.291  32.039  26.851  1.00  0.00     0.023 C 
BRANCH  28  29
ATOM     29  C   UNL A   1      32.541  32.813  27.257  1.00  0.00     0.116 C 
BRANCH  29  30
ATOM     30  N   UNL A   1      32.293  34.203  27.617  1.00  0.00    -0.352 N 
ATOM     31  C   UNL A   1      32.938  35.003  28.533  1.00  0.00     0.251 C 
ATOM     32  H   UNL A   1      31.552  34.634  27.134  1.00  0.00     0.163 HD
ATOM     33  O   UNL A   1      32.533  36.139  28.758  1.00  0.00    -0.269 OA
BRANCH  31  34
ATOM     34  C   UNL A   1      34.101  34.477  29.283  1.00  0.00     0.039 A 
ATOM     35  C   UNL A   1      33.890  33.844  30.511  1.00  0.00     0.014 A 
ATOM     36  C   UNL A   1      35.389  34.568  28.754  1.00  0.00     0.014 A 
ATOM     37  C   UNL A   1      34.956  33.215  31.159  1.00  0.00     0.010 A 
ATOM     38  C   UNL A   1      36.428  33.858  29.349  1.00  0.00     0.010 A 
ATOM     39  C   UNL A   1      36.224  33.173  30.557  1.00  0.00    -0.014 A 
BRANCH  39  40
ATOM     40  C   UNL A   1      37.357  32.428  31.167  1.00  0.00     0.031 A 
ATOM     41  C   UNL A   1      37.951  32.900  32.467  1.00  0.00     0.074 A 
ATOM     42  C   UNL A   1      37.906  31.381  30.518  1.00  0.00     0.049 A 
ATOM     43  N   UNL A   1      39.006  32.462  33.104  1.00  0.00    -0.248 NA
ATOM     44  C   UNL A   1      37.287  34.041  33.119  1.00  0.00     0.031 C 
ATOM     45  C   UNL A   1      37.456  30.848  29.231  1.00  0.00     0.029 A 
ATOM     46  N   UNL A   1      38.977  30.587  30.847  1.00  0.00    -0.354 N 
ATOM     47  C   UNL A   1      39.143  33.284  34.216  1.00  0.00     0.074 A 
ATOM     48  C   UNL A   1      38.103  34.284  34.133  1.00  0.00     0.031 C 
ATOM     49  C   UNL A   1      38.228  29.804  28.892  1.00  0.00     0.029 A 
ATOM     50  C   UNL A   1      39.257  29.620  29.910  1.00  0.00     0.049 A 
ATOM     51  H   UNL A   1      39.496  30.699  31.676  1.00  0.00     0.167 HD
ATOM     52  C   UNL A   1      40.038  33.198  35.229  1.00  0.00     0.037 A 
ATOM     53  C   UNL A   1      40.238  28.698  29.872  1.00  0.00     0.037 A 
ATOM     54  C   UNL A   1      41.058  32.188  35.322  1.00  0.00     0.049 A 
ATOM     55  C   UNL A   1      41.233  28.635  30.999  1.00  0.00     0.074 A 
ATOM     56  C   UNL A   1      41.976  31.981  36.335  1.00  0.00     0.029 A 
ATOM     57  N   UNL A   1      41.295  31.215  34.362  1.00  0.00    -0.354 N 
ATOM     58  N   UNL A   1      41.310  29.378  32.077  1.00  0.00    -0.248 NA
ATOM     59  C   UNL A   1      42.274  27.600  30.909  1.00  0.00     0.031 C 
ATOM     60  C   UNL A   1      42.804  30.918  35.964  1.00  0.00     0.029 A 
ATOM     61  C   UNL A   1      42.362  30.421  34.749  1.00  0.00     0.049 A 
ATOM     62  H   UNL A   1      40.782  31.105  33.530  1.00  0.00     0.167 HD
ATOM     63  C   UNL A   1      42.382  28.878  32.808  1.00  0.00     0.074 A 
ATOM     64  C   UNL A   1      42.918  27.764  32.056  1.00  0.00     0.031 C 
ATOM     65  C   UNL A   1      42.876  29.304  33.996  1.00  0.00     0.037 A 
BRANCH  52  66
ATOM     66  C   UNL A   1      39.949  34.229  36.318  1.00  0.00     0.057 A 
ATOM     67  C   UNL A   1      40.537  35.496  36.191  1.00  0.00     0.134 A 
ATOM     68  C   UNL A   1      39.246  33.962  37.500  1.00  0.00     0.134 A 
ATOM     69  F   UNL A   1      41.234  35.815  35.090  1.00  0.00    -0.206 F 
ATOM     70  C   UNL A   1      40.457  36.445  37.211  1.00  0.00     0.040 A 
ATOM     71  C   UNL A   1      39.131  34.915  38.514  1.00  0.00     0.040 A 
ATOM     72  F   UNL A   1      38.653  32.773  37.687  1.00  0.00    -0.206 F 
ATOM     73  C   UNL A   1      39.745  36.158  38.374  1.00  0.00     0.006 A 
ENDBRANCH  52  66
BRANCH  53  74
ATOM     74  C   UNL A   1      40.325  27.744  28.734  1.00  0.00     0.057 A 
ATOM     75  C   UNL A   1      41.069  28.052  27.589  1.00  0.00     0.134 A 
ATOM     76  C   UNL A   1      39.655  26.515  28.753  1.00  0.00     0.134 A 
ATOM     77  F   UNL A   1      41.717  29.223  27.500  1.00  0.00    -0.206 F 
ATOM     78  C   UNL A   1      41.125  27.186  26.495  1.00  0.00     0.040 A 
ATOM     79  C   UNL A   1      39.725  25.626  27.680  1.00  0.00     0.040 A 
ATOM     80  F   UNL A   1      38.930  26.155  29.823  1.00  0.00    -0.206 F 
ATOM     81  C   UNL A   1      40.454  25.965  26.542  1.00  0.00     0.006 A 
ENDBRANCH  53  74
BRANCH  65  82
ATOM     82  C   UNL A   1      44.022  28.533  34.586  1.00  0.00     0.057 A 
ATOM     83  C   UNL A   1      45.356  28.896  34.368  1.00  0.00     0.134 A 
ATOM     84  C   UNL A   1      43.780  27.438  35.427  1.00  0.00     0.134 A 
ATOM     85  F   UNL A   1      45.657  29.929  33.565  1.00  0.00    -0.206 F 
ATOM     86  C   UNL A   1      46.409  28.185  34.945  1.00  0.00     0.040 A 
ATOM     87  C   UNL A   1      44.823  26.737  36.033  1.00  0.00     0.040 A 
ATOM     88  F   UNL A   1      42.525  27.042  35.687  1.00  0.00    -0.206 F 
ATOM     89  C   UNL A   1      46.143  27.106  35.787  1.00  0.00     0.006 A 
ENDBRANCH  65  82
ENDBRANCH  39  40
ENDBRANCH  31  34
ENDBRANCH  29  30
ENDBRANCH  28  29
ENDBRANCH  27  28
ENDBRANCH   1  27
TORSDOF 15
ENDMDL
MODEL 3
REMARK VINA RESULT:     -11.8      0.688      6.211
REMARK SMILES COc1ccc(NS(=O)(=O)c2ccc(Cl)c(C(=O)NCCCCNC(=O)c3ccc(-c4c5nc(c(-c6c(F)cccc6F)c6ccc([nH]6)c(-c6c(F)cccc6F)c6nc(c(-c7c(F)cccc7F)c7ccc4[nH]7)C=C6)C=C5)cc3)c2)cc1Cl
REMARK SMILES IDX 20 1 19 2 17 3 18 4 16 6 11 7 12 8 81 9 13 10 14 11 15 12
REMARK SMILES IDX 8 13 9 14 10 15 7 16 6 18 3 19 4 20 83 21 5 22 82 23 84 24
REMARK SMILES IDX 2 25 1 26 21 27 22 28 23 29 24 30 25 31 26 33 27 34 28 35
REMARK SMILES IDX 80 36 29 37 79 38 30 39 31 40 32 41 73 42 33 43 78 44 72 45
REMARK SMILES IDX 74 46 34 47 77 48 71 49 70 50 35 52 61 53 44 54 60 55 45 56
REMARK SMILES IDX 48 57 59 58 75 59 46 60 47 61 58 63 76 64 49 65 36 66 37 67
REMARK SMILES IDX 42 68 38 69 39 70 41 71 43 72 40 73 62 74 63 75 68 76 64 77
REMARK SMILES IDX 65 78 67 79 69 80 66 81 50 82 51 83 56 84 52 85 53 86 55 87
REMARK SMILES IDX 57 88 54 89
REMARK H PARENT 19 5 7 17 24 32 74 51 48 62
REMARK Flexibility Score: inf
ROOT
ATOM      1  C   UNL A   1      32.825  29.631  26.251  1.00  0.00     0.116 C 
ENDROOT
BRANCH   1   2
ATOM      2  N   UNL A   1      33.399  29.687  24.922  1.00  0.00    -0.352 N 
ATOM      3  C   UNL A   1      33.100  28.963  23.787  1.00  0.00     0.252 C 
ATOM      4  O   UNL A   1      33.645  29.298  22.734  1.00  0.00    -0.269 OA
ATOM      5  H   UNL A   1      34.120  30.348  24.811  1.00  0.00     0.163 HD
BRANCH   3   6
ATOM      6  C   UNL A   1      32.299  27.705  23.803  1.00  0.00     0.059 A 
ATOM      7  C   UNL A   1      32.466  25.271  23.939  1.00  0.00     0.088 A 
ATOM      8  C   UNL A   1      31.106  25.179  24.230  1.00  0.00     0.024 A 
ATOM      9  C   UNL A   1      33.056  26.522  23.713  1.00  0.00     0.037 A 
ATOM     10  C   UNL A   1      30.328  26.338  24.192  1.00  0.00     0.023 A 
ATOM     11  C   UNL A   1      30.909  27.586  23.910  1.00  0.00     0.053 A 
ATOM     12  Cl  UNL A   1      29.808  28.860  23.521  1.00  0.00    -0.083 Cl
BRANCH   7  13
ATOM     13  S   UNL A   1      33.441  23.802  23.742  1.00  0.00     0.261 S 
ATOM     14  O   UNL A   1      34.427  24.061  22.710  1.00  0.00    -0.201 OA
ATOM     15  O   UNL A   1      32.529  22.690  23.609  1.00  0.00    -0.201 OA
BRANCH  13  16
ATOM     16  N   UNL A   1      34.283  23.537  25.190  1.00  0.00    -0.280 N 
ATOM     17  H   UNL A   1      33.834  23.726  26.045  1.00  0.00     0.180 HD
BRANCH  16  18
ATOM     18  C   UNL A   1      35.631  23.044  25.204  1.00  0.00     0.051 A 
ATOM     19  C   UNL A   1      38.214  21.965  25.574  1.00  0.00     0.137 A 
ATOM     20  C   UNL A   1      37.955  23.314  25.830  1.00  0.00     0.050 A 
ATOM     21  C   UNL A   1      37.157  21.146  25.155  1.00  0.00     0.085 A 
ATOM     22  C   UNL A   1      36.670  23.835  25.685  1.00  0.00     0.030 A 
ATOM     23  C   UNL A   1      35.877  21.694  24.948  1.00  0.00     0.051 A 
ATOM     24  Cl  UNL A   1      37.293  19.431  25.000  1.00  0.00    -0.080 Cl
BRANCH  19  25
ATOM     25  O   UNL A   1      39.482  21.585  25.914  1.00  0.00    -0.495 OA
ATOM     26  C   UNL A   1      40.027  22.172  27.090  1.00  0.00     0.278 C 
ENDBRANCH  19  25
ENDBRANCH  16  18
ENDBRANCH  13  16
ENDBRANCH   7  13
ENDBRANCH   3   6
ENDBRANCH   1   2
BRANCH   1  27
ATOM     27  C   UNL A   1      31.475  30.316  26.425  1.00  0.00     0.023 C 
BRANCH  27  28
ATOM     28  C   UNL A   1      31.478  31.840  26.505  1.00  0.00     0.023 C 
BRANCH  28  29
ATOM     29  C   UNL A   1      32.685  32.490  27.175  1.00  0.00     0.116 C 
BRANCH  29  30
ATOM     30  N   UNL A   1      32.475  33.877  27.567  1.00  0.00    -0.352 N 
ATOM     31  C   UNL A   1      33.139  34.636  28.505  1.00  0.00     0.251 C 
ATOM     32  H   UNL A   1      31.750  34.342  27.090  1.00  0.00     0.163 HD
ATOM     33  O   UNL A   1      32.766  35.778  28.755  1.00  0.00    -0.269 OA
BRANCH  31  34
ATOM     34  C   UNL A   1      34.281  34.058  29.247  1.00  0.00     0.039 A 
ATOM     35  C   UNL A   1      34.031  33.246  30.356  1.00  0.00     0.014 A 
ATOM     36  C   UNL A   1      35.592  34.282  28.823  1.00  0.00     0.014 A 
ATOM     37  C   UNL A   1      35.090  32.576  30.977  1.00  0.00     0.010 A 
ATOM     38  C   UNL A   1      36.630  33.540  29.379  1.00  0.00     0.010 A 
ATOM     39  C   UNL A   1      36.391  32.677  30.461  1.00  0.00    -0.014 A 
BRANCH  39  40
ATOM     40  C   UNL A   1      37.524  31.902  31.033  1.00  0.00     0.031 A 
ATOM     41  C   UNL A   1      38.012  32.205  32.424  1.00  0.00     0.074 A 
ATOM     42  C   UNL A   1      38.166  30.988  30.279  1.00  0.00     0.049 A 
ATOM     43  N   UNL A   1      39.049  31.725  33.061  1.00  0.00    -0.248 NA
ATOM     44  C   UNL A   1      37.251  33.208  33.186  1.00  0.00     0.031 C 
ATOM     45  C   UNL A   1      37.823  30.629  28.901  1.00  0.00     0.029 A 
ATOM     46  N   UNL A   1      39.257  30.202  30.563  1.00  0.00    -0.354 N 
ATOM     47  C   UNL A   1      39.075  32.381  34.286  1.00  0.00     0.074 A 
ATOM     48  C   UNL A   1      37.990  33.336  34.277  1.00  0.00     0.031 C 
ATOM     49  C   UNL A   1      38.669  29.681  28.469  1.00  0.00     0.029 A 
ATOM     50  C   UNL A   1      39.643  29.395  29.517  1.00  0.00     0.049 A 
ATOM     51  H   UNL A   1      39.718  30.214  31.432  1.00  0.00     0.167 HD
ATOM     52  C   UNL A   1      39.911  32.188  35.334  1.00  0.00     0.037 A 
ATOM     53  C   UNL A   1      40.673  28.534  29.413  1.00  0.00     0.037 A 
ATOM     54  C   UNL A   1      40.976  31.221  35.350  1.00  0.00     0.049 A 
ATOM     55  C   UNL A   1      41.601  28.351  30.585  1.00  0.00     0.074 A 
ATOM     56  C   UNL A   1      41.841  30.909  36.382  1.00  0.00     0.029 A 
ATOM     57  N   UNL A   1      41.322  30.411  34.279  1.00  0.00    -0.354 N 
ATOM     58  N   UNL A   1      41.573  28.930  31.760  1.00  0.00    -0.248 NA
ATOM     59  C   UNL A   1      42.699  27.388  30.417  1.00  0.00     0.031 C 
ATOM     60  C   UNL A   1      42.746  29.950  35.919  1.00  0.00     0.029 A 
ATOM     61  C   UNL A   1      42.405  29.616  34.618  1.00  0.00     0.049 A 
ATOM     62  H   UNL A   1      40.866  30.401  33.406  1.00  0.00     0.167 HD
ATOM     63  C   UNL A   1      42.624  28.377  32.482  1.00  0.00     0.074 A 
ATOM     64  C   UNL A   1      43.263  27.410  31.616  1.00  0.00     0.031 C 
ATOM     65  C   UNL A   1      43.023  28.646  33.750  1.00  0.00     0.037 A 
BRANCH  52  66
ATOM     66  C   UNL A   1      39.702  33.043  36.551  1.00  0.00     0.057 A 
ATOM     67  C   UNL A   1      38.774  32.703  37.547  1.00  0.00     0.134 A 
ATOM     68  C   UNL A   1      40.454  34.208  36.745  1.00  0.00     0.134 A 
ATOM     69  F   UNL A   1      38.012  31.605  37.420  1.00  0.00    -0.206 F 
ATOM     70  C   UNL A   1      38.580  33.507  38.671  1.00  0.00     0.040 A 
ATOM     71  C   UNL A   1      40.292  35.003  37.881  1.00  0.00     0.040 A 
ATOM     72  F   UNL A   1      41.364  34.591  35.837  1.00  0.00    -0.206 F 
ATOM     73  C   UNL A   1      39.346  34.657  38.844  1.00  0.00     0.006 A 
ENDBRANCH  52  66
BRANCH  53  74
ATOM     74  C   UNL A   1      40.879  27.762  28.159  1.00  0.00     0.057 A 
ATOM     75  C   UNL A   1      41.676  28.266  27.123  1.00  0.00     0.134 A 
ATOM     76  C   UNL A   1      40.275  26.515  27.956  1.00  0.00     0.134 A 
ATOM     77  F   UNL A   1      42.266  29.463  27.248  1.00  0.00    -0.206 F 
ATOM     78  C   UNL A   1      41.843  27.572  25.923  1.00  0.00     0.040 A 
ATOM     79  C   UNL A   1      40.456  25.797  26.774  1.00  0.00     0.040 A 
ATOM     80  F   UNL A   1      39.505  25.972  28.911  1.00  0.00    -0.206 F 
ATOM     81  C   UNL A   1      41.234  26.330  25.748  1.00  0.00     0.006 A 
ENDBRANCH  53  74
BRANCH  65  82
ATOM     82  C   UNL A   1      44.170  27.849  34.299  1.00  0.00     0.057 A 
ATOM     83  C   UNL A   1      43.991  26.587  34.880  1.00  0.00     0.134 A 
ATOM     84  C   UNL A   1      45.482  28.333  34.200  1.00  0.00     0.134 A 
ATOM     85  F   UNL A   1      42.760  26.070  35.016  1.00  0.00    -0.206 F 
ATOM     86  C   UNL A   1      45.071  25.847  35.363  1.00  0.00     0.040 A 
ATOM     87  C   UNL A   1      46.572  27.589  34.651  1.00  0.00     0.040 A 
ATOM     88  F   UNL A   1      45.726  29.530  33.645  1.00  0.00    -0.206 F 
ATOM     89  C   UNL A   1      46.368  26.344  35.241  1.00  0.00     0.006 A 
ENDBRANCH  65  82
ENDBRANCH  39  40
ENDBRANCH  31  34
ENDBRANCH  29  30
ENDBRANCH  28  29
ENDBRANCH  27  28
ENDBRANCH   1  27
TORSDOF 15
ENDMDL
