MODEL 1
REMARK VINA RESULT:     -10.7      0.000      0.000
REMARK SMILES CC(C)(C)N(CC(=O)NCCCCNC(=O)c1ccc(-c2c3nc(c(-c4c(F)cccc4F)c4ccc([nH]4)c(-c4c(F)cccc4F)c4nc(c(-c5c(F)cccc5F)c5ccc2[nH]5)C=C4)C=C3)cc1)C(=O)N1CC[C@H](O)C1
REMARK SMILES IDX 10 1 9 2 7 3 8 4 6 6 5 7 2 8 1 9 3 10 4 11 71 12 72 13 73 14
REMARK SMILES IDX 74 15 78 16 75 17 76 18 77 19 11 21 12 22 13 23 14 24 15 25
REMARK SMILES IDX 16 27 17 28 18 29 70 30 19 31 69 32 20 33 21 34 22 35 63 36
REMARK SMILES IDX 23 37 68 38 62 39 64 40 24 41 67 42 61 43 60 44 25 46 51 47
REMARK SMILES IDX 34 48 50 49 35 50 38 51 49 52 65 53 36 54 37 55 48 57 66 58
REMARK SMILES IDX 39 59 26 60 27 61 32 62 28 63 29 64 31 65 33 66 30 67 52 68
REMARK SMILES IDX 53 69 58 70 54 71 55 72 57 73 59 74 56 75 40 76 41 77 46 78
REMARK SMILES IDX 42 79 43 80 45 81 47 82 44 83
REMARK H PARENT 9 5 77 20 14 26 64 45 38 56
REMARK Flexibility Score: inf
ROOT
ATOM      1  C   UNL A   1      33.159  29.564  26.562  1.00  0.00     0.116 C 
ENDROOT
BRANCH   1   2
ATOM      2  N   UNL A   1      33.645  29.696  25.213  1.00  0.00    -0.355 N 
ATOM      3  C   UNL A   1      33.571  28.807  24.187  1.00  0.00     0.239 C 
ATOM      4  O   UNL A   1      33.657  29.282  23.047  1.00  0.00    -0.273 OA
ATOM      5  H   UNL A   1      34.094  30.548  25.005  1.00  0.00     0.163 HD
BRANCH   3   6
ATOM      6  C   UNL A   1      33.309  27.293  24.359  1.00  0.00     0.221 C 
BRANCH   6   7
ATOM      7  N   UNL A   1      32.051  26.666  23.907  1.00  0.00    -0.311 N 
BRANCH   7   8
ATOM      8  C   UNL A   1      32.119  25.358  23.114  1.00  0.00     0.037 C 
ATOM      9  C   UNL A   1      30.813  24.512  23.136  1.00  0.00     0.034 C 
ATOM     10  C   UNL A   1      33.244  24.417  23.616  1.00  0.00     0.034 C 
ATOM     11  C   UNL A   1      32.363  25.661  21.611  1.00  0.00     0.034 C 
ENDBRANCH   7   8
BRANCH   7  12
ATOM     12  C   UNL A   1      30.819  26.979  24.511  1.00  0.00     0.321 C 
ATOM     13  O   UNL A   1      30.605  26.762  25.706  1.00  0.00    -0.248 OA
BRANCH  12  14
ATOM     14  N   UNL A   1      29.892  27.718  23.809  1.00  0.00    -0.322 N 
ATOM     15  C   UNL A   1      30.158  29.139  23.592  1.00  0.00     0.124 C 
ATOM     16  C   UNL A   1      28.462  27.489  23.686  1.00  0.00     0.153 C 
ATOM     17  C   UNL A   1      28.849  29.759  23.116  1.00  0.00     0.055 C 
ATOM     18  C   UNL A   1      28.008  28.561  22.700  1.00  0.00     0.135 C 
BRANCH  18  19
ATOM     19  O   UNL A   1      26.622  28.840  22.762  1.00  0.00    -0.391 OA
ATOM     20  H   UNL A   1      26.231  28.374  23.517  1.00  0.00     0.211 HD
ENDBRANCH  18  19
ENDBRANCH  12  14
ENDBRANCH   7  12
ENDBRANCH   6   7
ENDBRANCH   3   6
ENDBRANCH   1   2
BRANCH   1  21
ATOM     21  C   UNL A   1      31.773  30.152  26.794  1.00  0.00     0.023 C 
BRANCH  21  22
ATOM     22  C   UNL A   1      31.663  31.664  26.623  1.00  0.00     0.023 C 
BRANCH  22  23
ATOM     23  C   UNL A   1      32.775  32.488  27.258  1.00  0.00     0.116 C 
BRANCH  23  24
ATOM     24  N   UNL A   1      32.391  33.844  27.624  1.00  0.00    -0.352 N 
ATOM     25  C   UNL A   1      33.001  34.702  28.512  1.00  0.00     0.251 C 
ATOM     26  H   UNL A   1      31.586  34.195  27.178  1.00  0.00     0.163 HD
ATOM     27  O   UNL A   1      32.533  35.812  28.730  1.00  0.00    -0.269 OA
BRANCH  25  28
ATOM     28  C   UNL A   1      34.198  34.244  29.246  1.00  0.00     0.039 A 
ATOM     29  C   UNL A   1      34.023  33.535  30.437  1.00  0.00     0.014 A 
ATOM     30  C   UNL A   1      35.477  34.444  28.722  1.00  0.00     0.014 A 
ATOM     31  C   UNL A   1      35.126  32.945  31.054  1.00  0.00     0.010 A 
ATOM     32  C   UNL A   1      36.562  33.789  29.293  1.00  0.00     0.010 A 
ATOM     33  C   UNL A   1      36.395  33.024  30.458  1.00  0.00    -0.014 A 
BRANCH  33  34
ATOM     34  C   UNL A   1      37.563  32.307  31.026  1.00  0.00     0.031 A 
ATOM     35  C   UNL A   1      38.219  32.813  32.279  1.00  0.00     0.074 A 
ATOM     36  C   UNL A   1      38.085  31.253  30.366  1.00  0.00     0.049 A 
ATOM     37  N   UNL A   1      39.307  32.392  32.872  1.00  0.00    -0.248 NA
ATOM     38  C   UNL A   1      37.586  33.968  32.934  1.00  0.00     0.031 C 
ATOM     39  C   UNL A   1      37.576  30.700  29.110  1.00  0.00     0.029 A 
ATOM     40  N   UNL A   1      39.172  30.468  30.657  1.00  0.00    -0.354 N 
ATOM     41  C   UNL A   1      39.500  33.243  33.951  1.00  0.00     0.074 A 
ATOM     42  C   UNL A   1      38.447  34.234  33.904  1.00  0.00     0.031 C 
ATOM     43  C   UNL A   1      38.334  29.651  28.751  1.00  0.00     0.029 A 
ATOM     44  C   UNL A   1      39.403  29.480  29.729  1.00  0.00     0.049 A 
ATOM     45  H   UNL A   1      39.735  30.600  31.454  1.00  0.00     0.167 HD
ATOM     46  C   UNL A   1      40.455  33.191  34.909  1.00  0.00     0.037 A 
ATOM     47  C   UNL A   1      40.370  28.545  29.674  1.00  0.00     0.037 A 
ATOM     48  C   UNL A   1      41.478  32.182  34.977  1.00  0.00     0.049 A 
ATOM     49  C   UNL A   1      41.405  28.493  30.763  1.00  0.00     0.074 A 
ATOM     50  C   UNL A   1      42.451  32.004  35.944  1.00  0.00     0.029 A 
ATOM     51  N   UNL A   1      41.654  31.175  34.040  1.00  0.00    -0.354 N 
ATOM     52  N   UNL A   1      41.539  29.268  31.811  1.00  0.00    -0.248 NA
ATOM     53  C   UNL A   1      42.418  27.433  30.664  1.00  0.00     0.031 C 
ATOM     54  C   UNL A   1      43.235  30.904  35.576  1.00  0.00     0.029 A 
ATOM     55  C   UNL A   1      42.727  30.377  34.400  1.00  0.00     0.049 A 
ATOM     56  H   UNL A   1      41.098  31.046  33.238  1.00  0.00     0.167 HD
ATOM     57  C   UNL A   1      42.633  28.776  32.509  1.00  0.00     0.074 A 
ATOM     58  C   UNL A   1      43.119  27.627  31.771  1.00  0.00     0.031 C 
ATOM     59  C   UNL A   1      43.188  29.233  33.659  1.00  0.00     0.037 A 
BRANCH  46  60
ATOM     60  C   UNL A   1      40.425  34.252  35.967  1.00  0.00     0.057 A 
ATOM     61  C   UNL A   1      41.125  35.458  35.822  1.00  0.00     0.134 A 
ATOM     62  C   UNL A   1      39.675  34.078  37.136  1.00  0.00     0.134 A 
ATOM     63  F   UNL A   1      41.876  35.680  34.731  1.00  0.00    -0.206 F 
ATOM     64  C   UNL A   1      41.103  36.440  36.813  1.00  0.00     0.040 A 
ATOM     65  C   UNL A   1      39.624  35.063  38.123  1.00  0.00     0.040 A 
ATOM     66  F   UNL A   1      38.978  32.949  37.336  1.00  0.00    -0.206 F 
ATOM     67  C   UNL A   1      40.346  36.246  37.966  1.00  0.00     0.006 A 
ENDBRANCH  46  60
BRANCH  47  68
ATOM     68  C   UNL A   1      40.388  27.558  28.566  1.00  0.00     0.057 A 
ATOM     69  C   UNL A   1      39.676  26.357  28.664  1.00  0.00     0.134 A 
ATOM     70  C   UNL A   1      41.116  27.784  27.394  1.00  0.00     0.134 A 
ATOM     71  F   UNL A   1      38.974  26.078  29.772  1.00  0.00    -0.206 F 
ATOM     72  C   UNL A   1      39.703  25.406  27.643  1.00  0.00     0.040 A 
ATOM     73  C   UNL A   1      41.135  26.852  26.355  1.00  0.00     0.040 A 
ATOM     74  F   UNL A   1      41.813  28.920  27.238  1.00  0.00    -0.206 F 
ATOM     75  C   UNL A   1      40.431  25.655  26.481  1.00  0.00     0.006 A 
ENDBRANCH  47  68
BRANCH  59  76
ATOM     76  C   UNL A   1      44.356  28.470  34.206  1.00  0.00     0.057 A 
ATOM     77  C   UNL A   1      45.677  28.843  33.925  1.00  0.00     0.134 A 
ATOM     78  C   UNL A   1      44.156  27.375  35.056  1.00  0.00     0.134 A 
ATOM     79  F   UNL A   1      45.932  29.873  33.106  1.00  0.00    -0.206 F 
ATOM     80  C   UNL A   1      46.759  28.140  34.458  1.00  0.00     0.040 A 
ATOM     81  C   UNL A   1      45.230  26.681  35.612  1.00  0.00     0.040 A 
ATOM     82  F   UNL A   1      42.915  26.973  35.369  1.00  0.00    -0.206 F 
ATOM     83  C   UNL A   1      46.536  27.060  35.310  1.00  0.00     0.006 A 
ENDBRANCH  59  76
ENDBRANCH  33  34
ENDBRANCH  25  28
ENDBRANCH  23  24
ENDBRANCH  22  23
ENDBRANCH  21  22
ENDBRANCH   1  21
TORSDOF 16
ENDMDL
MODEL 2
REMARK VINA RESULT:     -10.7      0.542      6.362
REMARK SMILES CC(C)(C)N(CC(=O)NCCCCNC(=O)c1ccc(-c2c3nc(c(-c4c(F)cccc4F)c4ccc([nH]4)c(-c4c(F)cccc4F)c4nc(c(-c5c(F)cccc5F)c5ccc2[nH]5)C=C4)C=C3)cc1)C(=O)N1CC[C@H](O)C1
REMARK SMILES IDX 10 1 9 2 7 3 8 4 6 6 5 7 2 8 1 9 3 10 4 11 71 12 72 13 73 14
REMARK SMILES IDX 74 15 78 16 75 17 76 18 77 19 11 21 12 22 13 23 14 24 15 25
REMARK SMILES IDX 16 27 17 28 18 29 70 30 19 31 69 32 20 33 21 34 22 35 63 36
REMARK SMILES IDX 23 37 68 38 62 39 64 40 24 41 67 42 61 43 60 44 25 46 51 47
REMARK SMILES IDX 34 48 50 49 35 50 38 51 49 52 65 53 36 54 37 55 48 57 66 58
REMARK SMILES IDX 39 59 26 60 27 61 32 62 28 63 29 64 31 65 33 66 30 67 52 68
REMARK SMILES IDX 53 69 58 70 54 71 55 72 57 73 59 74 56 75 40 76 41 77 46 78
REMARK SMILES IDX 42 79 43 80 45 81 47 82 44 83
REMARK H PARENT 9 5 77 20 14 26 64 45 38 56
REMARK Flexibility Score: inf
ROOT
ATOM      1  C   UNL A   1      33.405  29.201  26.705  1.00  0.00     0.116 C 
ENDROOT
BRANCH   1   2
ATOM      2  N   UNL A   1      33.976  29.337  25.390  1.00  0.00    -0.355 N 
ATOM      3  C   UNL A   1      33.835  28.524  24.310  1.00  0.00     0.239 C 
ATOM      4  O   UNL A   1      34.046  29.043  23.206  1.00  0.00    -0.273 OA
ATOM      5  H   UNL A   1      34.548  30.127  25.256  1.00  0.00     0.163 HD
BRANCH   3   6
ATOM      6  C   UNL A   1      33.360  27.054  24.378  1.00  0.00     0.221 C 
BRANCH   6   7
ATOM      7  N   UNL A   1      32.066  26.629  23.807  1.00  0.00    -0.311 N 
BRANCH   7   8
ATOM      8  C   UNL A   1      32.036  25.433  22.851  1.00  0.00     0.037 C 
ATOM      9  C   UNL A   1      30.901  24.404  23.128  1.00  0.00     0.034 C 
ATOM     10  C   UNL A   1      33.358  24.623  22.871  1.00  0.00     0.034 C 
ATOM     11  C   UNL A   1      31.777  25.919  21.401  1.00  0.00     0.034 C 
ENDBRANCH   7   8
BRANCH   7  12
ATOM     12  C   UNL A   1      30.846  26.994  24.406  1.00  0.00     0.321 C 
ATOM     13  O   UNL A   1      30.574  26.688  25.569  1.00  0.00    -0.248 OA
BRANCH  12  14
ATOM     14  N   UNL A   1      30.011  27.875  23.755  1.00  0.00    -0.322 N 
ATOM     15  C   UNL A   1      30.398  29.283  23.696  1.00  0.00     0.124 C 
ATOM     16  C   UNL A   1      28.574  27.780  23.561  1.00  0.00     0.153 C 
ATOM     17  C   UNL A   1      29.164  30.056  23.243  1.00  0.00     0.055 C 
ATOM     18  C   UNL A   1      28.248  28.980  22.677  1.00  0.00     0.135 C 
BRANCH  18  19
ATOM     19  O   UNL A   1      26.887  29.366  22.721  1.00  0.00    -0.391 OA
ATOM     20  H   UNL A   1      26.485  29.237  21.848  1.00  0.00     0.211 HD
ENDBRANCH  18  19
ENDBRANCH  12  14
ENDBRANCH   7  12
ENDBRANCH   6   7
ENDBRANCH   3   6
ENDBRANCH   1   2
BRANCH   1  21
ATOM     21  C   UNL A   1      32.017  29.809  26.857  1.00  0.00     0.023 C 
BRANCH  21  22
ATOM     22  C   UNL A   1      31.917  31.303  26.564  1.00  0.00     0.023 C 
BRANCH  22  23
ATOM     23  C   UNL A   1      32.951  32.186  27.251  1.00  0.00     0.116 C 
BRANCH  23  24
ATOM     24  N   UNL A   1      32.506  33.549  27.511  1.00  0.00    -0.352 N 
ATOM     25  C   UNL A   1      33.047  34.481  28.367  1.00  0.00     0.251 C 
ATOM     26  H   UNL A   1      31.712  33.842  27.007  1.00  0.00     0.163 HD
ATOM     27  O   UNL A   1      32.534  35.586  28.492  1.00  0.00    -0.269 OA
BRANCH  25  28
ATOM     28  C   UNL A   1      34.223  34.113  29.181  1.00  0.00     0.039 A 
ATOM     29  C   UNL A   1      34.022  33.385  30.357  1.00  0.00     0.014 A 
ATOM     30  C   UNL A   1      35.516  34.414  28.747  1.00  0.00     0.014 A 
ATOM     31  C   UNL A   1      35.122  32.878  31.049  1.00  0.00     0.010 A 
ATOM     32  C   UNL A   1      36.606  33.842  29.391  1.00  0.00     0.010 A 
ATOM     33  C   UNL A   1      36.420  33.059  30.541  1.00  0.00    -0.014 A 
BRANCH  33  34
ATOM     34  C   UNL A   1      37.598  32.430  31.188  1.00  0.00     0.031 A 
ATOM     35  C   UNL A   1      38.285  31.268  30.529  1.00  0.00     0.074 A 
ATOM     36  C   UNL A   1      37.994  32.850  32.406  1.00  0.00     0.049 A 
ATOM     37  N   UNL A   1      39.259  30.519  30.980  1.00  0.00    -0.248 NA
ATOM     38  C   UNL A   1      37.788  30.874  29.202  1.00  0.00     0.031 C 
ATOM     39  C   UNL A   1      37.374  33.931  33.175  1.00  0.00     0.029 A 
ATOM     40  N   UNL A   1      39.007  32.405  33.217  1.00  0.00    -0.354 N 
ATOM     41  C   UNL A   1      39.473  29.554  30.005  1.00  0.00     0.074 A 
ATOM     42  C   UNL A   1      38.496  29.781  28.962  1.00  0.00     0.031 C 
ATOM     43  C   UNL A   1      38.034  34.081  34.335  1.00  0.00     0.029 A 
ATOM     44  C   UNL A   1      39.099  33.086  34.408  1.00  0.00     0.049 A 
ATOM     45  H   UNL A   1      39.611  31.668  32.971  1.00  0.00     0.167 HD
ATOM     46  C   UNL A   1      40.414  28.581  29.971  1.00  0.00     0.037 A 
ATOM     47  C   UNL A   1      39.945  32.922  35.442  1.00  0.00     0.037 A 
ATOM     48  C   UNL A   1      41.408  28.382  30.990  1.00  0.00     0.049 A 
ATOM     49  C   UNL A   1      40.996  31.849  35.370  1.00  0.00     0.074 A 
ATOM     50  C   UNL A   1      42.445  27.466  31.016  1.00  0.00     0.029 A 
ATOM     51  N   UNL A   1      41.493  29.117  32.162  1.00  0.00    -0.354 N 
ATOM     52  N   UNL A   1      41.226  30.982  34.413  1.00  0.00    -0.248 NA
ATOM     53  C   UNL A   1      41.908  31.737  36.516  1.00  0.00     0.031 C 
ATOM     54  C   UNL A   1      43.141  27.629  32.220  1.00  0.00     0.029 A 
ATOM     55  C   UNL A   1      42.559  28.670  32.925  1.00  0.00     0.049 A 
ATOM     56  H   UNL A   1      40.886  29.850  32.415  1.00  0.00     0.167 HD
ATOM     57  C   UNL A   1      42.322  30.240  34.829  1.00  0.00     0.074 A 
ATOM     58  C   UNL A   1      42.719  30.765  36.120  1.00  0.00     0.031 C 
ATOM     59  C   UNL A   1      42.945  29.213  34.200  1.00  0.00     0.037 A 
BRANCH  46  60
ATOM     60  C   UNL A   1      40.413  27.667  28.782  1.00  0.00     0.057 A 
ATOM     61  C   UNL A   1      41.179  27.943  27.641  1.00  0.00     0.134 A 
ATOM     62  C   UNL A   1      39.655  26.491  28.783  1.00  0.00     0.134 A 
ATOM     63  F   UNL A   1      41.915  29.063  27.571  1.00  0.00    -0.206 F 
ATOM     64  C   UNL A   1      41.168  27.095  26.533  1.00  0.00     0.040 A 
ATOM     65  C   UNL A   1      39.656  25.622  27.691  1.00  0.00     0.040 A 
ATOM     66  F   UNL A   1      38.903  26.166  29.846  1.00  0.00    -0.206 F 
ATOM     67  C   UNL A   1      40.409  25.927  26.558  1.00  0.00     0.006 A 
ENDBRANCH  46  60
BRANCH  47  68
ATOM     68  C   UNL A   1      39.857  33.815  36.624  1.00  0.00     0.057 A 
ATOM     69  C   UNL A   1      40.552  35.030  36.657  1.00  0.00     0.134 A 
ATOM     70  C   UNL A   1      39.091  33.478  37.744  1.00  0.00     0.134 A 
ATOM     71  F   UNL A   1      41.317  35.398  35.619  1.00  0.00    -0.206 F 
ATOM     72  C   UNL A   1      40.501  35.870  37.770  1.00  0.00     0.040 A 
ATOM     73  C   UNL A   1      39.014  34.318  38.855  1.00  0.00     0.040 A 
ATOM     74  F   UNL A   1      38.397  32.330  37.769  1.00  0.00    -0.206 F 
ATOM     75  C   UNL A   1      39.727  35.517  38.873  1.00  0.00     0.006 A 
ENDBRANCH  47  68
BRANCH  59  76
ATOM     76  C   UNL A   1      44.140  28.618  34.881  1.00  0.00     0.057 A 
ATOM     77  C   UNL A   1      44.034  27.488  35.702  1.00  0.00     0.134 A 
ATOM     78  C   UNL A   1      45.416  29.158  34.680  1.00  0.00     0.134 A 
ATOM     79  F   UNL A   1      42.836  26.935  35.945  1.00  0.00    -0.206 F 
ATOM     80  C   UNL A   1      45.156  26.926  36.313  1.00  0.00     0.040 A 
ATOM     81  C   UNL A   1      46.547  28.590  35.267  1.00  0.00     0.040 A 
ATOM     82  F   UNL A   1      45.584  30.235  33.898  1.00  0.00    -0.206 F 
ATOM     83  C   UNL A   1      46.418  27.474  36.090  1.00  0.00     0.006 A 
ENDBRANCH  59  76
ENDBRANCH  33  34
ENDBRANCH  25  28
ENDBRANCH  23  24
ENDBRANCH  22  23
ENDBRANCH  21  22
ENDBRANCH   1  21
TORSDOF 16
ENDMDL
MODEL 3
REMARK VINA RESULT:     -10.3      1.977      6.984
REMARK SMILES CC(C)(C)N(CC(=O)NCCCCNC(=O)c1ccc(-c2c3nc(c(-c4c(F)cccc4F)c4ccc([nH]4)c(-c4c(F)cccc4F)c4nc(c(-c5c(F)cccc5F)c5ccc2[nH]5)C=C4)C=C3)cc1)C(=O)N1CC[C@H](O)C1
REMARK SMILES IDX 10 1 9 2 7 3 8 4 6 6 5 7 2 8 1 9 3 10 4 11 71 12 72 13 73 14
REMARK SMILES IDX 74 15 78 16 75 17 76 18 77 19 11 21 12 22 13 23 14 24 15 25
REMARK SMILES IDX 16 27 17 28 18 29 70 30 19 31 69 32 20 33 21 34 22 35 63 36
REMARK SMILES IDX 23 37 68 38 62 39 64 40 24 41 67 42 61 43 60 44 25 46 51 47
REMARK SMILES IDX 34 48 50 49 35 50 38 51 49 52 65 53 36 54 37 55 48 57 66 58
REMARK SMILES IDX 39 59 26 60 27 61 32 62 28 63 29 64 31 65 33 66 30 67 52 68
REMARK SMILES IDX 53 69 58 70 54 71 55 72 57 73 59 74 56 75 40 76 41 77 46 78
REMARK SMILES IDX 42 79 43 80 45 81 47 82 44 83
REMARK H PARENT 9 5 77 20 14 26 64 45 38 56
REMARK Flexibility Score: inf
ROOT
ATOM      1  C   UNL A   1      33.072  28.188  26.495  1.00  0.00     0.116 C 
ENDROOT
BRANCH   1   2
ATOM      2  N   UNL A   1      33.909  28.303  25.329  1.00  0.00    -0.355 N 
ATOM      3  C   UNL A   1      33.609  28.028  24.032  1.00  0.00     0.239 C 
ATOM      4  O   UNL A   1      34.306  28.594  23.180  1.00  0.00    -0.273 OA
ATOM      5  H   UNL A   1      34.824  28.626  25.495  1.00  0.00     0.163 HD
BRANCH   3   6
ATOM      6  C   UNL A   1      32.429  27.139  23.577  1.00  0.00     0.221 C 
BRANCH   6   7
ATOM      7  N   UNL A   1      32.358  25.705  23.923  1.00  0.00    -0.311 N 
BRANCH   7   8
ATOM      8  C   UNL A   1      30.993  25.082  24.224  1.00  0.00     0.037 C 
ATOM      9  C   UNL A   1      30.690  23.766  23.451  1.00  0.00     0.034 C 
ATOM     10  C   UNL A   1      29.819  26.042  23.904  1.00  0.00     0.034 C 
ATOM     11  C   UNL A   1      30.910  24.683  25.722  1.00  0.00     0.034 C 
ENDBRANCH   7   8
BRANCH   7  12
ATOM     12  C   UNL A   1      33.401  24.820  23.590  1.00  0.00     0.321 C 
ATOM     13  O   UNL A   1      33.921  24.818  22.472  1.00  0.00    -0.248 OA
BRANCH  12  14
ATOM     14  N   UNL A   1      33.990  24.066  24.581  1.00  0.00    -0.322 N 
ATOM     15  C   UNL A   1      35.148  24.620  25.279  1.00  0.00     0.124 C 
ATOM     16  C   UNL A   1      34.010  22.619  24.723  1.00  0.00     0.153 C 
ATOM     17  C   UNL A   1      35.786  23.468  26.047  1.00  0.00     0.055 C 
ATOM     18  C   UNL A   1      34.704  22.397  26.063  1.00  0.00     0.135 C 
BRANCH  18  19
ATOM     19  O   UNL A   1      35.247  21.099  26.214  1.00  0.00    -0.391 OA
ATOM     20  H   UNL A   1      36.201  21.163  26.374  1.00  0.00     0.211 HD
ENDBRANCH  18  19
ENDBRANCH  12  14
ENDBRANCH   7  12
ENDBRANCH   6   7
ENDBRANCH   3   6
ENDBRANCH   1   2
BRANCH   1  21
ATOM     21  C   UNL A   1      31.808  29.037  26.453  1.00  0.00     0.023 C 
BRANCH  21  22
ATOM     22  C   UNL A   1      32.021  30.520  26.161  1.00  0.00     0.023 C 
BRANCH  22  23
ATOM     23  C   UNL A   1      32.839  31.289  27.190  1.00  0.00     0.116 C 
BRANCH  23  24
ATOM     24  N   UNL A   1      32.363  32.640  27.455  1.00  0.00    -0.352 N 
ATOM     25  C   UNL A   1      33.004  33.664  28.115  1.00  0.00     0.251 C 
ATOM     26  H   UNL A   1      31.461  32.847  27.120  1.00  0.00     0.163 HD
ATOM     27  O   UNL A   1      32.450  34.744  28.280  1.00  0.00    -0.269 OA
BRANCH  25  28
ATOM     28  C   UNL A   1      34.350  33.427  28.675  1.00  0.00     0.039 A 
ATOM     29  C   UNL A   1      34.458  32.769  29.903  1.00  0.00     0.014 A 
ATOM     30  C   UNL A   1      35.495  33.780  27.957  1.00  0.00     0.014 A 
ATOM     31  C   UNL A   1      35.715  32.381  30.367  1.00  0.00     0.010 A 
ATOM     32  C   UNL A   1      36.738  33.322  28.381  1.00  0.00     0.010 A 
ATOM     33  C   UNL A   1      36.858  32.609  29.583  1.00  0.00    -0.014 A 
BRANCH  33  34
ATOM     34  C   UNL A   1      38.191  32.102  29.993  1.00  0.00     0.031 A 
ATOM     35  C   UNL A   1      38.686  30.783  29.470  1.00  0.00     0.074 A 
ATOM     36  C   UNL A   1      38.915  32.785  30.901  1.00  0.00     0.049 A 
ATOM     37  N   UNL A   1      39.770  30.122  29.788  1.00  0.00    -0.248 NA
ATOM     38  C   UNL A   1      37.834  30.103  28.483  1.00  0.00     0.031 C 
ATOM     39  C   UNL A   1      38.519  34.048  31.528  1.00  0.00     0.029 A 
ATOM     40  N   UNL A   1      40.133  32.503  31.467  1.00  0.00    -0.354 N 
ATOM     41  C   UNL A   1      39.715  28.940  29.061  1.00  0.00     0.074 A 
ATOM     42  C   UNL A   1      38.470  28.953  28.324  1.00  0.00     0.031 C 
ATOM     43  C   UNL A   1      39.485  34.444  32.372  1.00  0.00     0.029 A 
ATOM     44  C   UNL A   1      40.551  33.447  32.374  1.00  0.00     0.049 A 
ATOM     45  H   UNL A   1      40.658  31.701  31.245  1.00  0.00     0.167 HD
ATOM     46  C   UNL A   1      40.630  27.945  28.995  1.00  0.00     0.037 A 
ATOM     47  C   UNL A   1      41.668  33.499  33.125  1.00  0.00     0.037 A 
ATOM     48  C   UNL A   1      41.885  27.952  29.697  1.00  0.00     0.049 A 
ATOM     49  C   UNL A   1      42.679  32.394  33.016  1.00  0.00     0.074 A 
ATOM     50  C   UNL A   1      42.909  27.023  29.644  1.00  0.00     0.029 A 
ATOM     51  N   UNL A   1      42.290  28.945  30.576  1.00  0.00    -0.354 N 
ATOM     52  N   UNL A   1      42.643  31.311  32.278  1.00  0.00    -0.248 NA
ATOM     53  C   UNL A   1      43.891  32.520  33.839  1.00  0.00     0.031 C 
ATOM     54  C   UNL A   1      43.922  27.440  30.516  1.00  0.00     0.029 A 
ATOM     55  C   UNL A   1      43.543  28.646  31.082  1.00  0.00     0.049 A 
ATOM     56  H   UNL A   1      41.763  29.745  30.807  1.00  0.00     0.167 HD
ATOM     57  C   UNL A   1      43.832  30.641  32.526  1.00  0.00     0.074 A 
ATOM     58  C   UNL A   1      44.575  31.445  33.476  1.00  0.00     0.031 C 
ATOM     59  C   UNL A   1      44.272  29.464  32.016  1.00  0.00     0.037 A 
BRANCH  46  60
ATOM     60  C   UNL A   1      40.306  26.771  28.120  1.00  0.00     0.057 A 
ATOM     61  C   UNL A   1      40.850  26.638  26.835  1.00  0.00     0.134 A 
ATOM     62  C   UNL A   1      39.457  25.754  28.570  1.00  0.00     0.134 A 
ATOM     63  F   UNL A   1      41.658  27.587  26.338  1.00  0.00    -0.206 F 
ATOM     64  C   UNL A   1      40.539  25.549  26.019  1.00  0.00     0.040 A 
ATOM     65  C   UNL A   1      39.158  24.647  27.775  1.00  0.00     0.040 A 
ATOM     66  F   UNL A   1      38.906  25.818  29.792  1.00  0.00    -0.206 F 
ATOM     67  C   UNL A   1      39.695  24.546  26.491  1.00  0.00     0.006 A 
ENDBRANCH  46  60
BRANCH  47  68
ATOM     68  C   UNL A   1      41.906  34.655  34.024  1.00  0.00     0.057 A 
ATOM     69  C   UNL A   1      42.530  35.816  33.551  1.00  0.00     0.134 A 
ATOM     70  C   UNL A   1      41.526  34.629  35.370  1.00  0.00     0.134 A 
ATOM     71  F   UNL A   1      42.931  35.892  32.274  1.00  0.00    -0.206 F 
ATOM     72  C   UNL A   1      42.785  36.902  34.388  1.00  0.00     0.040 A 
ATOM     73  C   UNL A   1      41.755  35.717  36.215  1.00  0.00     0.040 A 
ATOM     74  F   UNL A   1      40.918  33.549  35.882  1.00  0.00    -0.206 F 
ATOM     75  C   UNL A   1      42.393  36.856  35.724  1.00  0.00     0.006 A 
ENDBRANCH  47  68
BRANCH  59  76
ATOM     76  C   UNL A   1      45.629  28.997  32.444  1.00  0.00     0.057 A 
ATOM     77  C   UNL A   1      45.804  28.159  33.553  1.00  0.00     0.134 A 
ATOM     78  C   UNL A   1      46.769  29.356  31.715  1.00  0.00     0.134 A 
ATOM     79  F   UNL A   1      44.753  27.792  34.300  1.00  0.00    -0.206 F 
ATOM     80  C   UNL A   1      47.070  27.709  33.931  1.00  0.00     0.040 A 
ATOM     81  C   UNL A   1      48.036  28.894  32.069  1.00  0.00     0.040 A 
ATOM     82  F   UNL A   1      46.666  30.150  30.638  1.00  0.00    -0.206 F 
ATOM     83  C   UNL A   1      48.190  28.071  33.183  1.00  0.00     0.006 A 
ENDBRANCH  59  76
ENDBRANCH  33  34
ENDBRANCH  25  28
ENDBRANCH  23  24
ENDBRANCH  22  23
ENDBRANCH  21  22
ENDBRANCH   1  21
TORSDOF 16
ENDMDL
