MODEL 1
REMARK VINA RESULT:     -13.8      0.000      0.000
REMARK SMILES O=C(NCCCCNC(=O)c1ccc(-c2c3nc(c(-c4c(F)cccc4F)c4ccc([nH]4)c(-c4c(F)cccc4F)c4nc(c(-c5c(F)cccc5F)c5ccc2[nH]5)C=C4)C=C3)cc1)c1ccc(NC(=O)[C@@H]2CC=CC[C@H]2C(=O)Nc2cccc([N+](=O)[O-])c2)cc1
REMARK SMILES IDX 4 1 3 2 1 3 2 4 65 6 66 7 91 8 67 9 90 10 68 11 69 12 70 13
REMARK SMILES IDX 71 15 72 16 73 17 77 18 74 19 76 20 75 21 78 22 79 23 80 24
REMARK SMILES IDX 81 26 82 27 89 28 83 29 85 30 84 31 86 32 87 33 88 34 5 35
REMARK SMILES IDX 6 36 7 37 8 38 9 39 10 41 11 42 12 43 64 44 13 45 63 46
REMARK SMILES IDX 14 47 15 48 16 49 57 50 17 51 62 52 56 53 58 54 18 55 61 56
REMARK SMILES IDX 55 57 54 58 19 60 45 61 28 62 44 63 29 64 32 65 43 66 59 67
REMARK SMILES IDX 30 68 31 69 42 71 60 72 33 73 20 74 21 75 26 76 22 77 23 78
REMARK SMILES IDX 25 79 27 80 24 81 46 82 47 83 52 84 48 85 49 86 51 87 53 88
REMARK SMILES IDX 50 89 34 90 35 91 40 92 36 93 37 94 39 95 41 96 38 97
REMARK H PARENT 3 5 69 14 80 25 8 40 58 59 32 70
REMARK Flexibility Score: inf
ROOT
ATOM      1  C   UNL A   1      31.828  29.968  27.292  1.00  0.00     0.116 C 
ENDROOT
BRANCH   1   2
ATOM      2  N   UNL A   1      33.266  29.874  27.522  1.00  0.00    -0.352 N 
ATOM      3  O   UNL A   1      35.332  28.945  27.265  1.00  0.00    -0.269 OA
ATOM      4  C   UNL A   1      34.150  28.972  26.959  1.00  0.00     0.251 C 
ATOM      5  H   UNL A   1      33.651  30.526  28.150  1.00  0.00     0.163 HD
BRANCH   4   6
ATOM      6  C   UNL A   1      33.597  27.999  25.998  1.00  0.00     0.039 A 
ATOM      7  C   UNL A   1      33.062  26.810  26.484  1.00  0.00     0.016 A 
ATOM      8  C   UNL A   1      33.853  28.163  24.639  1.00  0.00     0.016 A 
ATOM      9  C   UNL A   1      32.978  25.713  25.633  1.00  0.00     0.027 A 
ATOM     10  C   UNL A   1      33.689  27.069  23.784  1.00  0.00     0.027 A 
ATOM     11  C   UNL A   1      33.297  25.818  24.286  1.00  0.00     0.041 A 
BRANCH  11  12
ATOM     12  N   UNL A   1      33.347  24.736  23.398  1.00  0.00    -0.326 N 
ATOM     13  C   UNL A   1      34.048  23.579  23.314  1.00  0.00     0.228 C 
ATOM     14  H   UNL A   1      32.715  24.841  22.651  1.00  0.00     0.169 HD
ATOM     15  O   UNL A   1      33.935  22.964  22.243  1.00  0.00    -0.274 OA
BRANCH  13  16
ATOM     16  C   UNL A   1      34.937  22.968  24.395  1.00  0.00     0.095 C 
ATOM     17  C   UNL A   1      36.405  23.427  24.347  1.00  0.00     0.041 C 
ATOM     18  C   UNL A   1      34.621  21.481  24.634  1.00  0.00     0.095 C 
ATOM     19  C   UNL A   1      37.438  22.373  24.591  1.00  0.00    -0.030 C 
ATOM     20  C   UNL A   1      35.778  20.580  25.115  1.00  0.00     0.041 C 
ATOM     21  C   UNL A   1      37.160  21.109  24.923  1.00  0.00    -0.030 C 
BRANCH  18  22
ATOM     22  C   UNL A   1      33.381  21.199  25.514  1.00  0.00     0.228 C 
ATOM     23  O   UNL A   1      32.998  22.074  26.300  1.00  0.00    -0.274 OA
ATOM     24  N   UNL A   1      32.563  20.110  25.349  1.00  0.00    -0.326 N 
ATOM     25  H   UNL A   1      31.691  20.175  25.803  1.00  0.00     0.169 HD
BRANCH  24  26
ATOM     26  C   UNL A   1      32.766  18.921  24.640  1.00  0.00     0.048 A 
ATOM     27  C   UNL A   1      32.497  18.887  23.271  1.00  0.00     0.026 A 
ATOM     28  C   UNL A   1      33.161  17.755  25.286  1.00  0.00     0.111 A 
ATOM     29  C   UNL A   1      32.789  17.738  22.527  1.00  0.00     0.009 A 
ATOM     30  C   UNL A   1      33.506  16.626  24.539  1.00  0.00     0.271 A 
ATOM     31  C   UNL A   1      33.331  16.614  23.153  1.00  0.00     0.086 A 
BRANCH  30  32
ATOM     32  N   UNL A   1      34.107  15.472  25.218  1.00  0.00     0.062 N 
ATOM     33  O   UNL A   1      33.364  14.529  25.517  1.00  0.00    -0.258 OA
ATOM     34  O   UNL A   1      35.330  15.496  25.420  1.00  0.00    -0.258 OA
ENDBRANCH  30  32
ENDBRANCH  24  26
ENDBRANCH  18  22
ENDBRANCH  13  16
ENDBRANCH  11  12
ENDBRANCH   4   6
ENDBRANCH   1   2
BRANCH   1  35
ATOM     35  C   UNL A   1      31.442  30.883  26.141  1.00  0.00     0.023 C 
BRANCH  35  36
ATOM     36  C   UNL A   1      31.181  32.332  26.526  1.00  0.00     0.023 C 
BRANCH  36  37
ATOM     37  C   UNL A   1      32.428  33.197  26.682  1.00  0.00     0.116 C 
BRANCH  37  38
ATOM     38  N   UNL A   1      32.279  34.267  27.661  1.00  0.00    -0.352 N 
ATOM     39  C   UNL A   1      33.076  34.577  28.740  1.00  0.00     0.251 C 
ATOM     40  H   UNL A   1      31.498  34.852  27.532  1.00  0.00     0.163 HD
ATOM     41  O   UNL A   1      32.760  35.470  29.519  1.00  0.00    -0.269 OA
BRANCH  39  42
ATOM     42  C   UNL A   1      34.297  33.782  28.982  1.00  0.00     0.039 A 
ATOM     43  C   UNL A   1      35.542  34.377  28.763  1.00  0.00     0.014 A 
ATOM     44  C   UNL A   1      34.207  32.494  29.515  1.00  0.00     0.014 A 
ATOM     45  C   UNL A   1      36.698  33.726  29.194  1.00  0.00     0.010 A 
ATOM     46  C   UNL A   1      35.353  31.881  30.011  1.00  0.00     0.010 A 
ATOM     47  C   UNL A   1      36.604  32.505  29.882  1.00  0.00    -0.014 A 
BRANCH  47  48
ATOM     48  C   UNL A   1      37.784  31.894  30.542  1.00  0.00     0.031 A 
ATOM     49  C   UNL A   1      38.569  30.820  29.850  1.00  0.00     0.074 A 
ATOM     50  C   UNL A   1      38.070  32.225  31.816  1.00  0.00     0.049 A 
ATOM     51  N   UNL A   1      39.542  30.081  30.316  1.00  0.00    -0.248 NA
ATOM     52  C   UNL A   1      38.187  30.516  28.463  1.00  0.00     0.031 C 
ATOM     53  C   UNL A   1      37.338  33.204  32.624  1.00  0.00     0.029 A 
ATOM     54  N   UNL A   1      39.039  31.752  32.666  1.00  0.00    -0.354 N 
ATOM     55  C   UNL A   1      39.876  29.209  29.288  1.00  0.00     0.074 A 
ATOM     56  C   UNL A   1      38.975  29.487  28.189  1.00  0.00     0.031 C 
ATOM     57  C   UNL A   1      37.887  33.262  33.848  1.00  0.00     0.029 A 
ATOM     58  C   UNL A   1      38.985  32.303  33.922  1.00  0.00     0.049 A 
ATOM     59  H   UNL A   1      39.708  31.083  32.399  1.00  0.00     0.167 HD
ATOM     60  C   UNL A   1      40.855  28.275  29.258  1.00  0.00     0.037 A 
ATOM     61  C   UNL A   1      39.723  32.054  35.019  1.00  0.00     0.037 A 
ATOM     62  C   UNL A   1      41.771  28.022  30.337  1.00  0.00     0.049 A 
ATOM     63  C   UNL A   1      40.814  31.024  34.958  1.00  0.00     0.074 A 
ATOM     64  C   UNL A   1      42.860  27.168  30.363  1.00  0.00     0.029 A 
ATOM     65  N   UNL A   1      41.702  28.622  31.585  1.00  0.00    -0.354 N 
ATOM     66  N   UNL A   1      41.168  30.261  33.954  1.00  0.00    -0.248 NA
ATOM     67  C   UNL A   1      41.603  30.822  36.179  1.00  0.00     0.031 C 
ATOM     68  C   UNL A   1      43.431  27.227  31.639  1.00  0.00     0.029 A 
ATOM     69  C   UNL A   1      42.714  28.138  32.399  1.00  0.00     0.049 A 
ATOM     70  H   UNL A   1      41.034  29.292  31.854  1.00  0.00     0.167 HD
ATOM     71  C   UNL A   1      42.223  29.489  34.419  1.00  0.00     0.074 A 
ATOM     72  C   UNL A   1      42.463  29.889  35.790  1.00  0.00     0.031 C 
ATOM     73  C   UNL A   1      42.927  28.533  33.766  1.00  0.00     0.037 A 
BRANCH  60  74
ATOM     74  C   UNL A   1      40.982  27.463  28.005  1.00  0.00     0.057 A 
ATOM     75  C   UNL A   1      40.317  26.240  27.850  1.00  0.00     0.134 A 
ATOM     76  C   UNL A   1      41.772  27.912  26.940  1.00  0.00     0.134 A 
ATOM     77  F   UNL A   1      39.558  25.750  28.842  1.00  0.00    -0.206 F 
ATOM     78  C   UNL A   1      40.454  25.479  26.690  1.00  0.00     0.040 A 
ATOM     79  C   UNL A   1      41.900  27.168  25.766  1.00  0.00     0.040 A 
ATOM     80  F   UNL A   1      42.435  29.075  27.025  1.00  0.00    -0.206 F 
ATOM     81  C   UNL A   1      41.245  25.944  25.642  1.00  0.00     0.006 A 
ENDBRANCH  60  74
BRANCH  61  82
ATOM     82  C   UNL A   1      39.451  32.800  36.269  1.00  0.00     0.057 A 
ATOM     83  C   UNL A   1      38.571  32.293  37.232  1.00  0.00     0.134 A 
ATOM     84  C   UNL A   1      40.079  34.020  36.543  1.00  0.00     0.134 A 
ATOM     85  F   UNL A   1      37.929  31.136  37.015  1.00  0.00    -0.206 F 
ATOM     86  C   UNL A   1      38.323  32.975  38.424  1.00  0.00     0.040 A 
ATOM     87  C   UNL A   1      39.854  34.705  37.736  1.00  0.00     0.040 A 
ATOM     88  F   UNL A   1      40.938  34.552  35.660  1.00  0.00    -0.206 F 
ATOM     89  C   UNL A   1      38.971  34.183  38.681  1.00  0.00     0.006 A 
ENDBRANCH  61  82
BRANCH  73  90
ATOM     90  C   UNL A   1      44.019  27.852  34.533  1.00  0.00     0.057 A 
ATOM     91  C   UNL A   1      45.306  28.399  34.610  1.00  0.00     0.134 A 
ATOM     92  C   UNL A   1      43.775  26.661  35.227  1.00  0.00     0.134 A 
ATOM     93  F   UNL A   1      45.603  29.530  33.953  1.00  0.00    -0.206 F 
ATOM     94  C   UNL A   1      46.317  27.778  35.344  1.00  0.00     0.040 A 
ATOM     95  C   UNL A   1      44.773  26.041  35.979  1.00  0.00     0.040 A 
ATOM     96  F   UNL A   1      42.561  26.091  35.194  1.00  0.00    -0.206 F 
ATOM     97  C   UNL A   1      46.049  26.598  36.037  1.00  0.00     0.006 A 
ENDBRANCH  73  90
ENDBRANCH  47  48
ENDBRANCH  39  42
ENDBRANCH  37  38
ENDBRANCH  36  37
ENDBRANCH  35  36
ENDBRANCH   1  35
TORSDOF 16
ENDMDL
MODEL 2
REMARK VINA RESULT:     -13.6      1.510      2.040
REMARK SMILES O=C(NCCCCNC(=O)c1ccc(-c2c3nc(c(-c4c(F)cccc4F)c4ccc([nH]4)c(-c4c(F)cccc4F)c4nc(c(-c5c(F)cccc5F)c5ccc2[nH]5)C=C4)C=C3)cc1)c1ccc(NC(=O)[C@@H]2CC=CC[C@H]2C(=O)Nc2cccc([N+](=O)[O-])c2)cc1
REMARK SMILES IDX 4 1 3 2 1 3 2 4 65 6 66 7 91 8 67 9 90 10 68 11 69 12 70 13
REMARK SMILES IDX 71 15 72 16 73 17 77 18 74 19 76 20 75 21 78 22 79 23 80 24
REMARK SMILES IDX 81 26 82 27 89 28 83 29 85 30 84 31 86 32 87 33 88 34 5 35
REMARK SMILES IDX 6 36 7 37 8 38 9 39 10 41 11 42 12 43 64 44 13 45 63 46
REMARK SMILES IDX 14 47 15 48 16 49 57 50 17 51 62 52 56 53 58 54 18 55 61 56
REMARK SMILES IDX 55 57 54 58 19 60 45 61 28 62 44 63 29 64 32 65 43 66 59 67
REMARK SMILES IDX 30 68 31 69 42 71 60 72 33 73 20 74 21 75 26 76 22 77 23 78
REMARK SMILES IDX 25 79 27 80 24 81 46 82 47 83 52 84 48 85 49 86 51 87 53 88
REMARK SMILES IDX 50 89 34 90 35 91 40 92 36 93 37 94 39 95 41 96 38 97
REMARK H PARENT 3 5 69 14 80 25 8 40 58 59 32 70
REMARK Flexibility Score: inf
ROOT
ATOM      1  C   UNL A   1      31.429  29.922  25.123  1.00  0.00     0.116 C 
ENDROOT
BRANCH   1   2
ATOM      2  N   UNL A   1      30.575  30.084  23.950  1.00  0.00    -0.352 N 
ATOM      3  O   UNL A   1      29.582  29.390  22.019  1.00  0.00    -0.269 OA
ATOM      4  C   UNL A   1      30.266  29.131  22.997  1.00  0.00     0.251 C 
ATOM      5  H   UNL A   1      30.173  30.974  23.822  1.00  0.00     0.163 HD
BRANCH   4   6
ATOM      6  C   UNL A   1      30.840  27.785  23.182  1.00  0.00     0.039 A 
ATOM      7  C   UNL A   1      32.005  27.455  22.496  1.00  0.00     0.016 A 
ATOM      8  C   UNL A   1      30.083  26.802  23.815  1.00  0.00     0.016 A 
ATOM      9  C   UNL A   1      32.296  26.114  22.272  1.00  0.00     0.027 A 
ATOM     10  C   UNL A   1      30.436  25.461  23.641  1.00  0.00     0.027 A 
ATOM     11  C   UNL A   1      31.520  25.104  22.824  1.00  0.00     0.041 A 
BRANCH  11  12
ATOM     12  N   UNL A   1      31.684  23.741  22.549  1.00  0.00    -0.326 N 
ATOM     13  C   UNL A   1      32.611  22.795  22.837  1.00  0.00     0.228 C 
ATOM     14  H   UNL A   1      30.941  23.379  22.014  1.00  0.00     0.169 HD
ATOM     15  O   UNL A   1      32.484  21.721  22.231  1.00  0.00    -0.274 OA
BRANCH  13  16
ATOM     16  C   UNL A   1      33.768  22.921  23.827  1.00  0.00     0.095 C 
ATOM     17  C   UNL A   1      34.889  23.874  23.379  1.00  0.00     0.041 C 
ATOM     18  C   UNL A   1      34.139  21.568  24.460  1.00  0.00     0.095 C 
ATOM     19  C   UNL A   1      36.290  23.423  23.644  1.00  0.00    -0.030 C 
ATOM     20  C   UNL A   1      35.607  21.368  24.891  1.00  0.00     0.041 C 
ATOM     21  C   UNL A   1      36.608  22.308  24.307  1.00  0.00    -0.030 C 
BRANCH  18  22
ATOM     22  C   UNL A   1      33.221  21.101  25.614  1.00  0.00     0.228 C 
ATOM     23  O   UNL A   1      32.908  21.915  26.492  1.00  0.00    -0.274 OA
ATOM     24  N   UNL A   1      32.576  19.890  25.631  1.00  0.00    -0.326 N 
ATOM     25  H   UNL A   1      31.847  19.818  26.288  1.00  0.00     0.169 HD
BRANCH  24  26
ATOM     26  C   UNL A   1      32.787  18.739  24.863  1.00  0.00     0.048 A 
ATOM     27  C   UNL A   1      32.445  18.746  23.510  1.00  0.00     0.026 A 
ATOM     28  C   UNL A   1      33.263  17.566  25.439  1.00  0.00     0.111 A 
ATOM     29  C   UNL A   1      32.742  17.640  22.705  1.00  0.00     0.009 A 
ATOM     30  C   UNL A   1      33.612  16.482  24.630  1.00  0.00     0.271 A 
ATOM     31  C   UNL A   1      33.361  16.516  23.255  1.00  0.00     0.086 A 
BRANCH  30  32
ATOM     32  N   UNL A   1      34.293  15.329  25.228  1.00  0.00     0.062 N 
ATOM     33  O   UNL A   1      35.506  15.431  25.457  1.00  0.00    -0.258 OA
ATOM     34  O   UNL A   1      33.607  14.333  25.501  1.00  0.00    -0.258 OA
ENDBRANCH  30  32
ENDBRANCH  24  26
ENDBRANCH  18  22
ENDBRANCH  13  16
ENDBRANCH  11  12
ENDBRANCH   4   6
ENDBRANCH   1   2
BRANCH   1  35
ATOM     35  C   UNL A   1      31.354  31.075  26.110  1.00  0.00     0.023 C 
BRANCH  35  36
ATOM     36  C   UNL A   1      32.354  31.012  27.255  1.00  0.00     0.023 C 
BRANCH  36  37
ATOM     37  C   UNL A   1      33.376  32.143  27.290  1.00  0.00     0.116 C 
BRANCH  37  38
ATOM     38  N   UNL A   1      32.795  33.450  27.570  1.00  0.00    -0.352 N 
ATOM     39  C   UNL A   1      33.179  34.393  28.497  1.00  0.00     0.251 C 
ATOM     40  H   UNL A   1      32.018  33.694  27.018  1.00  0.00     0.163 HD
ATOM     41  O   UNL A   1      32.524  35.416  28.660  1.00  0.00    -0.269 OA
BRANCH  39  42
ATOM     42  C   UNL A   1      34.366  34.133  29.336  1.00  0.00     0.039 A 
ATOM     43  C   UNL A   1      34.197  33.465  30.552  1.00  0.00     0.014 A 
ATOM     44  C   UNL A   1      35.642  34.461  28.875  1.00  0.00     0.014 A 
ATOM     45  C   UNL A   1      35.320  33.015  31.248  1.00  0.00     0.010 A 
ATOM     46  C   UNL A   1      36.756  33.948  29.531  1.00  0.00     0.010 A 
ATOM     47  C   UNL A   1      36.603  33.196  30.706  1.00  0.00    -0.014 A 
BRANCH  47  48
ATOM     48  C   UNL A   1      37.795  32.546  31.305  1.00  0.00     0.031 A 
ATOM     49  C   UNL A   1      38.453  31.387  30.618  1.00  0.00     0.074 A 
ATOM     50  C   UNL A   1      38.207  32.927  32.530  1.00  0.00     0.049 A 
ATOM     51  N   UNL A   1      39.414  30.612  31.048  1.00  0.00    -0.248 NA
ATOM     52  C   UNL A   1      37.938  31.033  29.286  1.00  0.00     0.031 C 
ATOM     53  C   UNL A   1      37.606  33.995  33.334  1.00  0.00     0.029 A 
ATOM     54  N   UNL A   1      39.214  32.439  33.326  1.00  0.00    -0.354 N 
ATOM     55  C   UNL A   1      39.607  29.665  30.051  1.00  0.00     0.074 A 
ATOM     56  C   UNL A   1      38.636  29.940  29.013  1.00  0.00     0.031 C 
ATOM     57  C   UNL A   1      38.259  34.084  34.505  1.00  0.00     0.029 A 
ATOM     58  C   UNL A   1      39.298  33.060  34.548  1.00  0.00     0.049 A 
ATOM     59  H   UNL A   1      39.816  31.713  33.047  1.00  0.00     0.167 HD
ATOM     60  C   UNL A   1      40.522  28.669  29.998  1.00  0.00     0.037 A 
ATOM     61  C   UNL A   1      40.110  32.823  35.595  1.00  0.00     0.037 A 
ATOM     62  C   UNL A   1      41.508  28.416  31.013  1.00  0.00     0.049 A 
ATOM     63  C   UNL A   1      41.126  31.723  35.508  1.00  0.00     0.074 A 
ATOM     64  C   UNL A   1      42.541  27.495  31.003  1.00  0.00     0.029 A 
ATOM     65  N   UNL A   1      41.581  29.086  32.225  1.00  0.00    -0.354 N 
ATOM     66  N   UNL A   1      41.348  30.885  34.526  1.00  0.00    -0.248 NA
ATOM     67  C   UNL A   1      42.002  31.536  36.672  1.00  0.00     0.031 C 
ATOM     68  C   UNL A   1      43.221  27.586  32.224  1.00  0.00     0.029 A 
ATOM     69  C   UNL A   1      42.627  28.582  32.983  1.00  0.00     0.049 A 
ATOM     70  H   UNL A   1      40.979  29.812  32.506  1.00  0.00     0.167 HD
ATOM     71  C   UNL A   1      42.390  30.071  34.951  1.00  0.00     0.074 A 
ATOM     72  C   UNL A   1      42.767  30.530  36.272  1.00  0.00     0.031 C 
ATOM     73  C   UNL A   1      42.977  29.037  34.302  1.00  0.00     0.037 A 
BRANCH  60  74
ATOM     74  C   UNL A   1      40.494  27.783  28.791  1.00  0.00     0.057 A 
ATOM     75  C   UNL A   1      39.720  26.616  28.751  1.00  0.00     0.134 A 
ATOM     76  C   UNL A   1      41.244  28.103  27.652  1.00  0.00     0.134 A 
ATOM     77  F   UNL A   1      38.992  26.249  29.817  1.00  0.00    -0.206 F 
ATOM     78  C   UNL A   1      39.712  25.785  27.632  1.00  0.00     0.040 A 
ATOM     79  C   UNL A   1      41.228  27.289  26.518  1.00  0.00     0.040 A 
ATOM     80  F   UNL A   1      42.005  29.207  27.625  1.00  0.00    -0.206 F 
ATOM     81  C   UNL A   1      40.466  26.122  26.509  1.00  0.00     0.006 A 
ENDBRANCH  60  74
BRANCH  61  82
ATOM     82  C   UNL A   1      39.988  33.653  36.816  1.00  0.00     0.057 A 
ATOM     83  C   UNL A   1      40.720  34.837  36.956  1.00  0.00     0.134 A 
ATOM     84  C   UNL A   1      39.122  33.299  37.856  1.00  0.00     0.134 A 
ATOM     85  F   UNL A   1      41.578  35.216  35.998  1.00  0.00    -0.206 F 
ATOM     86  C   UNL A   1      40.598  35.640  38.090  1.00  0.00     0.040 A 
ATOM     87  C   UNL A   1      38.977  34.099  38.989  1.00  0.00     0.040 A 
ATOM     88  F   UNL A   1      38.389  32.178  37.774  1.00  0.00    -0.206 F 
ATOM     89  C   UNL A   1      39.719  35.274  39.109  1.00  0.00     0.006 A 
ENDBRANCH  61  82
BRANCH  73  90
ATOM     90  C   UNL A   1      44.086  28.328  35.018  1.00  0.00     0.057 A 
ATOM     91  C   UNL A   1      45.422  28.713  34.852  1.00  0.00     0.134 A 
ATOM     92  C   UNL A   1      43.815  27.281  35.905  1.00  0.00     0.134 A 
ATOM     93  F   UNL A   1      45.745  29.700  34.003  1.00  0.00    -0.206 F 
ATOM     94  C   UNL A   1      46.454  28.069  35.538  1.00  0.00     0.040 A 
ATOM     95  C   UNL A   1      44.835  26.643  36.610  1.00  0.00     0.040 A 
ATOM     96  F   UNL A   1      42.554  26.871  36.109  1.00  0.00    -0.206 F 
ATOM     97  C   UNL A   1      46.160  27.035  36.425  1.00  0.00     0.006 A 
ENDBRANCH  73  90
ENDBRANCH  47  48
ENDBRANCH  39  42
ENDBRANCH  37  38
ENDBRANCH  36  37
ENDBRANCH  35  36
ENDBRANCH   1  35
TORSDOF 16
ENDMDL
MODEL 3
REMARK VINA RESULT:     -13.5      4.349      7.642
REMARK SMILES O=C(NCCCCNC(=O)c1ccc(-c2c3nc(c(-c4c(F)cccc4F)c4ccc([nH]4)c(-c4c(F)cccc4F)c4nc(c(-c5c(F)cccc5F)c5ccc2[nH]5)C=C4)C=C3)cc1)c1ccc(NC(=O)[C@@H]2CC=CC[C@H]2C(=O)Nc2cccc([N+](=O)[O-])c2)cc1
REMARK SMILES IDX 4 1 3 2 1 3 2 4 65 6 66 7 91 8 67 9 90 10 68 11 69 12 70 13
REMARK SMILES IDX 71 15 72 16 73 17 77 18 74 19 76 20 75 21 78 22 79 23 80 24
REMARK SMILES IDX 81 26 82 27 89 28 83 29 85 30 84 31 86 32 87 33 88 34 5 35
REMARK SMILES IDX 6 36 7 37 8 38 9 39 10 41 11 42 12 43 64 44 13 45 63 46
REMARK SMILES IDX 14 47 15 48 16 49 57 50 17 51 62 52 56 53 58 54 18 55 61 56
REMARK SMILES IDX 55 57 54 58 19 60 45 61 28 62 44 63 29 64 32 65 43 66 59 67
REMARK SMILES IDX 30 68 31 69 42 71 60 72 33 73 20 74 21 75 26 76 22 77 23 78
REMARK SMILES IDX 25 79 27 80 24 81 46 82 47 83 52 84 48 85 49 86 51 87 53 88
REMARK SMILES IDX 50 89 34 90 35 91 40 92 36 93 37 94 39 95 41 96 38 97
REMARK H PARENT 3 5 69 14 80 25 8 40 58 59 32 70
REMARK Flexibility Score: inf
ROOT
ATOM      1  C   UNL A   1      32.089  30.051  25.408  1.00  0.00     0.116 C 
ENDROOT
BRANCH   1   2
ATOM      2  N   UNL A   1      30.896  30.211  24.582  1.00  0.00    -0.352 N 
ATOM      3  O   UNL A   1      29.286  29.495  23.136  1.00  0.00    -0.269 OA
ATOM      4  C   UNL A   1      30.251  29.240  23.840  1.00  0.00     0.251 C 
ATOM      5  H   UNL A   1      30.506  31.115  24.549  1.00  0.00     0.163 HD
BRANCH   4   6
ATOM      6  C   UNL A   1      30.806  27.874  23.893  1.00  0.00     0.039 A 
ATOM      7  C   UNL A   1      32.028  27.625  23.275  1.00  0.00     0.016 A 
ATOM      8  C   UNL A   1      29.996  26.825  24.319  1.00  0.00     0.016 A 
ATOM      9  C   UNL A   1      32.339  26.323  22.900  1.00  0.00     0.027 A 
ATOM     10  C   UNL A   1      30.364  25.515  23.999  1.00  0.00     0.027 A 
ATOM     11  C   UNL A   1      31.517  25.257  23.240  1.00  0.00     0.041 A 
BRANCH  11  12
ATOM     12  N   UNL A   1      31.704  23.941  22.801  1.00  0.00    -0.326 N 
ATOM     13  C   UNL A   1      32.646  22.982  22.978  1.00  0.00     0.228 C 
ATOM     14  H   UNL A   1      30.971  23.637  22.220  1.00  0.00     0.169 HD
ATOM     15  O   UNL A   1      32.540  21.988  22.242  1.00  0.00    -0.274 OA
BRANCH  13  16
ATOM     16  C   UNL A   1      33.794  23.003  23.985  1.00  0.00     0.095 C 
ATOM     17  C   UNL A   1      34.964  23.922  23.598  1.00  0.00     0.041 C 
ATOM     18  C   UNL A   1      34.093  21.603  24.553  1.00  0.00     0.095 C 
ATOM     19  C   UNL A   1      36.339  23.393  23.855  1.00  0.00    -0.030 C 
ATOM     20  C   UNL A   1      35.544  21.312  24.988  1.00  0.00     0.041 C 
ATOM     21  C   UNL A   1      36.595  22.231  24.463  1.00  0.00    -0.030 C 
BRANCH  18  22
ATOM     22  C   UNL A   1      33.139  21.123  25.671  1.00  0.00     0.228 C 
ATOM     23  O   UNL A   1      32.794  21.928  26.545  1.00  0.00    -0.274 OA
ATOM     24  N   UNL A   1      32.499  19.909  25.656  1.00  0.00    -0.326 N 
ATOM     25  H   UNL A   1      31.748  19.830  26.289  1.00  0.00     0.169 HD
BRANCH  24  26
ATOM     26  C   UNL A   1      32.739  18.766  24.886  1.00  0.00     0.048 A 
ATOM     27  C   UNL A   1      32.561  18.822  23.503  1.00  0.00     0.026 A 
ATOM     28  C   UNL A   1      33.080  17.557  25.481  1.00  0.00     0.111 A 
ATOM     29  C   UNL A   1      32.893  17.720  22.707  1.00  0.00     0.009 A 
ATOM     30  C   UNL A   1      33.466  16.473  24.687  1.00  0.00     0.271 A 
ATOM     31  C   UNL A   1      33.383  16.551  23.294  1.00  0.00     0.086 A 
BRANCH  30  32
ATOM     32  N   UNL A   1      34.010  15.271  25.328  1.00  0.00     0.062 N 
ATOM     33  O   UNL A   1      33.207  14.452  25.793  1.00  0.00    -0.258 OA
ATOM     34  O   UNL A   1      35.242  15.130  25.335  1.00  0.00    -0.258 OA
ENDBRANCH  30  32
ENDBRANCH  24  26
ENDBRANCH  18  22
ENDBRANCH  13  16
ENDBRANCH  11  12
ENDBRANCH   4   6
ENDBRANCH   1   2
BRANCH   1  35
ATOM     35  C   UNL A   1      31.807  29.571  26.822  1.00  0.00     0.023 C 
BRANCH  35  36
ATOM     36  C   UNL A   1      32.911  28.736  27.454  1.00  0.00     0.023 C 
BRANCH  36  37
ATOM     37  C   UNL A   1      34.303  29.357  27.409  1.00  0.00     0.116 C 
BRANCH  37  38
ATOM     38  N   UNL A   1      34.508  30.408  28.398  1.00  0.00    -0.352 N 
ATOM     39  C   UNL A   1      35.626  30.688  29.152  1.00  0.00     0.251 C 
ATOM     40  H   UNL A   1      33.738  31.003  28.548  1.00  0.00     0.163 HD
ATOM     41  O   UNL A   1      35.603  31.568  30.005  1.00  0.00    -0.269 OA
BRANCH  39  42
ATOM     42  C   UNL A   1      36.845  29.878  28.957  1.00  0.00     0.039 A 
ATOM     43  C   UNL A   1      37.439  29.848  27.693  1.00  0.00     0.014 A 
ATOM     44  C   UNL A   1      37.445  29.234  30.041  1.00  0.00     0.014 A 
ATOM     45  C   UNL A   1      38.702  29.276  27.543  1.00  0.00     0.010 A 
ATOM     46  C   UNL A   1      38.734  28.731  29.906  1.00  0.00     0.010 A 
ATOM     47  C   UNL A   1      39.386  28.774  28.663  1.00  0.00    -0.014 A 
BRANCH  47  48
ATOM     48  C   UNL A   1      40.808  28.359  28.581  1.00  0.00     0.031 A 
ATOM     49  C   UNL A   1      41.903  29.373  28.717  1.00  0.00     0.074 A 
ATOM     50  C   UNL A   1      41.103  27.084  28.261  1.00  0.00     0.049 A 
ATOM     51  N   UNL A   1      43.191  29.223  28.543  1.00  0.00    -0.248 NA
ATOM     52  C   UNL A   1      41.494  30.742  29.062  1.00  0.00     0.031 C 
ATOM     53  C   UNL A   1      40.125  26.017  28.033  1.00  0.00     0.029 A 
ATOM     54  N   UNL A   1      42.315  26.475  28.046  1.00  0.00    -0.354 N 
ATOM     55  C   UNL A   1      43.745  30.481  28.736  1.00  0.00     0.074 A 
ATOM     56  C   UNL A   1      42.649  31.390  29.001  1.00  0.00     0.031 C 
ATOM     57  C   UNL A   1      40.775  24.885  27.715  1.00  0.00     0.029 A 
ATOM     58  C   UNL A   1      42.209  25.154  27.684  1.00  0.00     0.049 A 
ATOM     59  H   UNL A   1      43.176  26.940  28.142  1.00  0.00     0.167 HD
ATOM     60  C   UNL A   1      45.049  30.843  28.710  1.00  0.00     0.037 A 
ATOM     61  C   UNL A   1      43.158  24.262  27.347  1.00  0.00     0.037 A 
ATOM     62  C   UNL A   1      46.140  29.936  28.481  1.00  0.00     0.049 A 
ATOM     63  C   UNL A   1      44.599  24.681  27.341  1.00  0.00     0.074 A 
ATOM     64  C   UNL A   1      47.499  30.188  28.536  1.00  0.00     0.029 A 
ATOM     65  N   UNL A   1      45.994  28.598  28.145  1.00  0.00    -0.354 N 
ATOM     66  N   UNL A   1      45.113  25.857  27.601  1.00  0.00    -0.248 NA
ATOM     67  C   UNL A   1      45.587  23.651  26.995  1.00  0.00     0.031 C 
ATOM     68  C   UNL A   1      48.177  29.009  28.204  1.00  0.00     0.029 A 
ATOM     69  C   UNL A   1      47.240  28.017  27.966  1.00  0.00     0.049 A 
ATOM     70  H   UNL A   1      45.134  28.130  28.049  1.00  0.00     0.167 HD
ATOM     71  C   UNL A   1      46.486  25.712  27.452  1.00  0.00     0.074 A 
ATOM     72  C   UNL A   1      46.724  24.327  27.098  1.00  0.00     0.031 C 
ATOM     73  C   UNL A   1      47.459  26.643  27.596  1.00  0.00     0.037 A 
BRANCH  60  74
ATOM     74  C   UNL A   1      45.358  32.289  28.947  1.00  0.00     0.057 A 
ATOM     75  C   UNL A   1      45.577  32.795  30.235  1.00  0.00     0.134 A 
ATOM     76  C   UNL A   1      45.446  33.186  27.875  1.00  0.00     0.134 A 
ATOM     77  F   UNL A   1      45.491  31.988  31.304  1.00  0.00    -0.206 F 
ATOM     78  C   UNL A   1      45.845  34.146  30.452  1.00  0.00     0.040 A 
ATOM     79  C   UNL A   1      45.735  34.537  28.078  1.00  0.00     0.040 A 
ATOM     80  F   UNL A   1      45.249  32.766  26.616  1.00  0.00    -0.206 F 
ATOM     81  C   UNL A   1      45.928  35.021  29.371  1.00  0.00     0.006 A 
ENDBRANCH  60  74
BRANCH  61  82
ATOM     82  C   UNL A   1      42.766  22.878  26.990  1.00  0.00     0.057 A 
ATOM     83  C   UNL A   1      42.741  22.461  25.655  1.00  0.00     0.134 A 
ATOM     84  C   UNL A   1      42.435  21.937  27.971  1.00  0.00     0.134 A 
ATOM     85  F   UNL A   1      43.033  23.325  24.672  1.00  0.00    -0.206 F 
ATOM     86  C   UNL A   1      42.396  21.154  25.306  1.00  0.00     0.040 A 
ATOM     87  C   UNL A   1      42.104  20.624  27.639  1.00  0.00     0.040 A 
ATOM     88  F   UNL A   1      42.449  22.279  29.268  1.00  0.00    -0.206 F 
ATOM     89  C   UNL A   1      42.082  20.229  26.302  1.00  0.00     0.006 A 
ENDBRANCH  61  82
BRANCH  73  90
ATOM     90  C   UNL A   1      48.869  26.195  27.363  1.00  0.00     0.057 A 
ATOM     91  C   UNL A   1      49.642  25.656  28.399  1.00  0.00     0.134 A 
ATOM     92  C   UNL A   1      49.445  26.267  26.089  1.00  0.00     0.134 A 
ATOM     93  F   UNL A   1      49.149  25.576  29.644  1.00  0.00    -0.206 F 
ATOM     94  C   UNL A   1      50.947  25.215  28.177  1.00  0.00     0.040 A 
ATOM     95  C   UNL A   1      50.742  25.813  25.852  1.00  0.00     0.040 A 
ATOM     96  F   UNL A   1      48.752  26.769  25.056  1.00  0.00    -0.206 F 
ATOM     97  C   UNL A   1      51.498  25.287  26.898  1.00  0.00     0.006 A 
ENDBRANCH  73  90
ENDBRANCH  47  48
ENDBRANCH  39  42
ENDBRANCH  37  38
ENDBRANCH  36  37
ENDBRANCH  35  36
ENDBRANCH   1  35
TORSDOF 16
ENDMDL
