MODEL 1
REMARK VINA RESULT:     -12.9      0.000      0.000
REMARK SMILES C[NH+]1CCN(c2ccc(C(=O)N3C[C@@H](C(=O)NCCCCNC(=O)c4ccc(-c5c6nc(c(-c7c(F)cccc7F)c7ccc([nH]7)c(-c7c(F)cccc7F)c7nc(c(-c8c(F)cccc8F)c8ccc5[nH]8)C=C7)C=C6)cc4)[C@H](C4CC4)C3)cc2)CC1
REMARK SMILES IDX 19 1 18 2 17 3 15 4 16 5 14 7 12 8 13 9 83 10 79 11 10 12
REMARK SMILES IDX 11 13 9 14 6 15 7 16 85 17 8 18 84 19 5 20 1 21 2 22 3 23
REMARK SMILES IDX 87 24 4 26 86 27 80 28 81 29 82 30 20 31 21 32 22 33 23 34
REMARK SMILES IDX 24 36 25 37 26 38 78 39 27 40 77 41 28 42 29 43 30 44 71 45
REMARK SMILES IDX 31 46 76 47 70 48 72 49 32 50 75 51 69 52 68 53 33 55 59 56
REMARK SMILES IDX 42 57 58 58 43 59 46 60 57 61 73 62 44 63 45 64 56 66 74 67
REMARK SMILES IDX 47 68 34 69 35 70 40 71 36 72 37 73 39 74 41 75 38 76 60 77
REMARK SMILES IDX 61 78 66 79 62 80 63 81 65 82 67 83 64 84 48 85 49 86 54 87
REMARK SMILES IDX 50 88 51 89 53 90 55 91 52 92
REMARK H PARENT 17 6 2 25 22 35 72 54 46 65
REMARK Flexibility Score: inf
ROOT
ATOM      1  C   UNL A   1      36.979  21.264  24.634  1.00  0.00     0.023 C 
ENDROOT
BRANCH   1   2
ATOM      2  C   UNL A   1      35.916  21.607  25.672  1.00  0.00     0.116 C 
BRANCH   2   3
ATOM      3  N   UNL A   1      34.886  20.586  25.772  1.00  0.00    -0.356 N 
ATOM      4  C   UNL A   1      33.538  20.688  25.555  1.00  0.00     0.225 C 
ATOM      5  O   UNL A   1      32.856  19.666  25.620  1.00  0.00    -0.275 OA
ATOM      6  H   UNL A   1      35.203  19.692  26.035  1.00  0.00     0.163 HD
BRANCH   4   7
ATOM      7  C   UNL A   1      32.949  22.051  25.287  1.00  0.00     0.103 C 
ATOM      8  N   UNL A   1      31.037  23.339  25.417  1.00  0.00    -0.338 N 
ATOM      9  C   UNL A   1      31.679  22.235  26.103  1.00  0.00     0.133 C 
ATOM     10  C   UNL A   1      31.234  23.205  23.987  1.00  0.00     0.124 C 
ATOM     11  C   UNL A   1      32.485  22.304  23.834  1.00  0.00     0.026 C 
BRANCH   8  12
ATOM     12  C   UNL A   1      30.409  24.457  25.931  1.00  0.00     0.253 C 
ATOM     13  O   UNL A   1      29.733  24.413  26.957  1.00  0.00    -0.269 OA
BRANCH  12  14
ATOM     14  C   UNL A   1      30.420  25.724  25.149  1.00  0.00     0.040 A 
ATOM     15  C   UNL A   1      30.227  28.279  23.926  1.00  0.00     0.037 A 
ATOM     16  C   UNL A   1      31.248  27.987  24.840  1.00  0.00     0.027 A 
ATOM     17  C   UNL A   1      29.317  27.258  23.630  1.00  0.00     0.027 A 
ATOM     18  C   UNL A   1      31.342  26.727  25.455  1.00  0.00     0.016 A 
ATOM     19  C   UNL A   1      29.392  26.011  24.248  1.00  0.00     0.016 A 
BRANCH  15  20
ATOM     20  N   UNL A   1      30.084  29.509  23.331  1.00  0.00    -0.360 N 
ATOM     21  C   UNL A   1      28.001  32.730  21.541  1.00  0.00     0.332 C 
ATOM     22  N   UNL A   1      29.102  31.942  22.094  1.00  0.00    -0.334 N 
ATOM     23  C   UNL A   1      29.280  30.683  21.330  1.00  0.00     0.283 C 
ATOM     24  C   UNL A   1      28.838  31.628  23.518  1.00  0.00     0.283 C 
ATOM     25  H   UNL A   1      29.957  32.493  22.023  1.00  0.00     0.347 HD
ATOM     26  C   UNL A   1      30.373  29.752  21.917  1.00  0.00     0.178 C 
ATOM     27  C   UNL A   1      29.922  30.724  24.142  1.00  0.00     0.178 C 
ENDBRANCH  15  20
ENDBRANCH  12  14
ENDBRANCH   8  12
BRANCH  11  28
ATOM     28  C   UNL A   1      33.507  22.951  22.921  1.00  0.00    -0.005 C 
ATOM     29  C   UNL A   1      33.239  23.339  21.484  1.00  0.00     0.004 C 
ATOM     30  C   UNL A   1      33.432  24.406  22.527  1.00  0.00     0.004 C 
ENDBRANCH  11  28
ENDBRANCH   4   7
ENDBRANCH   2   3
ENDBRANCH   1   2
BRANCH   1  31
ATOM     31  C   UNL A   1      37.848  20.052  24.968  1.00  0.00     0.023 C 
BRANCH  31  32
ATOM     32  C   UNL A   1      39.076  20.340  25.827  1.00  0.00     0.116 C 
BRANCH  32  33
ATOM     33  N   UNL A   1      40.030  19.241  25.848  1.00  0.00    -0.352 N 
ATOM     34  C   UNL A   1      41.381  19.265  26.101  1.00  0.00     0.251 C 
ATOM     35  H   UNL A   1      39.654  18.353  25.655  1.00  0.00     0.163 HD
ATOM     36  O   UNL A   1      42.052  18.248  25.954  1.00  0.00    -0.269 OA
BRANCH  34  37
ATOM     37  C   UNL A   1      42.034  20.527  26.511  1.00  0.00     0.039 A 
ATOM     38  C   UNL A   1      42.560  21.365  25.523  1.00  0.00     0.014 A 
ATOM     39  C   UNL A   1      42.110  20.895  27.857  1.00  0.00     0.014 A 
ATOM     40  C   UNL A   1      43.082  22.610  25.878  1.00  0.00     0.010 A 
ATOM     41  C   UNL A   1      42.566  22.166  28.201  1.00  0.00     0.010 A 
ATOM     42  C   UNL A   1      43.046  23.041  27.215  1.00  0.00    -0.014 A 
BRANCH  42  43
ATOM     43  C   UNL A   1      43.474  24.412  27.595  1.00  0.00     0.031 A 
ATOM     44  C   UNL A   1      42.456  25.451  27.970  1.00  0.00     0.074 A 
ATOM     45  C   UNL A   1      44.779  24.741  27.529  1.00  0.00     0.049 A 
ATOM     46  N   UNL A   1      42.634  26.717  28.253  1.00  0.00    -0.248 NA
ATOM     47  C   UNL A   1      41.050  25.018  28.007  1.00  0.00     0.031 C 
ATOM     48  C   UNL A   1      45.862  23.838  27.132  1.00  0.00     0.029 A 
ATOM     49  N   UNL A   1      45.416  25.931  27.781  1.00  0.00    -0.354 N 
ATOM     50  C   UNL A   1      41.366  27.234  28.489  1.00  0.00     0.074 A 
ATOM     51  C   UNL A   1      40.424  26.157  28.267  1.00  0.00     0.031 C 
ATOM     52  C   UNL A   1      47.029  24.499  27.186  1.00  0.00     0.029 A 
ATOM     53  C   UNL A   1      46.776  25.882  27.581  1.00  0.00     0.049 A 
ATOM     54  H   UNL A   1      44.944  26.743  28.076  1.00  0.00     0.167 HD
ATOM     55  C   UNL A   1      41.020  28.484  28.874  1.00  0.00     0.037 A 
ATOM     56  C   UNL A   1      47.711  26.843  27.692  1.00  0.00     0.037 A 
ATOM     57  C   UNL A   1      41.959  29.550  29.115  1.00  0.00     0.049 A 
ATOM     58  C   UNL A   1      47.299  28.228  28.108  1.00  0.00     0.074 A 
ATOM     59  C   UNL A   1      41.709  30.832  29.572  1.00  0.00     0.029 A 
ATOM     60  N   UNL A   1      43.328  29.457  28.913  1.00  0.00    -0.354 N 
ATOM     61  N   UNL A   1      46.104  28.682  28.396  1.00  0.00    -0.248 NA
ATOM     62  C   UNL A   1      48.366  29.232  28.217  1.00  0.00     0.031 C 
ATOM     63  C   UNL A   1      42.921  31.529  29.603  1.00  0.00     0.029 A 
ATOM     64  C   UNL A   1      43.932  30.667  29.211  1.00  0.00     0.049 A 
ATOM     65  H   UNL A   1      43.800  28.649  28.604  1.00  0.00     0.167 HD
ATOM     66  C   UNL A   1      46.277  30.015  28.744  1.00  0.00     0.074 A 
ATOM     67  C   UNL A   1      47.695  30.292  28.646  1.00  0.00     0.031 C 
ATOM     68  C   UNL A   1      45.346  30.928  29.111  1.00  0.00     0.037 A 
BRANCH  55  69
ATOM     69  C   UNL A   1      39.558  28.771  29.064  1.00  0.00     0.057 A 
ATOM     70  C   UNL A   1      38.934  28.629  30.311  1.00  0.00     0.134 A 
ATOM     71  C   UNL A   1      38.774  29.231  27.999  1.00  0.00     0.134 A 
ATOM     72  F   UNL A   1      39.626  28.182  31.370  1.00  0.00    -0.206 F 
ATOM     73  C   UNL A   1      37.579  28.909  30.485  1.00  0.00     0.040 A 
ATOM     74  C   UNL A   1      37.423  29.540  28.167  1.00  0.00     0.040 A 
ATOM     75  F   UNL A   1      39.310  29.396  26.780  1.00  0.00    -0.206 F 
ATOM     76  C   UNL A   1      36.821  29.373  29.412  1.00  0.00     0.006 A 
ENDBRANCH  55  69
BRANCH  56  77
ATOM     77  C   UNL A   1      49.136  26.529  27.420  1.00  0.00     0.057 A 
ATOM     78  C   UNL A   1      49.661  26.619  26.125  1.00  0.00     0.134 A 
ATOM     79  C   UNL A   1      50.004  26.125  28.442  1.00  0.00     0.134 A 
ATOM     80  F   UNL A   1      48.873  26.982  25.103  1.00  0.00    -0.206 F 
ATOM     81  C   UNL A   1      50.991  26.299  25.852  1.00  0.00     0.040 A 
ATOM     82  C   UNL A   1      51.344  25.827  28.187  1.00  0.00     0.040 A 
ATOM     83  F   UNL A   1      49.565  26.026  29.705  1.00  0.00    -0.206 F 
ATOM     84  C   UNL A   1      51.839  25.907  26.886  1.00  0.00     0.006 A 
ENDBRANCH  56  77
BRANCH  68  85
ATOM     85  C   UNL A   1      45.833  32.304  29.462  1.00  0.00     0.057 A 
ATOM     86  C   UNL A   1      45.902  33.328  28.509  1.00  0.00     0.134 A 
ATOM     87  C   UNL A   1      46.198  32.617  30.778  1.00  0.00     0.134 A 
ATOM     88  F   UNL A   1      45.579  33.088  27.229  1.00  0.00    -0.206 F 
ATOM     89  C   UNL A   1      46.338  34.610  28.848  1.00  0.00     0.040 A 
ATOM     90  C   UNL A   1      46.611  33.902  31.133  1.00  0.00     0.040 A 
ATOM     91  F   UNL A   1      46.147  31.684  31.740  1.00  0.00    -0.206 F 
ATOM     92  C   UNL A   1      46.687  34.901  30.166  1.00  0.00     0.006 A 
ENDBRANCH  68  85
ENDBRANCH  42  43
ENDBRANCH  34  37
ENDBRANCH  32  33
ENDBRANCH  31  32
ENDBRANCH   1  31
TORSDOF 15
ENDMDL
MODEL 2
REMARK VINA RESULT:     -12.8      4.957     10.668
REMARK SMILES C[NH+]1CCN(c2ccc(C(=O)N3C[C@@H](C(=O)NCCCCNC(=O)c4ccc(-c5c6nc(c(-c7c(F)cccc7F)c7ccc([nH]7)c(-c7c(F)cccc7F)c7nc(c(-c8c(F)cccc8F)c8ccc5[nH]8)C=C7)C=C6)cc4)[C@H](C4CC4)C3)cc2)CC1
REMARK SMILES IDX 19 1 18 2 17 3 15 4 16 5 14 7 12 8 13 9 83 10 79 11 10 12
REMARK SMILES IDX 11 13 9 14 6 15 7 16 85 17 8 18 84 19 5 20 1 21 2 22 3 23
REMARK SMILES IDX 87 24 4 26 86 27 80 28 81 29 82 30 20 31 21 32 22 33 23 34
REMARK SMILES IDX 24 36 25 37 26 38 78 39 27 40 77 41 28 42 29 43 30 44 71 45
REMARK SMILES IDX 31 46 76 47 70 48 72 49 32 50 75 51 69 52 68 53 33 55 59 56
REMARK SMILES IDX 42 57 58 58 43 59 46 60 57 61 73 62 44 63 45 64 56 66 74 67
REMARK SMILES IDX 47 68 34 69 35 70 40 71 36 72 37 73 39 74 41 75 38 76 60 77
REMARK SMILES IDX 61 78 66 79 62 80 63 81 65 82 67 83 64 84 48 85 49 86 54 87
REMARK SMILES IDX 50 88 51 89 53 90 55 91 52 92
REMARK H PARENT 17 6 2 25 22 35 72 54 46 65
REMARK Flexibility Score: inf
ROOT
ATOM      1  C   UNL A   1      31.778  30.118  26.505  1.00  0.00     0.023 C 
ENDROOT
BRANCH   1   2
ATOM      2  C   UNL A   1      32.455  29.579  25.250  1.00  0.00     0.116 C 
BRANCH   2   3
ATOM      3  N   UNL A   1      31.627  29.726  24.064  1.00  0.00    -0.356 N 
ATOM      4  C   UNL A   1      31.146  28.766  23.215  1.00  0.00     0.225 C 
ATOM      5  O   UNL A   1      30.390  29.111  22.308  1.00  0.00    -0.275 OA
ATOM      6  H   UNL A   1      31.376  30.650  23.838  1.00  0.00     0.163 HD
BRANCH   4   7
ATOM      7  C   UNL A   1      31.599  27.339  23.406  1.00  0.00     0.103 C 
ATOM      8  N   UNL A   1      31.860  25.288  22.376  1.00  0.00    -0.338 N 
ATOM      9  C   UNL A   1      31.885  26.702  22.056  1.00  0.00     0.133 C 
ATOM     10  C   UNL A   1      30.814  25.027  23.345  1.00  0.00     0.124 C 
ATOM     11  C   UNL A   1      30.558  26.387  24.040  1.00  0.00     0.026 C 
BRANCH   8  12
ATOM     12  C   UNL A   1      32.712  24.275  21.982  1.00  0.00     0.253 C 
ATOM     13  O   UNL A   1      33.278  24.284  20.891  1.00  0.00    -0.269 OA
BRANCH  12  14
ATOM     14  C   UNL A   1      32.838  23.057  22.830  1.00  0.00     0.040 A 
ATOM     15  C   UNL A   1      33.350  20.633  24.216  1.00  0.00     0.037 A 
ATOM     16  C   UNL A   1      34.029  21.813  24.544  1.00  0.00     0.027 A 
ATOM     17  C   UNL A   1      32.401  20.700  23.190  1.00  0.00     0.027 A 
ATOM     18  C   UNL A   1      33.786  23.013  23.854  1.00  0.00     0.016 A 
ATOM     19  C   UNL A   1      32.165  21.882  22.490  1.00  0.00     0.016 A 
BRANCH  15  20
ATOM     20  N   UNL A   1      33.585  19.435  24.846  1.00  0.00    -0.360 N 
ATOM     21  C   UNL A   1      33.418  15.238  25.379  1.00  0.00     0.332 C 
ATOM     22  N   UNL A   1      33.756  16.642  25.613  1.00  0.00    -0.334 N 
ATOM     23  C   UNL A   1      32.528  17.446  25.825  1.00  0.00     0.283 C 
ATOM     24  C   UNL A   1      34.512  17.183  24.460  1.00  0.00     0.283 C 
ATOM     25  H   UNL A   1      34.334  16.698  26.451  1.00  0.00     0.347 HD
ATOM     26  C   UNL A   1      32.803  18.964  25.990  1.00  0.00     0.178 C 
ATOM     27  C   UNL A   1      34.827  18.687  24.603  1.00  0.00     0.178 C 
ENDBRANCH  15  20
ENDBRANCH  12  14
ENDBRANCH   8  12
BRANCH  11  28
ATOM     28  C   UNL A   1      30.631  26.245  25.547  1.00  0.00    -0.005 C 
ATOM     29  C   UNL A   1      29.985  25.122  26.328  1.00  0.00     0.004 C 
ATOM     30  C   UNL A   1      31.485  25.198  26.220  1.00  0.00     0.004 C 
ENDBRANCH  11  28
ENDBRANCH   4   7
ENDBRANCH   2   3
ENDBRANCH   1   2
BRANCH   1  31
ATOM     31  C   UNL A   1      31.632  31.639  26.562  1.00  0.00     0.023 C 
BRANCH  31  32
ATOM     32  C   UNL A   1      32.776  32.385  27.242  1.00  0.00     0.116 C 
BRANCH  32  33
ATOM     33  N   UNL A   1      32.447  33.765  27.565  1.00  0.00    -0.352 N 
ATOM     34  C   UNL A   1      33.023  34.605  28.490  1.00  0.00     0.251 C 
ATOM     35  H   UNL A   1      31.707  34.154  27.047  1.00  0.00     0.163 HD
ATOM     36  O   UNL A   1      32.530  35.707  28.710  1.00  0.00    -0.269 OA
BRANCH  34  37
ATOM     37  C   UNL A   1      34.213  34.164  29.248  1.00  0.00     0.039 A 
ATOM     38  C   UNL A   1      34.029  33.492  30.460  1.00  0.00     0.014 A 
ATOM     39  C   UNL A   1      35.504  34.390  28.761  1.00  0.00     0.014 A 
ATOM     40  C   UNL A   1      35.133  32.970  31.137  1.00  0.00     0.010 A 
ATOM     41  C   UNL A   1      36.597  33.809  29.401  1.00  0.00     0.010 A 
ATOM     42  C   UNL A   1      36.421  33.083  30.589  1.00  0.00    -0.014 A 
BRANCH  42  43
ATOM     43  C   UNL A   1      37.591  32.424  31.225  1.00  0.00     0.031 A 
ATOM     44  C   UNL A   1      38.268  31.262  30.554  1.00  0.00     0.074 A 
ATOM     45  C   UNL A   1      37.996  32.826  32.446  1.00  0.00     0.049 A 
ATOM     46  N   UNL A   1      39.248  30.513  30.992  1.00  0.00    -0.248 NA
ATOM     47  C   UNL A   1      37.760  30.875  29.229  1.00  0.00     0.031 C 
ATOM     48  C   UNL A   1      37.393  33.910  33.225  1.00  0.00     0.029 A 
ATOM     49  N   UNL A   1      39.003  32.359  33.253  1.00  0.00    -0.354 N 
ATOM     50  C   UNL A   1      39.465  29.560  30.005  1.00  0.00     0.074 A 
ATOM     51  C   UNL A   1      38.483  29.795  28.969  1.00  0.00     0.031 C 
ATOM     52  C   UNL A   1      38.053  34.037  34.386  1.00  0.00     0.029 A 
ATOM     53  C   UNL A   1      39.099  33.021  34.454  1.00  0.00     0.049 A 
ATOM     54  H   UNL A   1      39.601  31.620  32.997  1.00  0.00     0.167 HD
ATOM     55  C   UNL A   1      40.410  28.591  29.957  1.00  0.00     0.037 A 
ATOM     56  C   UNL A   1      39.926  32.825  35.498  1.00  0.00     0.037 A 
ATOM     57  C   UNL A   1      41.401  28.371  30.978  1.00  0.00     0.049 A 
ATOM     58  C   UNL A   1      40.958  31.733  35.425  1.00  0.00     0.074 A 
ATOM     59  C   UNL A   1      42.440  27.457  30.988  1.00  0.00     0.029 A 
ATOM     60  N   UNL A   1      41.471  29.070  32.174  1.00  0.00    -0.354 N 
ATOM     61  N   UNL A   1      41.197  30.887  34.454  1.00  0.00    -0.248 NA
ATOM     62  C   UNL A   1      41.835  31.573  36.593  1.00  0.00     0.031 C 
ATOM     63  C   UNL A   1      43.112  27.572  32.210  1.00  0.00     0.029 A 
ATOM     64  C   UNL A   1      42.521  28.590  32.940  1.00  0.00     0.049 A 
ATOM     65  H   UNL A   1      40.865  29.800  32.439  1.00  0.00     0.167 HD
ATOM     66  C   UNL A   1      42.266  30.110  34.881  1.00  0.00     0.074 A 
ATOM     67  C   UNL A   1      42.639  30.597  36.193  1.00  0.00     0.031 C 
ATOM     68  C   UNL A   1      42.883  29.086  34.244  1.00  0.00     0.037 A 
BRANCH  55  69
ATOM     69  C   UNL A   1      40.420  27.693  28.754  1.00  0.00     0.057 A 
ATOM     70  C   UNL A   1      41.203  27.978  27.626  1.00  0.00     0.134 A 
ATOM     71  C   UNL A   1      39.670  26.511  28.736  1.00  0.00     0.134 A 
ATOM     72  F   UNL A   1      41.937  29.100  27.575  1.00  0.00    -0.206 F 
ATOM     73  C   UNL A   1      41.219  27.133  26.516  1.00  0.00     0.040 A 
ATOM     74  C   UNL A   1      39.699  25.645  27.641  1.00  0.00     0.040 A 
ATOM     75  F   UNL A   1      38.904  26.174  29.784  1.00  0.00    -0.206 F 
ATOM     76  C   UNL A   1      40.471  25.959  26.525  1.00  0.00     0.006 A 
ENDBRANCH  55  69
BRANCH  56  77
ATOM     77  C   UNL A   1      39.828  33.693  36.698  1.00  0.00     0.057 A 
ATOM     78  C   UNL A   1      38.964  33.371  37.752  1.00  0.00     0.134 A 
ATOM     79  C   UNL A   1      40.585  34.864  36.819  1.00  0.00     0.134 A 
ATOM     80  F   UNL A   1      38.199  32.271  37.684  1.00  0.00    -0.206 F 
ATOM     81  C   UNL A   1      38.841  34.191  38.873  1.00  0.00     0.040 A 
ATOM     82  C   UNL A   1      40.491  35.681  37.947  1.00  0.00     0.040 A 
ATOM     83  F   UNL A   1      41.437  35.224  35.848  1.00  0.00    -0.206 F 
ATOM     84  C   UNL A   1      39.611  35.349  38.976  1.00  0.00     0.006 A 
ENDBRANCH  56  77
BRANCH  68  85
ATOM     85  C   UNL A   1      44.044  28.441  34.944  1.00  0.00     0.057 A 
ATOM     86  C   UNL A   1      43.879  27.322  35.770  1.00  0.00     0.134 A 
ATOM     87  C   UNL A   1      45.347  28.921  34.755  1.00  0.00     0.134 A 
ATOM     88  F   UNL A   1      42.656  26.824  36.003  1.00  0.00    -0.206 F 
ATOM     89  C   UNL A   1      44.967  26.718  36.403  1.00  0.00     0.040 A 
ATOM     90  C   UNL A   1      46.444  28.308  35.361  1.00  0.00     0.040 A 
ATOM     91  F   UNL A   1      45.574  29.984  33.969  1.00  0.00    -0.206 F 
ATOM     92  C   UNL A   1      46.255  27.206  36.191  1.00  0.00     0.006 A 
ENDBRANCH  68  85
ENDBRANCH  42  43
ENDBRANCH  34  37
ENDBRANCH  32  33
ENDBRANCH  31  32
ENDBRANCH   1  31
TORSDOF 15
ENDMDL
MODEL 3
REMARK VINA RESULT:     -12.8      0.349      6.085
REMARK SMILES C[NH+]1CCN(c2ccc(C(=O)N3C[C@@H](C(=O)NCCCCNC(=O)c4ccc(-c5c6nc(c(-c7c(F)cccc7F)c7ccc([nH]7)c(-c7c(F)cccc7F)c7nc(c(-c8c(F)cccc8F)c8ccc5[nH]8)C=C7)C=C6)cc4)[C@H](C4CC4)C3)cc2)CC1
REMARK SMILES IDX 19 1 18 2 17 3 15 4 16 5 14 7 12 8 13 9 83 10 79 11 10 12
REMARK SMILES IDX 11 13 9 14 6 15 7 16 85 17 8 18 84 19 5 20 1 21 2 22 3 23
REMARK SMILES IDX 87 24 4 26 86 27 80 28 81 29 82 30 20 31 21 32 22 33 23 34
REMARK SMILES IDX 24 36 25 37 26 38 78 39 27 40 77 41 28 42 29 43 30 44 71 45
REMARK SMILES IDX 31 46 76 47 70 48 72 49 32 50 75 51 69 52 68 53 33 55 59 56
REMARK SMILES IDX 42 57 58 58 43 59 46 60 57 61 73 62 44 63 45 64 56 66 74 67
REMARK SMILES IDX 47 68 34 69 35 70 40 71 36 72 37 73 39 74 41 75 38 76 60 77
REMARK SMILES IDX 61 78 66 79 62 80 63 81 65 82 67 83 64 84 48 85 49 86 54 87
REMARK SMILES IDX 50 88 51 89 53 90 55 91 52 92
REMARK H PARENT 17 6 2 25 22 35 72 54 46 65
REMARK Flexibility Score: inf
ROOT
ATOM      1  C   UNL A   1      36.980  21.244  24.595  1.00  0.00     0.023 C 
ENDROOT
BRANCH   1   2
ATOM      2  C   UNL A   1      35.983  21.417  25.736  1.00  0.00     0.116 C 
BRANCH   2   3
ATOM      3  N   UNL A   1      34.950  20.394  25.733  1.00  0.00    -0.356 N 
ATOM      4  C   UNL A   1      33.616  20.506  25.449  1.00  0.00     0.225 C 
ATOM      5  O   UNL A   1      32.933  19.484  25.430  1.00  0.00    -0.275 OA
ATOM      6  H   UNL A   1      35.254  19.489  25.971  1.00  0.00     0.163 HD
BRANCH   4   7
ATOM      7  C   UNL A   1      33.040  21.881  25.212  1.00  0.00     0.103 C 
ATOM      8  N   UNL A   1      31.136  23.180  25.358  1.00  0.00    -0.338 N 
ATOM      9  C   UNL A   1      31.763  22.053  26.020  1.00  0.00     0.133 C 
ATOM     10  C   UNL A   1      31.347  23.083  23.927  1.00  0.00     0.124 C 
ATOM     11  C   UNL A   1      32.593  22.177  23.762  1.00  0.00     0.026 C 
BRANCH   8  12
ATOM     12  C   UNL A   1      30.512  24.288  25.896  1.00  0.00     0.253 C 
ATOM     13  O   UNL A   1      29.824  24.221  26.913  1.00  0.00    -0.269 OA
BRANCH  12  14
ATOM     14  C   UNL A   1      30.540  25.576  25.148  1.00  0.00     0.040 A 
ATOM     15  C   UNL A   1      30.347  28.151  23.971  1.00  0.00     0.037 A 
ATOM     16  C   UNL A   1      31.279  27.884  24.982  1.00  0.00     0.027 A 
ATOM     17  C   UNL A   1      29.526  27.097  23.556  1.00  0.00     0.027 A 
ATOM     18  C   UNL A   1      31.371  26.613  25.574  1.00  0.00     0.016 A 
ATOM     19  C   UNL A   1      29.600  25.837  24.149  1.00  0.00     0.016 A 
BRANCH  15  20
ATOM     20  N   UNL A   1      30.204  29.390  23.392  1.00  0.00    -0.360 N 
ATOM     21  C   UNL A   1      28.111  32.745  21.884  1.00  0.00     0.332 C 
ATOM     22  N   UNL A   1      29.224  31.885  22.286  1.00  0.00    -0.334 N 
ATOM     23  C   UNL A   1      29.211  30.619  21.513  1.00  0.00     0.283 C 
ATOM     24  C   UNL A   1      29.138  31.586  23.734  1.00  0.00     0.283 C 
ATOM     25  H   UNL A   1      30.096  32.378  22.094  1.00  0.00     0.347 HD
ATOM     26  C   UNL A   1      30.311  29.617  21.951  1.00  0.00     0.178 C 
ATOM     27  C   UNL A   1      30.236  30.611  24.209  1.00  0.00     0.178 C 
ENDBRANCH  15  20
ENDBRANCH  12  14
ENDBRANCH   8  12
BRANCH  11  28
ATOM     28  C   UNL A   1      33.629  22.841  22.878  1.00  0.00    -0.005 C 
ATOM     29  C   UNL A   1      33.523  24.257  22.357  1.00  0.00     0.004 C 
ATOM     30  C   UNL A   1      34.562  23.912  23.390  1.00  0.00     0.004 C 
ENDBRANCH  11  28
ENDBRANCH   4   7
ENDBRANCH   2   3
ENDBRANCH   1   2
BRANCH   1  31
ATOM     31  C   UNL A   1      37.955  20.079  24.755  1.00  0.00     0.023 C 
BRANCH  31  32
ATOM     32  C   UNL A   1      38.946  20.204  25.908  1.00  0.00     0.116 C 
BRANCH  32  33
ATOM     33  N   UNL A   1      39.956  19.157  25.913  1.00  0.00    -0.352 N 
ATOM     34  C   UNL A   1      41.313  19.255  26.110  1.00  0.00     0.251 C 
ATOM     35  H   UNL A   1      39.619  18.246  25.753  1.00  0.00     0.163 HD
ATOM     36  O   UNL A   1      42.029  18.270  25.956  1.00  0.00    -0.269 OA
BRANCH  34  37
ATOM     37  C   UNL A   1      41.916  20.557  26.468  1.00  0.00     0.039 A 
ATOM     38  C   UNL A   1      42.349  21.402  25.443  1.00  0.00     0.014 A 
ATOM     39  C   UNL A   1      42.034  20.954  27.803  1.00  0.00     0.014 A 
ATOM     40  C   UNL A   1      42.820  22.681  25.752  1.00  0.00     0.010 A 
ATOM     41  C   UNL A   1      42.437  22.253  28.104  1.00  0.00     0.010 A 
ATOM     42  C   UNL A   1      42.822  23.134  27.082  1.00  0.00    -0.014 A 
BRANCH  42  43
ATOM     43  C   UNL A   1      43.193  24.532  27.419  1.00  0.00     0.031 A 
ATOM     44  C   UNL A   1      44.632  24.964  27.397  1.00  0.00     0.074 A 
ATOM     45  C   UNL A   1      42.238  25.393  27.820  1.00  0.00     0.049 A 
ATOM     46  N   UNL A   1      45.153  26.116  27.737  1.00  0.00    -0.248 NA
ATOM     47  C   UNL A   1      45.618  23.963  26.961  1.00  0.00     0.031 C 
ATOM     48  C   UNL A   1      40.810  25.084  27.932  1.00  0.00     0.029 A 
ATOM     49  N   UNL A   1      42.324  26.703  28.223  1.00  0.00    -0.354 N 
ATOM     50  C   UNL A   1      46.525  25.975  27.569  1.00  0.00     0.074 A 
ATOM     51  C   UNL A   1      46.760  24.612  27.144  1.00  0.00     0.031 C 
ATOM     52  C   UNL A   1      40.154  26.177  28.353  1.00  0.00     0.029 A 
ATOM     53  C   UNL A   1      41.116  27.251  28.581  1.00  0.00     0.049 A 
ATOM     54  H   UNL A   1      43.172  27.202  28.253  1.00  0.00     0.167 HD
ATOM     55  C   UNL A   1      47.498  26.902  27.733  1.00  0.00     0.037 A 
ATOM     56  C   UNL A   1      40.816  28.476  29.052  1.00  0.00     0.037 A 
ATOM     57  C   UNL A   1      47.262  28.265  28.134  1.00  0.00     0.049 A 
ATOM     58  C   UNL A   1      41.917  29.484  29.238  1.00  0.00     0.074 A 
ATOM     59  C   UNL A   1      48.177  29.296  28.264  1.00  0.00     0.029 A 
ATOM     60  N   UNL A   1      46.023  28.785  28.478  1.00  0.00    -0.354 N 
ATOM     61  N   UNL A   1      43.200  29.357  29.006  1.00  0.00    -0.248 NA
ATOM     62  C   UNL A   1      41.526  30.805  29.749  1.00  0.00     0.031 C 
ATOM     63  C   UNL A   1      47.498  30.427  28.729  1.00  0.00     0.029 A 
ATOM     64  C   UNL A   1      46.153  30.114  28.843  1.00  0.00     0.049 A 
ATOM     65  H   UNL A   1      45.176  28.282  28.462  1.00  0.00     0.167 HD
ATOM     66  C   UNL A   1      43.767  30.586  29.318  1.00  0.00     0.074 A 
ATOM     67  C   UNL A   1      42.684  31.450  29.741  1.00  0.00     0.031 C 
ATOM     68  C   UNL A   1      45.066  30.964  29.259  1.00  0.00     0.037 A 
BRANCH  55  69
ATOM     69  C   UNL A   1      48.914  26.475  27.473  1.00  0.00     0.057 A 
ATOM     70  C   UNL A   1      49.491  26.567  26.199  1.00  0.00     0.134 A 
ATOM     71  C   UNL A   1      49.721  26.000  28.514  1.00  0.00     0.134 A 
ATOM     72  F   UNL A   1      48.768  27.004  25.156  1.00  0.00    -0.206 F 
ATOM     73  C   UNL A   1      50.811  26.181  25.966  1.00  0.00     0.040 A 
ATOM     74  C   UNL A   1      51.051  25.635  28.298  1.00  0.00     0.040 A 
ATOM     75  F   UNL A   1      49.234  25.892  29.759  1.00  0.00    -0.206 F 
ATOM     76  C   UNL A   1      51.597  25.720  27.020  1.00  0.00     0.006 A 
ENDBRANCH  55  69
BRANCH  56  77
ATOM     77  C   UNL A   1      39.409  28.829  29.366  1.00  0.00     0.057 A 
ATOM     78  C   UNL A   1      38.869  28.582  30.634  1.00  0.00     0.134 A 
ATOM     79  C   UNL A   1      38.569  29.410  28.408  1.00  0.00     0.134 A 
ATOM     80  F   UNL A   1      39.620  28.009  31.586  1.00  0.00    -0.206 F 
ATOM     81  C   UNL A   1      37.540  28.883  30.933  1.00  0.00     0.040 A 
ATOM     82  C   UNL A   1      37.245  29.739  28.702  1.00  0.00     0.040 A 
ATOM     83  F   UNL A   1      39.027  29.678  27.177  1.00  0.00    -0.206 F 
ATOM     84  C   UNL A   1      36.725  29.469  29.967  1.00  0.00     0.006 A 
ENDBRANCH  56  77
BRANCH  68  85
ATOM     85  C   UNL A   1      45.387  32.382  29.635  1.00  0.00     0.057 A 
ATOM     86  C   UNL A   1      45.760  32.734  30.938  1.00  0.00     0.134 A 
ATOM     87  C   UNL A   1      45.360  33.398  28.671  1.00  0.00     0.134 A 
ATOM     88  F   UNL A   1      45.791  31.810  31.909  1.00  0.00    -0.206 F 
ATOM     89  C   UNL A   1      46.075  34.052  31.274  1.00  0.00     0.040 A 
ATOM     90  C   UNL A   1      45.698  34.714  28.989  1.00  0.00     0.040 A 
ATOM     91  F   UNL A   1      45.018  33.126  27.402  1.00  0.00    -0.206 F 
ATOM     92  C   UNL A   1      46.052  35.045  30.295  1.00  0.00     0.006 A 
ENDBRANCH  68  85
ENDBRANCH  42  43
ENDBRANCH  34  37
ENDBRANCH  32  33
ENDBRANCH  31  32
ENDBRANCH   1  31
TORSDOF 15
ENDMDL
