MODEL 1
REMARK VINA RESULT:     -11.4      0.000      0.000
REMARK SMILES C[C@@H]([NH+]1CCC(CCC(=O)NCCCCNC(=O)c2ccc(-c3c4nc(c(-c5c(F)cccc5F)c5ccc([nH]5)c(-c5c(F)cccc5F)c5nc(c(-c6c(F)cccc6F)c6ccc3[nH]6)C=C5)C=C4)cc2)CC1)C1(C)CC1
REMARK SMILES IDX 12 1 11 2 9 3 10 4 8 6 7 7 6 8 3 9 4 10 74 11 5 13 73 14
REMARK SMILES IDX 2 15 1 16 75 17 76 18 77 19 78 20 13 21 14 22 15 23 16 24
REMARK SMILES IDX 17 25 18 27 19 28 20 29 72 30 21 31 71 32 22 33 23 34 24 35
REMARK SMILES IDX 65 36 25 37 70 38 64 39 66 40 26 41 69 42 63 43 62 44 27 46
REMARK SMILES IDX 53 47 36 48 52 49 37 50 40 51 51 52 67 53 38 54 39 55 50 57
REMARK SMILES IDX 68 58 41 59 28 60 29 61 34 62 30 63 31 64 33 65 35 66 32 67
REMARK SMILES IDX 54 68 55 69 60 70 56 71 57 72 59 73 61 74 58 75 42 76 43 77
REMARK SMILES IDX 48 78 44 79 45 80 47 81 49 82 46 83
REMARK H PARENT 11 5 3 12 16 26 66 45 40 56
REMARK Flexibility Score: inf
ROOT
ATOM      1  C   UNL A   1      31.580  29.860  25.262  1.00  0.00     0.116 C 
ENDROOT
BRANCH   1   2
ATOM      2  N   UNL A   1      32.684  29.677  24.339  1.00  0.00    -0.356 N 
ATOM      3  C   UNL A   1      33.379  28.555  23.997  1.00  0.00     0.220 C 
ATOM      4  O   UNL A   1      34.381  28.694  23.291  1.00  0.00    -0.275 OA
ATOM      5  H   UNL A   1      32.981  30.498  23.884  1.00  0.00     0.163 HD
BRANCH   3   6
ATOM      6  C   UNL A   1      32.927  27.168  24.438  1.00  0.00     0.100 C 
BRANCH   6   7
ATOM      7  C   UNL A   1      33.631  26.642  25.704  1.00  0.00     0.014 C 
BRANCH   7   8
ATOM      8  C   UNL A   1      33.910  25.140  25.638  1.00  0.00     0.000 C 
ATOM      9  N   UNL A   1      33.907  22.246  25.152  1.00  0.00    -0.332 N 
ATOM     10  C   UNL A   1      33.345  22.821  26.379  1.00  0.00     0.262 C 
ATOM     11  C   UNL A   1      34.768  23.158  24.392  1.00  0.00     0.262 C 
ATOM     12  H   UNL A   1      33.119  22.146  24.513  1.00  0.00     0.348 HD
ATOM     13  C   UNL A   1      32.826  24.257  26.247  1.00  0.00     0.065 C 
ATOM     14  C   UNL A   1      34.212  24.589  24.250  1.00  0.00     0.065 C 
BRANCH   9  15
ATOM     15  C   UNL A   1      34.352  20.821  25.281  1.00  0.00     0.186 C 
ATOM     16  C   UNL A   1      35.840  20.546  24.972  1.00  0.00     0.076 C 
BRANCH  15  17
ATOM     17  C   UNL A   1      33.425  19.751  24.647  1.00  0.00     0.019 C 
ATOM     18  C   UNL A   1      32.440  20.321  23.646  1.00  0.00     0.018 C 
ATOM     19  C   UNL A   1      33.915  18.317  24.467  1.00  0.00     0.013 C 
ATOM     20  C   UNL A   1      32.850  18.595  25.472  1.00  0.00     0.013 C 
ENDBRANCH  15  17
ENDBRANCH   9  15
ENDBRANCH   7   8
ENDBRANCH   6   7
ENDBRANCH   3   6
ENDBRANCH   1   2
BRANCH   1  21
ATOM     21  C   UNL A   1      32.071  30.508  26.563  1.00  0.00     0.023 C 
BRANCH  21  22
ATOM     22  C   UNL A   1      31.692  31.966  26.756  1.00  0.00     0.023 C 
BRANCH  22  23
ATOM     23  C   UNL A   1      32.791  32.818  27.373  1.00  0.00     0.116 C 
BRANCH  23  24
ATOM     24  N   UNL A   1      32.386  34.182  27.693  1.00  0.00    -0.352 N 
ATOM     25  C   UNL A   1      32.955  35.054  28.599  1.00  0.00     0.251 C 
ATOM     26  H   UNL A   1      31.605  34.525  27.200  1.00  0.00     0.163 HD
ATOM     27  O   UNL A   1      32.491  36.158  28.803  1.00  0.00    -0.269 OA
BRANCH  25  28
ATOM     28  C   UNL A   1      34.131  34.585  29.355  1.00  0.00     0.039 A 
ATOM     29  C   UNL A   1      33.940  34.003  30.609  1.00  0.00     0.014 A 
ATOM     30  C   UNL A   1      35.392  34.613  28.758  1.00  0.00     0.014 A 
ATOM     31  C   UNL A   1      35.010  33.357  31.227  1.00  0.00     0.010 A 
ATOM     32  C   UNL A   1      36.426  33.890  29.328  1.00  0.00     0.010 A 
ATOM     33  C   UNL A   1      36.243  33.251  30.565  1.00  0.00    -0.014 A 
BRANCH  33  34
ATOM     34  C   UNL A   1      37.377  32.489  31.136  1.00  0.00     0.031 A 
ATOM     35  C   UNL A   1      37.981  32.940  32.434  1.00  0.00     0.074 A 
ATOM     36  C   UNL A   1      37.925  31.473  30.440  1.00  0.00     0.049 A 
ATOM     37  N   UNL A   1      39.079  32.540  33.021  1.00  0.00    -0.248 NA
ATOM     38  C   UNL A   1      37.278  34.023  33.143  1.00  0.00     0.031 C 
ATOM     39  C   UNL A   1      37.456  30.977  29.143  1.00  0.00     0.029 A 
ATOM     40  N   UNL A   1      39.011  30.685  30.723  1.00  0.00    -0.354 N 
ATOM     41  C   UNL A   1      39.215  33.344  34.144  1.00  0.00     0.074 A 
ATOM     42  C   UNL A   1      38.120  34.288  34.130  1.00  0.00     0.031 C 
ATOM     43  C   UNL A   1      38.236  29.954  28.755  1.00  0.00     0.029 A 
ATOM     44  C   UNL A   1      39.279  29.749  29.754  1.00  0.00     0.049 A 
ATOM     45  H   UNL A   1      39.548  30.781  31.542  1.00  0.00     0.167 HD
ATOM     46  C   UNL A   1      40.155  33.284  35.115  1.00  0.00     0.037 A 
ATOM     47  C   UNL A   1      40.265  28.834  29.682  1.00  0.00     0.037 A 
ATOM     48  C   UNL A   1      41.210  32.308  35.150  1.00  0.00     0.049 A 
ATOM     49  C   UNL A   1      41.275  28.763  30.792  1.00  0.00     0.074 A 
ATOM     50  C   UNL A   1      42.183  32.123  36.114  1.00  0.00     0.029 A 
ATOM     51  N   UNL A   1      41.414  31.340  34.179  1.00  0.00    -0.354 N 
ATOM     52  N   UNL A   1      41.373  29.505  31.869  1.00  0.00    -0.248 NA
ATOM     53  C   UNL A   1      42.311  27.726  30.679  1.00  0.00     0.031 C 
ATOM     54  C   UNL A   1      42.990  31.050  35.717  1.00  0.00     0.029 A 
ATOM     55  C   UNL A   1      42.498  30.551  34.521  1.00  0.00     0.049 A 
ATOM     56  H   UNL A   1      40.869  31.230  33.366  1.00  0.00     0.167 HD
ATOM     57  C   UNL A   1      42.461  29.010  32.575  1.00  0.00     0.074 A 
ATOM     58  C   UNL A   1      42.984  27.896  31.809  1.00  0.00     0.031 C 
ATOM     59  C   UNL A   1      42.983  29.437  33.749  1.00  0.00     0.037 A 
BRANCH  46  60
ATOM     60  C   UNL A   1      40.064  34.291  36.222  1.00  0.00     0.057 A 
ATOM     61  C   UNL A   1      40.663  35.554  36.117  1.00  0.00     0.134 A 
ATOM     62  C   UNL A   1      39.369  34.002  37.402  1.00  0.00     0.134 A 
ATOM     63  F   UNL A   1      41.361  35.886  35.020  1.00  0.00    -0.206 F 
ATOM     64  C   UNL A   1      40.599  36.481  37.157  1.00  0.00     0.040 A 
ATOM     65  C   UNL A   1      39.276  34.931  38.439  1.00  0.00     0.040 A 
ATOM     66  F   UNL A   1      38.773  32.812  37.567  1.00  0.00    -0.206 F 
ATOM     67  C   UNL A   1      39.899  36.172  38.321  1.00  0.00     0.006 A 
ENDBRANCH  46  60
BRANCH  47  68
ATOM     68  C   UNL A   1      40.326  27.888  28.539  1.00  0.00     0.057 A 
ATOM     69  C   UNL A   1      39.683  26.646  28.605  1.00  0.00     0.134 A 
ATOM     70  C   UNL A   1      41.031  28.189  27.370  1.00  0.00     0.134 A 
ATOM     71  F   UNL A   1      39.006  26.295  29.708  1.00  0.00    -0.206 F 
ATOM     72  C   UNL A   1      39.757  25.727  27.557  1.00  0.00     0.040 A 
ATOM     73  C   UNL A   1      41.096  27.289  26.304  1.00  0.00     0.040 A 
ATOM     74  F   UNL A   1      41.661  29.366  27.242  1.00  0.00    -0.206 F 
ATOM     75  C   UNL A   1      40.463  26.050  26.400  1.00  0.00     0.006 A 
ENDBRANCH  47  68
BRANCH  59  76
ATOM     76  C   UNL A   1      44.149  28.671  34.296  1.00  0.00     0.057 A 
ATOM     77  C   UNL A   1      43.972  27.555  35.121  1.00  0.00     0.134 A 
ATOM     78  C   UNL A   1      45.457  29.031  33.956  1.00  0.00     0.134 A 
ATOM     79  F   UNL A   1      42.741  27.170  35.491  1.00  0.00    -0.206 F 
ATOM     80  C   UNL A   1      45.063  26.829  35.603  1.00  0.00     0.040 A 
ATOM     81  C   UNL A   1      46.554  28.302  34.414  1.00  0.00     0.040 A 
ATOM     82  F   UNL A   1      45.689  30.089  33.163  1.00  0.00    -0.206 F 
ATOM     83  C   UNL A   1      46.357  27.199  35.243  1.00  0.00     0.006 A 
ENDBRANCH  59  76
ENDBRANCH  33  34
ENDBRANCH  25  28
ENDBRANCH  23  24
ENDBRANCH  22  23
ENDBRANCH  21  22
ENDBRANCH   1  21
TORSDOF 15
ENDMDL
MODEL 2
REMARK VINA RESULT:     -11.2      4.151      5.897
REMARK SMILES C[C@@H]([NH+]1CCC(CCC(=O)NCCCCNC(=O)c2ccc(-c3c4nc(c(-c5c(F)cccc5F)c5ccc([nH]5)c(-c5c(F)cccc5F)c5nc(c(-c6c(F)cccc6F)c6ccc3[nH]6)C=C5)C=C4)cc2)CC1)C1(C)CC1
REMARK SMILES IDX 12 1 11 2 9 3 10 4 8 6 7 7 6 8 3 9 4 10 74 11 5 13 73 14
REMARK SMILES IDX 2 15 1 16 75 17 76 18 77 19 78 20 13 21 14 22 15 23 16 24
REMARK SMILES IDX 17 25 18 27 19 28 20 29 72 30 21 31 71 32 22 33 23 34 24 35
REMARK SMILES IDX 65 36 25 37 70 38 64 39 66 40 26 41 69 42 63 43 62 44 27 46
REMARK SMILES IDX 53 47 36 48 52 49 37 50 40 51 51 52 67 53 38 54 39 55 50 57
REMARK SMILES IDX 68 58 41 59 28 60 29 61 34 62 30 63 31 64 33 65 35 66 32 67
REMARK SMILES IDX 54 68 55 69 60 70 56 71 57 72 59 73 61 74 58 75 42 76 43 77
REMARK SMILES IDX 48 78 44 79 45 80 47 81 49 82 46 83
REMARK H PARENT 11 5 3 12 16 26 66 45 40 56
REMARK Flexibility Score: inf
ROOT
ATOM      1  C   UNL A   1      31.864  29.410  24.933  1.00  0.00     0.116 C 
ENDROOT
BRANCH   1   2
ATOM      2  N   UNL A   1      30.691  30.050  24.366  1.00  0.00    -0.356 N 
ATOM      3  C   UNL A   1      29.901  29.685  23.317  1.00  0.00     0.220 C 
ATOM      4  O   UNL A   1      29.043  30.488  22.940  1.00  0.00    -0.275 OA
ATOM      5  H   UNL A   1      30.421  30.885  24.813  1.00  0.00     0.163 HD
BRANCH   3   6
ATOM      6  C   UNL A   1      30.041  28.325  22.645  1.00  0.00     0.100 C 
BRANCH   6   7
ATOM      7  C   UNL A   1      29.549  27.140  23.497  1.00  0.00     0.014 C 
BRANCH   7   8
ATOM      8  C   UNL A   1      30.561  25.994  23.546  1.00  0.00     0.000 C 
ATOM      9  N   UNL A   1      32.881  24.236  23.920  1.00  0.00    -0.332 N 
ATOM     10  C   UNL A   1      32.637  24.928  22.650  1.00  0.00     0.262 C 
ATOM     11  C   UNL A   1      31.727  24.198  24.823  1.00  0.00     0.262 C 
ATOM     12  H   UNL A   1      33.515  24.842  24.441  1.00  0.00     0.348 HD
ATOM     13  C   UNL A   1      31.846  26.237  22.762  1.00  0.00     0.065 C 
ATOM     14  C   UNL A   1      30.965  25.533  24.941  1.00  0.00     0.065 C 
BRANCH   9  15
ATOM     15  C   UNL A   1      33.708  22.993  23.800  1.00  0.00     0.186 C 
ATOM     16  C   UNL A   1      33.046  21.690  24.298  1.00  0.00     0.076 C 
BRANCH  15  17
ATOM     17  C   UNL A   1      35.186  23.102  24.263  1.00  0.00     0.019 C 
ATOM     18  C   UNL A   1      35.414  24.179  25.304  1.00  0.00     0.018 C 
ATOM     19  C   UNL A   1      36.084  21.869  24.265  1.00  0.00     0.013 C 
ATOM     20  C   UNL A   1      36.349  22.955  23.278  1.00  0.00     0.013 C 
ENDBRANCH  15  17
ENDBRANCH   9  15
ENDBRANCH   7   8
ENDBRANCH   6   7
ENDBRANCH   3   6
ENDBRANCH   1   2
BRANCH   1  21
ATOM     21  C   UNL A   1      31.620  29.054  26.406  1.00  0.00     0.023 C 
BRANCH  21  22
ATOM     22  C   UNL A   1      32.751  28.313  27.100  1.00  0.00     0.023 C 
BRANCH  22  23
ATOM     23  C   UNL A   1      34.068  29.074  27.129  1.00  0.00     0.116 C 
BRANCH  23  24
ATOM     24  N   UNL A   1      34.068  30.242  28.002  1.00  0.00    -0.352 N 
ATOM     25  C   UNL A   1      35.104  30.740  28.766  1.00  0.00     0.251 C 
ATOM     26  H   UNL A   1      33.220  30.740  28.052  1.00  0.00     0.163 HD
ATOM     27  O   UNL A   1      34.959  31.706  29.488  1.00  0.00    -0.269 OA
BRANCH  25  28
ATOM     28  C   UNL A   1      36.395  30.029  28.716  1.00  0.00     0.039 A 
ATOM     29  C   UNL A   1      37.205  30.179  27.590  1.00  0.00     0.014 A 
ATOM     30  C   UNL A   1      36.842  29.328  29.838  1.00  0.00     0.014 A 
ATOM     31  C   UNL A   1      38.514  29.701  27.626  1.00  0.00     0.010 A 
ATOM     32  C   UNL A   1      38.169  28.940  29.907  1.00  0.00     0.010 A 
ATOM     33  C   UNL A   1      39.019  29.127  28.804  1.00  0.00    -0.014 A 
BRANCH  33  34
ATOM     34  C   UNL A   1      40.431  28.697  28.925  1.00  0.00     0.031 A 
ATOM     35  C   UNL A   1      41.458  29.685  29.395  1.00  0.00     0.074 A 
ATOM     36  C   UNL A   1      40.798  27.468  28.510  1.00  0.00     0.049 A 
ATOM     37  N   UNL A   1      42.762  29.584  29.404  1.00  0.00    -0.248 NA
ATOM     38  C   UNL A   1      40.950  30.981  29.876  1.00  0.00     0.031 C 
ATOM     39  C   UNL A   1      39.896  26.440  27.985  1.00  0.00     0.029 A 
ATOM     40  N   UNL A   1      42.037  26.884  28.450  1.00  0.00    -0.354 N 
ATOM     41  C   UNL A   1      43.227  30.811  29.856  1.00  0.00     0.074 A 
ATOM     42  C   UNL A   1      42.073  31.658  30.060  1.00  0.00     0.031 C 
ATOM     43  C   UNL A   1      40.608  25.343  27.680  1.00  0.00     0.029 A 
ATOM     44  C   UNL A   1      42.018  25.604  27.950  1.00  0.00     0.049 A 
ATOM     45  H   UNL A   1      42.862  27.337  28.739  1.00  0.00     0.167 HD
ATOM     46  C   UNL A   1      44.502  31.190  30.103  1.00  0.00     0.037 A 
ATOM     47  C   UNL A   1      43.031  24.745  27.728  1.00  0.00     0.037 A 
ATOM     48  C   UNL A   1      45.639  30.325  29.948  1.00  0.00     0.049 A 
ATOM     49  C   UNL A   1      44.435  25.178  28.047  1.00  0.00     0.074 A 
ATOM     50  C   UNL A   1      46.969  30.589  30.222  1.00  0.00     0.029 A 
ATOM     51  N   UNL A   1      45.574  29.017  29.493  1.00  0.00    -0.354 N 
ATOM     52  N   UNL A   1      44.861  26.329  28.508  1.00  0.00    -0.248 NA
ATOM     53  C   UNL A   1      45.500  24.191  27.816  1.00  0.00     0.031 C 
ATOM     54  C   UNL A   1      47.711  29.443  29.915  1.00  0.00     0.029 A 
ATOM     55  C   UNL A   1      46.840  28.459  29.479  1.00  0.00     0.049 A 
ATOM     56  H   UNL A   1      44.748  28.554  29.220  1.00  0.00     0.167 HD
ATOM     57  C   UNL A   1      46.235  26.198  28.649  1.00  0.00     0.074 A 
ATOM     58  C   UNL A   1      46.571  24.851  28.234  1.00  0.00     0.031 C 
ATOM     59  C   UNL A   1      47.140  27.109  29.080  1.00  0.00     0.037 A 
BRANCH  46  60
ATOM     60  C   UNL A   1      44.720  32.593  30.584  1.00  0.00     0.057 A 
ATOM     61  C   UNL A   1      44.711  32.913  31.948  1.00  0.00     0.134 A 
ATOM     62  C   UNL A   1      44.947  33.636  29.677  1.00  0.00     0.134 A 
ATOM     63  F   UNL A   1      44.479  31.963  32.867  1.00  0.00    -0.206 F 
ATOM     64  C   UNL A   1      44.890  34.223  32.393  1.00  0.00     0.040 A 
ATOM     65  C   UNL A   1      45.153  34.946  30.111  1.00  0.00     0.040 A 
ATOM     66  F   UNL A   1      44.969  33.398  28.357  1.00  0.00    -0.206 F 
ATOM     67  C   UNL A   1      45.117  35.243  31.472  1.00  0.00     0.006 A 
ENDBRANCH  46  60
BRANCH  47  68
ATOM     68  C   UNL A   1      42.757  23.381  27.213  1.00  0.00     0.057 A 
ATOM     69  C   UNL A   1      42.391  22.347  28.084  1.00  0.00     0.134 A 
ATOM     70  C   UNL A   1      42.864  23.071  25.853  1.00  0.00     0.134 A 
ATOM     71  F   UNL A   1      42.290  22.581  29.401  1.00  0.00    -0.206 F 
ATOM     72  C   UNL A   1      42.163  21.049  27.626  1.00  0.00     0.040 A 
ATOM     73  C   UNL A   1      42.617  21.781  25.377  1.00  0.00     0.040 A 
ATOM     74  F   UNL A   1      43.201  24.018  24.967  1.00  0.00    -0.206 F 
ATOM     75  C   UNL A   1      42.272  20.765  26.266  1.00  0.00     0.006 A 
ENDBRANCH  47  68
BRANCH  59  76
ATOM     76  C   UNL A   1      48.568  26.663  29.167  1.00  0.00     0.057 A 
ATOM     77  C   UNL A   1      49.066  26.008  30.298  1.00  0.00     0.134 A 
ATOM     78  C   UNL A   1      49.438  26.855  28.088  1.00  0.00     0.134 A 
ATOM     79  F   UNL A   1      48.282  25.808  31.369  1.00  0.00    -0.206 F 
ATOM     80  C   UNL A   1      50.390  25.570  30.360  1.00  0.00     0.040 A 
ATOM     81  C   UNL A   1      50.757  26.404  28.129  1.00  0.00     0.040 A 
ATOM     82  F   UNL A   1      49.016  27.472  26.973  1.00  0.00    -0.206 F 
ATOM     83  C   UNL A   1      51.237  25.762  29.270  1.00  0.00     0.006 A 
ENDBRANCH  59  76
ENDBRANCH  33  34
ENDBRANCH  25  28
ENDBRANCH  23  24
ENDBRANCH  22  23
ENDBRANCH  21  22
ENDBRANCH   1  21
TORSDOF 15
ENDMDL
MODEL 3
REMARK VINA RESULT:     -11.2      1.422      6.749
REMARK SMILES C[C@@H]([NH+]1CCC(CCC(=O)NCCCCNC(=O)c2ccc(-c3c4nc(c(-c5c(F)cccc5F)c5ccc([nH]5)c(-c5c(F)cccc5F)c5nc(c(-c6c(F)cccc6F)c6ccc3[nH]6)C=C5)C=C4)cc2)CC1)C1(C)CC1
REMARK SMILES IDX 12 1 11 2 9 3 10 4 8 6 7 7 6 8 3 9 4 10 74 11 5 13 73 14
REMARK SMILES IDX 2 15 1 16 75 17 76 18 77 19 78 20 13 21 14 22 15 23 16 24
REMARK SMILES IDX 17 25 18 27 19 28 20 29 72 30 21 31 71 32 22 33 23 34 24 35
REMARK SMILES IDX 65 36 25 37 70 38 64 39 66 40 26 41 69 42 63 43 62 44 27 46
REMARK SMILES IDX 53 47 36 48 52 49 37 50 40 51 51 52 67 53 38 54 39 55 50 57
REMARK SMILES IDX 68 58 41 59 28 60 29 61 34 62 30 63 31 64 33 65 35 66 32 67
REMARK SMILES IDX 54 68 55 69 60 70 56 71 57 72 59 73 61 74 58 75 42 76 43 77
REMARK SMILES IDX 48 78 44 79 45 80 47 81 49 82 46 83
REMARK H PARENT 11 5 3 12 16 26 66 45 40 56
REMARK Flexibility Score: inf
ROOT
ATOM      1  C   UNL A   1      31.804  29.828  25.397  1.00  0.00     0.116 C 
ENDROOT
BRANCH   1   2
ATOM      2  N   UNL A   1      30.722  30.396  24.613  1.00  0.00    -0.356 N 
ATOM      3  C   UNL A   1      29.892  29.820  23.698  1.00  0.00     0.220 C 
ATOM      4  O   UNL A   1      29.144  30.561  23.056  1.00  0.00    -0.275 OA
ATOM      5  H   UNL A   1      30.562  31.355  24.767  1.00  0.00     0.163 HD
BRANCH   3   6
ATOM      6  C   UNL A   1      29.856  28.311  23.487  1.00  0.00     0.100 C 
BRANCH   6   7
ATOM      7  C   UNL A   1      30.644  27.821  22.258  1.00  0.00     0.014 C 
BRANCH   7   8
ATOM      8  C   UNL A   1      31.455  26.557  22.548  1.00  0.00     0.000 C 
ATOM      9  N   UNL A   1      33.292  24.502  23.556  1.00  0.00    -0.332 N 
ATOM     10  C   UNL A   1      33.614  25.309  22.373  1.00  0.00     0.262 C 
ATOM     11  C   UNL A   1      31.882  24.542  23.954  1.00  0.00     0.262 C 
ATOM     12  H   UNL A   1      33.730  24.985  24.340  1.00  0.00     0.348 HD
ATOM     13  C   UNL A   1      32.959  26.695  22.331  1.00  0.00     0.065 C 
ATOM     14  C   UNL A   1      31.253  25.950  23.931  1.00  0.00     0.065 C 
BRANCH   9  15
ATOM     15  C   UNL A   1      33.990  23.177  23.611  1.00  0.00     0.186 C 
ATOM     16  C   UNL A   1      33.135  21.982  24.085  1.00  0.00     0.076 C 
BRANCH  15  17
ATOM     17  C   UNL A   1      35.400  23.169  24.258  1.00  0.00     0.019 C 
ATOM     18  C   UNL A   1      35.556  24.175  25.381  1.00  0.00     0.018 C 
ATOM     19  C   UNL A   1      36.221  21.883  24.297  1.00  0.00     0.013 C 
ATOM     20  C   UNL A   1      36.669  23.000  23.416  1.00  0.00     0.013 C 
ENDBRANCH  15  17
ENDBRANCH   9  15
ENDBRANCH   7   8
ENDBRANCH   6   7
ENDBRANCH   3   6
ENDBRANCH   1   2
BRANCH   1  21
ATOM     21  C   UNL A   1      31.894  30.519  26.763  1.00  0.00     0.023 C 
BRANCH  21  22
ATOM     22  C   UNL A   1      31.421  31.962  26.804  1.00  0.00     0.023 C 
BRANCH  22  23
ATOM     23  C   UNL A   1      32.546  32.987  26.795  1.00  0.00     0.116 C 
BRANCH  23  24
ATOM     24  N   UNL A   1      32.305  34.151  27.640  1.00  0.00    -0.352 N 
ATOM     25  C   UNL A   1      33.062  34.612  28.698  1.00  0.00     0.251 C 
ATOM     26  H   UNL A   1      31.498  34.675  27.429  1.00  0.00     0.163 HD
ATOM     27  O   UNL A   1      32.726  35.579  29.352  1.00  0.00    -0.269 OA
BRANCH  25  28
ATOM     28  C   UNL A   1      34.283  33.861  29.046  1.00  0.00     0.039 A 
ATOM     29  C   UNL A   1      35.525  34.392  28.694  1.00  0.00     0.014 A 
ATOM     30  C   UNL A   1      34.186  32.708  29.825  1.00  0.00     0.014 A 
ATOM     31  C   UNL A   1      36.683  33.811  29.212  1.00  0.00     0.010 A 
ATOM     32  C   UNL A   1      35.329  32.192  30.413  1.00  0.00     0.010 A 
ATOM     33  C   UNL A   1      36.587  32.742  30.117  1.00  0.00    -0.014 A 
BRANCH  33  34
ATOM     34  C   UNL A   1      37.781  32.159  30.770  1.00  0.00     0.031 A 
ATOM     35  C   UNL A   1      38.531  31.061  30.073  1.00  0.00     0.074 A 
ATOM     36  C   UNL A   1      38.116  32.535  32.020  1.00  0.00     0.049 A 
ATOM     37  N   UNL A   1      39.483  30.290  30.529  1.00  0.00    -0.248 NA
ATOM     38  C   UNL A   1      38.121  30.761  28.691  1.00  0.00     0.031 C 
ATOM     39  C   UNL A   1      37.430  33.554  32.817  1.00  0.00     0.029 A 
ATOM     40  N   UNL A   1      39.114  32.085  32.845  1.00  0.00    -0.354 N 
ATOM     41  C   UNL A   1      39.759  29.394  29.505  1.00  0.00     0.074 A 
ATOM     42  C   UNL A   1      38.840  29.681  28.426  1.00  0.00     0.031 C 
ATOM     43  C   UNL A   1      38.043  33.669  34.006  1.00  0.00     0.029 A 
ATOM     44  C   UNL A   1      39.137  32.707  34.070  1.00  0.00     0.049 A 
ATOM     45  H   UNL A   1      39.755  31.385  32.585  1.00  0.00     0.167 HD
ATOM     46  C   UNL A   1      40.710  28.433  29.458  1.00  0.00     0.037 A 
ATOM     47  C   UNL A   1      39.949  32.511  35.127  1.00  0.00     0.037 A 
ATOM     48  C   UNL A   1      41.654  28.189  30.514  1.00  0.00     0.049 A 
ATOM     49  C   UNL A   1      41.022  31.463  35.036  1.00  0.00     0.074 A 
ATOM     50  C   UNL A   1      42.694  27.278  30.549  1.00  0.00     0.029 A 
ATOM     51  N   UNL A   1      41.681  28.878  31.717  1.00  0.00    -0.354 N 
ATOM     52  N   UNL A   1      41.297  30.645  34.048  1.00  0.00    -0.248 NA
ATOM     53  C   UNL A   1      41.901  31.311  36.205  1.00  0.00     0.031 C 
ATOM     54  C   UNL A   1      43.340  27.404  31.784  1.00  0.00     0.029 A 
ATOM     55  C   UNL A   1      42.721  28.413  32.503  1.00  0.00     0.049 A 
ATOM     56  H   UNL A   1      41.053  29.591  31.974  1.00  0.00     0.167 HD
ATOM     57  C   UNL A   1      42.394  29.902  34.463  1.00  0.00     0.074 A 
ATOM     58  C   UNL A   1      42.741  30.374  35.789  1.00  0.00     0.031 C 
ATOM     59  C   UNL A   1      43.054  28.916  33.810  1.00  0.00     0.037 A 
BRANCH  46  60
ATOM     60  C   UNL A   1      40.780  27.596  28.217  1.00  0.00     0.057 A 
ATOM     61  C   UNL A   1      40.089  26.381  28.110  1.00  0.00     0.134 A 
ATOM     62  C   UNL A   1      41.540  28.006  27.115  1.00  0.00     0.134 A 
ATOM     63  F   UNL A   1      39.359  25.922  29.138  1.00  0.00    -0.206 F 
ATOM     64  C   UNL A   1      40.175  25.591  26.964  1.00  0.00     0.040 A 
ATOM     65  C   UNL A   1      41.613  27.237  25.953  1.00  0.00     0.040 A 
ATOM     66  F   UNL A   1      42.226  29.158  27.152  1.00  0.00    -0.206 F 
ATOM     67  C   UNL A   1      40.935  26.022  25.878  1.00  0.00     0.006 A 
ENDBRANCH  46  60
BRANCH  47  68
ATOM     68  C   UNL A   1      39.805  33.345  36.346  1.00  0.00     0.057 A 
ATOM     69  C   UNL A   1      40.481  34.566  36.460  1.00  0.00     0.134 A 
ATOM     70  C   UNL A   1      39.009  32.945  37.424  1.00  0.00     0.134 A 
ATOM     71  F   UNL A   1      41.273  34.993  35.465  1.00  0.00    -0.206 F 
ATOM     72  C   UNL A   1      40.388  35.349  37.612  1.00  0.00     0.040 A 
ATOM     73  C   UNL A   1      38.890  33.728  38.574  1.00  0.00     0.040 A 
ATOM     74  F   UNL A   1      38.330  31.790  37.373  1.00  0.00    -0.206 F 
ATOM     75  C   UNL A   1      39.587  34.932  38.672  1.00  0.00     0.006 A 
ENDBRANCH  47  68
BRANCH  59  76
ATOM     76  C   UNL A   1      44.242  28.318  34.500  1.00  0.00     0.057 A 
ATOM     77  C   UNL A   1      45.522  28.868  34.369  1.00  0.00     0.134 A 
ATOM     78  C   UNL A   1      44.091  27.207  35.336  1.00  0.00     0.134 A 
ATOM     79  F   UNL A   1      45.729  29.926  33.570  1.00  0.00    -0.206 F 
ATOM     80  C   UNL A   1      46.618  28.322  35.038  1.00  0.00     0.040 A 
ATOM     81  C   UNL A   1      45.175  26.664  36.026  1.00  0.00     0.040 A 
ATOM     82  F   UNL A   1      42.887  26.639  35.505  1.00  0.00    -0.206 F 
ATOM     83  C   UNL A   1      46.444  27.221  35.875  1.00  0.00     0.006 A 
ENDBRANCH  59  76
ENDBRANCH  33  34
ENDBRANCH  25  28
ENDBRANCH  23  24
ENDBRANCH  22  23
ENDBRANCH  21  22
ENDBRANCH   1  21
TORSDOF 15
ENDMDL
