MODEL 1
REMARK VINA RESULT:      -9.6      0.000      0.000
REMARK SMILES O=C(NCCCCNC(=O)c1cn2ccccc2n1)c1ccc(-c2c3nc(c(-c4c(F)cccc4F)c4ccc([nH]4)c(-c4c(F)cccc4F)c4nc(c(-c5c(F)cccc5F)c5ccc2[nH]5)C=C4)C=C3)cc1
REMARK SMILES IDX 4 1 3 2 1 3 2 4 20 6 21 7 73 8 22 9 72 10 23 11 24 12 25 13
REMARK SMILES IDX 66 14 26 15 71 16 65 17 67 18 27 19 70 20 64 21 63 22 28 24
REMARK SMILES IDX 54 25 37 26 53 27 38 28 41 29 52 30 68 31 39 32 40 33 51 35
REMARK SMILES IDX 69 36 42 37 29 38 30 39 35 40 31 41 32 42 34 43 36 44 33 45
REMARK SMILES IDX 55 46 56 47 61 48 57 49 58 50 60 51 62 52 59 53 43 54 44 55
REMARK SMILES IDX 49 56 45 57 46 58 48 59 50 60 47 61 5 62 6 63 7 64 8 65 9 66
REMARK SMILES IDX 10 68 11 69 12 70 19 71 13 72 18 73 14 74 17 75 15 76 16 77
REMARK H PARENT 3 5 67 23 41 34 8 67
REMARK Flexibility Score: inf
ROOT
ATOM      1  C   UNL A   1      44.117  19.310  25.458  1.00  0.00     0.116 C 
ENDROOT
BRANCH   1   2
ATOM      2  N   UNL A   1      42.683  19.083  25.382  1.00  0.00    -0.352 N 
ATOM      3  O   UNL A   1      40.502  19.396  25.837  1.00  0.00    -0.269 OA
ATOM      4  C   UNL A   1      41.648  19.831  25.884  1.00  0.00     0.251 C 
ATOM      5  H   UNL A   1      42.414  18.271  24.896  1.00  0.00     0.163 HD
BRANCH   4   6
ATOM      6  C   UNL A   1      41.907  21.148  26.506  1.00  0.00     0.039 A 
ATOM      7  C   UNL A   1      41.815  22.331  25.766  1.00  0.00     0.014 A 
ATOM      8  C   UNL A   1      42.215  21.195  27.869  1.00  0.00     0.014 A 
ATOM      9  C   UNL A   1      42.144  23.547  26.360  1.00  0.00     0.010 A 
ATOM     10  C   UNL A   1      42.486  22.421  28.477  1.00  0.00     0.010 A 
ATOM     11  C   UNL A   1      42.478  23.604  27.722  1.00  0.00    -0.014 A 
BRANCH  11  12
ATOM     12  C   UNL A   1      42.774  24.906  28.365  1.00  0.00     0.031 A 
ATOM     13  C   UNL A   1      41.689  25.921  28.577  1.00  0.00     0.074 A 
ATOM     14  C   UNL A   1      44.039  25.183  28.729  1.00  0.00     0.049 A 
ATOM     15  N   UNL A   1      41.780  27.137  29.055  1.00  0.00    -0.248 NA
ATOM     16  C   UNL A   1      40.327  25.525  28.192  1.00  0.00     0.031 C 
ATOM     17  C   UNL A   1      45.180  24.283  28.561  1.00  0.00     0.029 A 
ATOM     18  N   UNL A   1      44.579  26.305  29.305  1.00  0.00    -0.354 N 
ATOM     19  C   UNL A   1      40.494  27.660  29.006  1.00  0.00     0.074 A 
ATOM     20  C   UNL A   1      39.644  26.636  28.437  1.00  0.00     0.031 C 
ATOM     21  C   UNL A   1      46.285  24.886  29.023  1.00  0.00     0.029 A 
ATOM     22  C   UNL A   1      45.938  26.228  29.477  1.00  0.00     0.049 A 
ATOM     23  H   UNL A   1      44.044  27.089  29.566  1.00  0.00     0.167 HD
ATOM     24  C   UNL A   1      40.064  28.881  29.405  1.00  0.00     0.037 A 
ATOM     25  C   UNL A   1      46.814  27.146  29.925  1.00  0.00     0.037 A 
ATOM     26  C   UNL A   1      40.909  29.889  29.990  1.00  0.00     0.049 A 
ATOM     27  C   UNL A   1      46.319  28.496  30.348  1.00  0.00     0.074 A 
ATOM     28  C   UNL A   1      40.553  31.133  30.483  1.00  0.00     0.029 A 
ATOM     29  N   UNL A   1      42.281  29.772  30.154  1.00  0.00    -0.354 N 
ATOM     30  N   UNL A   1      45.094  28.962  30.338  1.00  0.00    -0.248 NA
ATOM     31  C   UNL A   1      47.323  29.449  30.839  1.00  0.00     0.031 C 
ATOM     32  C   UNL A   1      41.716  31.782  30.912  1.00  0.00     0.029 A 
ATOM     33  C   UNL A   1      42.791  30.930  30.717  1.00  0.00     0.049 A 
ATOM     34  H   UNL A   1      42.813  28.982  29.906  1.00  0.00     0.167 HD
ATOM     35  C   UNL A   1      45.175  30.255  30.833  1.00  0.00     0.074 A 
ATOM     36  C   UNL A   1      46.570  30.499  31.141  1.00  0.00     0.031 C 
ATOM     37  C   UNL A   1      44.182  31.158  31.015  1.00  0.00     0.037 A 
BRANCH  24  38
ATOM     38  C   UNL A   1      38.613  29.201  29.201  1.00  0.00     0.057 A 
ATOM     39  C   UNL A   1      37.697  29.191  30.259  1.00  0.00     0.134 A 
ATOM     40  C   UNL A   1      38.134  29.552  27.932  1.00  0.00     0.134 A 
ATOM     41  F   UNL A   1      38.091  28.852  31.497  1.00  0.00    -0.206 F 
ATOM     42  C   UNL A   1      36.349  29.495  30.060  1.00  0.00     0.040 A 
ATOM     43  C   UNL A   1      36.793  29.878  27.724  1.00  0.00     0.040 A 
ATOM     44  F   UNL A   1      38.961  29.586  26.877  1.00  0.00    -0.206 F 
ATOM     45  C   UNL A   1      35.896  29.845  28.789  1.00  0.00     0.006 A 
ENDBRANCH  24  38
BRANCH  25  46
ATOM     46  C   UNL A   1      48.255  26.802  29.975  1.00  0.00     0.057 A 
ATOM     47  C   UNL A   1      49.125  27.177  28.948  1.00  0.00     0.134 A 
ATOM     48  C   UNL A   1      48.801  26.142  31.082  1.00  0.00     0.134 A 
ATOM     49  F   UNL A   1      48.653  27.800  27.858  1.00  0.00    -0.206 F 
ATOM     50  C   UNL A   1      50.493  26.912  29.020  1.00  0.00     0.040 A 
ATOM     51  C   UNL A   1      50.170  25.887  31.177  1.00  0.00     0.040 A 
ATOM     52  F   UNL A   1      48.016  25.767  32.102  1.00  0.00    -0.206 F 
ATOM     53  C   UNL A   1      51.019  26.273  30.142  1.00  0.00     0.006 A 
ENDBRANCH  25  46
BRANCH  37  54
ATOM     54  C   UNL A   1      44.563  32.488  31.589  1.00  0.00     0.057 A 
ATOM     55  C   UNL A   1      44.883  33.575  30.767  1.00  0.00     0.134 A 
ATOM     56  C   UNL A   1      44.557  32.695  32.973  1.00  0.00     0.134 A 
ATOM     57  F   UNL A   1      44.917  33.433  29.434  1.00  0.00    -0.206 F 
ATOM     58  C   UNL A   1      45.193  34.825  31.306  1.00  0.00     0.040 A 
ATOM     59  C   UNL A   1      44.849  33.945  33.522  1.00  0.00     0.040 A 
ATOM     60  F   UNL A   1      44.255  31.693  33.811  1.00  0.00    -0.206 F 
ATOM     61  C   UNL A   1      45.170  35.013  32.687  1.00  0.00     0.006 A 
ENDBRANCH  37  54
ENDBRANCH  11  12
ENDBRANCH   4   6
ENDBRANCH   1   2
BRANCH   1  62
ATOM     62  C   UNL A   1      44.534  20.654  24.867  1.00  0.00     0.023 C 
BRANCH  62  63
ATOM     63  C   UNL A   1      45.554  21.445  25.686  1.00  0.00     0.023 C 
BRANCH  63  64
ATOM     64  C   UNL A   1      45.425  22.965  25.607  1.00  0.00     0.116 C 
BRANCH  64  65
ATOM     65  N   UNL A   1      46.619  23.598  25.080  1.00  0.00    -0.351 N 
ATOM     66  C   UNL A   1      46.834  24.919  24.758  1.00  0.00     0.271 C 
ATOM     67  H   UNL A   1      47.385  22.997  24.931  1.00  0.00     0.163 HD
ATOM     68  O   UNL A   1      47.879  25.215  24.178  1.00  0.00    -0.267 OA
BRANCH  66  69
ATOM     69  C   UNL A   1      45.822  25.907  25.120  1.00  0.00     0.147 A 
ATOM     70  C   UNL A   1      46.009  27.056  25.871  1.00  0.00     0.127 A 
ATOM     71  N   UNL A   1      44.498  25.814  24.722  1.00  0.00    -0.223 NA
ATOM     72  N   UNL A   1      44.772  27.629  25.995  1.00  0.00    -0.306 N 
ATOM     73  C   UNL A   1      43.888  26.846  25.262  1.00  0.00     0.137 A 
ATOM     74  C   UNL A   1      44.388  28.760  26.712  1.00  0.00     0.093 A 
ATOM     75  C   UNL A   1      42.526  27.256  25.237  1.00  0.00     0.048 A 
ATOM     76  C   UNL A   1      43.097  29.133  26.703  1.00  0.00     0.018 A 
ATOM     77  C   UNL A   1      42.144  28.348  25.928  1.00  0.00     0.005 A 
ENDBRANCH  66  69
ENDBRANCH  64  65
ENDBRANCH  63  64
ENDBRANCH  62  63
ENDBRANCH   1  62
TORSDOF 11
ENDMDL
MODEL 2
REMARK VINA RESULT:      -9.6      4.416     10.133
REMARK SMILES O=C(NCCCCNC(=O)c1cn2ccccc2n1)c1ccc(-c2c3nc(c(-c4c(F)cccc4F)c4ccc([nH]4)c(-c4c(F)cccc4F)c4nc(c(-c5c(F)cccc5F)c5ccc2[nH]5)C=C4)C=C3)cc1
REMARK SMILES IDX 4 1 3 2 1 3 2 4 20 6 21 7 73 8 22 9 72 10 23 11 24 12 25 13
REMARK SMILES IDX 66 14 26 15 71 16 65 17 67 18 27 19 70 20 64 21 63 22 28 24
REMARK SMILES IDX 54 25 37 26 53 27 38 28 41 29 52 30 68 31 39 32 40 33 51 35
REMARK SMILES IDX 69 36 42 37 29 38 30 39 35 40 31 41 32 42 34 43 36 44 33 45
REMARK SMILES IDX 55 46 56 47 61 48 57 49 58 50 60 51 62 52 59 53 43 54 44 55
REMARK SMILES IDX 49 56 45 57 46 58 48 59 50 60 47 61 5 62 6 63 7 64 8 65 9 66
REMARK SMILES IDX 10 68 11 69 12 70 19 71 13 72 18 73 14 74 17 75 15 76 16 77
REMARK H PARENT 3 5 67 23 41 34 8 67
REMARK Flexibility Score: inf
ROOT
ATOM      1  C   UNL A   1      34.744  32.728  28.824  1.00  0.00     0.116 C 
ENDROOT
BRANCH   1   2
ATOM      2  N   UNL A   1      34.040  31.550  28.344  1.00  0.00    -0.352 N 
ATOM      3  O   UNL A   1      33.786  29.477  27.507  1.00  0.00    -0.269 OA
ATOM      4  C   UNL A   1      34.523  30.303  28.034  1.00  0.00     0.251 C 
ATOM      5  H   UNL A   1      33.070  31.663  28.225  1.00  0.00     0.163 HD
BRANCH   4   6
ATOM      6  C   UNL A   1      35.935  29.958  28.307  1.00  0.00     0.039 A 
ATOM      7  C   UNL A   1      36.920  30.099  27.324  1.00  0.00     0.014 A 
ATOM      8  C   UNL A   1      36.281  29.516  29.587  1.00  0.00     0.014 A 
ATOM      9  C   UNL A   1      38.225  29.690  27.586  1.00  0.00     0.010 A 
ATOM     10  C   UNL A   1      37.602  29.162  29.866  1.00  0.00     0.010 A 
ATOM     11  C   UNL A   1      38.579  29.222  28.861  1.00  0.00    -0.014 A 
BRANCH  11  12
ATOM     12  C   UNL A   1      39.980  28.838  29.154  1.00  0.00     0.031 A 
ATOM     13  C   UNL A   1      40.913  29.798  29.832  1.00  0.00     0.074 A 
ATOM     14  C   UNL A   1      40.420  27.624  28.773  1.00  0.00     0.049 A 
ATOM     15  N   UNL A   1      42.187  29.660  30.100  1.00  0.00    -0.248 NA
ATOM     16  C   UNL A   1      40.345  31.087  30.255  1.00  0.00     0.031 C 
ATOM     17  C   UNL A   1      39.612  26.612  28.093  1.00  0.00     0.029 A 
ATOM     18  N   UNL A   1      41.655  27.043  28.893  1.00  0.00    -0.354 N 
ATOM     19  C   UNL A   1      42.579  30.849  30.700  1.00  0.00     0.074 A 
ATOM     20  C   UNL A   1      41.412  31.705  30.743  1.00  0.00     0.031 C 
ATOM     21  C   UNL A   1      40.371  25.532  27.857  1.00  0.00     0.029 A 
ATOM     22  C   UNL A   1      41.727  25.795  28.327  1.00  0.00     0.049 A 
ATOM     23  H   UNL A   1      42.417  27.478  29.340  1.00  0.00     0.167 HD
ATOM     24  C   UNL A   1      43.800  31.193  31.176  1.00  0.00     0.037 A 
ATOM     25  C   UNL A   1      42.775  24.964  28.176  1.00  0.00     0.037 A 
ATOM     26  C   UNL A   1      44.953  30.331  31.151  1.00  0.00     0.049 A 
ATOM     27  C   UNL A   1      44.121  25.368  28.697  1.00  0.00     0.074 A 
ATOM     28  C   UNL A   1      46.217  30.565  31.666  1.00  0.00     0.029 A 
ATOM     29  N   UNL A   1      44.985  29.070  30.573  1.00  0.00    -0.354 N 
ATOM     30  N   UNL A   1      44.467  26.478  29.302  1.00  0.00    -0.248 NA
ATOM     31  C   UNL A   1      45.220  24.412  28.513  1.00  0.00     0.031 C 
ATOM     32  C   UNL A   1      47.023  29.462  31.366  1.00  0.00     0.029 A 
ATOM     33  C   UNL A   1      46.252  28.525  30.695  1.00  0.00     0.049 A 
ATOM     34  H   UNL A   1      44.219  28.629  30.139  1.00  0.00     0.167 HD
ATOM     35  C   UNL A   1      45.819  26.351  29.583  1.00  0.00     0.074 A 
ATOM     36  C   UNL A   1      46.229  25.052  29.089  1.00  0.00     0.031 C 
ATOM     37  C   UNL A   1      46.646  27.232  30.197  1.00  0.00     0.037 A 
BRANCH  24  38
ATOM     38  C   UNL A   1      43.956  32.570  31.746  1.00  0.00     0.057 A 
ATOM     39  C   UNL A   1      44.337  33.661  30.955  1.00  0.00     0.134 A 
ATOM     40  C   UNL A   1      43.693  32.812  33.100  1.00  0.00     0.134 A 
ATOM     41  F   UNL A   1      44.614  33.492  29.653  1.00  0.00    -0.206 F 
ATOM     42  C   UNL A   1      44.474  34.941  31.496  1.00  0.00     0.040 A 
ATOM     43  C   UNL A   1      43.807  34.092  33.648  1.00  0.00     0.040 A 
ATOM     44  F   UNL A   1      43.318  31.812  33.911  1.00  0.00    -0.206 F 
ATOM     45  C   UNL A   1      44.204  35.159  32.846  1.00  0.00     0.006 A 
ENDBRANCH  24  38
BRANCH  25  46
ATOM     46  C   UNL A   1      42.572  23.670  27.482  1.00  0.00     0.057 A 
ATOM     47  C   UNL A   1      42.706  23.564  26.095  1.00  0.00     0.134 A 
ATOM     48  C   UNL A   1      42.301  22.500  28.201  1.00  0.00     0.134 A 
ATOM     49  F   UNL A   1      42.953  24.655  25.355  1.00  0.00    -0.206 F 
ATOM     50  C   UNL A   1      42.580  22.336  25.444  1.00  0.00     0.040 A 
ATOM     51  C   UNL A   1      42.192  21.262  27.566  1.00  0.00     0.040 A 
ATOM     52  F   UNL A   1      42.173  22.539  29.535  1.00  0.00    -0.206 F 
ATOM     53  C   UNL A   1      42.331  21.180  26.182  1.00  0.00     0.006 A 
ENDBRANCH  25  46
BRANCH  37  54
ATOM     54  C   UNL A   1      48.072  26.817  30.384  1.00  0.00     0.057 A 
ATOM     55  C   UNL A   1      48.459  25.976  31.434  1.00  0.00     0.134 A 
ATOM     56  C   UNL A   1      49.057  27.220  29.474  1.00  0.00     0.134 A 
ATOM     57  F   UNL A   1      47.562  25.569  32.344  1.00  0.00    -0.206 F 
ATOM     58  C   UNL A   1      49.781  25.555  31.577  1.00  0.00     0.040 A 
ATOM     59  C   UNL A   1      50.379  26.792  29.597  1.00  0.00     0.040 A 
ATOM     60  F   UNL A   1      48.747  28.023  28.445  1.00  0.00    -0.206 F 
ATOM     61  C   UNL A   1      50.744  25.958  30.653  1.00  0.00     0.006 A 
ENDBRANCH  37  54
ENDBRANCH  11  12
ENDBRANCH   4   6
ENDBRANCH   1   2
BRANCH   1  62
ATOM     62  C   UNL A   1      34.323  34.002  28.098  1.00  0.00     0.023 C 
BRANCH  62  63
ATOM     63  C   UNL A   1      33.140  34.750  28.713  1.00  0.00     0.023 C 
BRANCH  63  64
ATOM     64  C   UNL A   1      33.463  36.117  29.312  1.00  0.00     0.116 C 
BRANCH  64  65
ATOM     65  N   UNL A   1      32.569  36.474  30.397  1.00  0.00    -0.351 N 
ATOM     66  C   UNL A   1      32.569  36.041  31.703  1.00  0.00     0.271 C 
ATOM     67  H   UNL A   1      31.861  37.118  30.165  1.00  0.00     0.163 HD
ATOM     68  O   UNL A   1      31.621  36.357  32.422  1.00  0.00    -0.267 OA
BRANCH  66  69
ATOM     69  C   UNL A   1      33.689  35.235  32.181  1.00  0.00     0.147 A 
ATOM     70  C   UNL A   1      34.826  35.687  32.831  1.00  0.00     0.127 A 
ATOM     71  N   UNL A   1      33.739  33.857  32.045  1.00  0.00    -0.223 NA
ATOM     72  N   UNL A   1      35.611  34.583  33.026  1.00  0.00    -0.306 N 
ATOM     73  C   UNL A   1      34.898  33.490  32.548  1.00  0.00     0.137 A 
ATOM     74  C   UNL A   1      36.890  34.492  33.570  1.00  0.00     0.093 A 
ATOM     75  C   UNL A   1      35.519  32.214  32.654  1.00  0.00     0.048 A 
ATOM     76  C   UNL A   1      37.482  33.288  33.650  1.00  0.00     0.018 A 
ATOM     77  C   UNL A   1      36.756  32.115  33.177  1.00  0.00     0.005 A 
ENDBRANCH  66  69
ENDBRANCH  64  65
ENDBRANCH  63  64
ENDBRANCH  62  63
ENDBRANCH   1  62
TORSDOF 11
ENDMDL
MODEL 3
REMARK VINA RESULT:      -9.5      4.870     10.161
REMARK SMILES O=C(NCCCCNC(=O)c1cn2ccccc2n1)c1ccc(-c2c3nc(c(-c4c(F)cccc4F)c4ccc([nH]4)c(-c4c(F)cccc4F)c4nc(c(-c5c(F)cccc5F)c5ccc2[nH]5)C=C4)C=C3)cc1
REMARK SMILES IDX 4 1 3 2 1 3 2 4 20 6 21 7 73 8 22 9 72 10 23 11 24 12 25 13
REMARK SMILES IDX 66 14 26 15 71 16 65 17 67 18 27 19 70 20 64 21 63 22 28 24
REMARK SMILES IDX 54 25 37 26 53 27 38 28 41 29 52 30 68 31 39 32 40 33 51 35
REMARK SMILES IDX 69 36 42 37 29 38 30 39 35 40 31 41 32 42 34 43 36 44 33 45
REMARK SMILES IDX 55 46 56 47 61 48 57 49 58 50 60 51 62 52 59 53 43 54 44 55
REMARK SMILES IDX 49 56 45 57 46 58 48 59 50 60 47 61 5 62 6 63 7 64 8 65 9 66
REMARK SMILES IDX 10 68 11 69 12 70 19 71 13 72 18 73 14 74 17 75 15 76 16 77
REMARK H PARENT 3 5 67 23 41 34 8 67
REMARK Flexibility Score: inf
ROOT
ATOM      1  C   UNL A   1      34.676  33.093  28.761  1.00  0.00     0.116 C 
ENDROOT
BRANCH   1   2
ATOM      2  N   UNL A   1      34.036  32.036  27.995  1.00  0.00    -0.352 N 
ATOM      3  O   UNL A   1      33.865  30.092  26.875  1.00  0.00    -0.269 OA
ATOM      4  C   UNL A   1      34.505  30.793  27.651  1.00  0.00     0.251 C 
ATOM      5  H   UNL A   1      33.128  32.242  27.677  1.00  0.00     0.163 HD
BRANCH   4   6
ATOM      6  C   UNL A   1      35.793  30.303  28.189  1.00  0.00     0.039 A 
ATOM      7  C   UNL A   1      36.987  30.473  27.482  1.00  0.00     0.014 A 
ATOM      8  C   UNL A   1      35.803  29.691  29.446  1.00  0.00     0.014 A 
ATOM      9  C   UNL A   1      38.170  29.930  27.978  1.00  0.00     0.010 A 
ATOM     10  C   UNL A   1      37.000  29.200  29.969  1.00  0.00     0.010 A 
ATOM     11  C   UNL A   1      38.188  29.292  29.227  1.00  0.00    -0.014 A 
BRANCH  11  12
ATOM     12  C   UNL A   1      39.458  28.763  29.778  1.00  0.00     0.031 A 
ATOM     13  C   UNL A   1      40.101  29.401  30.974  1.00  0.00     0.074 A 
ATOM     14  C   UNL A   1      40.050  27.719  29.170  1.00  0.00     0.049 A 
ATOM     15  N   UNL A   1      41.245  29.118  31.545  1.00  0.00    -0.248 NA
ATOM     16  C   UNL A   1      39.370  30.508  31.608  1.00  0.00     0.031 C 
ATOM     17  C   UNL A   1      39.530  27.026  27.991  1.00  0.00     0.029 A 
ATOM     18  N   UNL A   1      41.223  27.068  29.451  1.00  0.00    -0.354 N 
ATOM     19  C   UNL A   1      41.383  30.025  32.587  1.00  0.00     0.074 A 
ATOM     20  C   UNL A   1      40.214  30.879  32.561  1.00  0.00     0.031 C 
ATOM     21  C   UNL A   1      40.378  26.044  27.650  1.00  0.00     0.029 A 
ATOM     22  C   UNL A   1      41.521  26.070  28.557  1.00  0.00     0.049 A 
ATOM     23  H   UNL A   1      41.797  27.294  30.219  1.00  0.00     0.167 HD
ATOM     24  C   UNL A   1      42.392  30.132  33.485  1.00  0.00     0.037 A 
ATOM     25  C   UNL A   1      42.607  25.281  28.458  1.00  0.00     0.037 A 
ATOM     26  C   UNL A   1      43.542  29.268  33.522  1.00  0.00     0.049 A 
ATOM     27  C   UNL A   1      43.718  25.425  29.454  1.00  0.00     0.074 A 
ATOM     28  C   UNL A   1      44.585  29.257  34.432  1.00  0.00     0.029 A 
ATOM     29  N   UNL A   1      43.806  28.264  32.601  1.00  0.00    -0.354 N 
ATOM     30  N   UNL A   1      43.815  26.258  30.462  1.00  0.00    -0.248 NA
ATOM     31  C   UNL A   1      44.869  24.526  29.300  1.00  0.00     0.031 C 
ATOM     32  C   UNL A   1      45.498  28.271  34.040  1.00  0.00     0.029 A 
ATOM     33  C   UNL A   1      45.006  27.645  32.906  1.00  0.00     0.049 A 
ATOM     34  H   UNL A   1      43.224  28.028  31.842  1.00  0.00     0.167 HD
ATOM     35  C   UNL A   1      45.029  25.977  31.070  1.00  0.00     0.074 A 
ATOM     36  C   UNL A   1      45.631  24.890  30.324  1.00  0.00     0.031 C 
ATOM     37  C   UNL A   1      45.593  26.567  32.152  1.00  0.00     0.037 A 
BRANCH  24  38
ATOM     38  C   UNL A   1      42.303  31.239  34.493  1.00  0.00     0.057 A 
ATOM     39  C   UNL A   1      41.673  31.065  35.730  1.00  0.00     0.134 A 
ATOM     40  C   UNL A   1      42.883  32.487  34.231  1.00  0.00     0.134 A 
ATOM     41  F   UNL A   1      41.088  29.897  36.037  1.00  0.00    -0.206 F 
ATOM     42  C   UNL A   1      41.600  32.101  36.664  1.00  0.00     0.040 A 
ATOM     43  C   UNL A   1      42.834  33.524  35.164  1.00  0.00     0.040 A 
ATOM     44  F   UNL A   1      43.507  32.717  33.066  1.00  0.00    -0.206 F 
ATOM     45  C   UNL A   1      42.187  33.333  36.382  1.00  0.00     0.006 A 
ENDBRANCH  24  38
BRANCH  25  46
ATOM     46  C   UNL A   1      42.682  24.296  27.354  1.00  0.00     0.057 A 
ATOM     47  C   UNL A   1      43.245  24.634  26.120  1.00  0.00     0.134 A 
ATOM     48  C   UNL A   1      42.248  22.977  27.532  1.00  0.00     0.134 A 
ATOM     49  F   UNL A   1      43.666  25.886  25.890  1.00  0.00    -0.206 F 
ATOM     50  C   UNL A   1      43.377  23.692  25.099  1.00  0.00     0.040 A 
ATOM     51  C   UNL A   1      42.392  22.020  26.527  1.00  0.00     0.040 A 
ATOM     52  F   UNL A   1      41.709  22.593  28.698  1.00  0.00    -0.206 F 
ATOM     53  C   UNL A   1      42.958  22.379  25.305  1.00  0.00     0.006 A 
ENDBRANCH  25  46
BRANCH  37  54
ATOM     54  C   UNL A   1      46.920  26.041  32.604  1.00  0.00     0.057 A 
ATOM     55  C   UNL A   1      48.122  26.584  32.135  1.00  0.00     0.134 A 
ATOM     56  C   UNL A   1      46.995  25.018  33.557  1.00  0.00     0.134 A 
ATOM     57  F   UNL A   1      48.113  27.557  31.212  1.00  0.00    -0.206 F 
ATOM     58  C   UNL A   1      49.356  26.121  32.594  1.00  0.00     0.040 A 
ATOM     59  C   UNL A   1      48.222  24.559  34.036  1.00  0.00     0.040 A 
ATOM     60  F   UNL A   1      45.878  24.460  34.047  1.00  0.00    -0.206 F 
ATOM     61  C   UNL A   1      49.407  25.110  33.552  1.00  0.00     0.006 A 
ENDBRANCH  37  54
ENDBRANCH  11  12
ENDBRANCH   4   6
ENDBRANCH   1   2
BRANCH   1  62
ATOM     62  C   UNL A   1      34.396  34.483  28.196  1.00  0.00     0.023 C 
BRANCH  62  63
ATOM     63  C   UNL A   1      33.181  35.200  28.784  1.00  0.00     0.023 C 
BRANCH  63  64
ATOM     64  C   UNL A   1      33.489  36.439  29.622  1.00  0.00     0.116 C 
BRANCH  64  65
ATOM     65  N   UNL A   1      32.511  36.659  30.671  1.00  0.00    -0.351 N 
ATOM     66  C   UNL A   1      32.429  36.083  31.918  1.00  0.00     0.271 C 
ATOM     67  H   UNL A   1      31.806  37.312  30.460  1.00  0.00     0.163 HD
ATOM     68  O   UNL A   1      31.424  36.301  32.595  1.00  0.00    -0.267 OA
BRANCH  66  69
ATOM     69  C   UNL A   1      33.531  35.247  32.384  1.00  0.00     0.147 A 
ATOM     70  C   UNL A   1      34.595  35.636  33.182  1.00  0.00     0.127 A 
ATOM     71  N   UNL A   1      33.638  33.899  32.082  1.00  0.00    -0.223 NA
ATOM     72  N   UNL A   1      35.397  34.534  33.303  1.00  0.00    -0.306 N 
ATOM     73  C   UNL A   1      34.762  33.496  32.631  1.00  0.00     0.137 A 
ATOM     74  C   UNL A   1      36.628  34.402  33.940  1.00  0.00     0.093 A 
ATOM     75  C   UNL A   1      35.414  32.231  32.629  1.00  0.00     0.048 A 
ATOM     76  C   UNL A   1      37.251  33.211  33.917  1.00  0.00     0.018 A 
ATOM     77  C   UNL A   1      36.606  32.093  33.241  1.00  0.00     0.005 A 
ENDBRANCH  66  69
ENDBRANCH  64  65
ENDBRANCH  63  64
ENDBRANCH  62  63
ENDBRANCH   1  62
TORSDOF 11
ENDMDL
