MODEL 1
REMARK VINA RESULT:      -9.9      0.000      0.000
REMARK SMILES CC(C)Oc1ccc(-c2ccc(/C(=C\c3ccc(S(C)(=O)=O)cc3)C(=O)NCCCCNC(=O)c3ccc(-c4c5nc(c(-c6c(F)cccc6F)c6ccc([nH]6)c(-c6c(F)cccc6F)c6nc(c(-c7c(F)cccc7F)c7ccc4[nH]7)C=C6)C=C5)cc3)cc2)cc1
REMARK SMILES IDX 28 1 27 2 25 3 26 4 13 6 14 7 12 8 9 9 10 10 90 11 11 12
REMARK SMILES IDX 89 13 8 14 5 15 6 16 92 17 7 18 91 19 4 20 2 21 1 22 3 23
REMARK SMILES IDX 15 24 16 25 24 26 17 27 23 28 18 29 19 30 20 31 21 32 22 33
REMARK SMILES IDX 29 34 30 35 31 36 32 37 33 38 34 40 35 41 36 42 88 43 37 44
REMARK SMILES IDX 87 45 38 46 39 47 40 48 81 49 41 50 86 51 80 52 82 53 42 54
REMARK SMILES IDX 85 55 79 56 78 57 43 59 69 60 52 61 68 62 53 63 56 64 67 65
REMARK SMILES IDX 83 66 54 67 55 68 66 70 84 71 57 72 44 73 45 74 50 75 46 76
REMARK SMILES IDX 47 77 49 78 51 79 48 80 70 81 71 82 76 83 72 84 73 85 75 86
REMARK SMILES IDX 77 87 74 88 58 89 59 90 64 91 60 92 61 93 63 94 65 95 62 96
REMARK H PARENT 27 5 32 39 82 58 56 69
REMARK Flexibility Score: inf
ROOT
ATOM      1  C   UNL A   1      35.334  33.616  32.082  1.00  0.00     0.116 C 
ENDROOT
BRANCH   1   2
ATOM      2  N   UNL A   1      36.554  34.234  31.606  1.00  0.00    -0.352 N 
ATOM      3  C   UNL A   1      37.814  34.372  32.101  1.00  0.00     0.251 C 
ATOM      4  O   UNL A   1      38.572  35.010  31.366  1.00  0.00    -0.269 OA
ATOM      5  H   UNL A   1      36.446  34.652  30.721  1.00  0.00     0.163 HD
BRANCH   3   6
ATOM      6  C   UNL A   1      38.302  33.742  33.403  1.00  0.00     0.047 C 
ATOM      7  C   UNL A   1      38.070  34.393  34.569  1.00  0.00     0.022 C 
BRANCH   6   8
ATOM      8  C   UNL A   1      39.196  32.525  33.354  1.00  0.00    -0.013 A 
ATOM      9  C   UNL A   1      40.820  30.199  33.850  1.00  0.00    -0.018 A 
ATOM     10  C   UNL A   1      39.493  30.093  33.415  1.00  0.00     0.009 A 
ATOM     11  C   UNL A   1      41.356  31.492  33.886  1.00  0.00     0.009 A 
ATOM     12  C   UNL A   1      38.719  31.229  33.119  1.00  0.00     0.009 A 
ATOM     13  C   UNL A   1      40.556  32.624  33.679  1.00  0.00     0.009 A 
BRANCH   9  14
ATOM     14  C   UNL A   1      41.592  29.025  34.326  1.00  0.00    -0.018 A 
ATOM     15  C   UNL A   1      42.913  26.701  35.273  1.00  0.00     0.119 A 
ATOM     16  C   UNL A   1      42.844  26.963  33.909  1.00  0.00     0.047 A 
ATOM     17  C   UNL A   1      42.385  27.615  36.173  1.00  0.00     0.047 A 
ATOM     18  C   UNL A   1      42.190  28.112  33.441  1.00  0.00     0.012 A 
ATOM     19  C   UNL A   1      41.714  28.748  35.702  1.00  0.00     0.012 A 
BRANCH  15  20
ATOM     20  O   UNL A   1      43.601  25.593  35.670  1.00  0.00    -0.491 OA
BRANCH  20  21
ATOM     21  C   UNL A   1      42.895  24.340  35.677  1.00  0.00     0.167 C 
ATOM     22  C   UNL A   1      41.392  24.506  35.889  1.00  0.00     0.052 C 
ATOM     23  C   UNL A   1      43.219  23.418  34.501  1.00  0.00     0.052 C 
ENDBRANCH  20  21
ENDBRANCH  15  20
ENDBRANCH   9  14
ENDBRANCH   6   8
BRANCH   7  24
ATOM     24  C   UNL A   1      38.256  33.918  35.948  1.00  0.00    -0.025 A 
ATOM     25  C   UNL A   1      39.165  34.622  36.758  1.00  0.00     0.009 A 
ATOM     26  C   UNL A   1      37.498  32.880  36.493  1.00  0.00     0.009 A 
ATOM     27  C   UNL A   1      39.255  34.347  38.121  1.00  0.00     0.021 A 
ATOM     28  C   UNL A   1      37.587  32.597  37.861  1.00  0.00     0.021 A 
ATOM     29  C   UNL A   1      38.451  33.345  38.669  1.00  0.00     0.067 A 
BRANCH  29  30
ATOM     30  S   UNL A   1      38.428  33.137  40.434  1.00  0.00     0.175 S 
ATOM     31  C   UNL A   1      36.751  33.481  40.887  1.00  0.00     0.163 C 
ATOM     32  O   UNL A   1      38.691  31.736  40.697  1.00  0.00    -0.224 OA
ATOM     33  O   UNL A   1      39.267  34.172  41.012  1.00  0.00    -0.224 OA
ENDBRANCH  29  30
ENDBRANCH   7  24
ENDBRANCH   3   6
ENDBRANCH   1   2
BRANCH   1  34
ATOM     34  C   UNL A   1      34.780  32.649  31.030  1.00  0.00     0.023 C 
BRANCH  34  35
ATOM     35  C   UNL A   1      34.448  33.304  29.686  1.00  0.00     0.023 C 
BRANCH  35  36
ATOM     36  C   UNL A   1      35.008  32.583  28.469  1.00  0.00     0.116 C 
BRANCH  36  37
ATOM     37  N   UNL A   1      34.293  31.356  28.150  1.00  0.00    -0.352 N 
ATOM     38  C   UNL A   1      34.801  30.083  28.050  1.00  0.00     0.251 C 
ATOM     39  H   UNL A   1      33.327  31.448  27.986  1.00  0.00     0.163 HD
ATOM     40  O   UNL A   1      34.103  29.151  27.671  1.00  0.00    -0.269 OA
BRANCH  38  41
ATOM     41  C   UNL A   1      36.225  29.872  28.373  1.00  0.00     0.039 A 
ATOM     42  C   UNL A   1      36.571  29.421  29.648  1.00  0.00     0.014 A 
ATOM     43  C   UNL A   1      37.196  30.040  27.383  1.00  0.00     0.014 A 
ATOM     44  C   UNL A   1      37.894  29.066  29.911  1.00  0.00     0.010 A 
ATOM     45  C   UNL A   1      38.496  29.620  27.626  1.00  0.00     0.010 A 
ATOM     46  C   UNL A   1      38.856  29.125  28.890  1.00  0.00    -0.014 A 
BRANCH  46  47
ATOM     47  C   UNL A   1      40.255  28.685  29.107  1.00  0.00     0.031 A 
ATOM     48  C   UNL A   1      41.257  29.657  29.661  1.00  0.00     0.074 A 
ATOM     49  C   UNL A   1      40.642  27.456  28.716  1.00  0.00     0.049 A 
ATOM     50  N   UNL A   1      42.554  29.531  29.781  1.00  0.00    -0.248 NA
ATOM     51  C   UNL A   1      40.733  30.959  30.106  1.00  0.00     0.031 C 
ATOM     52  C   UNL A   1      39.768  26.434  28.136  1.00  0.00     0.029 A 
ATOM     53  N   UNL A   1      41.881  26.865  28.727  1.00  0.00    -0.354 N 
ATOM     54  C   UNL A   1      43.001  30.742  30.293  1.00  0.00     0.074 A 
ATOM     55  C   UNL A   1      41.847  31.607  30.413  1.00  0.00     0.031 C 
ATOM     56  C   UNL A   1      40.495  25.341  27.856  1.00  0.00     0.029 A 
ATOM     57  C   UNL A   1      41.892  25.599  28.193  1.00  0.00     0.049 A 
ATOM     58  H   UNL A   1      42.686  27.307  29.083  1.00  0.00     0.167 HD
ATOM     59  C   UNL A   1      44.258  31.094  30.648  1.00  0.00     0.037 A 
ATOM     60  C   UNL A   1      42.917  24.751  27.982  1.00  0.00     0.037 A 
ATOM     61  C   UNL A   1      45.396  30.220  30.550  1.00  0.00     0.049 A 
ATOM     62  C   UNL A   1      44.309  25.173  28.367  1.00  0.00     0.074 A 
ATOM     63  C   UNL A   1      46.703  30.462  30.935  1.00  0.00     0.029 A 
ATOM     64  N   UNL A   1      45.361  28.936  30.031  1.00  0.00    -0.354 N 
ATOM     65  N   UNL A   1      44.713  26.300  28.901  1.00  0.00    -0.248 NA
ATOM     66  C   UNL A   1      45.389  24.206  28.121  1.00  0.00     0.031 C 
ATOM     67  C   UNL A   1      47.468  29.339  30.607  1.00  0.00     0.029 A 
ATOM     68  C   UNL A   1      46.628  28.379  30.067  1.00  0.00     0.049 A 
ATOM     69  H   UNL A   1      44.555  28.487  29.687  1.00  0.00     0.167 HD
ATOM     70  C   UNL A   1      46.082  26.165  29.089  1.00  0.00     0.074 A 
ATOM     71  C   UNL A   1      46.441  24.846  28.613  1.00  0.00     0.031 C 
ATOM     72  C   UNL A   1      46.961  27.052  29.613  1.00  0.00     0.037 A 
BRANCH  59  73
ATOM     73  C   UNL A   1      44.465  32.485  31.174  1.00  0.00     0.057 A 
ATOM     74  C   UNL A   1      44.536  32.752  32.548  1.00  0.00     0.134 A 
ATOM     75  C   UNL A   1      44.622  33.565  30.296  1.00  0.00     0.134 A 
ATOM     76  F   UNL A   1      44.380  31.765  33.442  1.00  0.00    -0.206 F 
ATOM     77  C   UNL A   1      44.726  34.049  33.030  1.00  0.00     0.040 A 
ATOM     78  C   UNL A   1      44.842  34.861  30.766  1.00  0.00     0.040 A 
ATOM     79  F   UNL A   1      44.570  33.377  28.969  1.00  0.00    -0.206 F 
ATOM     80  C   UNL A   1      44.887  35.106  32.137  1.00  0.00     0.006 A 
ENDBRANCH  59  73
BRANCH  60  81
ATOM     81  C   UNL A   1      42.667  23.414  27.389  1.00  0.00     0.057 A 
ATOM     82  C   UNL A   1      42.310  22.324  28.194  1.00  0.00     0.134 A 
ATOM     83  C   UNL A   1      42.784  23.185  26.013  1.00  0.00     0.134 A 
ATOM     84  F   UNL A   1      42.199  22.476  29.522  1.00  0.00    -0.206 F 
ATOM     85  C   UNL A   1      42.097  21.055  27.654  1.00  0.00     0.040 A 
ATOM     86  C   UNL A   1      42.549  21.926  25.457  1.00  0.00     0.040 A 
ATOM     87  F   UNL A   1      43.115  24.188  25.186  1.00  0.00    -0.206 F 
ATOM     88  C   UNL A   1      42.212  20.854  26.280  1.00  0.00     0.006 A 
ENDBRANCH  60  81
BRANCH  72  89
ATOM     89  C   UNL A   1      48.388  26.615  29.757  1.00  0.00     0.057 A 
ATOM     90  C   UNL A   1      49.341  26.849  28.760  1.00  0.00     0.134 A 
ATOM     91  C   UNL A   1      48.828  26.023  30.950  1.00  0.00     0.134 A 
ATOM     92  F   UNL A   1      48.981  27.401  27.591  1.00  0.00    -0.206 F 
ATOM     93  C   UNL A   1      50.682  26.503  28.940  1.00  0.00     0.040 A 
ATOM     94  C   UNL A   1      50.169  25.697  31.151  1.00  0.00     0.040 A 
ATOM     95  F   UNL A   1      47.965  25.781  31.948  1.00  0.00    -0.206 F 
ATOM     96  C   UNL A   1      51.100  25.936  30.142  1.00  0.00     0.006 A 
ENDBRANCH  72  89
ENDBRANCH  46  47
ENDBRANCH  38  41
ENDBRANCH  36  37
ENDBRANCH  35  36
ENDBRANCH  34  35
ENDBRANCH   1  34
TORSDOF 17
ENDMDL
MODEL 2
REMARK VINA RESULT:      -9.9      4.864      8.926
REMARK SMILES CC(C)Oc1ccc(-c2ccc(/C(=C\c3ccc(S(C)(=O)=O)cc3)C(=O)NCCCCNC(=O)c3ccc(-c4c5nc(c(-c6c(F)cccc6F)c6ccc([nH]6)c(-c6c(F)cccc6F)c6nc(c(-c7c(F)cccc7F)c7ccc4[nH]7)C=C6)C=C5)cc3)cc2)cc1
REMARK SMILES IDX 28 1 27 2 25 3 26 4 13 6 14 7 12 8 9 9 10 10 90 11 11 12
REMARK SMILES IDX 89 13 8 14 5 15 6 16 92 17 7 18 91 19 4 20 2 21 1 22 3 23
REMARK SMILES IDX 15 24 16 25 24 26 17 27 23 28 18 29 19 30 20 31 21 32 22 33
REMARK SMILES IDX 29 34 30 35 31 36 32 37 33 38 34 40 35 41 36 42 88 43 37 44
REMARK SMILES IDX 87 45 38 46 39 47 40 48 81 49 41 50 86 51 80 52 82 53 42 54
REMARK SMILES IDX 85 55 79 56 78 57 43 59 69 60 52 61 68 62 53 63 56 64 67 65
REMARK SMILES IDX 83 66 54 67 55 68 66 70 84 71 57 72 44 73 45 74 50 75 46 76
REMARK SMILES IDX 47 77 49 78 51 79 48 80 70 81 71 82 76 83 72 84 73 85 75 86
REMARK SMILES IDX 77 87 74 88 58 89 59 90 64 91 60 92 61 93 63 94 65 95 62 96
REMARK H PARENT 27 5 32 39 82 58 56 69
REMARK Flexibility Score: inf
ROOT
ATOM      1  C   UNL A   1      34.210  32.060  28.003  1.00  0.00     0.116 C 
ENDROOT
BRANCH   1   2
ATOM      2  N   UNL A   1      34.989  30.849  27.847  1.00  0.00    -0.352 N 
ATOM      3  C   UNL A   1      34.779  29.646  27.247  1.00  0.00     0.251 C 
ATOM      4  O   UNL A   1      35.717  28.856  27.370  1.00  0.00    -0.269 OA
ATOM      5  H   UNL A   1      35.875  30.911  28.273  1.00  0.00     0.163 HD
BRANCH   3   6
ATOM      6  C   UNL A   1      33.540  29.299  26.425  1.00  0.00     0.047 C 
ATOM      7  C   UNL A   1      32.574  30.237  26.272  1.00  0.00     0.022 C 
BRANCH   6   8
ATOM      8  C   UNL A   1      33.322  27.874  25.972  1.00  0.00    -0.013 A 
ATOM      9  C   UNL A   1      33.417  25.053  25.396  1.00  0.00    -0.018 A 
ATOM     10  C   UNL A   1      32.642  25.567  26.444  1.00  0.00     0.009 A 
ATOM     11  C   UNL A   1      34.020  25.996  24.556  1.00  0.00     0.009 A 
ATOM     12  C   UNL A   1      32.553  26.948  26.689  1.00  0.00     0.009 A 
ATOM     13  C   UNL A   1      34.003  27.365  24.858  1.00  0.00     0.009 A 
BRANCH   9  14
ATOM     14  C   UNL A   1      33.657  23.599  25.230  1.00  0.00    -0.018 A 
ATOM     15  C   UNL A   1      33.962  20.790  24.994  1.00  0.00     0.119 A 
ATOM     16  C   UNL A   1      33.609  21.553  23.887  1.00  0.00     0.047 A 
ATOM     17  C   UNL A   1      34.226  21.418  26.202  1.00  0.00     0.047 A 
ATOM     18  C   UNL A   1      33.457  22.942  24.003  1.00  0.00     0.012 A 
ATOM     19  C   UNL A   1      34.052  22.800  26.321  1.00  0.00     0.012 A 
BRANCH  15  20
ATOM     20  O   UNL A   1      34.140  19.450  24.809  1.00  0.00    -0.491 OA
BRANCH  20  21
ATOM     21  C   UNL A   1      32.963  18.646  24.610  1.00  0.00     0.167 C 
ATOM     22  C   UNL A   1      32.937  17.960  23.246  1.00  0.00     0.052 C 
ATOM     23  C   UNL A   1      32.649  17.681  25.754  1.00  0.00     0.052 C 
ENDBRANCH  20  21
ENDBRANCH  15  20
ENDBRANCH   9  14
ENDBRANCH   6   8
BRANCH   7  24
ATOM     24  C   UNL A   1      31.403  30.224  25.384  1.00  0.00    -0.025 A 
ATOM     25  C   UNL A   1      30.635  31.400  25.309  1.00  0.00     0.009 A 
ATOM     26  C   UNL A   1      31.100  29.141  24.556  1.00  0.00     0.009 A 
ATOM     27  C   UNL A   1      29.626  31.524  24.355  1.00  0.00     0.021 A 
ATOM     28  C   UNL A   1      30.085  29.259  23.599  1.00  0.00     0.021 A 
ATOM     29  C   UNL A   1      29.368  30.457  23.493  1.00  0.00     0.067 A 
BRANCH  29  30
ATOM     30  S   UNL A   1      28.220  30.695  22.156  1.00  0.00     0.175 S 
ATOM     31  C   UNL A   1      28.170  32.451  21.938  1.00  0.00     0.163 C 
ATOM     32  O   UNL A   1      28.820  30.107  20.975  1.00  0.00    -0.224 OA
ATOM     33  O   UNL A   1      26.911  30.266  22.617  1.00  0.00    -0.224 OA
ENDBRANCH  29  30
ENDBRANCH   7  24
ENDBRANCH   3   6
ENDBRANCH   1   2
BRANCH   1  34
ATOM     34  C   UNL A   1      35.128  33.288  28.020  1.00  0.00     0.023 C 
BRANCH  34  35
ATOM     35  C   UNL A   1      34.968  34.177  29.257  1.00  0.00     0.023 C 
BRANCH  35  36
ATOM     36  C   UNL A   1      36.104  34.078  30.265  1.00  0.00     0.116 C 
BRANCH  36  37
ATOM     37  N   UNL A   1      35.671  33.608  31.573  1.00  0.00    -0.352 N 
ATOM     38  C   UNL A   1      36.127  32.515  32.271  1.00  0.00     0.251 C 
ATOM     39  H   UNL A   1      34.966  34.136  32.011  1.00  0.00     0.163 HD
ATOM     40  O   UNL A   1      35.601  32.172  33.322  1.00  0.00    -0.269 OA
BRANCH  38  41
ATOM     41  C   UNL A   1      37.245  31.739  31.702  1.00  0.00     0.039 A 
ATOM     42  C   UNL A   1      37.168  31.314  30.375  1.00  0.00     0.014 A 
ATOM     43  C   UNL A   1      38.394  31.513  32.463  1.00  0.00     0.014 A 
ATOM     44  C   UNL A   1      38.283  30.721  29.782  1.00  0.00     0.010 A 
ATOM     45  C   UNL A   1      39.523  30.988  31.851  1.00  0.00     0.010 A 
ATOM     46  C   UNL A   1      39.480  30.592  30.504  1.00  0.00    -0.014 A 
BRANCH  46  47
ATOM     47  C   UNL A   1      40.709  30.038  29.887  1.00  0.00     0.031 A 
ATOM     48  C   UNL A   1      41.876  30.945  29.626  1.00  0.00     0.074 A 
ATOM     49  C   UNL A   1      40.736  28.755  29.476  1.00  0.00     0.049 A 
ATOM     50  N   UNL A   1      42.978  30.706  28.961  1.00  0.00    -0.248 NA
ATOM     51  C   UNL A   1      41.776  32.315  30.154  1.00  0.00     0.031 C 
ATOM     52  C   UNL A   1      39.652  27.786  29.646  1.00  0.00     0.029 A 
ATOM     53  N   UNL A   1      41.708  28.054  28.808  1.00  0.00    -0.354 N 
ATOM     54  C   UNL A   1      43.687  31.900  28.971  1.00  0.00     0.074 A 
ATOM     55  C   UNL A   1      42.872  32.874  29.664  1.00  0.00     0.031 C 
ATOM     56  C   UNL A   1      40.023  26.613  29.105  1.00  0.00     0.029 A 
ATOM     57  C   UNL A   1      41.348  26.761  28.512  1.00  0.00     0.049 A 
ATOM     58  H   UNL A   1      42.580  28.440  28.563  1.00  0.00     0.167 HD
ATOM     59  C   UNL A   1      44.916  32.155  28.465  1.00  0.00     0.037 A 
ATOM     60  C   UNL A   1      42.006  25.809  27.821  1.00  0.00     0.037 A 
ATOM     61  C   UNL A   1      45.731  31.174  27.800  1.00  0.00     0.049 A 
ATOM     62  C   UNL A   1      43.363  26.123  27.251  1.00  0.00     0.074 A 
ATOM     63  C   UNL A   1      47.013  31.316  27.300  1.00  0.00     0.029 A 
ATOM     64  N   UNL A   1      45.343  29.868  27.545  1.00  0.00    -0.354 N 
ATOM     65  N   UNL A   1      44.047  27.239  27.315  1.00  0.00    -0.248 NA
ATOM     66  C   UNL A   1      44.039  25.046  26.514  1.00  0.00     0.031 C 
ATOM     67  C   UNL A   1      47.384  30.108  26.702  1.00  0.00     0.029 A 
ATOM     68  C   UNL A   1      46.353  29.199  26.876  1.00  0.00     0.049 A 
ATOM     69  H   UNL A   1      44.477  29.476  27.801  1.00  0.00     0.167 HD
ATOM     70  C   UNL A   1      45.247  26.989  26.661  1.00  0.00     0.074 A 
ATOM     71  C   UNL A   1      45.197  25.614  26.209  1.00  0.00     0.031 C 
ATOM     72  C   UNL A   1      46.296  27.821  26.457  1.00  0.00     0.037 A 
BRANCH  59  73
ATOM     73  C   UNL A   1      45.449  33.550  28.612  1.00  0.00     0.057 A 
ATOM     74  C   UNL A   1      46.247  33.926  29.701  1.00  0.00     0.134 A 
ATOM     75  C   UNL A   1      45.184  34.522  27.639  1.00  0.00     0.134 A 
ATOM     76  F   UNL A   1      46.527  33.046  30.674  1.00  0.00    -0.206 F 
ATOM     77  C   UNL A   1      46.737  35.226  29.832  1.00  0.00     0.040 A 
ATOM     78  C   UNL A   1      45.693  35.818  27.744  1.00  0.00     0.040 A 
ATOM     79  F   UNL A   1      44.432  34.228  26.568  1.00  0.00    -0.206 F 
ATOM     80  C   UNL A   1      46.466  36.174  28.847  1.00  0.00     0.006 A 
ENDBRANCH  59  73
BRANCH  60  81
ATOM     81  C   UNL A   1      41.399  24.466  27.642  1.00  0.00     0.057 A 
ATOM     82  C   UNL A   1      41.817  23.378  28.418  1.00  0.00     0.134 A 
ATOM     83  C   UNL A   1      40.400  24.232  26.691  1.00  0.00     0.134 A 
ATOM     84  F   UNL A   1      42.785  23.536  29.334  1.00  0.00    -0.206 F 
ATOM     85  C   UNL A   1      41.276  22.104  28.243  1.00  0.00     0.040 A 
ATOM     86  C   UNL A   1      39.831  22.968  26.523  1.00  0.00     0.040 A 
ATOM     87  F   UNL A   1      39.949  25.234  25.921  1.00  0.00    -0.206 F 
ATOM     88  C   UNL A   1      40.275  21.897  27.296  1.00  0.00     0.006 A 
ENDBRANCH  60  81
BRANCH  72  89
ATOM     89  C   UNL A   1      47.504  27.262  25.766  1.00  0.00     0.057 A 
ATOM     90  C   UNL A   1      47.708  27.413  24.390  1.00  0.00     0.134 A 
ATOM     91  C   UNL A   1      48.515  26.636  26.508  1.00  0.00     0.134 A 
ATOM     92  F   UNL A   1      46.772  27.992  23.623  1.00  0.00    -0.206 F 
ATOM     93  C   UNL A   1      48.872  26.952  23.773  1.00  0.00     0.040 A 
ATOM     94  C   UNL A   1      49.694  26.195  25.907  1.00  0.00     0.040 A 
ATOM     95  F   UNL A   1      48.384  26.470  27.833  1.00  0.00    -0.206 F 
ATOM     96  C   UNL A   1      49.873  26.352  24.535  1.00  0.00     0.006 A 
ENDBRANCH  72  89
ENDBRANCH  46  47
ENDBRANCH  38  41
ENDBRANCH  36  37
ENDBRANCH  35  36
ENDBRANCH  34  35
ENDBRANCH   1  34
TORSDOF 17
ENDMDL
MODEL 3
REMARK VINA RESULT:      -9.8      5.065     10.298
REMARK SMILES CC(C)Oc1ccc(-c2ccc(/C(=C\c3ccc(S(C)(=O)=O)cc3)C(=O)NCCCCNC(=O)c3ccc(-c4c5nc(c(-c6c(F)cccc6F)c6ccc([nH]6)c(-c6c(F)cccc6F)c6nc(c(-c7c(F)cccc7F)c7ccc4[nH]7)C=C6)C=C5)cc3)cc2)cc1
REMARK SMILES IDX 28 1 27 2 25 3 26 4 13 6 14 7 12 8 9 9 10 10 90 11 11 12
REMARK SMILES IDX 89 13 8 14 5 15 6 16 92 17 7 18 91 19 4 20 2 21 1 22 3 23
REMARK SMILES IDX 15 24 16 25 24 26 17 27 23 28 18 29 19 30 20 31 21 32 22 33
REMARK SMILES IDX 29 34 30 35 31 36 32 37 33 38 34 40 35 41 36 42 88 43 37 44
REMARK SMILES IDX 87 45 38 46 39 47 40 48 81 49 41 50 86 51 80 52 82 53 42 54
REMARK SMILES IDX 85 55 79 56 78 57 43 59 69 60 52 61 68 62 53 63 56 64 67 65
REMARK SMILES IDX 83 66 54 67 55 68 66 70 84 71 57 72 44 73 45 74 50 75 46 76
REMARK SMILES IDX 47 77 49 78 51 79 48 80 70 81 71 82 76 83 72 84 73 85 75 86
REMARK SMILES IDX 77 87 74 88 58 89 59 90 64 91 60 92 61 93 63 94 65 95 62 96
REMARK H PARENT 27 5 32 39 82 58 56 69
REMARK Flexibility Score: inf
ROOT
ATOM      1  C   UNL A   1      33.700  33.714  27.831  1.00  0.00     0.116 C 
ENDROOT
BRANCH   1   2
ATOM      2  N   UNL A   1      34.509  32.563  28.175  1.00  0.00    -0.352 N 
ATOM      3  C   UNL A   1      34.415  31.225  27.950  1.00  0.00     0.251 C 
ATOM      4  O   UNL A   1      35.330  30.568  28.452  1.00  0.00    -0.269 OA
ATOM      5  H   UNL A   1      35.312  32.806  28.692  1.00  0.00     0.163 HD
BRANCH   3   6
ATOM      6  C   UNL A   1      33.333  30.570  27.096  1.00  0.00     0.047 C 
ATOM      7  C   UNL A   1      32.297  31.327  26.660  1.00  0.00     0.022 C 
BRANCH   6   8
ATOM      8  C   UNL A   1      33.329  29.068  26.921  1.00  0.00    -0.013 A 
ATOM      9  C   UNL A   1      32.922  26.320  26.161  1.00  0.00    -0.018 A 
ATOM     10  C   UNL A   1      34.012  27.062  25.690  1.00  0.00     0.009 A 
ATOM     11  C   UNL A   1      32.129  26.940  27.134  1.00  0.00     0.009 A 
ATOM     12  C   UNL A   1      34.240  28.386  26.106  1.00  0.00     0.009 A 
ATOM     13  C   UNL A   1      32.306  28.287  27.476  1.00  0.00     0.009 A 
BRANCH   9  14
ATOM     14  C   UNL A   1      32.572  24.990  25.606  1.00  0.00    -0.018 A 
ATOM     15  C   UNL A   1      32.054  22.383  24.617  1.00  0.00     0.119 A 
ATOM     16  C   UNL A   1      31.338  22.878  25.701  1.00  0.00     0.047 A 
ATOM     17  C   UNL A   1      32.983  23.195  23.982  1.00  0.00     0.047 A 
ATOM     18  C   UNL A   1      31.595  24.167  26.191  1.00  0.00     0.012 A 
ATOM     19  C   UNL A   1      33.252  24.471  24.486  1.00  0.00     0.012 A 
BRANCH  15  20
ATOM     20  O   UNL A   1      31.729  21.142  24.157  1.00  0.00    -0.491 OA
BRANCH  20  21
ATOM     21  C   UNL A   1      32.754  20.133  24.184  1.00  0.00     0.167 C 
ATOM     22  C   UNL A   1      33.209  19.786  25.600  1.00  0.00     0.052 C 
ATOM     23  C   UNL A   1      32.448  18.889  23.350  1.00  0.00     0.052 C 
ENDBRANCH  20  21
ENDBRANCH  15  20
ENDBRANCH   9  14
ENDBRANCH   6   8
BRANCH   7  24
ATOM     24  C   UNL A   1      31.254  30.994  25.680  1.00  0.00    -0.025 A 
ATOM     25  C   UNL A   1      30.285  31.977  25.406  1.00  0.00     0.009 A 
ATOM     26  C   UNL A   1      31.256  29.799  24.957  1.00  0.00     0.009 A 
ATOM     27  C   UNL A   1      29.381  31.804  24.360  1.00  0.00     0.021 A 
ATOM     28  C   UNL A   1      30.347  29.619  23.908  1.00  0.00     0.021 A 
ATOM     29  C   UNL A   1      29.428  30.630  23.605  1.00  0.00     0.067 A 
BRANCH  29  30
ATOM     30  S   UNL A   1      28.407  30.505  22.155  1.00  0.00     0.175 S 
ATOM     31  C   UNL A   1      28.251  32.176  21.590  1.00  0.00     0.163 C 
ATOM     32  O   UNL A   1      29.165  29.761  21.168  1.00  0.00    -0.224 OA
ATOM     33  O   UNL A   1      27.093  30.053  22.578  1.00  0.00    -0.224 OA
ENDBRANCH  29  30
ENDBRANCH   7  24
ENDBRANCH   3   6
ENDBRANCH   1   2
BRANCH   1  34
ATOM     34  C   UNL A   1      33.225  34.433  29.099  1.00  0.00     0.023 C 
BRANCH  34  35
ATOM     35  C   UNL A   1      32.964  35.930  28.915  1.00  0.00     0.023 C 
BRANCH  35  36
ATOM     36  C   UNL A   1      33.416  36.804  30.075  1.00  0.00     0.116 C 
BRANCH  36  37
ATOM     37  N   UNL A   1      32.520  36.746  31.221  1.00  0.00    -0.352 N 
ATOM     38  C   UNL A   1      32.629  35.954  32.340  1.00  0.00     0.251 C 
ATOM     39  H   UNL A   1      31.742  37.346  31.193  1.00  0.00     0.163 HD
ATOM     40  O   UNL A   1      31.745  35.930  33.186  1.00  0.00    -0.269 OA
BRANCH  38  41
ATOM     41  C   UNL A   1      33.824  35.099  32.477  1.00  0.00     0.039 A 
ATOM     42  C   UNL A   1      35.088  35.667  32.306  1.00  0.00     0.014 A 
ATOM     43  C   UNL A   1      33.684  33.762  32.857  1.00  0.00     0.014 A 
ATOM     44  C   UNL A   1      36.222  34.908  32.590  1.00  0.00     0.010 A 
ATOM     45  C   UNL A   1      34.811  33.032  33.207  1.00  0.00     0.010 A 
ATOM     46  C   UNL A   1      36.090  33.599  33.081  1.00  0.00    -0.014 A 
BRANCH  46  47
ATOM     47  C   UNL A   1      37.267  32.786  33.468  1.00  0.00     0.031 A 
ATOM     48  C   UNL A   1      37.982  33.087  34.753  1.00  0.00     0.074 A 
ATOM     49  C   UNL A   1      37.748  31.854  32.623  1.00  0.00     0.049 A 
ATOM     50  N   UNL A   1      39.114  32.609  35.203  1.00  0.00    -0.248 NA
ATOM     51  C   UNL A   1      37.357  34.087  35.635  1.00  0.00     0.031 C 
ATOM     52  C   UNL A   1      37.159  31.493  31.332  1.00  0.00     0.029 A 
ATOM     53  N   UNL A   1      38.859  31.053  32.716  1.00  0.00    -0.354 N 
ATOM     54  C   UNL A   1      39.347  33.265  36.405  1.00  0.00     0.074 A 
ATOM     55  C   UNL A   1      38.266  34.210  36.590  1.00  0.00     0.031 C 
ATOM     56  C   UNL A   1      37.908  30.537  30.758  1.00  0.00     0.029 A 
ATOM     57  C   UNL A   1      39.052  30.251  31.617  1.00  0.00     0.049 A 
ATOM     58  H   UNL A   1      39.460  31.054  33.495  1.00  0.00     0.167 HD
ATOM     59  C   UNL A   1      40.360  33.082  37.283  1.00  0.00     0.037 A 
ATOM     60  C   UNL A   1      40.052  29.396  31.328  1.00  0.00     0.037 A 
ATOM     61  C   UNL A   1      41.415  32.122  37.104  1.00  0.00     0.049 A 
ATOM     62  C   UNL A   1      41.178  29.224  32.312  1.00  0.00     0.074 A 
ATOM     63  C   UNL A   1      42.458  31.820  37.962  1.00  0.00     0.029 A 
ATOM     64  N   UNL A   1      41.561  31.308  35.992  1.00  0.00    -0.354 N 
ATOM     65  N   UNL A   1      41.359  29.810  33.470  1.00  0.00    -0.248 NA
ATOM     66  C   UNL A   1      42.238  28.272  31.949  1.00  0.00     0.031 C 
ATOM     67  C   UNL A   1      43.261  30.854  37.348  1.00  0.00     0.029 A 
ATOM     68  C   UNL A   1      42.688  30.518  36.131  1.00  0.00     0.049 A 
ATOM     69  H   UNL A   1      40.953  31.296  35.218  1.00  0.00     0.167 HD
ATOM     70  C   UNL A   1      42.529  29.273  33.991  1.00  0.00     0.074 A 
ATOM     71  C   UNL A   1      43.016  28.313  33.023  1.00  0.00     0.031 C 
ATOM     72  C   UNL A   1      43.142  29.548  35.167  1.00  0.00     0.037 A 
BRANCH  59  73
ATOM     73  C   UNL A   1      40.371  33.940  38.514  1.00  0.00     0.057 A 
ATOM     74  C   UNL A   1      39.710  33.556  39.689  1.00  0.00     0.134 A 
ATOM     75  C   UNL A   1      41.073  35.152  38.535  1.00  0.00     0.134 A 
ATOM     76  F   UNL A   1      39.009  32.413  39.732  1.00  0.00    -0.206 F 
ATOM     77  C   UNL A   1      39.723  34.360  40.830  1.00  0.00     0.040 A 
ATOM     78  C   UNL A   1      41.117  35.950  39.679  1.00  0.00     0.040 A 
ATOM     79  F   UNL A   1      41.731  35.576  37.446  1.00  0.00    -0.206 F 
ATOM     80  C   UNL A   1      40.435  35.558  40.829  1.00  0.00     0.006 A 
ENDBRANCH  59  73
BRANCH  60  81
ATOM     81  C   UNL A   1      40.030  28.626  30.059  1.00  0.00     0.057 A 
ATOM     82  C   UNL A   1      39.325  27.419  29.962  1.00  0.00     0.134 A 
ATOM     83  C   UNL A   1      40.713  29.066  28.920  1.00  0.00     0.134 A 
ATOM     84  F   UNL A   1      38.666  26.936  31.026  1.00  0.00    -0.206 F 
ATOM     85  C   UNL A   1      39.316  26.670  28.784  1.00  0.00     0.040 A 
ATOM     86  C   UNL A   1      40.691  28.339  27.728  1.00  0.00     0.040 A 
ATOM     87  F   UNL A   1      41.399  30.218  28.944  1.00  0.00    -0.206 F 
ATOM     88  C   UNL A   1      39.997  27.133  27.660  1.00  0.00     0.006 A 
ENDBRANCH  60  81
BRANCH  72  89
ATOM     89  C   UNL A   1      44.375  28.765  35.508  1.00  0.00     0.057 A 
ATOM     90  C   UNL A   1      45.653  29.191  35.130  1.00  0.00     0.134 A 
ATOM     91  C   UNL A   1      44.282  27.611  36.299  1.00  0.00     0.134 A 
ATOM     92  F   UNL A   1      45.807  30.281  34.363  1.00  0.00    -0.206 F 
ATOM     93  C   UNL A   1      46.797  28.491  35.519  1.00  0.00     0.040 A 
ATOM     94  C   UNL A   1      45.420  26.918  36.714  1.00  0.00     0.040 A 
ATOM     95  F   UNL A   1      43.087  27.156  36.702  1.00  0.00    -0.206 F 
ATOM     96  C   UNL A   1      46.682  27.359  36.322  1.00  0.00     0.006 A 
ENDBRANCH  72  89
ENDBRANCH  46  47
ENDBRANCH  38  41
ENDBRANCH  36  37
ENDBRANCH  35  36
ENDBRANCH  34  35
ENDBRANCH   1  34
TORSDOF 17
ENDMDL
