MODEL 1
REMARK VINA RESULT:      -8.6      0.000      0.000
REMARK SMILES CCC1(CC)CCN(c2ccc(/C=C/C(=O)NCCCCNC(=O)c3ccc(-c4c5nc(c(-c6c(F)cccc6F)c6ccc([nH]6)c(-c6c(F)cccc6F)c6nc(c(-c7c(F)cccc7F)c7ccc4[nH]7)C=C6)C=C5)cc3)cc2F)C1
REMARK SMILES IDX 19 1 18 2 17 3 15 4 16 5 14 7 13 8 12 9 9 10 10 11 80 12
REMARK SMILES IDX 11 13 79 14 81 15 8 16 3 17 6 18 82 19 7 20 2 21 1 22 4 23
REMARK SMILES IDX 5 24 20 25 21 26 22 27 23 28 24 30 25 31 26 32 78 33 27 34
REMARK SMILES IDX 77 35 28 36 29 37 30 38 71 39 31 40 76 41 70 42 72 43 32 44
REMARK SMILES IDX 75 45 69 46 68 47 33 49 59 50 42 51 58 52 43 53 46 54 57 55
REMARK SMILES IDX 73 56 44 57 45 58 56 60 74 61 47 62 34 63 35 64 40 65 36 66
REMARK SMILES IDX 37 67 39 68 41 69 38 70 60 71 61 72 66 73 62 74 63 75 65 76
REMARK SMILES IDX 67 77 64 78 48 79 49 80 54 81 50 82 51 83 53 84 55 85 52 86
REMARK H PARENT 17 6 22 29 72 48 46 59
REMARK Flexibility Score: inf
ROOT
ATOM      1  C   UNL A   1      42.528  23.121  28.834  1.00  0.00     0.023 C 
ENDROOT
BRANCH   1   2
ATOM      2  C   UNL A   1      43.960  22.997  29.360  1.00  0.00     0.116 C 
BRANCH   2   3
ATOM      3  N   UNL A   1      44.903  22.796  28.274  1.00  0.00    -0.353 N 
ATOM      4  C   UNL A   1      45.588  23.705  27.527  1.00  0.00     0.243 C 
ATOM      5  O   UNL A   1      46.425  23.321  26.714  1.00  0.00    -0.270 OA
ATOM      6  H   UNL A   1      45.073  21.855  28.041  1.00  0.00     0.163 HD
BRANCH   4   7
ATOM      7  C   UNL A   1      45.401  25.156  27.746  1.00  0.00     0.072 C 
ATOM      8  C   UNL A   1      44.786  25.966  26.874  1.00  0.00     0.014 C 
BRANCH   8   9
ATOM      9  C   UNL A   1      44.612  27.403  27.097  1.00  0.00    -0.022 A 
ATOM     10  C   UNL A   1      44.283  30.205  27.393  1.00  0.00     0.073 A 
ATOM     11  C   UNL A   1      45.398  29.543  27.925  1.00  0.00     0.029 A 
ATOM     12  C   UNL A   1      43.341  29.423  26.708  1.00  0.00     0.147 A 
ATOM     13  C   UNL A   1      45.562  28.160  27.787  1.00  0.00     0.010 A 
ATOM     14  C   UNL A   1      43.501  28.046  26.550  1.00  0.00     0.049 A 
ATOM     15  F   UNL A   1      42.276  29.998  26.126  1.00  0.00    -0.205 F 
BRANCH  10  16
ATOM     16  N   UNL A   1      44.194  31.576  27.523  1.00  0.00    -0.369 N 
ATOM     17  C   UNL A   1      44.125  33.658  28.661  1.00  0.00    -0.011 C 
ATOM     18  C   UNL A   1      45.143  33.732  27.501  1.00  0.00     0.030 C 
ATOM     19  C   UNL A   1      43.991  32.131  28.859  1.00  0.00     0.123 C 
ATOM     20  C   UNL A   1      44.894  32.496  26.638  1.00  0.00     0.117 C 
BRANCH  17  21
ATOM     21  C   UNL A   1      42.775  34.353  28.312  1.00  0.00     0.005 C 
ATOM     22  C   UNL A   1      41.998  35.026  29.437  1.00  0.00     0.004 C 
ENDBRANCH  17  21
BRANCH  17  23
ATOM     23  C   UNL A   1      44.715  34.298  29.947  1.00  0.00     0.005 C 
ATOM     24  C   UNL A   1      45.536  33.353  30.817  1.00  0.00     0.004 C 
ENDBRANCH  17  23
ENDBRANCH  10  16
ENDBRANCH   8   9
ENDBRANCH   4   7
ENDBRANCH   2   3
ENDBRANCH   1   2
BRANCH   1  25
ATOM     25  C   UNL A   1      42.148  22.080  27.777  1.00  0.00     0.023 C 
BRANCH  25  26
ATOM     26  C   UNL A   1      41.886  22.641  26.384  1.00  0.00     0.116 C 
BRANCH  26  27
ATOM     27  N   UNL A   1      40.529  22.410  25.913  1.00  0.00    -0.352 N 
ATOM     28  C   UNL A   1      39.412  23.180  26.136  1.00  0.00     0.251 C 
ATOM     29  H   UNL A   1      40.394  21.602  25.367  1.00  0.00     0.163 HD
ATOM     30  O   UNL A   1      38.310  22.809  25.757  1.00  0.00    -0.269 OA
BRANCH  28  31
ATOM     31  C   UNL A   1      39.555  24.445  26.885  1.00  0.00     0.039 A 
ATOM     32  C   UNL A   1      39.053  24.519  28.186  1.00  0.00     0.014 A 
ATOM     33  C   UNL A   1      40.221  25.534  26.317  1.00  0.00     0.014 A 
ATOM     34  C   UNL A   1      39.282  25.666  28.948  1.00  0.00     0.010 A 
ATOM     35  C   UNL A   1      40.499  26.651  27.096  1.00  0.00     0.010 A 
ATOM     36  C   UNL A   1      40.037  26.725  28.420  1.00  0.00    -0.014 A 
BRANCH  36  37
ATOM     37  C   UNL A   1      40.355  27.927  29.226  1.00  0.00     0.031 A 
ATOM     38  C   UNL A   1      41.642  27.987  29.997  1.00  0.00     0.074 A 
ATOM     39  C   UNL A   1      39.458  28.927  29.322  1.00  0.00     0.049 A 
ATOM     40  N   UNL A   1      42.047  28.882  30.861  1.00  0.00    -0.248 NA
ATOM     41  C   UNL A   1      42.591  26.881  29.786  1.00  0.00     0.031 C 
ATOM     42  C   UNL A   1      38.165  28.974  28.640  1.00  0.00     0.029 A 
ATOM     43  N   UNL A   1      39.494  30.093  30.046  1.00  0.00    -0.354 N 
ATOM     44  C   UNL A   1      43.284  28.439  31.309  1.00  0.00     0.074 A 
ATOM     45  C   UNL A   1      43.547  27.175  30.655  1.00  0.00     0.031 C 
ATOM     46  C   UNL A   1      37.542  30.121  28.957  1.00  0.00     0.029 A 
ATOM     47  C   UNL A   1      38.370  30.869  29.897  1.00  0.00     0.049 A 
ATOM     48  H   UNL A   1      40.254  30.349  30.616  1.00  0.00     0.167 HD
ATOM     49  C   UNL A   1      44.133  29.042  32.171  1.00  0.00     0.037 A 
ATOM     50  C   UNL A   1      38.044  32.047  30.462  1.00  0.00     0.037 A 
ATOM     51  C   UNL A   1      43.885  30.315  32.794  1.00  0.00     0.049 A 
ATOM     52  C   UNL A   1      39.000  32.691  31.428  1.00  0.00     0.074 A 
ATOM     53  C   UNL A   1      44.699  31.023  33.661  1.00  0.00     0.029 A 
ATOM     54  N   UNL A   1      42.741  31.075  32.605  1.00  0.00    -0.354 N 
ATOM     55  N   UNL A   1      40.174  32.269  31.831  1.00  0.00    -0.248 NA
ATOM     56  C   UNL A   1      38.587  33.972  32.020  1.00  0.00     0.031 C 
ATOM     57  C   UNL A   1      44.037  32.201  34.017  1.00  0.00     0.029 A 
ATOM     58  C   UNL A   1      42.827  32.243  33.342  1.00  0.00     0.049 A 
ATOM     59  H   UNL A   1      41.981  30.822  32.033  1.00  0.00     0.167 HD
ATOM     60  C   UNL A   1      40.652  33.243  32.696  1.00  0.00     0.074 A 
ATOM     61  C   UNL A   1      39.643  34.281  32.760  1.00  0.00     0.031 C 
ATOM     62  C   UNL A   1      41.823  33.275  33.374  1.00  0.00     0.037 A 
BRANCH  49  63
ATOM     63  C   UNL A   1      45.422  28.344  32.482  1.00  0.00     0.057 A 
ATOM     64  C   UNL A   1      46.591  28.645  31.771  1.00  0.00     0.134 A 
ATOM     65  C   UNL A   1      45.492  27.332  33.447  1.00  0.00     0.134 A 
ATOM     66  F   UNL A   1      46.589  29.601  30.830  1.00  0.00    -0.206 F 
ATOM     67  C   UNL A   1      47.782  27.955  32.003  1.00  0.00     0.040 A 
ATOM     68  C   UNL A   1      46.683  26.651  33.703  1.00  0.00     0.040 A 
ATOM     69  F   UNL A   1      44.410  27.006  34.169  1.00  0.00    -0.206 F 
ATOM     70  C   UNL A   1      47.830  26.957  32.975  1.00  0.00     0.006 A 
ENDBRANCH  49  63
BRANCH  50  71
ATOM     71  C   UNL A   1      36.767  32.710  30.104  1.00  0.00     0.057 A 
ATOM     72  C   UNL A   1      36.673  33.597  29.026  1.00  0.00     0.134 A 
ATOM     73  C   UNL A   1      35.606  32.475  30.848  1.00  0.00     0.134 A 
ATOM     74  F   UNL A   1      37.753  33.870  28.277  1.00  0.00    -0.206 F 
ATOM     75  C   UNL A   1      35.474  34.235  28.706  1.00  0.00     0.040 A 
ATOM     76  C   UNL A   1      34.394  33.089  30.529  1.00  0.00     0.040 A 
ATOM     77  F   UNL A   1      35.629  31.620  31.881  1.00  0.00    -0.206 F 
ATOM     78  C   UNL A   1      34.328  33.978  29.457  1.00  0.00     0.006 A 
ENDBRANCH  50  71
BRANCH  62  79
ATOM     79  C   UNL A   1      42.111  34.482  34.214  1.00  0.00     0.057 A 
ATOM     80  C   UNL A   1      41.717  34.520  35.559  1.00  0.00     0.134 A 
ATOM     81  C   UNL A   1      42.684  35.636  33.670  1.00  0.00     0.134 A 
ATOM     82  F   UNL A   1      41.152  33.447  36.133  1.00  0.00    -0.206 F 
ATOM     83  C   UNL A   1      41.866  35.674  36.328  1.00  0.00     0.040 A 
ATOM     84  C   UNL A   1      42.857  36.790  34.435  1.00  0.00     0.040 A 
ATOM     85  F   UNL A   1      43.089  35.656  32.392  1.00  0.00    -0.206 F 
ATOM     86  C   UNL A   1      42.437  36.814  35.765  1.00  0.00     0.006 A 
ENDBRANCH  62  79
ENDBRANCH  36  37
ENDBRANCH  28  31
ENDBRANCH  26  27
ENDBRANCH  25  26
ENDBRANCH   1  25
TORSDOF 15
ENDMDL
MODEL 2
REMARK VINA RESULT:      -8.4      3.165      8.156
REMARK SMILES CCC1(CC)CCN(c2ccc(/C=C/C(=O)NCCCCNC(=O)c3ccc(-c4c5nc(c(-c6c(F)cccc6F)c6ccc([nH]6)c(-c6c(F)cccc6F)c6nc(c(-c7c(F)cccc7F)c7ccc4[nH]7)C=C6)C=C5)cc3)cc2F)C1
REMARK SMILES IDX 19 1 18 2 17 3 15 4 16 5 14 7 13 8 12 9 9 10 10 11 80 12
REMARK SMILES IDX 11 13 79 14 81 15 8 16 3 17 6 18 82 19 7 20 2 21 1 22 4 23
REMARK SMILES IDX 5 24 20 25 21 26 22 27 23 28 24 30 25 31 26 32 78 33 27 34
REMARK SMILES IDX 77 35 28 36 29 37 30 38 71 39 31 40 76 41 70 42 72 43 32 44
REMARK SMILES IDX 75 45 69 46 68 47 33 49 59 50 42 51 58 52 43 53 46 54 57 55
REMARK SMILES IDX 73 56 44 57 45 58 56 60 74 61 47 62 34 63 35 64 40 65 36 66
REMARK SMILES IDX 37 67 39 68 41 69 38 70 60 71 61 72 66 73 62 74 63 75 65 76
REMARK SMILES IDX 67 77 64 78 48 79 49 80 54 81 50 82 51 83 53 84 55 85 52 86
REMARK H PARENT 17 6 22 29 72 48 46 59
REMARK Flexibility Score: inf
ROOT
ATOM      1  C   UNL A   1      46.602  23.433  36.167  1.00  0.00     0.023 C 
ENDROOT
BRANCH   1   2
ATOM      2  C   UNL A   1      45.374  22.525  36.086  1.00  0.00     0.116 C 
BRANCH   2   3
ATOM      3  N   UNL A   1      44.151  23.275  36.307  1.00  0.00    -0.353 N 
ATOM      4  C   UNL A   1      43.277  23.813  35.411  1.00  0.00     0.243 C 
ATOM      5  O   UNL A   1      42.235  24.329  35.809  1.00  0.00    -0.270 OA
ATOM      6  H   UNL A   1      43.916  23.418  37.252  1.00  0.00     0.163 HD
BRANCH   4   7
ATOM      7  C   UNL A   1      43.526  23.704  33.958  1.00  0.00     0.072 C 
ATOM      8  C   UNL A   1      44.343  24.521  33.280  1.00  0.00     0.014 C 
BRANCH   8   9
ATOM      9  C   UNL A   1      44.577  24.410  31.838  1.00  0.00    -0.022 A 
ATOM     10  C   UNL A   1      44.987  24.324  29.033  1.00  0.00     0.073 A 
ATOM     11  C   UNL A   1      44.039  23.500  29.655  1.00  0.00     0.029 A 
ATOM     12  C   UNL A   1      45.719  25.193  29.857  1.00  0.00     0.147 A 
ATOM     13  C   UNL A   1      43.838  23.534  31.039  1.00  0.00     0.010 A 
ATOM     14  C   UNL A   1      45.517  25.247  31.235  1.00  0.00     0.049 A 
ATOM     15  F   UNL A   1      46.606  26.049  29.322  1.00  0.00    -0.205 F 
BRANCH  10  16
ATOM     16  N   UNL A   1      45.115  24.280  27.659  1.00  0.00    -0.369 N 
ATOM     17  C   UNL A   1      44.614  23.583  25.446  1.00  0.00    -0.011 C 
ATOM     18  C   UNL A   1      44.685  25.126  25.503  1.00  0.00     0.030 C 
ATOM     19  C   UNL A   1      44.406  23.226  26.936  1.00  0.00     0.123 C 
ATOM     20  C   UNL A   1      45.319  25.471  26.849  1.00  0.00     0.117 C 
BRANCH  17  21
ATOM     21  C   UNL A   1      45.902  22.952  24.837  1.00  0.00     0.005 C 
ATOM     22  C   UNL A   1      46.058  21.437  24.893  1.00  0.00     0.004 C 
ENDBRANCH  17  21
BRANCH  17  23
ATOM     23  C   UNL A   1      43.379  23.124  24.625  1.00  0.00     0.005 C 
ATOM     24  C   UNL A   1      42.406  22.223  25.377  1.00  0.00     0.004 C 
ENDBRANCH  17  23
ENDBRANCH  10  16
ENDBRANCH   8   9
ENDBRANCH   4   7
ENDBRANCH   2   3
ENDBRANCH   1   2
BRANCH   1  25
ATOM     25  C   UNL A   1      47.387  23.557  34.858  1.00  0.00     0.023 C 
BRANCH  25  26
ATOM     26  C   UNL A   1      47.664  24.986  34.404  1.00  0.00     0.116 C 
BRANCH  26  27
ATOM     27  N   UNL A   1      48.092  25.863  35.483  1.00  0.00    -0.352 N 
ATOM     28  C   UNL A   1      47.536  27.057  35.876  1.00  0.00     0.251 C 
ATOM     29  H   UNL A   1      48.876  25.563  35.996  1.00  0.00     0.163 HD
ATOM     30  O   UNL A   1      48.064  27.738  36.744  1.00  0.00    -0.269 OA
BRANCH  28  31
ATOM     31  C   UNL A   1      46.312  27.531  35.199  1.00  0.00     0.039 A 
ATOM     32  C   UNL A   1      45.070  27.128  35.692  1.00  0.00     0.014 A 
ATOM     33  C   UNL A   1      46.396  28.403  34.111  1.00  0.00     0.014 A 
ATOM     34  C   UNL A   1      43.904  27.657  35.137  1.00  0.00     0.010 A 
ATOM     35  C   UNL A   1      45.237  28.975  33.598  1.00  0.00     0.010 A 
ATOM     36  C   UNL A   1      43.981  28.612  34.110  1.00  0.00    -0.014 A 
BRANCH  36  37
ATOM     37  C   UNL A   1      42.765  29.244  33.546  1.00  0.00     0.031 A 
ATOM     38  C   UNL A   1      42.214  28.758  32.236  1.00  0.00     0.074 A 
ATOM     39  C   UNL A   1      42.203  30.295  34.173  1.00  0.00     0.049 A 
ATOM     40  N   UNL A   1      41.247  29.258  31.511  1.00  0.00    -0.248 NA
ATOM     41  C   UNL A   1      42.852  27.567  31.651  1.00  0.00     0.031 C 
ATOM     42  C   UNL A   1      42.659  30.871  35.438  1.00  0.00     0.029 A 
ATOM     43  N   UNL A   1      41.129  31.074  33.820  1.00  0.00    -0.354 N 
ATOM     44  C   UNL A   1      41.173  28.456  30.380  1.00  0.00     0.074 A 
ATOM     45  C   UNL A   1      42.219  27.462  30.492  1.00  0.00     0.031 C 
ATOM     46  C   UNL A   1      41.856  31.896  35.769  1.00  0.00     0.029 A 
ATOM     47  C   UNL A   1      40.858  32.077  34.719  1.00  0.00     0.049 A 
ATOM     48  H   UNL A   1      40.603  30.928  33.001  1.00  0.00     0.167 HD
ATOM     49  C   UNL A   1      40.297  28.529  29.352  1.00  0.00     0.037 A 
ATOM     50  C   UNL A   1      39.914  33.038  34.695  1.00  0.00     0.037 A 
ATOM     51  C   UNL A   1      39.237  29.496  29.259  1.00  0.00     0.049 A 
ATOM     52  C   UNL A   1      38.960  33.105  33.533  1.00  0.00     0.074 A 
ATOM     53  C   UNL A   1      38.279  29.632  28.269  1.00  0.00     0.029 A 
ATOM     54  N   UNL A   1      38.987  30.485  30.199  1.00  0.00    -0.354 N 
ATOM     55  N   UNL A   1      38.891  32.330  32.479  1.00  0.00    -0.248 NA
ATOM     56  C   UNL A   1      37.957  34.179  33.557  1.00  0.00     0.031 C 
ATOM     57  C   UNL A   1      37.465  30.719  28.596  1.00  0.00     0.029 A 
ATOM     58  C   UNL A   1      37.893  31.236  29.808  1.00  0.00     0.049 A 
ATOM     59  H   UNL A   1      39.510  30.630  31.019  1.00  0.00     0.167 HD
ATOM     60  C   UNL A   1      37.822  32.802  31.730  1.00  0.00     0.074 A 
ATOM     61  C   UNL A   1      37.269  33.930  32.451  1.00  0.00     0.031 C 
ATOM     62  C   UNL A   1      37.342  32.340  30.552  1.00  0.00     0.037 A 
BRANCH  49  63
ATOM     63  C   UNL A   1      40.435  27.523  28.249  1.00  0.00     0.057 A 
ATOM     64  C   UNL A   1      39.824  26.266  28.343  1.00  0.00     0.134 A 
ATOM     65  C   UNL A   1      41.220  27.781  27.119  1.00  0.00     0.134 A 
ATOM     66  F   UNL A   1      39.064  25.956  29.404  1.00  0.00    -0.206 F 
ATOM     67  C   UNL A   1      40.000  25.296  27.355  1.00  0.00     0.040 A 
ATOM     68  C   UNL A   1      41.384  26.827  26.113  1.00  0.00     0.040 A 
ATOM     69  F   UNL A   1      41.820  28.970  26.964  1.00  0.00    -0.206 F 
ATOM     70  C   UNL A   1      40.779  25.577  26.234  1.00  0.00     0.006 A 
ENDBRANCH  49  63
BRANCH  50  71
ATOM     71  C   UNL A   1      39.804  33.994  35.823  1.00  0.00     0.057 A 
ATOM     72  C   UNL A   1      40.483  35.218  35.822  1.00  0.00     0.134 A 
ATOM     73  C   UNL A   1      39.017  33.694  36.940  1.00  0.00     0.134 A 
ATOM     74  F   UNL A   1      41.258  35.561  34.782  1.00  0.00    -0.206 F 
ATOM     75  C   UNL A   1      40.393  36.105  36.895  1.00  0.00     0.040 A 
ATOM     76  C   UNL A   1      38.901  34.580  38.013  1.00  0.00     0.040 A 
ATOM     77  F   UNL A   1      38.328  32.545  36.991  1.00  0.00    -0.206 F 
ATOM     78  C   UNL A   1      39.596  35.787  37.994  1.00  0.00     0.006 A 
ENDBRANCH  50  71
BRANCH  62  79
ATOM     79  C   UNL A   1      36.134  33.014  29.978  1.00  0.00     0.057 A 
ATOM     80  C   UNL A   1      36.267  33.936  28.931  1.00  0.00     0.134 A 
ATOM     81  C   UNL A   1      34.859  32.828  30.523  1.00  0.00     0.134 A 
ATOM     82  F   UNL A   1      37.467  34.165  28.374  1.00  0.00    -0.206 F 
ATOM     83  C   UNL A   1      35.175  34.665  28.459  1.00  0.00     0.040 A 
ATOM     84  C   UNL A   1      33.755  33.537  30.047  1.00  0.00     0.040 A 
ATOM     85  F   UNL A   1      34.668  31.953  31.521  1.00  0.00    -0.206 F 
ATOM     86  C   UNL A   1      33.915  34.466  29.019  1.00  0.00     0.006 A 
ENDBRANCH  62  79
ENDBRANCH  36  37
ENDBRANCH  28  31
ENDBRANCH  26  27
ENDBRANCH  25  26
ENDBRANCH   1  25
TORSDOF 15
ENDMDL
MODEL 3
REMARK VINA RESULT:      -8.4      1.730      3.026
REMARK SMILES CCC1(CC)CCN(c2ccc(/C=C/C(=O)NCCCCNC(=O)c3ccc(-c4c5nc(c(-c6c(F)cccc6F)c6ccc([nH]6)c(-c6c(F)cccc6F)c6nc(c(-c7c(F)cccc7F)c7ccc4[nH]7)C=C6)C=C5)cc3)cc2F)C1
REMARK SMILES IDX 19 1 18 2 17 3 15 4 16 5 14 7 13 8 12 9 9 10 10 11 80 12
REMARK SMILES IDX 11 13 79 14 81 15 8 16 3 17 6 18 82 19 7 20 2 21 1 22 4 23
REMARK SMILES IDX 5 24 20 25 21 26 22 27 23 28 24 30 25 31 26 32 78 33 27 34
REMARK SMILES IDX 77 35 28 36 29 37 30 38 71 39 31 40 76 41 70 42 72 43 32 44
REMARK SMILES IDX 75 45 69 46 68 47 33 49 59 50 42 51 58 52 43 53 46 54 57 55
REMARK SMILES IDX 73 56 44 57 45 58 56 60 74 61 47 62 34 63 35 64 40 65 36 66
REMARK SMILES IDX 37 67 39 68 41 69 38 70 60 71 61 72 66 73 62 74 63 75 65 76
REMARK SMILES IDX 67 77 64 78 48 79 49 80 54 81 50 82 51 83 53 84 55 85 52 86
REMARK H PARENT 17 6 22 29 72 48 46 59
REMARK Flexibility Score: inf
ROOT
ATOM      1  C   UNL A   1      41.467  19.653  26.120  1.00  0.00     0.023 C 
ENDROOT
BRANCH   1   2
ATOM      2  C   UNL A   1      42.648  18.761  26.505  1.00  0.00     0.116 C 
BRANCH   2   3
ATOM      3  N   UNL A   1      43.480  18.464  25.353  1.00  0.00    -0.353 N 
ATOM      4  C   UNL A   1      44.472  19.194  24.776  1.00  0.00     0.243 C 
ATOM      5  O   UNL A   1      45.131  18.711  23.857  1.00  0.00    -0.270 OA
ATOM      6  H   UNL A   1      43.297  17.598  24.922  1.00  0.00     0.163 HD
BRANCH   4   7
ATOM      7  C   UNL A   1      44.828  20.530  25.300  1.00  0.00     0.072 C 
ATOM      8  C   UNL A   1      44.506  21.679  24.690  1.00  0.00     0.014 C 
BRANCH   8   9
ATOM      9  C   UNL A   1      44.870  22.997  25.214  1.00  0.00    -0.022 A 
ATOM     10  C   UNL A   1      45.453  25.597  26.186  1.00  0.00     0.073 A 
ATOM     11  C   UNL A   1      46.220  25.012  25.169  1.00  0.00     0.029 A 
ATOM     12  C   UNL A   1      44.385  24.844  26.697  1.00  0.00     0.147 A 
ATOM     13  C   UNL A   1      45.940  23.727  24.691  1.00  0.00     0.010 A 
ATOM     14  C   UNL A   1      44.087  23.569  26.218  1.00  0.00     0.049 A 
ATOM     15  F   UNL A   1      43.575  25.363  27.635  1.00  0.00    -0.205 F 
BRANCH  10  16
ATOM     16  N   UNL A   1      45.747  26.884  26.589  1.00  0.00    -0.369 N 
ATOM     17  C   UNL A   1      45.341  29.187  26.996  1.00  0.00    -0.011 C 
ATOM     18  C   UNL A   1      45.977  28.541  28.248  1.00  0.00     0.030 C 
ATOM     19  C   UNL A   1      44.805  27.947  26.245  1.00  0.00     0.123 C 
ATOM     20  C   UNL A   1      46.496  27.176  27.803  1.00  0.00     0.117 C 
BRANCH  17  21
ATOM     21  C   UNL A   1      46.369  30.011  26.166  1.00  0.00     0.005 C 
ATOM     22  C   UNL A   1      47.461  30.766  26.914  1.00  0.00     0.004 C 
ENDBRANCH  17  21
BRANCH  17  23
ATOM     23  C   UNL A   1      44.153  30.102  27.398  1.00  0.00     0.005 C 
ATOM     24  C   UNL A   1      42.805  29.705  26.808  1.00  0.00     0.004 C 
ENDBRANCH  17  23
ENDBRANCH  10  16
ENDBRANCH   8   9
ENDBRANCH   4   7
ENDBRANCH   2   3
ENDBRANCH   1   2
BRANCH   1  25
ATOM     25  C   UNL A   1      41.055  20.660  27.198  1.00  0.00     0.023 C 
BRANCH  25  26
ATOM     26  C   UNL A   1      40.961  22.107  26.728  1.00  0.00     0.116 C 
BRANCH  26  27
ATOM     27  N   UNL A   1      39.723  22.407  26.024  1.00  0.00    -0.352 N 
ATOM     28  C   UNL A   1      38.952  23.542  26.111  1.00  0.00     0.251 C 
ATOM     29  H   UNL A   1      39.398  21.711  25.409  1.00  0.00     0.163 HD
ATOM     30  O   UNL A   1      37.878  23.616  25.530  1.00  0.00    -0.269 OA
BRANCH  28  31
ATOM     31  C   UNL A   1      39.419  24.658  26.958  1.00  0.00     0.039 A 
ATOM     32  C   UNL A   1      40.237  25.638  26.391  1.00  0.00     0.014 A 
ATOM     33  C   UNL A   1      39.012  24.755  28.291  1.00  0.00     0.014 A 
ATOM     34  C   UNL A   1      40.592  26.758  27.144  1.00  0.00     0.010 A 
ATOM     35  C   UNL A   1      39.317  25.899  29.020  1.00  0.00     0.010 A 
ATOM     36  C   UNL A   1      40.105  26.913  28.452  1.00  0.00    -0.014 A 
BRANCH  36  37
ATOM     37  C   UNL A   1      40.408  28.122  29.253  1.00  0.00     0.031 A 
ATOM     38  C   UNL A   1      41.704  28.210  30.007  1.00  0.00     0.074 A 
ATOM     39  C   UNL A   1      39.491  29.103  29.361  1.00  0.00     0.049 A 
ATOM     40  N   UNL A   1      42.100  29.114  30.865  1.00  0.00    -0.248 NA
ATOM     41  C   UNL A   1      42.672  27.123  29.785  1.00  0.00     0.031 C 
ATOM     42  C   UNL A   1      38.188  29.123  28.696  1.00  0.00     0.029 A 
ATOM     43  N   UNL A   1      39.513  30.270  30.083  1.00  0.00    -0.354 N 
ATOM     44  C   UNL A   1      43.353  28.697  31.298  1.00  0.00     0.074 A 
ATOM     45  C   UNL A   1      43.633  27.439  30.641  1.00  0.00     0.031 C 
ATOM     46  C   UNL A   1      37.546  30.257  29.020  1.00  0.00     0.029 A 
ATOM     47  C   UNL A   1      38.371  31.022  29.949  1.00  0.00     0.049 A 
ATOM     48  H   UNL A   1      40.275  30.543  30.644  1.00  0.00     0.167 HD
ATOM     49  C   UNL A   1      44.200  29.319  32.148  1.00  0.00     0.037 A 
ATOM     50  C   UNL A   1      38.027  32.194  30.518  1.00  0.00     0.037 A 
ATOM     51  C   UNL A   1      43.934  30.586  32.774  1.00  0.00     0.049 A 
ATOM     52  C   UNL A   1      38.983  32.859  31.471  1.00  0.00     0.074 A 
ATOM     53  C   UNL A   1      44.744  31.312  33.629  1.00  0.00     0.029 A 
ATOM     54  N   UNL A   1      42.771  31.322  32.599  1.00  0.00    -0.354 N 
ATOM     55  N   UNL A   1      40.170  32.462  31.858  1.00  0.00    -0.248 NA
ATOM     56  C   UNL A   1      38.550  34.131  32.067  1.00  0.00     0.031 C 
ATOM     57  C   UNL A   1      44.062  32.476  33.993  1.00  0.00     0.029 A 
ATOM     58  C   UNL A   1      42.843  32.492  33.334  1.00  0.00     0.049 A 
ATOM     59  H   UNL A   1      42.010  31.053  32.037  1.00  0.00     0.167 HD
ATOM     60  C   UNL A   1      40.639  33.446  32.716  1.00  0.00     0.074 A 
ATOM     61  C   UNL A   1      39.610  34.462  32.794  1.00  0.00     0.031 C 
ATOM     62  C   UNL A   1      41.818  33.503  33.379  1.00  0.00     0.037 A 
BRANCH  49  63
ATOM     63  C   UNL A   1      45.508  28.647  32.442  1.00  0.00     0.057 A 
ATOM     64  C   UNL A   1      46.675  29.021  31.764  1.00  0.00     0.134 A 
ATOM     65  C   UNL A   1      45.598  27.591  33.356  1.00  0.00     0.134 A 
ATOM     66  F   UNL A   1      46.653  30.022  30.871  1.00  0.00    -0.206 F 
ATOM     67  C   UNL A   1      47.885  28.360  31.978  1.00  0.00     0.040 A 
ATOM     68  C   UNL A   1      46.808  26.937  33.596  1.00  0.00     0.040 A 
ATOM     69  F   UNL A   1      44.519  27.195  34.047  1.00  0.00    -0.206 F 
ATOM     70  C   UNL A   1      47.953  27.316  32.900  1.00  0.00     0.006 A 
ENDBRANCH  49  63
BRANCH  50  71
ATOM     71  C   UNL A   1      36.732  32.830  30.176  1.00  0.00     0.057 A 
ATOM     72  C   UNL A   1      36.583  33.638  29.044  1.00  0.00     0.134 A 
ATOM     73  C   UNL A   1      35.609  32.647  30.990  1.00  0.00     0.134 A 
ATOM     74  F   UNL A   1      37.625  33.857  28.226  1.00  0.00    -0.206 F 
ATOM     75  C   UNL A   1      35.368  34.252  28.738  1.00  0.00     0.040 A 
ATOM     76  C   UNL A   1      34.381  33.238  30.688  1.00  0.00     0.040 A 
ATOM     77  F   UNL A   1      35.685  31.868  32.079  1.00  0.00    -0.206 F 
ATOM     78  C   UNL A   1      34.260  34.048  29.561  1.00  0.00     0.006 A 
ENDBRANCH  50  71
BRANCH  62  79
ATOM     79  C   UNL A   1      42.092  34.716  34.214  1.00  0.00     0.057 A 
ATOM     80  C   UNL A   1      42.705  35.843  33.649  1.00  0.00     0.134 A 
ATOM     81  C   UNL A   1      41.841  34.733  35.591  1.00  0.00     0.134 A 
ATOM     82  F   UNL A   1      42.980  35.881  32.336  1.00  0.00    -0.206 F 
ATOM     83  C   UNL A   1      43.078  36.937  34.431  1.00  0.00     0.040 A 
ATOM     84  C   UNL A   1      42.192  35.829  36.379  1.00  0.00     0.040 A 
ATOM     85  F   UNL A   1      41.248  33.687  36.186  1.00  0.00    -0.206 F 
ATOM     86  C   UNL A   1      42.821  36.931  35.800  1.00  0.00     0.006 A 
ENDBRANCH  62  79
ENDBRANCH  36  37
ENDBRANCH  28  31
ENDBRANCH  26  27
ENDBRANCH  25  26
ENDBRANCH   1  25
TORSDOF 15
ENDMDL
