MODEL 1
REMARK VINA RESULT:     -10.9      0.000      0.000
REMARK SMILES COc1cc(C(=O)NCCCCNC(=O)c2ccc(-c3c4nc(c(-c5c(F)cccc5F)c5ccc([nH]5)c(-c5c(F)cccc5F)c5nc(c(-c6c(F)cccc6F)c6ccc3[nH]6)C=C5)C=C4)cc2)c([N+](=O)[O-])cc1O[C@H](C)[C@@H](C)O
REMARK SMILES IDX 9 1 8 2 6 3 7 4 5 6 3 7 4 8 75 9 74 10 70 11 2 12 1 13 76 14
REMARK SMILES IDX 77 15 78 16 79 17 80 18 81 19 71 21 72 22 73 23 10 24 11 25
REMARK SMILES IDX 12 26 13 27 14 28 15 30 16 31 17 32 69 33 18 34 68 35 19 36
REMARK SMILES IDX 20 37 21 38 62 39 22 40 67 41 61 42 63 43 23 44 66 45 60 46
REMARK SMILES IDX 59 47 24 49 50 50 33 51 49 52 34 53 37 54 48 55 64 56 35 57
REMARK SMILES IDX 36 58 47 60 65 61 38 62 25 63 26 64 31 65 27 66 28 67 30 68
REMARK SMILES IDX 32 69 29 70 51 71 52 72 57 73 53 74 54 75 56 76 58 77 55 78
REMARK SMILES IDX 39 79 40 80 45 81 41 82 42 83 44 84 46 85 43 86
REMARK H PARENT 8 5 81 20 13 29 63 48 37 59
REMARK Flexibility Score: inf
ROOT
ATOM      1  C   UNL A   1      33.304  27.865  26.329  1.00  0.00     0.116 C 
ENDROOT
BRANCH   1   2
ATOM      2  N   UNL A   1      33.269  26.558  25.692  1.00  0.00    -0.352 N 
ATOM      3  C   UNL A   1      32.658  26.165  24.520  1.00  0.00     0.258 C 
ATOM      4  O   UNL A   1      32.754  25.003  24.138  1.00  0.00    -0.269 OA
ATOM      5  H   UNL A   1      33.755  25.846  26.169  1.00  0.00     0.163 HD
BRANCH   3   6
ATOM      6  C   UNL A   1      31.801  27.108  23.764  1.00  0.00     0.121 A 
ATOM      7  C   UNL A   1      29.547  27.943  23.316  1.00  0.00     0.162 A 
ATOM      8  C   UNL A   1      30.413  26.989  23.889  1.00  0.00     0.071 A 
ATOM      9  C   UNL A   1      30.072  29.100  22.699  1.00  0.00     0.168 A 
ATOM     10  C   UNL A   1      31.451  29.179  22.540  1.00  0.00     0.136 A 
ATOM     11  C   UNL A   1      32.286  28.143  22.978  1.00  0.00     0.286 A 
BRANCH   7  12
ATOM     12  O   UNL A   1      28.223  27.623  23.480  1.00  0.00    -0.493 OA
ATOM     13  C   UNL A   1      27.928  26.369  24.085  1.00  0.00     0.278 C 
ENDBRANCH   7  12
BRANCH   9  14
ATOM     14  O   UNL A   1      29.203  30.028  22.211  1.00  0.00    -0.484 OA
BRANCH  14  15
ATOM     15  C   UNL A   1      28.777  31.228  22.890  1.00  0.00     0.198 C 
ATOM     16  C   UNL A   1      27.509  31.095  23.734  1.00  0.00     0.056 C 
BRANCH  15  17
ATOM     17  C   UNL A   1      28.843  32.472  21.970  1.00  0.00     0.151 C 
ATOM     18  C   UNL A   1      27.962  32.371  20.727  1.00  0.00     0.042 C 
BRANCH  17  19
ATOM     19  O   UNL A   1      28.423  33.635  22.699  1.00  0.00    -0.390 OA
ATOM     20  H   UNL A   1      28.593  33.502  23.645  1.00  0.00     0.211 HD
ENDBRANCH  17  19
ENDBRANCH  15  17
ENDBRANCH  14  15
ENDBRANCH   9  14
BRANCH  11  21
ATOM     21  N   UNL A   1      33.649  28.138  22.480  1.00  0.00     0.063 N 
ATOM     22  O   UNL A   1      34.443  28.954  22.962  1.00  0.00    -0.258 OA
ATOM     23  O   UNL A   1      33.929  27.291  21.619  1.00  0.00    -0.258 OA
ENDBRANCH  11  21
ENDBRANCH   3   6
ENDBRANCH   1   2
BRANCH   1  24
ATOM     24  C   UNL A   1      32.085  28.232  27.159  1.00  0.00     0.023 C 
BRANCH  24  25
ATOM     25  C   UNL A   1      31.411  29.556  26.807  1.00  0.00     0.023 C 
BRANCH  25  26
ATOM     26  C   UNL A   1      32.286  30.610  26.136  1.00  0.00     0.116 C 
BRANCH  26  27
ATOM     27  N   UNL A   1      32.054  31.966  26.614  1.00  0.00    -0.352 N 
ATOM     28  C   UNL A   1      32.820  32.764  27.434  1.00  0.00     0.251 C 
ATOM     29  H   UNL A   1      31.217  32.379  26.300  1.00  0.00     0.163 HD
ATOM     30  O   UNL A   1      32.395  33.860  27.794  1.00  0.00    -0.269 OA
BRANCH  28  31
ATOM     31  C   UNL A   1      34.133  32.293  27.927  1.00  0.00     0.039 A 
ATOM     32  C   UNL A   1      35.188  33.206  28.011  1.00  0.00     0.014 A 
ATOM     33  C   UNL A   1      34.326  30.969  28.320  1.00  0.00     0.014 A 
ATOM     34  C   UNL A   1      36.401  32.815  28.585  1.00  0.00     0.010 A 
ATOM     35  C   UNL A   1      35.499  30.606  28.979  1.00  0.00     0.010 A 
ATOM     36  C   UNL A   1      36.549  31.526  29.124  1.00  0.00    -0.014 A 
BRANCH  36  37
ATOM     37  C   UNL A   1      37.786  31.125  29.847  1.00  0.00     0.031 A 
ATOM     38  C   UNL A   1      38.800  30.235  29.180  1.00  0.00     0.074 A 
ATOM     39  C   UNL A   1      37.959  31.494  31.132  1.00  0.00     0.049 A 
ATOM     40  N   UNL A   1      39.898  29.717  29.674  1.00  0.00    -0.248 NA
ATOM     41  C   UNL A   1      38.532  29.847  27.786  1.00  0.00     0.031 C 
ATOM     42  C   UNL A   1      37.024  32.303  31.919  1.00  0.00     0.029 A 
ATOM     43  N   UNL A   1      38.981  31.228  32.012  1.00  0.00    -0.354 N 
ATOM     44  C   UNL A   1      40.430  28.924  28.664  1.00  0.00     0.074 A 
ATOM     45  C   UNL A   1      39.514  28.991  27.546  1.00  0.00     0.031 C 
ATOM     46  C   UNL A   1      37.525  32.485  33.151  1.00  0.00     0.029 A 
ATOM     47  C   UNL A   1      38.797  31.778  33.258  1.00  0.00     0.049 A 
ATOM     48  H   UNL A   1      39.771  30.693  31.771  1.00  0.00     0.167 HD
ATOM     49  C   UNL A   1      41.586  28.220  28.661  1.00  0.00     0.037 A 
ATOM     50  C   UNL A   1      39.564  31.716  34.363  1.00  0.00     0.037 A 
ATOM     51  C   UNL A   1      42.523  28.194  29.753  1.00  0.00     0.049 A 
ATOM     52  C   UNL A   1      40.859  30.951  34.319  1.00  0.00     0.074 A 
ATOM     53  C   UNL A   1      43.766  27.587  29.805  1.00  0.00     0.029 A 
ATOM     54  N   UNL A   1      42.320  28.801  30.981  1.00  0.00    -0.354 N 
ATOM     55  N   UNL A   1      41.392  30.285  33.324  1.00  0.00    -0.248 NA
ATOM     56  C   UNL A   1      41.664  30.938  35.548  1.00  0.00     0.031 C 
ATOM     57  C   UNL A   1      44.297  27.792  31.082  1.00  0.00     0.029 A 
ATOM     58  C   UNL A   1      43.407  28.565  31.807  1.00  0.00     0.049 A 
ATOM     59  H   UNL A   1      41.523  29.323  31.230  1.00  0.00     0.167 HD
ATOM     60  C   UNL A   1      42.609  29.807  33.796  1.00  0.00     0.074 A 
ATOM     61  C   UNL A   1      42.741  30.270  35.160  1.00  0.00     0.031 C 
ATOM     62  C   UNL A   1      43.534  29.051  33.156  1.00  0.00     0.037 A 
BRANCH  49  63
ATOM     63  C   UNL A   1      41.916  27.424  27.432  1.00  0.00     0.057 A 
ATOM     64  C   UNL A   1      42.634  27.975  26.362  1.00  0.00     0.134 A 
ATOM     65  C   UNL A   1      41.562  26.071  27.344  1.00  0.00     0.134 A 
ATOM     66  F   UNL A   1      42.994  29.266  26.379  1.00  0.00    -0.206 F 
ATOM     67  C   UNL A   1      42.971  27.214  25.242  1.00  0.00     0.040 A 
ATOM     68  C   UNL A   1      41.917  25.294  26.241  1.00  0.00     0.040 A 
ATOM     69  F   UNL A   1      40.880  25.479  28.337  1.00  0.00    -0.206 F 
ATOM     70  C   UNL A   1      42.621  25.866  25.183  1.00  0.00     0.006 A 
ENDBRANCH  49  63
BRANCH  50  71
ATOM     71  C   UNL A   1      39.149  32.411  35.610  1.00  0.00     0.057 A 
ATOM     72  C   UNL A   1      38.349  31.767  36.562  1.00  0.00     0.134 A 
ATOM     73  C   UNL A   1      39.500  33.742  35.859  1.00  0.00     0.134 A 
ATOM     74  F   UNL A   1      37.962  30.496  36.370  1.00  0.00    -0.206 F 
ATOM     75  C   UNL A   1      37.887  32.430  37.700  1.00  0.00     0.040 A 
ATOM     76  C   UNL A   1      39.067  34.410  37.007  1.00  0.00     0.040 A 
ATOM     77  F   UNL A   1      40.270  34.414  34.991  1.00  0.00    -0.206 F 
ATOM     78  C   UNL A   1      38.247  33.757  37.925  1.00  0.00     0.006 A 
ENDBRANCH  50  71
BRANCH  62  79
ATOM     79  C   UNL A   1      44.792  28.725  33.905  1.00  0.00     0.057 A 
ATOM     80  C   UNL A   1      45.912  29.565  33.876  1.00  0.00     0.134 A 
ATOM     81  C   UNL A   1      44.871  27.569  34.692  1.00  0.00     0.134 A 
ATOM     82  F   UNL A   1      45.907  30.681  33.131  1.00  0.00    -0.206 F 
ATOM     83  C   UNL A   1      47.077  29.252  34.581  1.00  0.00     0.040 A 
ATOM     84  C   UNL A   1      46.018  27.260  35.424  1.00  0.00     0.040 A 
ATOM     85  F   UNL A   1      43.829  26.727  34.773  1.00  0.00    -0.206 F 
ATOM     86  C   UNL A   1      47.128  28.099  35.362  1.00  0.00     0.006 A 
ENDBRANCH  62  79
ENDBRANCH  36  37
ENDBRANCH  28  31
ENDBRANCH  26  27
ENDBRANCH  25  26
ENDBRANCH  24  25
ENDBRANCH   1  24
TORSDOF 17
ENDMDL
MODEL 2
REMARK VINA RESULT:     -10.8      4.364      8.074
REMARK SMILES COc1cc(C(=O)NCCCCNC(=O)c2ccc(-c3c4nc(c(-c5c(F)cccc5F)c5ccc([nH]5)c(-c5c(F)cccc5F)c5nc(c(-c6c(F)cccc6F)c6ccc3[nH]6)C=C5)C=C4)cc2)c([N+](=O)[O-])cc1O[C@H](C)[C@@H](C)O
REMARK SMILES IDX 9 1 8 2 6 3 7 4 5 6 3 7 4 8 75 9 74 10 70 11 2 12 1 13 76 14
REMARK SMILES IDX 77 15 78 16 79 17 80 18 81 19 71 21 72 22 73 23 10 24 11 25
REMARK SMILES IDX 12 26 13 27 14 28 15 30 16 31 17 32 69 33 18 34 68 35 19 36
REMARK SMILES IDX 20 37 21 38 62 39 22 40 67 41 61 42 63 43 23 44 66 45 60 46
REMARK SMILES IDX 59 47 24 49 50 50 33 51 49 52 34 53 37 54 48 55 64 56 35 57
REMARK SMILES IDX 36 58 47 60 65 61 38 62 25 63 26 64 31 65 27 66 28 67 30 68
REMARK SMILES IDX 32 69 29 70 51 71 52 72 57 73 53 74 54 75 56 76 58 77 55 78
REMARK SMILES IDX 39 79 40 80 45 81 41 82 42 83 44 84 46 85 43 86
REMARK H PARENT 8 5 81 20 13 29 63 48 37 59
REMARK Flexibility Score: inf
ROOT
ATOM      1  C   UNL A   1      35.581  20.997  25.376  1.00  0.00     0.116 C 
ENDROOT
BRANCH   1   2
ATOM      2  N   UNL A   1      34.469  20.452  24.615  1.00  0.00    -0.352 N 
ATOM      3  C   UNL A   1      33.298  21.058  24.209  1.00  0.00     0.258 C 
ATOM      4  O   UNL A   1      32.475  20.426  23.555  1.00  0.00    -0.269 OA
ATOM      5  H   UNL A   1      34.565  19.508  24.349  1.00  0.00     0.163 HD
BRANCH   3   6
ATOM      6  C   UNL A   1      32.976  22.440  24.638  1.00  0.00     0.121 A 
ATOM      7  C   UNL A   1      31.836  23.889  26.243  1.00  0.00     0.162 A 
ATOM      8  C   UNL A   1      32.072  22.613  25.691  1.00  0.00     0.071 A 
ATOM      9  C   UNL A   1      32.596  25.000  25.817  1.00  0.00     0.168 A 
ATOM     10  C   UNL A   1      33.454  24.821  24.737  1.00  0.00     0.136 A 
ATOM     11  C   UNL A   1      33.557  23.578  24.100  1.00  0.00     0.286 A 
BRANCH   7  12
ATOM     12  O   UNL A   1      30.868  23.874  27.215  1.00  0.00    -0.493 OA
ATOM     13  C   UNL A   1      29.821  22.921  27.076  1.00  0.00     0.278 C 
ENDBRANCH   7  12
BRANCH   9  14
ATOM     14  O   UNL A   1      32.381  26.204  26.416  1.00  0.00    -0.484 OA
BRANCH  14  15
ATOM     15  C   UNL A   1      31.706  27.335  25.826  1.00  0.00     0.198 C 
ATOM     16  C   UNL A   1      30.647  26.999  24.776  1.00  0.00     0.056 C 
BRANCH  15  17
ATOM     17  C   UNL A   1      32.693  28.467  25.445  1.00  0.00     0.151 C 
ATOM     18  C   UNL A   1      33.980  28.469  26.265  1.00  0.00     0.042 C 
BRANCH  17  19
ATOM     19  O   UNL A   1      33.066  28.338  24.064  1.00  0.00    -0.390 OA
ATOM     20  H   UNL A   1      33.444  29.175  23.752  1.00  0.00     0.211 HD
ENDBRANCH  17  19
ENDBRANCH  15  17
ENDBRANCH  14  15
ENDBRANCH   9  14
BRANCH  11  21
ATOM     21  N   UNL A   1      34.197  23.555  22.797  1.00  0.00     0.063 N 
ATOM     22  O   UNL A   1      33.472  23.603  21.796  1.00  0.00    -0.258 OA
ATOM     23  O   UNL A   1      35.436  23.515  22.781  1.00  0.00    -0.258 OA
ENDBRANCH  11  21
ENDBRANCH   3   6
ENDBRANCH   1   2
BRANCH   1  24
ATOM     24  C   UNL A   1      36.919  21.047  24.654  1.00  0.00     0.023 C 
BRANCH  24  25
ATOM     25  C   UNL A   1      37.887  19.909  24.962  1.00  0.00     0.023 C 
BRANCH  25  26
ATOM     26  C   UNL A   1      39.043  20.231  25.905  1.00  0.00     0.116 C 
BRANCH  26  27
ATOM     27  N   UNL A   1      40.136  19.271  25.855  1.00  0.00    -0.352 N 
ATOM     28  C   UNL A   1      41.478  19.436  26.112  1.00  0.00     0.251 C 
ATOM     29  H   UNL A   1      39.873  18.357  25.598  1.00  0.00     0.163 HD
ATOM     30  O   UNL A   1      42.258  18.505  25.922  1.00  0.00    -0.269 OA
BRANCH  28  31
ATOM     31  C   UNL A   1      42.000  20.743  26.569  1.00  0.00     0.039 A 
ATOM     32  C   UNL A   1      42.450  21.660  25.615  1.00  0.00     0.014 A 
ATOM     33  C   UNL A   1      42.033  21.075  27.924  1.00  0.00     0.014 A 
ATOM     34  C   UNL A   1      42.834  22.944  26.013  1.00  0.00     0.010 A 
ATOM     35  C   UNL A   1      42.324  22.382  28.308  1.00  0.00     0.010 A 
ATOM     36  C   UNL A   1      42.723  23.334  27.358  1.00  0.00    -0.014 A 
BRANCH  36  37
ATOM     37  C   UNL A   1      43.010  24.729  27.787  1.00  0.00     0.031 A 
ATOM     38  C   UNL A   1      44.429  25.177  28.012  1.00  0.00     0.074 A 
ATOM     39  C   UNL A   1      41.991  25.571  28.052  1.00  0.00     0.049 A 
ATOM     40  N   UNL A   1      44.873  26.326  28.459  1.00  0.00    -0.248 NA
ATOM     41  C   UNL A   1      45.490  24.197  27.730  1.00  0.00     0.031 C 
ATOM     42  C   UNL A   1      40.566  25.246  27.938  1.00  0.00     0.029 A 
ATOM     43  N   UNL A   1      41.994  26.875  28.487  1.00  0.00    -0.354 N 
ATOM     44  C   UNL A   1      46.254  26.193  28.539  1.00  0.00     0.074 A 
ATOM     45  C   UNL A   1      46.574  24.841  28.137  1.00  0.00     0.031 C 
ATOM     46  C   UNL A   1      39.838  26.325  28.269  1.00  0.00     0.029 A 
ATOM     47  C   UNL A   1      40.738  27.406  28.655  1.00  0.00     0.049 A 
ATOM     48  H   UNL A   1      42.821  27.381  28.661  1.00  0.00     0.167 HD
ATOM     49  C   UNL A   1      47.175  27.120  28.894  1.00  0.00     0.037 A 
ATOM     50  C   UNL A   1      40.354  28.627  29.077  1.00  0.00     0.037 A 
ATOM     51  C   UNL A   1      46.863  28.481  29.244  1.00  0.00     0.049 A 
ATOM     52  C   UNL A   1      41.401  29.645  29.435  1.00  0.00     0.074 A 
ATOM     53  C   UNL A   1      47.735  29.518  29.524  1.00  0.00     0.029 A 
ATOM     54  N   UNL A   1      45.581  28.992  29.359  1.00  0.00    -0.354 N 
ATOM     55  N   UNL A   1      42.707  29.532  29.414  1.00  0.00    -0.248 NA
ATOM     56  C   UNL A   1      40.922  30.966  29.868  1.00  0.00     0.031 C 
ATOM     57  C   UNL A   1      46.978  30.647  29.851  1.00  0.00     0.029 A 
ATOM     58  C   UNL A   1      45.638  30.326  29.727  1.00  0.00     0.049 A 
ATOM     59  H   UNL A   1      44.752  28.483  29.201  1.00  0.00     0.167 HD
ATOM     60  C   UNL A   1      43.203  30.774  29.792  1.00  0.00     0.074 A 
ATOM     61  C   UNL A   1      42.058  31.629  30.024  1.00  0.00     0.031 C 
ATOM     62  C   UNL A   1      44.490  31.171  29.934  1.00  0.00     0.037 A 
BRANCH  49  63
ATOM     63  C   UNL A   1      48.616  26.701  28.914  1.00  0.00     0.057 A 
ATOM     64  C   UNL A   1      49.212  26.148  30.055  1.00  0.00     0.134 A 
ATOM     65  C   UNL A   1      49.401  26.797  27.757  1.00  0.00     0.134 A 
ATOM     66  F   UNL A   1      48.518  26.038  31.198  1.00  0.00    -0.206 F 
ATOM     67  C   UNL A   1      50.541  25.724  30.051  1.00  0.00     0.040 A 
ATOM     68  C   UNL A   1      50.723  26.352  27.734  1.00  0.00     0.040 A 
ATOM     69  F   UNL A   1      48.891  27.311  26.627  1.00  0.00    -0.206 F 
ATOM     70  C   UNL A   1      51.299  25.817  28.885  1.00  0.00     0.006 A 
ENDBRANCH  49  63
BRANCH  50  71
ATOM     71  C   UNL A   1      38.912  28.973  29.171  1.00  0.00     0.057 A 
ATOM     72  C   UNL A   1      38.226  29.511  28.074  1.00  0.00     0.134 A 
ATOM     73  C   UNL A   1      38.196  28.820  30.363  1.00  0.00     0.134 A 
ATOM     74  F   UNL A   1      38.863  29.701  26.908  1.00  0.00    -0.206 F 
ATOM     75  C   UNL A   1      36.894  29.913  28.168  1.00  0.00     0.040 A 
ATOM     76  C   UNL A   1      36.854  29.193  30.465  1.00  0.00     0.040 A 
ATOM     77  F   UNL A   1      38.791  28.304  31.449  1.00  0.00    -0.206 F 
ATOM     78  C   UNL A   1      36.203  29.753  29.368  1.00  0.00     0.006 A 
ENDBRANCH  50  71
BRANCH  62  79
ATOM     79  C   UNL A   1      44.731  32.603  30.307  1.00  0.00     0.057 A 
ATOM     80  C   UNL A   1      44.831  33.615  29.344  1.00  0.00     0.134 A 
ATOM     81  C   UNL A   1      44.832  32.980  31.652  1.00  0.00     0.134 A 
ATOM     82  F   UNL A   1      44.756  33.319  28.037  1.00  0.00    -0.206 F 
ATOM     83  C   UNL A   1      45.051  34.946  29.704  1.00  0.00     0.040 A 
ATOM     84  C   UNL A   1      45.023  34.310  32.026  1.00  0.00     0.040 A 
ATOM     85  F   UNL A   1      44.734  32.062  32.626  1.00  0.00    -0.206 F 
ATOM     86  C   UNL A   1      45.141  35.296  31.050  1.00  0.00     0.006 A 
ENDBRANCH  62  79
ENDBRANCH  36  37
ENDBRANCH  28  31
ENDBRANCH  26  27
ENDBRANCH  25  26
ENDBRANCH  24  25
ENDBRANCH   1  24
TORSDOF 17
ENDMDL
MODEL 3
REMARK VINA RESULT:     -10.7      4.945      9.736
REMARK SMILES COc1cc(C(=O)NCCCCNC(=O)c2ccc(-c3c4nc(c(-c5c(F)cccc5F)c5ccc([nH]5)c(-c5c(F)cccc5F)c5nc(c(-c6c(F)cccc6F)c6ccc3[nH]6)C=C5)C=C4)cc2)c([N+](=O)[O-])cc1O[C@H](C)[C@@H](C)O
REMARK SMILES IDX 9 1 8 2 6 3 7 4 5 6 3 7 4 8 75 9 74 10 70 11 2 12 1 13 76 14
REMARK SMILES IDX 77 15 78 16 79 17 80 18 81 19 71 21 72 22 73 23 10 24 11 25
REMARK SMILES IDX 12 26 13 27 14 28 15 30 16 31 17 32 69 33 18 34 68 35 19 36
REMARK SMILES IDX 20 37 21 38 62 39 22 40 67 41 61 42 63 43 23 44 66 45 60 46
REMARK SMILES IDX 59 47 24 49 50 50 33 51 49 52 34 53 37 54 48 55 64 56 35 57
REMARK SMILES IDX 36 58 47 60 65 61 38 62 25 63 26 64 31 65 27 66 28 67 30 68
REMARK SMILES IDX 32 69 29 70 51 71 52 72 57 73 53 74 54 75 56 76 58 77 55 78
REMARK SMILES IDX 39 79 40 80 45 81 41 82 42 83 44 84 46 85 43 86
REMARK H PARENT 8 5 81 20 13 29 63 48 37 59
REMARK Flexibility Score: inf
ROOT
ATOM      1  C   UNL A   1      36.065  23.277  23.719  1.00  0.00     0.116 C 
ENDROOT
BRANCH   1   2
ATOM      2  N   UNL A   1      34.943  24.118  24.107  1.00  0.00    -0.352 N 
ATOM      3  C   UNL A   1      33.727  23.766  24.657  1.00  0.00     0.258 C 
ATOM      4  O   UNL A   1      32.904  24.634  24.929  1.00  0.00    -0.269 OA
ATOM      5  H   UNL A   1      35.070  25.083  23.955  1.00  0.00     0.163 HD
BRANCH   3   6
ATOM      6  C   UNL A   1      33.363  22.341  24.832  1.00  0.00     0.121 A 
ATOM      7  C   UNL A   1      32.658  20.247  23.784  1.00  0.00     0.162 A 
ATOM      8  C   UNL A   1      32.883  21.638  23.722  1.00  0.00     0.071 A 
ATOM      9  C   UNL A   1      33.024  19.519  24.937  1.00  0.00     0.168 A 
ATOM     10  C   UNL A   1      33.454  20.238  26.047  1.00  0.00     0.136 A 
ATOM     11  C   UNL A   1      33.520  21.637  26.016  1.00  0.00     0.286 A 
BRANCH   7  12
ATOM     12  O   UNL A   1      32.120  19.746  22.626  1.00  0.00    -0.493 OA
ATOM     13  C   UNL A   1      31.779  20.681  21.610  1.00  0.00     0.278 C 
ENDBRANCH   7  12
BRANCH   9  14
ATOM     14  O   UNL A   1      32.848  18.168  24.937  1.00  0.00    -0.484 OA
BRANCH  14  15
ATOM     15  C   UNL A   1      33.855  17.184  24.621  1.00  0.00     0.198 C 
ATOM     16  C   UNL A   1      34.028  16.866  23.136  1.00  0.00     0.056 C 
BRANCH  15  17
ATOM     17  C   UNL A   1      33.786  15.958  25.566  1.00  0.00     0.151 C 
ATOM     18  C   UNL A   1      32.526  15.114  25.394  1.00  0.00     0.042 C 
BRANCH  17  19
ATOM     19  O   UNL A   1      34.912  15.100  25.328  1.00  0.00    -0.390 OA
ATOM     20  H   UNL A   1      35.168  14.664  26.156  1.00  0.00     0.211 HD
ENDBRANCH  17  19
ENDBRANCH  15  17
ENDBRANCH  14  15
ENDBRANCH   9  14
BRANCH  11  21
ATOM     21  N   UNL A   1      33.644  22.320  27.291  1.00  0.00     0.063 N 
ATOM     22  O   UNL A   1      34.779  22.623  27.676  1.00  0.00    -0.258 OA
ATOM     23  O   UNL A   1      32.591  22.578  27.895  1.00  0.00    -0.258 OA
ENDBRANCH  11  21
ENDBRANCH   3   6
ENDBRANCH   1   2
BRANCH   1  24
ATOM     24  C   UNL A   1      36.974  22.820  24.849  1.00  0.00     0.023 C 
BRANCH  24  25
ATOM     25  C   UNL A   1      37.548  21.413  24.715  1.00  0.00     0.023 C 
BRANCH  25  26
ATOM     26  C   UNL A   1      38.098  20.775  25.987  1.00  0.00     0.116 C 
BRANCH  26  27
ATOM     27  N   UNL A   1      39.118  19.762  25.752  1.00  0.00    -0.352 N 
ATOM     28  C   UNL A   1      40.478  19.803  25.960  1.00  0.00     0.251 C 
ATOM     29  H   UNL A   1      38.781  18.912  25.386  1.00  0.00     0.163 HD
ATOM     30  O   UNL A   1      41.181  18.859  25.606  1.00  0.00    -0.269 OA
BRANCH  28  31
ATOM     31  C   UNL A   1      41.110  20.997  26.564  1.00  0.00     0.039 A 
ATOM     32  C   UNL A   1      41.656  21.969  25.721  1.00  0.00     0.014 A 
ATOM     33  C   UNL A   1      41.152  21.172  27.947  1.00  0.00     0.014 A 
ATOM     34  C   UNL A   1      42.150  23.160  26.263  1.00  0.00     0.010 A 
ATOM     35  C   UNL A   1      41.554  22.396  28.478  1.00  0.00     0.010 A 
ATOM     36  C   UNL A   1      42.054  23.406  27.643  1.00  0.00    -0.014 A 
BRANCH  36  37
ATOM     37  C   UNL A   1      42.460  24.712  28.227  1.00  0.00     0.031 A 
ATOM     38  C   UNL A   1      41.438  25.796  28.447  1.00  0.00     0.074 A 
ATOM     39  C   UNL A   1      43.761  24.955  28.485  1.00  0.00     0.049 A 
ATOM     40  N   UNL A   1      41.612  27.023  28.872  1.00  0.00    -0.248 NA
ATOM     41  C   UNL A   1      40.042  25.471  28.117  1.00  0.00     0.031 C 
ATOM     42  C   UNL A   1      44.864  24.016  28.258  1.00  0.00     0.029 A 
ATOM     43  N   UNL A   1      44.383  26.074  28.985  1.00  0.00    -0.354 N 
ATOM     44  C   UNL A   1      40.358  27.619  28.830  1.00  0.00     0.074 A 
ATOM     45  C   UNL A   1      39.439  26.637  28.298  1.00  0.00     0.031 C 
ATOM     46  C   UNL A   1      46.017  24.588  28.638  1.00  0.00     0.029 A 
ATOM     47  C   UNL A   1      45.746  25.945  29.101  1.00  0.00     0.049 A 
ATOM     48  H   UNL A   1      43.896  26.892  29.236  1.00  0.00     0.167 HD
ATOM     49  C   UNL A   1      39.999  28.866  29.219  1.00  0.00     0.037 A 
ATOM     50  C   UNL A   1      46.674  26.823  29.528  1.00  0.00     0.037 A 
ATOM     51  C   UNL A   1      40.902  29.826  29.797  1.00  0.00     0.049 A 
ATOM     52  C   UNL A   1      46.241  28.190  29.983  1.00  0.00     0.074 A 
ATOM     53  C   UNL A   1      40.612  31.079  30.310  1.00  0.00     0.029 A 
ATOM     54  N   UNL A   1      42.267  29.640  29.939  1.00  0.00    -0.354 N 
ATOM     55  N   UNL A   1      45.037  28.704  30.025  1.00  0.00    -0.248 NA
ATOM     56  C   UNL A   1      47.296  29.096  30.459  1.00  0.00     0.031 C 
ATOM     57  C   UNL A   1      41.811  31.668  30.724  1.00  0.00     0.029 A 
ATOM     58  C   UNL A   1      42.838  30.765  30.513  1.00  0.00     0.049 A 
ATOM     59  H   UNL A   1      42.759  28.829  29.672  1.00  0.00     0.167 HD
ATOM     60  C   UNL A   1      45.185  29.976  30.566  1.00  0.00     0.074 A 
ATOM     61  C   UNL A   1      46.594  30.149  30.848  1.00  0.00     0.031 C 
ATOM     62  C   UNL A   1      44.239  30.915  30.807  1.00  0.00     0.037 A 
BRANCH  49  63
ATOM     63  C   UNL A   1      38.563  29.266  29.045  1.00  0.00     0.057 A 
ATOM     64  C   UNL A   1      37.665  29.288  30.121  1.00  0.00     0.134 A 
ATOM     65  C   UNL A   1      38.089  29.693  27.798  1.00  0.00     0.134 A 
ATOM     66  F   UNL A   1      38.052  28.882  31.339  1.00  0.00    -0.206 F 
ATOM     67  C   UNL A   1      36.342  29.701  29.957  1.00  0.00     0.040 A 
ATOM     68  C   UNL A   1      36.776  30.134  27.628  1.00  0.00     0.040 A 
ATOM     69  F   UNL A   1      38.899  29.704  26.728  1.00  0.00    -0.206 F 
ATOM     70  C   UNL A   1      35.896  30.135  28.709  1.00  0.00     0.006 A 
ENDBRANCH  49  63
BRANCH  50  71
ATOM     71  C   UNL A   1      48.111  26.442  29.569  1.00  0.00     0.057 A 
ATOM     72  C   UNL A   1      48.946  26.659  28.466  1.00  0.00     0.134 A 
ATOM     73  C   UNL A   1      48.671  25.813  30.686  1.00  0.00     0.134 A 
ATOM     74  F   UNL A   1      48.463  27.239  27.357  1.00  0.00    -0.206 F 
ATOM     75  C   UNL A   1      50.276  26.237  28.460  1.00  0.00     0.040 A 
ATOM     76  C   UNL A   1      50.008  25.410  30.705  1.00  0.00     0.040 A 
ATOM     77  F   UNL A   1      47.928  25.582  31.778  1.00  0.00    -0.206 F 
ATOM     78  C   UNL A   1      50.811  25.610  29.585  1.00  0.00     0.006 A 
ENDBRANCH  50  71
BRANCH  62  79
ATOM     79  C   UNL A   1      44.688  32.192  31.455  1.00  0.00     0.057 A 
ATOM     80  C   UNL A   1      44.730  32.343  32.846  1.00  0.00     0.134 A 
ATOM     81  C   UNL A   1      45.112  33.273  30.673  1.00  0.00     0.134 A 
ATOM     82  F   UNL A   1      44.325  31.350  33.652  1.00  0.00    -0.206 F 
ATOM     83  C   UNL A   1      45.154  33.536  33.437  1.00  0.00     0.040 A 
ATOM     84  C   UNL A   1      45.565  34.459  31.252  1.00  0.00     0.040 A 
ATOM     85  F   UNL A   1      45.107  33.190  29.334  1.00  0.00    -0.206 F 
ATOM     86  C   UNL A   1      45.579  34.595  32.638  1.00  0.00     0.006 A 
ENDBRANCH  62  79
ENDBRANCH  36  37
ENDBRANCH  28  31
ENDBRANCH  26  27
ENDBRANCH  25  26
ENDBRANCH  24  25
ENDBRANCH   1  24
TORSDOF 17
ENDMDL
