MODEL 1
REMARK VINA RESULT:     -13.1      0.000      0.000
REMARK SMILES CC(C)[C@@H]1C(=O)Nc2ccccc2N1C(=O)N[C@H](Cc1ccccc1)C(=O)NCCCCNC(=O)c1ccc(-c2c3nc(c(-c4c(F)cccc4F)c4ccc([nH]4)c(-c4c(F)cccc4F)c4nc(c(-c5c(F)cccc5F)c5ccc2[nH]5)C=C4)C=C3)cc1
REMARK SMILES IDX 30 1 29 2 28 3 26 4 27 5 18 7 17 8 15 9 16 10 14 12 4 13
REMARK SMILES IDX 5 14 6 15 7 16 13 17 8 18 12 20 9 21 11 22 10 23 2 24 1 25
REMARK SMILES IDX 3 26 19 27 20 28 21 29 25 30 22 31 24 32 23 33 31 34 32 35
REMARK SMILES IDX 33 36 34 37 35 39 36 40 37 41 89 42 38 43 88 44 39 45 40 46
REMARK SMILES IDX 41 47 82 48 42 49 87 50 81 51 83 52 43 53 86 54 80 55 79 56
REMARK SMILES IDX 44 58 70 59 53 60 69 61 54 62 57 63 68 64 84 65 55 66 56 67
REMARK SMILES IDX 67 69 85 70 58 71 45 72 46 73 51 74 47 75 48 76 50 77 52 78
REMARK SMILES IDX 49 79 71 80 72 81 77 82 73 83 74 84 76 85 78 86 75 87 59 88
REMARK SMILES IDX 60 89 65 90 61 91 62 92 64 93 66 94 63 95
REMARK H PARENT 28 6 17 11 7 19 33 38 83 57 57 68
REMARK Flexibility Score: inf
ROOT
ATOM      1  C   UNL A   1      33.195  28.739  24.412  1.00  0.00     0.023 C 
ENDROOT
BRANCH   1   2
ATOM      2  C   UNL A   1      33.399  28.992  22.885  1.00  0.00     0.116 C 
BRANCH   2   3
ATOM      3  N   UNL A   1      33.415  27.831  21.977  1.00  0.00    -0.354 N 
ATOM      4  C   UNL A   1      32.605  26.720  22.180  1.00  0.00     0.242 C 
ATOM      5  O   UNL A   1      31.416  26.833  21.859  1.00  0.00    -0.273 OA
ATOM      6  H   UNL A   1      34.021  27.842  21.201  1.00  0.00     0.163 HD
BRANCH   4   7
ATOM      7  C   UNL A   1      33.188  25.267  22.501  1.00  0.00     0.177 C 
BRANCH   7   8
ATOM      8  N   UNL A   1      32.338  24.070  22.512  1.00  0.00    -0.326 N 
ATOM      9  C   UNL A   1      31.379  23.662  23.365  1.00  0.00     0.323 C 
ATOM     10  O   UNL A   1      30.225  23.790  22.945  1.00  0.00    -0.248 OA
ATOM     11  H   UNL A   1      32.498  23.455  21.760  1.00  0.00     0.166 HD
BRANCH   9  12
ATOM     12  N   UNL A   1      31.694  22.950  24.509  1.00  0.00    -0.280 N 
ATOM     13  C   UNL A   1      31.418  23.291  25.958  1.00  0.00     0.184 C 
ATOM     14  C   UNL A   1      32.389  22.664  26.985  1.00  0.00     0.247 C 
ATOM     15  O   UNL A   1      32.335  22.890  28.197  1.00  0.00    -0.272 OA
ATOM     16  N   UNL A   1      33.200  21.663  26.580  1.00  0.00    -0.322 N 
ATOM     17  C   UNL A   1      32.303  21.634  24.323  1.00  0.00     0.070 A 
ATOM     18  C   UNL A   1      33.064  21.051  25.345  1.00  0.00     0.065 A 
ATOM     19  H   UNL A   1      33.914  21.357  27.184  1.00  0.00     0.170 HD
ATOM     20  C   UNL A   1      32.060  20.838  23.187  1.00  0.00     0.028 A 
ATOM     21  C   UNL A   1      33.612  19.771  25.226  1.00  0.00     0.028 A 
ATOM     22  C   UNL A   1      32.529  19.517  23.107  1.00  0.00     0.002 A 
ATOM     23  C   UNL A   1      33.313  18.987  24.123  1.00  0.00     0.002 A 
BRANCH  13  24
ATOM     24  C   UNL A   1      31.205  24.741  26.475  1.00  0.00     0.015 C 
ATOM     25  C   UNL A   1      32.425  25.628  26.334  1.00  0.00     0.010 C 
ATOM     26  C   UNL A   1      29.805  25.260  26.132  1.00  0.00     0.010 C 
ENDBRANCH  13  24
ENDBRANCH   9  12
ENDBRANCH   7   8
BRANCH   7  27
ATOM     27  C   UNL A   1      34.218  25.288  23.741  1.00  0.00     0.070 C 
BRANCH  27  28
ATOM     28  C   UNL A   1      35.109  24.109  24.197  1.00  0.00    -0.045 A 
ATOM     29  C   UNL A   1      35.618  24.048  25.516  1.00  0.00     0.004 A 
ATOM     30  C   UNL A   1      35.591  23.138  23.308  1.00  0.00     0.004 A 
ATOM     31  C   UNL A   1      36.517  23.056  25.944  1.00  0.00     0.000 A 
ATOM     32  C   UNL A   1      36.529  22.168  23.721  1.00  0.00     0.000 A 
ATOM     33  C   UNL A   1      36.989  22.121  25.037  1.00  0.00     0.000 A 
ENDBRANCH  27  28
ENDBRANCH   7  27
ENDBRANCH   4   7
ENDBRANCH   2   3
ENDBRANCH   1   2
BRANCH   1  34
ATOM     34  C   UNL A   1      32.097  29.486  25.190  1.00  0.00     0.023 C 
BRANCH  34  35
ATOM     35  C   UNL A   1      32.489  29.813  26.656  1.00  0.00     0.116 C 
BRANCH  35  36
ATOM     36  N   UNL A   1      32.446  31.232  27.019  1.00  0.00    -0.352 N 
ATOM     37  C   UNL A   1      33.412  32.052  27.598  1.00  0.00     0.251 C 
ATOM     38  H   UNL A   1      31.592  31.681  26.822  1.00  0.00     0.163 HD
ATOM     39  O   UNL A   1      33.119  33.133  28.059  1.00  0.00    -0.269 OA
BRANCH  37  40
ATOM     40  C   UNL A   1      34.805  31.555  27.700  1.00  0.00     0.039 A 
ATOM     41  C   UNL A   1      35.848  32.469  27.875  1.00  0.00     0.014 A 
ATOM     42  C   UNL A   1      35.045  30.187  27.774  1.00  0.00     0.014 A 
ATOM     43  C   UNL A   1      37.082  32.008  28.339  1.00  0.00     0.010 A 
ATOM     44  C   UNL A   1      36.221  29.746  28.362  1.00  0.00     0.010 A 
ATOM     45  C   UNL A   1      37.233  30.657  28.697  1.00  0.00    -0.014 A 
BRANCH  45  46
ATOM     46  C   UNL A   1      38.392  30.217  29.515  1.00  0.00     0.031 A 
ATOM     47  C   UNL A   1      38.568  30.709  30.922  1.00  0.00     0.074 A 
ATOM     48  C   UNL A   1      39.328  29.425  28.947  1.00  0.00     0.049 A 
ATOM     49  N   UNL A   1      39.496  30.405  31.791  1.00  0.00    -0.248 NA
ATOM     50  C   UNL A   1      37.596  31.702  31.408  1.00  0.00     0.031 C 
ATOM     51  C   UNL A   1      39.323  28.976  27.550  1.00  0.00     0.029 A 
ATOM     52  N   UNL A   1      40.460  28.849  29.467  1.00  0.00    -0.354 N 
ATOM     53  C   UNL A   1      39.216  31.162  32.921  1.00  0.00     0.074 A 
ATOM     54  C   UNL A   1      38.089  32.007  32.597  1.00  0.00     0.031 C 
ATOM     55  C   UNL A   1      40.356  28.145  27.346  1.00  0.00     0.029 A 
ATOM     56  C   UNL A   1      41.120  28.028  28.582  1.00  0.00     0.049 A 
ATOM     57  H   UNL A   1      40.770  29.008  30.387  1.00  0.00     0.167 HD
ATOM     58  C   UNL A   1      39.818  31.126  34.132  1.00  0.00     0.037 A 
ATOM     59  C   UNL A   1      42.206  27.250  28.756  1.00  0.00     0.037 A 
ATOM     60  C   UNL A   1      40.935  30.273  34.441  1.00  0.00     0.049 A 
ATOM     61  C   UNL A   1      42.843  27.209  30.118  1.00  0.00     0.074 A 
ATOM     62  C   UNL A   1      41.596  30.117  35.646  1.00  0.00     0.029 A 
ATOM     63  N   UNL A   1      41.558  29.435  33.528  1.00  0.00    -0.354 N 
ATOM     64  N   UNL A   1      42.504  27.854  31.208  1.00  0.00    -0.248 NA
ATOM     65  C   UNL A   1      44.003  26.322  30.279  1.00  0.00     0.031 C 
ATOM     66  C   UNL A   1      42.651  29.220  35.448  1.00  0.00     0.029 A 
ATOM     67  C   UNL A   1      42.610  28.772  34.136  1.00  0.00     0.049 A 
ATOM     68  H   UNL A   1      41.292  29.327  32.586  1.00  0.00     0.167 HD
ATOM     69  C   UNL A   1      43.384  27.427  32.193  1.00  0.00     0.074 A 
ATOM     70  C   UNL A   1      44.261  26.455  31.572  1.00  0.00     0.031 C 
ATOM     71  C   UNL A   1      43.462  27.803  33.494  1.00  0.00     0.037 A 
BRANCH  58  72
ATOM     72  C   UNL A   1      39.264  32.024  35.201  1.00  0.00     0.057 A 
ATOM     73  C   UNL A   1      38.336  31.562  36.147  1.00  0.00     0.134 A 
ATOM     74  C   UNL A   1      39.656  33.365  35.290  1.00  0.00     0.134 A 
ATOM     75  F   UNL A   1      37.904  30.291  36.111  1.00  0.00    -0.206 F 
ATOM     76  C   UNL A   1      37.791  32.407  37.115  1.00  0.00     0.040 A 
ATOM     77  C   UNL A   1      39.141  34.213  36.274  1.00  0.00     0.040 A 
ATOM     78  F   UNL A   1      40.541  33.875  34.421  1.00  0.00    -0.206 F 
ATOM     79  C   UNL A   1      38.199  33.737  37.183  1.00  0.00     0.006 A 
ENDBRANCH  58  72
BRANCH  59  80
ATOM     80  C   UNL A   1      42.723  26.411  27.641  1.00  0.00     0.057 A 
ATOM     81  C   UNL A   1      43.675  26.906  26.740  1.00  0.00     0.134 A 
ATOM     82  C   UNL A   1      42.276  25.100  27.440  1.00  0.00     0.134 A 
ATOM     83  F   UNL A   1      44.136  28.159  26.866  1.00  0.00    -0.206 F 
ATOM     84  C   UNL A   1      44.140  26.142  25.667  1.00  0.00     0.040 A 
ATOM     85  C   UNL A   1      42.753  24.313  26.389  1.00  0.00     0.040 A 
ATOM     86  F   UNL A   1      41.375  24.556  28.272  1.00  0.00    -0.206 F 
ATOM     87  C   UNL A   1      43.682  24.838  25.492  1.00  0.00     0.006 A 
ENDBRANCH  59  80
BRANCH  71  88
ATOM     88  C   UNL A   1      44.505  27.129  34.335  1.00  0.00     0.057 A 
ATOM     89  C   UNL A   1      45.787  27.668  34.505  1.00  0.00     0.134 A 
ATOM     90  C   UNL A   1      44.209  25.937  35.011  1.00  0.00     0.134 A 
ATOM     91  F   UNL A   1      46.138  28.800  33.877  1.00  0.00    -0.206 F 
ATOM     92  C   UNL A   1      46.747  27.030  35.292  1.00  0.00     0.040 A 
ATOM     93  C   UNL A   1      45.149  25.308  35.826  1.00  0.00     0.040 A 
ATOM     94  F   UNL A   1      42.996  25.375  34.900  1.00  0.00    -0.206 F 
ATOM     95  C   UNL A   1      46.426  25.849  35.960  1.00  0.00     0.006 A 
ENDBRANCH  71  88
ENDBRANCH  45  46
ENDBRANCH  37  40
ENDBRANCH  35  36
ENDBRANCH  34  35
ENDBRANCH   1  34
TORSDOF 16
ENDMDL
MODEL 2
REMARK VINA RESULT:     -13.0      2.123      2.771
REMARK SMILES CC(C)[C@@H]1C(=O)Nc2ccccc2N1C(=O)N[C@H](Cc1ccccc1)C(=O)NCCCCNC(=O)c1ccc(-c2c3nc(c(-c4c(F)cccc4F)c4ccc([nH]4)c(-c4c(F)cccc4F)c4nc(c(-c5c(F)cccc5F)c5ccc2[nH]5)C=C4)C=C3)cc1
REMARK SMILES IDX 30 1 29 2 28 3 26 4 27 5 18 7 17 8 15 9 16 10 14 12 4 13
REMARK SMILES IDX 5 14 6 15 7 16 13 17 8 18 12 20 9 21 11 22 10 23 2 24 1 25
REMARK SMILES IDX 3 26 19 27 20 28 21 29 25 30 22 31 24 32 23 33 31 34 32 35
REMARK SMILES IDX 33 36 34 37 35 39 36 40 37 41 89 42 38 43 88 44 39 45 40 46
REMARK SMILES IDX 41 47 82 48 42 49 87 50 81 51 83 52 43 53 86 54 80 55 79 56
REMARK SMILES IDX 44 58 70 59 53 60 69 61 54 62 57 63 68 64 84 65 55 66 56 67
REMARK SMILES IDX 67 69 85 70 58 71 45 72 46 73 51 74 47 75 48 76 50 77 52 78
REMARK SMILES IDX 49 79 71 80 72 81 77 82 73 83 74 84 76 85 78 86 75 87 59 88
REMARK SMILES IDX 60 89 65 90 61 91 62 92 64 93 66 94 63 95
REMARK H PARENT 28 6 17 11 7 19 33 38 83 57 57 68
REMARK Flexibility Score: inf
ROOT
ATOM      1  C   UNL A   1      31.686  29.845  25.743  1.00  0.00     0.023 C 
ENDROOT
BRANCH   1   2
ATOM      2  C   UNL A   1      32.010  28.961  24.497  1.00  0.00     0.116 C 
BRANCH   2   3
ATOM      3  N   UNL A   1      33.321  28.292  24.434  1.00  0.00    -0.354 N 
ATOM      4  C   UNL A   1      33.722  27.548  23.331  1.00  0.00     0.242 C 
ATOM      5  O   UNL A   1      34.107  28.184  22.341  1.00  0.00    -0.273 OA
ATOM      6  H   UNL A   1      33.935  28.373  25.200  1.00  0.00     0.163 HD
BRANCH   4   7
ATOM      7  C   UNL A   1      33.994  25.975  23.396  1.00  0.00     0.177 C 
BRANCH   7   8
ATOM      8  N   UNL A   1      33.079  24.999  22.791  1.00  0.00    -0.326 N 
ATOM      9  C   UNL A   1      31.779  24.730  23.020  1.00  0.00     0.323 C 
ATOM     10  O   UNL A   1      31.005  25.150  22.154  1.00  0.00    -0.248 OA
ATOM     11  H   UNL A   1      33.490  24.440  22.092  1.00  0.00     0.166 HD
BRANCH   9  12
ATOM     12  N   UNL A   1      31.394  23.858  24.022  1.00  0.00    -0.280 N 
ATOM     13  C   UNL A   1      30.480  24.100  25.205  1.00  0.00     0.184 C 
ATOM     14  C   UNL A   1      30.728  23.192  26.433  1.00  0.00     0.247 C 
ATOM     15  O   UNL A   1      30.108  23.301  27.495  1.00  0.00    -0.272 OA
ATOM     16  N   UNL A   1      31.501  22.095  26.280  1.00  0.00    -0.322 N 
ATOM     17  C   UNL A   1      31.845  22.474  23.905  1.00  0.00     0.070 A 
ATOM     18  C   UNL A   1      31.920  21.650  25.037  1.00  0.00     0.065 A 
ATOM     19  H   UNL A   1      31.777  21.594  27.080  1.00  0.00     0.170 HD
ATOM     20  C   UNL A   1      32.100  21.860  22.664  1.00  0.00     0.028 A 
ATOM     21  C   UNL A   1      32.290  20.305  24.955  1.00  0.00     0.028 A 
ATOM     22  C   UNL A   1      32.379  20.487  22.570  1.00  0.00     0.002 A 
ATOM     23  C   UNL A   1      32.482  19.712  23.718  1.00  0.00     0.002 A 
BRANCH  13  24
ATOM     24  C   UNL A   1      30.222  25.504  25.821  1.00  0.00     0.015 C 
ATOM     25  C   UNL A   1      31.428  26.101  26.518  1.00  0.00     0.010 C 
ATOM     26  C   UNL A   1      29.329  26.358  24.914  1.00  0.00     0.010 C 
ENDBRANCH  13  24
ENDBRANCH   9  12
ENDBRANCH   7   8
BRANCH   7  27
ATOM     27  C   UNL A   1      34.498  25.507  24.854  1.00  0.00     0.070 C 
BRANCH  27  28
ATOM     28  C   UNL A   1      35.005  24.094  25.225  1.00  0.00    -0.045 A 
ATOM     29  C   UNL A   1      35.625  23.266  24.259  1.00  0.00     0.004 A 
ATOM     30  C   UNL A   1      34.742  23.499  26.466  1.00  0.00     0.004 A 
ATOM     31  C   UNL A   1      36.004  21.938  24.521  1.00  0.00     0.000 A 
ATOM     32  C   UNL A   1      35.078  22.151  26.717  1.00  0.00     0.000 A 
ATOM     33  C   UNL A   1      35.714  21.371  25.751  1.00  0.00     0.000 A 
ENDBRANCH  27  28
ENDBRANCH   7  27
ENDBRANCH   4   7
ENDBRANCH   2   3
ENDBRANCH   1   2
BRANCH   1  34
ATOM     34  C   UNL A   1      32.494  29.690  27.044  1.00  0.00     0.023 C 
BRANCH  34  35
ATOM     35  C   UNL A   1      33.452  30.879  27.324  1.00  0.00     0.116 C 
BRANCH  35  36
ATOM     36  N   UNL A   1      32.824  32.203  27.350  1.00  0.00    -0.352 N 
ATOM     37  C   UNL A   1      33.155  33.353  28.063  1.00  0.00     0.251 C 
ATOM     38  H   UNL A   1      32.036  32.296  26.766  1.00  0.00     0.163 HD
ATOM     39  O   UNL A   1      32.378  34.277  28.155  1.00  0.00    -0.269 OA
BRANCH  37  40
ATOM     40  C   UNL A   1      34.459  33.406  28.769  1.00  0.00     0.039 A 
ATOM     41  C   UNL A   1      34.570  32.851  30.046  1.00  0.00     0.014 A 
ATOM     42  C   UNL A   1      35.586  33.867  28.098  1.00  0.00     0.014 A 
ATOM     43  C   UNL A   1      35.840  32.563  30.551  1.00  0.00     0.010 A 
ATOM     44  C   UNL A   1      36.837  33.459  28.537  1.00  0.00     0.010 A 
ATOM     45  C   UNL A   1      36.973  32.759  29.744  1.00  0.00    -0.014 A 
BRANCH  45  46
ATOM     46  C   UNL A   1      38.275  32.140  30.104  1.00  0.00     0.031 A 
ATOM     47  C   UNL A   1      39.221  32.836  31.039  1.00  0.00     0.074 A 
ATOM     48  C   UNL A   1      38.630  30.977  29.516  1.00  0.00     0.049 A 
ATOM     49  N   UNL A   1      40.380  32.431  31.490  1.00  0.00    -0.248 NA
ATOM     50  C   UNL A   1      38.834  34.178  31.503  1.00  0.00     0.031 C 
ATOM     51  C   UNL A   1      37.842  30.265  28.502  1.00  0.00     0.029 A 
ATOM     52  N   UNL A   1      39.734  30.180  29.685  1.00  0.00    -0.354 N 
ATOM     53  C   UNL A   1      40.853  33.464  32.290  1.00  0.00     0.074 A 
ATOM     54  C   UNL A   1      39.903  34.548  32.189  1.00  0.00     0.031 C 
ATOM     55  C   UNL A   1      38.452  29.111  28.194  1.00  0.00     0.029 A 
ATOM     56  C   UNL A   1      39.691  29.013  28.955  1.00  0.00     0.049 A 
ATOM     57  H   UNL A   1      40.486  30.419  30.272  1.00  0.00     0.167 HD
ATOM     58  C   UNL A   1      41.958  33.489  33.069  1.00  0.00     0.037 A 
ATOM     59  C   UNL A   1      40.545  27.972  28.923  1.00  0.00     0.037 A 
ATOM     60  C   UNL A   1      42.891  32.398  33.164  1.00  0.00     0.049 A 
ATOM     61  C   UNL A   1      41.755  28.013  29.816  1.00  0.00     0.074 A 
ATOM     62  C   UNL A   1      44.021  32.292  33.955  1.00  0.00     0.029 A 
ATOM     63  N   UNL A   1      42.801  31.223  32.432  1.00  0.00    -0.354 N 
ATOM     64  N   UNL A   1      42.136  28.954  30.647  1.00  0.00    -0.248 NA
ATOM     65  C   UNL A   1      42.643  26.844  29.781  1.00  0.00     0.031 C 
ATOM     66  C   UNL A   1      44.640  31.071  33.665  1.00  0.00     0.029 A 
ATOM     67  C   UNL A   1      43.864  30.391  32.738  1.00  0.00     0.049 A 
ATOM     68  H   UNL A   1      42.085  31.010  31.790  1.00  0.00     0.167 HD
ATOM     69  C   UNL A   1      43.288  28.478  31.257  1.00  0.00     0.074 A 
ATOM     70  C   UNL A   1      43.532  27.158  30.713  1.00  0.00     0.031 C 
ATOM     71  C   UNL A   1      44.077  29.078  32.185  1.00  0.00     0.037 A 
BRANCH  58  72
ATOM     72  C   UNL A   1      42.197  34.729  33.881  1.00  0.00     0.057 A 
ATOM     73  C   UNL A   1      41.728  34.853  35.198  1.00  0.00     0.134 A 
ATOM     74  C   UNL A   1      42.901  35.816  33.348  1.00  0.00     0.134 A 
ATOM     75  F   UNL A   1      41.030  33.856  35.767  1.00  0.00    -0.206 F 
ATOM     76  C   UNL A   1      41.915  36.022  35.939  1.00  0.00     0.040 A 
ATOM     77  C   UNL A   1      43.122  36.979  34.090  1.00  0.00     0.040 A 
ATOM     78  F   UNL A   1      43.381  35.768  32.097  1.00  0.00    -0.206 F 
ATOM     79  C   UNL A   1      42.620  37.087  35.385  1.00  0.00     0.006 A 
ENDBRANCH  58  72
BRANCH  59  80
ATOM     80  C   UNL A   1      40.263  26.788  28.067  1.00  0.00     0.057 A 
ATOM     81  C   UNL A   1      40.805  26.677  26.779  1.00  0.00     0.134 A 
ATOM     82  C   UNL A   1      39.442  25.743  28.505  1.00  0.00     0.134 A 
ATOM     83  F   UNL A   1      41.590  27.649  26.291  1.00  0.00    -0.206 F 
ATOM     84  C   UNL A   1      40.518  25.589  25.951  1.00  0.00     0.040 A 
ATOM     85  C   UNL A   1      39.169  24.635  27.700  1.00  0.00     0.040 A 
ATOM     86  F   UNL A   1      38.899  25.776  29.732  1.00  0.00    -0.206 F 
ATOM     87  C   UNL A   1      39.700  24.560  26.414  1.00  0.00     0.006 A 
ENDBRANCH  59  80
BRANCH  71  88
ATOM     88  C   UNL A   1      45.247  28.289  32.694  1.00  0.00     0.057 A 
ATOM     89  C   UNL A   1      45.138  27.415  33.783  1.00  0.00     0.134 A 
ATOM     90  C   UNL A   1      46.494  28.385  32.063  1.00  0.00     0.134 A 
ATOM     91  F   UNL A   1      43.975  27.287  34.439  1.00  0.00    -0.206 F 
ATOM     92  C   UNL A   1      46.235  26.687  34.246  1.00  0.00     0.040 A 
ATOM     93  C   UNL A   1      47.589  27.638  32.494  1.00  0.00     0.040 A 
ATOM     94  F   UNL A   1      46.663  29.195  31.007  1.00  0.00    -0.206 F 
ATOM     95  C   UNL A   1      47.464  26.794  33.595  1.00  0.00     0.006 A 
ENDBRANCH  71  88
ENDBRANCH  45  46
ENDBRANCH  37  40
ENDBRANCH  35  36
ENDBRANCH  34  35
ENDBRANCH   1  34
TORSDOF 16
ENDMDL
MODEL 3
REMARK VINA RESULT:     -12.8      1.897      2.480
REMARK SMILES CC(C)[C@@H]1C(=O)Nc2ccccc2N1C(=O)N[C@H](Cc1ccccc1)C(=O)NCCCCNC(=O)c1ccc(-c2c3nc(c(-c4c(F)cccc4F)c4ccc([nH]4)c(-c4c(F)cccc4F)c4nc(c(-c5c(F)cccc5F)c5ccc2[nH]5)C=C4)C=C3)cc1
REMARK SMILES IDX 30 1 29 2 28 3 26 4 27 5 18 7 17 8 15 9 16 10 14 12 4 13
REMARK SMILES IDX 5 14 6 15 7 16 13 17 8 18 12 20 9 21 11 22 10 23 2 24 1 25
REMARK SMILES IDX 3 26 19 27 20 28 21 29 25 30 22 31 24 32 23 33 31 34 32 35
REMARK SMILES IDX 33 36 34 37 35 39 36 40 37 41 89 42 38 43 88 44 39 45 40 46
REMARK SMILES IDX 41 47 82 48 42 49 87 50 81 51 83 52 43 53 86 54 80 55 79 56
REMARK SMILES IDX 44 58 70 59 53 60 69 61 54 62 57 63 68 64 84 65 55 66 56 67
REMARK SMILES IDX 67 69 85 70 58 71 45 72 46 73 51 74 47 75 48 76 50 77 52 78
REMARK SMILES IDX 49 79 71 80 72 81 77 82 73 83 74 84 76 85 78 86 75 87 59 88
REMARK SMILES IDX 60 89 65 90 61 91 62 92 64 93 66 94 63 95
REMARK H PARENT 28 6 17 11 7 19 33 38 83 57 57 68
REMARK Flexibility Score: inf
ROOT
ATOM      1  C   UNL A   1      33.465  28.768  25.064  1.00  0.00     0.023 C 
ENDROOT
BRANCH   1   2
ATOM      2  C   UNL A   1      32.892  28.984  23.627  1.00  0.00     0.116 C 
BRANCH   2   3
ATOM      3  N   UNL A   1      33.231  28.001  22.583  1.00  0.00    -0.354 N 
ATOM      4  C   UNL A   1      32.507  26.829  22.405  1.00  0.00     0.242 C 
ATOM      5  O   UNL A   1      31.419  26.928  21.823  1.00  0.00    -0.273 OA
ATOM      6  H   UNL A   1      33.996  28.182  21.990  1.00  0.00     0.163 HD
BRANCH   4   7
ATOM      7  C   UNL A   1      33.137  25.377  22.629  1.00  0.00     0.177 C 
BRANCH   7   8
ATOM      8  N   UNL A   1      32.321  24.157  22.589  1.00  0.00    -0.326 N 
ATOM      9  C   UNL A   1      31.362  23.695  23.414  1.00  0.00     0.323 C 
ATOM     10  O   UNL A   1      30.210  23.806  22.981  1.00  0.00    -0.248 OA
ATOM     11  H   UNL A   1      32.508  23.572  21.820  1.00  0.00     0.166 HD
BRANCH   9  12
ATOM     12  N   UNL A   1      31.680  22.955  24.539  1.00  0.00    -0.280 N 
ATOM     13  C   UNL A   1      31.402  23.257  25.996  1.00  0.00     0.184 C 
ATOM     14  C   UNL A   1      32.377  22.609  27.007  1.00  0.00     0.247 C 
ATOM     15  O   UNL A   1      32.320  22.803  28.225  1.00  0.00    -0.272 OA
ATOM     16  N   UNL A   1      33.194  21.624  26.577  1.00  0.00    -0.322 N 
ATOM     17  C   UNL A   1      32.297  21.649  24.319  1.00  0.00     0.070 A 
ATOM     18  C   UNL A   1      33.061  21.044  25.326  1.00  0.00     0.065 A 
ATOM     19  H   UNL A   1      33.909  21.306  27.173  1.00  0.00     0.170 HD
ATOM     20  C   UNL A   1      32.059  20.881  23.163  1.00  0.00     0.028 A 
ATOM     21  C   UNL A   1      33.617  19.770  25.174  1.00  0.00     0.028 A 
ATOM     22  C   UNL A   1      32.537  19.566  23.048  1.00  0.00     0.002 A 
ATOM     23  C   UNL A   1      33.323  19.014  24.051  1.00  0.00     0.002 A 
BRANCH  13  24
ATOM     24  C   UNL A   1      31.181  24.691  26.551  1.00  0.00     0.015 C 
ATOM     25  C   UNL A   1      32.399  25.585  26.447  1.00  0.00     0.010 C 
ATOM     26  C   UNL A   1      29.782  25.217  26.208  1.00  0.00     0.010 C 
ENDBRANCH  13  24
ENDBRANCH   9  12
ENDBRANCH   7   8
BRANCH   7  27
ATOM     27  C   UNL A   1      34.194  25.357  23.846  1.00  0.00     0.070 C 
BRANCH  27  28
ATOM     28  C   UNL A   1      35.107  24.169  24.231  1.00  0.00    -0.045 A 
ATOM     29  C   UNL A   1      35.638  24.053  25.538  1.00  0.00     0.004 A 
ATOM     30  C   UNL A   1      35.586  23.248  23.290  1.00  0.00     0.004 A 
ATOM     31  C   UNL A   1      36.556  23.054  25.904  1.00  0.00     0.000 A 
ATOM     32  C   UNL A   1      36.543  22.272  23.643  1.00  0.00     0.000 A 
ATOM     33  C   UNL A   1      37.024  22.169  24.947  1.00  0.00     0.000 A 
ENDBRANCH  27  28
ENDBRANCH   7  27
ENDBRANCH   4   7
ENDBRANCH   2   3
ENDBRANCH   1   2
BRANCH   1  34
ATOM     34  C   UNL A   1      32.716  29.310  26.295  1.00  0.00     0.023 C 
BRANCH  34  35
ATOM     35  C   UNL A   1      33.462  30.466  27.015  1.00  0.00     0.116 C 
BRANCH  35  36
ATOM     36  N   UNL A   1      32.762  31.754  27.033  1.00  0.00    -0.352 N 
ATOM     37  C   UNL A   1      33.015  32.915  27.758  1.00  0.00     0.251 C 
ATOM     38  H   UNL A   1      31.983  31.807  26.432  1.00  0.00     0.163 HD
ATOM     39  O   UNL A   1      32.187  33.795  27.837  1.00  0.00    -0.269 OA
BRANCH  37  40
ATOM     40  C   UNL A   1      34.298  33.036  28.491  1.00  0.00     0.039 A 
ATOM     41  C   UNL A   1      34.408  32.493  29.774  1.00  0.00     0.014 A 
ATOM     42  C   UNL A   1      35.416  33.549  27.843  1.00  0.00     0.014 A 
ATOM     43  C   UNL A   1      35.679  32.270  30.309  1.00  0.00     0.010 A 
ATOM     44  C   UNL A   1      36.676  33.205  28.311  1.00  0.00     0.010 A 
ATOM     45  C   UNL A   1      36.819  32.518  29.525  1.00  0.00    -0.014 A 
BRANCH  45  46
ATOM     46  C   UNL A   1      38.141  31.966  29.917  1.00  0.00     0.031 A 
ATOM     47  C   UNL A   1      39.038  32.719  30.856  1.00  0.00     0.074 A 
ATOM     48  C   UNL A   1      38.559  30.810  29.355  1.00  0.00     0.049 A 
ATOM     49  N   UNL A   1      40.206  32.376  31.333  1.00  0.00    -0.248 NA
ATOM     50  C   UNL A   1      38.583  34.050  31.290  1.00  0.00     0.031 C 
ATOM     51  C   UNL A   1      37.822  30.047  28.341  1.00  0.00     0.029 A 
ATOM     52  N   UNL A   1      39.695  30.067  29.556  1.00  0.00    -0.354 N 
ATOM     53  C   UNL A   1      40.618  33.442  32.122  1.00  0.00     0.074 A 
ATOM     54  C   UNL A   1      39.621  34.480  31.988  1.00  0.00     0.031 C 
ATOM     55  C   UNL A   1      38.489  28.917  28.063  1.00  0.00     0.029 A 
ATOM     56  C   UNL A   1      39.718  28.888  28.846  1.00  0.00     0.049 A 
ATOM     57  H   UNL A   1      40.425  30.351  30.152  1.00  0.00     0.167 HD
ATOM     58  C   UNL A   1      41.708  33.531  32.919  1.00  0.00     0.037 A 
ATOM     59  C   UNL A   1      40.619  27.887  28.846  1.00  0.00     0.037 A 
ATOM     60  C   UNL A   1      42.688  32.485  33.048  1.00  0.00     0.049 A 
ATOM     61  C   UNL A   1      41.810  27.999  29.758  1.00  0.00     0.074 A 
ATOM     62  C   UNL A   1      43.807  32.444  33.859  1.00  0.00     0.029 A 
ATOM     63  N   UNL A   1      42.663  31.295  32.335  1.00  0.00    -0.354 N 
ATOM     64  N   UNL A   1      42.134  28.969  30.578  1.00  0.00    -0.248 NA
ATOM     65  C   UNL A   1      42.751  26.871  29.758  1.00  0.00     0.031 C 
ATOM     66  C   UNL A   1      44.486  31.248  33.601  1.00  0.00     0.029 A 
ATOM     67  C   UNL A   1      43.757  30.518  32.673  1.00  0.00     0.049 A 
ATOM     68  H   UNL A   1      41.969  31.039  31.685  1.00  0.00     0.167 HD
ATOM     69  C   UNL A   1      43.296  28.557  31.216  1.00  0.00     0.074 A 
ATOM     70  C   UNL A   1      43.609  27.240  30.698  1.00  0.00     0.031 C 
ATOM     71  C   UNL A   1      44.040  29.207  32.146  1.00  0.00     0.037 A 
BRANCH  58  72
ATOM     72  C   UNL A   1      41.876  34.794  33.714  1.00  0.00     0.057 A 
ATOM     73  C   UNL A   1      42.654  35.863  33.245  1.00  0.00     0.134 A 
ATOM     74  C   UNL A   1      41.259  34.948  34.961  1.00  0.00     0.134 A 
ATOM     75  F   UNL A   1      43.287  35.777  32.065  1.00  0.00    -0.206 F 
ATOM     76  C   UNL A   1      42.843  37.021  34.003  1.00  0.00     0.040 A 
ATOM     77  C   UNL A   1      41.415  36.114  35.715  1.00  0.00     0.040 A 
ATOM     78  F   UNL A   1      40.499  33.968  35.471  1.00  0.00    -0.206 F 
ATOM     79  C   UNL A   1      42.217  37.150  35.240  1.00  0.00     0.006 A 
ENDBRANCH  58  72
BRANCH  59  80
ATOM     80  C   UNL A   1      40.406  26.678  28.006  1.00  0.00     0.057 A 
ATOM     81  C   UNL A   1      41.008  26.552  26.746  1.00  0.00     0.134 A 
ATOM     82  C   UNL A   1      39.593  25.621  28.431  1.00  0.00     0.134 A 
ATOM     83  F   UNL A   1      41.789  27.534  26.271  1.00  0.00    -0.206 F 
ATOM     84  C   UNL A   1      40.786  25.440  25.932  1.00  0.00     0.040 A 
ATOM     85  C   UNL A   1      39.385  24.488  27.640  1.00  0.00     0.040 A 
ATOM     86  F   UNL A   1      38.995  25.666  29.632  1.00  0.00    -0.206 F 
ATOM     87  C   UNL A   1      39.975  24.400  26.381  1.00  0.00     0.006 A 
ENDBRANCH  59  80
BRANCH  71  88
ATOM     88  C   UNL A   1      45.235  28.482  32.688  1.00  0.00     0.057 A 
ATOM     89  C   UNL A   1      46.510  28.626  32.128  1.00  0.00     0.134 A 
ATOM     90  C   UNL A   1      45.112  27.651  33.810  1.00  0.00     0.134 A 
ATOM     91  F   UNL A   1      46.694  29.397  31.046  1.00  0.00    -0.206 F 
ATOM     92  C   UNL A   1      47.615  27.946  32.643  1.00  0.00     0.040 A 
ATOM     93  C   UNL A   1      46.213  26.992  34.355  1.00  0.00     0.040 A 
ATOM     94  F   UNL A   1      43.920  27.478  34.402  1.00  0.00    -0.206 F 
ATOM     95  C   UNL A   1      47.467  27.130  33.765  1.00  0.00     0.006 A 
ENDBRANCH  71  88
ENDBRANCH  45  46
ENDBRANCH  37  40
ENDBRANCH  35  36
ENDBRANCH  34  35
ENDBRANCH   1  34
TORSDOF 16
ENDMDL
