MODEL 1
REMARK VINA RESULT:     -10.7      0.000      0.000
REMARK SMILES C#CCN(CC(=O)NCCCCNC(=O)c1ccc(-c2c3nc(c(-c4c(F)cccc4F)c4ccc([nH]4)c(-c4c(F)cccc4F)c4nc(c(-c5c(F)cccc5F)c5ccc2[nH]5)C=C4)C=C3)cc1)C(=O)c1cc([N+](=O)[O-])c(F)cc1F
REMARK SMILES IDX 9 1 8 2 6 3 7 4 5 6 4 7 3 8 2 9 1 10 70 11 71 12 72 13 73 14
REMARK SMILES IDX 81 15 74 16 80 17 82 18 78 19 79 20 75 21 76 22 77 23 10 24
REMARK SMILES IDX 11 25 12 26 13 27 14 28 15 30 16 31 17 32 69 33 18 34 68 35
REMARK SMILES IDX 19 36 20 37 21 38 62 39 22 40 67 41 61 42 63 43 23 44 66 45
REMARK SMILES IDX 60 46 59 47 24 49 50 50 33 51 49 52 34 53 37 54 48 55 64 56
REMARK SMILES IDX 35 57 36 58 47 60 65 61 38 62 25 63 26 64 31 65 27 66 28 67
REMARK SMILES IDX 30 68 32 69 29 70 51 71 52 72 57 73 53 74 54 75 56 76 58 77
REMARK SMILES IDX 55 78 39 79 40 80 45 81 41 82 42 83 44 84 46 85 43 86
REMARK H PARENT 8 5 13 29 63 48 37 59
REMARK Flexibility Score: inf
ROOT
ATOM      1  C   UNL A   1      31.580  28.801  24.158  1.00  0.00     0.116 C 
ENDROOT
BRANCH   1   2
ATOM      2  N   UNL A   1      32.736  28.371  23.404  1.00  0.00    -0.355 N 
ATOM      3  C   UNL A   1      32.878  27.396  22.462  1.00  0.00     0.239 C 
ATOM      4  O   UNL A   1      33.937  27.385  21.824  1.00  0.00    -0.273 OA
ATOM      5  H   UNL A   1      33.562  28.867  23.606  1.00  0.00     0.163 HD
BRANCH   3   6
ATOM      6  C   UNL A   1      31.754  26.416  22.079  1.00  0.00     0.220 C 
BRANCH   6   7
ATOM      7  N   UNL A   1      31.813  25.060  22.629  1.00  0.00    -0.318 N 
BRANCH   7   8
ATOM      8  C   UNL A   1      30.600  24.536  23.259  1.00  0.00     0.210 C 
BRANCH   8   9
ATOM      9  C   UNL A   1      30.340  25.179  24.611  1.00  0.00    -0.085 C 
ATOM     10  C   UNL A   1      30.118  25.731  25.771  1.00  0.00     0.006 C 
ENDBRANCH   8   9
ENDBRANCH   7   8
BRANCH   7  11
ATOM     11  C   UNL A   1      32.926  24.214  22.534  1.00  0.00     0.258 C 
ATOM     12  O   UNL A   1      33.594  24.084  21.511  1.00  0.00    -0.269 OA
BRANCH  11  13
ATOM     13  C   UNL A   1      33.394  23.443  23.705  1.00  0.00     0.082 A 
ATOM     14  C   UNL A   1      33.217  22.051  23.716  1.00  0.00     0.105 A 
ATOM     15  C   UNL A   1      33.860  24.080  24.853  1.00  0.00     0.139 A 
ATOM     16  C   UNL A   1      33.584  21.315  24.858  1.00  0.00     0.305 A 
ATOM     17  C   UNL A   1      34.283  23.349  25.958  1.00  0.00     0.086 A 
ATOM     18  F   UNL A   1      33.862  25.415  24.944  1.00  0.00    -0.206 F 
ATOM     19  C   UNL A   1      34.151  21.963  25.957  1.00  0.00     0.203 A 
ATOM     20  F   UNL A   1      34.566  21.303  27.046  1.00  0.00    -0.199 F 
BRANCH  16  21
ATOM     21  N   UNL A   1      33.323  19.876  24.906  1.00  0.00     0.065 N 
ATOM     22  O   UNL A   1      34.204  19.127  24.460  1.00  0.00    -0.258 OA
ATOM     23  O   UNL A   1      32.244  19.483  25.365  1.00  0.00    -0.258 OA
ENDBRANCH  16  21
ENDBRANCH  11  13
ENDBRANCH   7  11
ENDBRANCH   6   7
ENDBRANCH   3   6
ENDBRANCH   1   2
BRANCH   1  24
ATOM     24  C   UNL A   1      31.904  29.330  25.556  1.00  0.00     0.023 C 
BRANCH  24  25
ATOM     25  C   UNL A   1      32.572  28.343  26.509  1.00  0.00     0.023 C 
BRANCH  25  26
ATOM     26  C   UNL A   1      33.902  28.794  27.089  1.00  0.00     0.116 C 
BRANCH  26  27
ATOM     27  N   UNL A   1      33.848  30.100  27.729  1.00  0.00    -0.352 N 
ATOM     28  C   UNL A   1      34.830  30.756  28.435  1.00  0.00     0.251 C 
ATOM     29  H   UNL A   1      32.992  30.579  27.645  1.00  0.00     0.163 HD
ATOM     30  O   UNL A   1      34.591  31.827  28.976  1.00  0.00    -0.269 OA
BRANCH  28  31
ATOM     31  C   UNL A   1      36.164  30.133  28.575  1.00  0.00     0.039 A 
ATOM     32  C   UNL A   1      37.055  30.213  27.502  1.00  0.00     0.014 A 
ATOM     33  C   UNL A   1      36.547  29.508  29.764  1.00  0.00     0.014 A 
ATOM     34  C   UNL A   1      38.358  29.735  27.650  1.00  0.00     0.010 A 
ATOM     35  C   UNL A   1      37.867  29.103  29.936  1.00  0.00     0.010 A 
ATOM     36  C   UNL A   1      38.785  29.216  28.882  1.00  0.00    -0.014 A 
BRANCH  36  37
ATOM     37  C   UNL A   1      40.194  28.800  29.095  1.00  0.00     0.031 A 
ATOM     38  C   UNL A   1      41.188  29.763  29.680  1.00  0.00     0.074 A 
ATOM     39  C   UNL A   1      40.596  27.581  28.685  1.00  0.00     0.049 A 
ATOM     40  N   UNL A   1      42.474  29.610  29.870  1.00  0.00    -0.248 NA
ATOM     41  C   UNL A   1      40.674  31.083  30.076  1.00  0.00     0.031 C 
ATOM     42  C   UNL A   1      39.740  26.577  28.049  1.00  0.00     0.029 A 
ATOM     43  N   UNL A   1      41.831  26.984  28.730  1.00  0.00    -0.354 N 
ATOM     44  C   UNL A   1      42.924  30.816  30.389  1.00  0.00     0.074 A 
ATOM     45  C   UNL A   1      41.786  31.707  30.437  1.00  0.00     0.031 C 
ATOM     46  C   UNL A   1      40.473  25.484  27.777  1.00  0.00     0.029 A 
ATOM     47  C   UNL A   1      41.853  25.722  28.188  1.00  0.00     0.049 A 
ATOM     48  H   UNL A   1      42.626  27.419  29.114  1.00  0.00     0.167 HD
ATOM     49  C   UNL A   1      44.169  31.144  30.808  1.00  0.00     0.037 A 
ATOM     50  C   UNL A   1      42.873  24.857  28.030  1.00  0.00     0.037 A 
ATOM     51  C   UNL A   1      45.294  30.246  30.786  1.00  0.00     0.049 A 
ATOM     52  C   UNL A   1      44.244  25.241  28.511  1.00  0.00     0.074 A 
ATOM     53  C   UNL A   1      46.576  30.459  31.260  1.00  0.00     0.029 A 
ATOM     54  N   UNL A   1      45.270  28.965  30.255  1.00  0.00    -0.354 N 
ATOM     55  N   UNL A   1      44.639  26.357  29.076  1.00  0.00    -0.248 NA
ATOM     56  C   UNL A   1      45.310  24.244  28.340  1.00  0.00     0.031 C 
ATOM     57  C   UNL A   1      47.342  29.322  30.976  1.00  0.00     0.029 A 
ATOM     58  C   UNL A   1      46.523  28.384  30.368  1.00  0.00     0.049 A 
ATOM     59  H   UNL A   1      44.481  28.531  29.859  1.00  0.00     0.167 HD
ATOM     60  C   UNL A   1      45.989  26.187  29.350  1.00  0.00     0.074 A 
ATOM     61  C   UNL A   1      46.343  24.856  28.902  1.00  0.00     0.031 C 
ATOM     62  C   UNL A   1      46.859  27.056  29.919  1.00  0.00     0.037 A 
BRANCH  49  63
ATOM     63  C   UNL A   1      44.380  32.537  31.328  1.00  0.00     0.057 A 
ATOM     64  C   UNL A   1      44.772  33.588  30.489  1.00  0.00     0.134 A 
ATOM     65  C   UNL A   1      44.157  32.837  32.678  1.00  0.00     0.134 A 
ATOM     66  F   UNL A   1      45.012  33.367  29.188  1.00  0.00    -0.206 F 
ATOM     67  C   UNL A   1      44.963  34.882  30.979  1.00  0.00     0.040 A 
ATOM     68  C   UNL A   1      44.319  34.131  33.175  1.00  0.00     0.040 A 
ATOM     69  F   UNL A   1      43.775  31.879  33.535  1.00  0.00    -0.206 F 
ATOM     70  C   UNL A   1      44.730  35.157  32.325  1.00  0.00     0.006 A 
ENDBRANCH  49  63
BRANCH  50  71
ATOM     71  C   UNL A   1      42.630  23.535  27.402  1.00  0.00     0.057 A 
ATOM     72  C   UNL A   1      42.307  22.416  28.179  1.00  0.00     0.134 A 
ATOM     73  C   UNL A   1      42.716  23.355  26.017  1.00  0.00     0.134 A 
ATOM     74  F   UNL A   1      42.228  22.521  29.513  1.00  0.00    -0.206 F 
ATOM     75  C   UNL A   1      42.093  21.162  27.602  1.00  0.00     0.040 A 
ATOM     76  C   UNL A   1      42.481  22.113  25.424  1.00  0.00     0.040 A 
ATOM     77  F   UNL A   1      43.014  24.390  25.217  1.00  0.00    -0.206 F 
ATOM     78  C   UNL A   1      42.176  21.010  26.220  1.00  0.00     0.006 A 
ENDBRANCH  50  71
BRANCH  62  79
ATOM     79  C   UNL A   1      48.271  26.585  30.118  1.00  0.00     0.057 A 
ATOM     80  C   UNL A   1      48.651  25.849  31.246  1.00  0.00     0.134 A 
ATOM     81  C   UNL A   1      49.249  26.839  29.149  1.00  0.00     0.134 A 
ATOM     82  F   UNL A   1      47.764  25.584  32.217  1.00  0.00    -0.206 F 
ATOM     83  C   UNL A   1      49.962  25.400  31.415  1.00  0.00     0.040 A 
ATOM     84  C   UNL A   1      50.557  26.373  29.294  1.00  0.00     0.040 A 
ATOM     85  F   UNL A   1      48.948  27.532  28.040  1.00  0.00    -0.206 F 
ATOM     86  C   UNL A   1      50.917  25.656  30.432  1.00  0.00     0.006 A 
ENDBRANCH  62  79
ENDBRANCH  36  37
ENDBRANCH  28  31
ENDBRANCH  26  27
ENDBRANCH  25  26
ENDBRANCH  24  25
ENDBRANCH   1  24
TORSDOF 17
ENDMDL
MODEL 2
REMARK VINA RESULT:     -10.7      2.737      7.485
REMARK SMILES C#CCN(CC(=O)NCCCCNC(=O)c1ccc(-c2c3nc(c(-c4c(F)cccc4F)c4ccc([nH]4)c(-c4c(F)cccc4F)c4nc(c(-c5c(F)cccc5F)c5ccc2[nH]5)C=C4)C=C3)cc1)C(=O)c1cc([N+](=O)[O-])c(F)cc1F
REMARK SMILES IDX 9 1 8 2 6 3 7 4 5 6 4 7 3 8 2 9 1 10 70 11 71 12 72 13 73 14
REMARK SMILES IDX 81 15 74 16 80 17 82 18 78 19 79 20 75 21 76 22 77 23 10 24
REMARK SMILES IDX 11 25 12 26 13 27 14 28 15 30 16 31 17 32 69 33 18 34 68 35
REMARK SMILES IDX 19 36 20 37 21 38 62 39 22 40 67 41 61 42 63 43 23 44 66 45
REMARK SMILES IDX 60 46 59 47 24 49 50 50 33 51 49 52 34 53 37 54 48 55 64 56
REMARK SMILES IDX 35 57 36 58 47 60 65 61 38 62 25 63 26 64 31 65 27 66 28 67
REMARK SMILES IDX 30 68 32 69 29 70 51 71 52 72 57 73 53 74 54 75 56 76 58 77
REMARK SMILES IDX 55 78 39 79 40 80 45 81 41 82 42 83 44 84 46 85 43 86
REMARK H PARENT 8 5 13 29 63 48 37 59
REMARK Flexibility Score: inf
ROOT
ATOM      1  C   UNL A   1      35.796  21.443  25.112  1.00  0.00     0.116 C 
ENDROOT
BRANCH   1   2
ATOM      2  N   UNL A   1      35.419  21.813  26.457  1.00  0.00    -0.355 N 
ATOM      3  C   UNL A   1      34.642  22.833  26.921  1.00  0.00     0.239 C 
ATOM      4  O   UNL A   1      34.311  22.788  28.111  1.00  0.00    -0.273 OA
ATOM      5  H   UNL A   1      35.784  21.227  27.159  1.00  0.00     0.163 HD
BRANCH   3   6
ATOM      6  C   UNL A   1      34.069  23.940  26.017  1.00  0.00     0.220 C 
BRANCH   6   7
ATOM      7  N   UNL A   1      32.613  24.098  25.971  1.00  0.00    -0.318 N 
BRANCH   7   8
ATOM      8  C   UNL A   1      32.085  25.463  25.965  1.00  0.00     0.210 C 
BRANCH   8   9
ATOM      9  C   UNL A   1      32.930  26.394  25.110  1.00  0.00    -0.085 C 
ATOM     10  C   UNL A   1      33.654  27.192  24.378  1.00  0.00     0.006 C 
ENDBRANCH   8   9
ENDBRANCH   7   8
BRANCH   7  11
ATOM     11  C   UNL A   1      31.704  23.037  25.868  1.00  0.00     0.258 C 
ATOM     12  O   UNL A   1      30.753  22.882  26.631  1.00  0.00    -0.269 OA
BRANCH  11  13
ATOM     13  C   UNL A   1      31.819  22.043  24.780  1.00  0.00     0.082 A 
ATOM     14  C   UNL A   1      32.150  20.718  25.103  1.00  0.00     0.105 A 
ATOM     15  C   UNL A   1      31.760  22.424  23.441  1.00  0.00     0.139 A 
ATOM     16  C   UNL A   1      32.342  19.781  24.070  1.00  0.00     0.305 A 
ATOM     17  C   UNL A   1      31.885  21.486  22.422  1.00  0.00     0.086 A 
ATOM     18  F   UNL A   1      31.635  23.712  23.099  1.00  0.00    -0.206 F 
ATOM     19  C   UNL A   1      32.170  20.161  22.738  1.00  0.00     0.203 A 
ATOM     20  F   UNL A   1      32.290  19.296  21.722  1.00  0.00    -0.199 F 
BRANCH  16  21
ATOM     21  N   UNL A   1      32.770  18.421  24.399  1.00  0.00     0.065 N 
ATOM     22  O   UNL A   1      31.959  17.704  25.002  1.00  0.00    -0.258 OA
ATOM     23  O   UNL A   1      33.910  18.063  24.081  1.00  0.00    -0.258 OA
ENDBRANCH  16  21
ENDBRANCH  11  13
ENDBRANCH   7  11
ENDBRANCH   6   7
ENDBRANCH   3   6
ENDBRANCH   1   2
BRANCH   1  24
ATOM     24  C   UNL A   1      36.462  20.070  25.003  1.00  0.00     0.023 C 
BRANCH  24  25
ATOM     25  C   UNL A   1      37.937  20.068  24.611  1.00  0.00     0.023 C 
BRANCH  25  26
ATOM     26  C   UNL A   1      38.919  20.193  25.764  1.00  0.00     0.116 C 
BRANCH  26  27
ATOM     27  N   UNL A   1      39.913  19.132  25.803  1.00  0.00    -0.352 N 
ATOM     28  C   UNL A   1      41.260  19.222  26.067  1.00  0.00     0.251 C 
ATOM     29  H   UNL A   1      39.575  18.226  25.616  1.00  0.00     0.163 HD
ATOM     30  O   UNL A   1      41.973  18.231  25.985  1.00  0.00    -0.269 OA
BRANCH  28  31
ATOM     31  C   UNL A   1      41.849  20.536  26.404  1.00  0.00     0.039 A 
ATOM     32  C   UNL A   1      42.238  21.381  25.362  1.00  0.00     0.014 A 
ATOM     33  C   UNL A   1      41.981  20.947  27.732  1.00  0.00     0.014 A 
ATOM     34  C   UNL A   1      42.688  22.670  25.650  1.00  0.00     0.010 A 
ATOM     35  C   UNL A   1      42.356  22.257  28.014  1.00  0.00     0.010 A 
ATOM     36  C   UNL A   1      42.709  23.132  26.976  1.00  0.00    -0.014 A 
BRANCH  36  37
ATOM     37  C   UNL A   1      43.082  24.532  27.298  1.00  0.00     0.031 A 
ATOM     38  C   UNL A   1      44.522  24.960  27.261  1.00  0.00     0.074 A 
ATOM     39  C   UNL A   1      42.131  25.397  27.701  1.00  0.00     0.049 A 
ATOM     40  N   UNL A   1      45.050  26.113  27.582  1.00  0.00    -0.248 NA
ATOM     41  C   UNL A   1      45.502  23.948  26.836  1.00  0.00     0.031 C 
ATOM     42  C   UNL A   1      40.706  25.086  27.835  1.00  0.00     0.029 A 
ATOM     43  N   UNL A   1      42.222  26.710  28.087  1.00  0.00    -0.354 N 
ATOM     44  C   UNL A   1      46.420  25.960  27.416  1.00  0.00     0.074 A 
ATOM     45  C   UNL A   1      46.647  24.590  27.015  1.00  0.00     0.031 C 
ATOM     46  C   UNL A   1      40.055  26.183  28.257  1.00  0.00     0.029 A 
ATOM     47  C   UNL A   1      41.019  27.261  28.456  1.00  0.00     0.049 A 
ATOM     48  H   UNL A   1      43.070  27.211  28.100  1.00  0.00     0.167 HD
ATOM     49  C   UNL A   1      47.398  26.885  27.564  1.00  0.00     0.037 A 
ATOM     50  C   UNL A   1      40.726  28.493  28.914  1.00  0.00     0.037 A 
ATOM     51  C   UNL A   1      47.166  28.256  27.936  1.00  0.00     0.049 A 
ATOM     52  C   UNL A   1      41.828  29.504  29.061  1.00  0.00     0.074 A 
ATOM     53  C   UNL A   1      48.082  29.289  28.035  1.00  0.00     0.029 A 
ATOM     54  N   UNL A   1      45.929  28.784  28.274  1.00  0.00    -0.354 N 
ATOM     55  N   UNL A   1      43.109  29.370  28.821  1.00  0.00    -0.248 NA
ATOM     56  C   UNL A   1      41.442  30.841  29.534  1.00  0.00     0.031 C 
ATOM     57  C   UNL A   1      47.407  30.432  28.477  1.00  0.00     0.029 A 
ATOM     58  C   UNL A   1      46.063  30.122  28.607  1.00  0.00     0.049 A 
ATOM     59  H   UNL A   1      45.082  28.284  28.275  1.00  0.00     0.167 HD
ATOM     60  C   UNL A   1      43.679  30.607  29.090  1.00  0.00     0.074 A 
ATOM     61  C   UNL A   1      42.601  31.484  29.497  1.00  0.00     0.031 C 
ATOM     62  C   UNL A   1      44.978  30.983  29.009  1.00  0.00     0.037 A 
BRANCH  49  63
ATOM     63  C   UNL A   1      48.811  26.441  27.322  1.00  0.00     0.057 A 
ATOM     64  C   UNL A   1      49.622  25.956  28.356  1.00  0.00     0.134 A 
ATOM     65  C   UNL A   1      49.359  26.471  26.032  1.00  0.00     0.134 A 
ATOM     66  F   UNL A   1      49.164  25.912  29.616  1.00  0.00    -0.206 F 
ATOM     67  C   UNL A   1      50.936  25.543  28.122  1.00  0.00     0.040 A 
ATOM     68  C   UNL A   1      50.661  26.035  25.781  1.00  0.00     0.040 A 
ATOM     69  F   UNL A   1      48.636  26.918  24.995  1.00  0.00    -0.206 F 
ATOM     70  C   UNL A   1      51.455  25.576  26.830  1.00  0.00     0.006 A 
ENDBRANCH  49  63
BRANCH  50  71
ATOM     71  C   UNL A   1      39.323  28.843  29.250  1.00  0.00     0.057 A 
ATOM     72  C   UNL A   1      38.816  28.633  30.538  1.00  0.00     0.134 A 
ATOM     73  C   UNL A   1      38.458  29.393  28.298  1.00  0.00     0.134 A 
ATOM     74  F   UNL A   1      39.592  28.091  31.489  1.00  0.00    -0.206 F 
ATOM     75  C   UNL A   1      37.494  28.942  30.862  1.00  0.00     0.040 A 
ATOM     76  C   UNL A   1      37.141  29.729  28.614  1.00  0.00     0.040 A 
ATOM     77  F   UNL A   1      38.886  29.626  27.048  1.00  0.00    -0.206 F 
ATOM     78  C   UNL A   1      36.653  29.496  29.899  1.00  0.00     0.006 A 
ENDBRANCH  50  71
BRANCH  62  79
ATOM     79  C   UNL A   1      45.302  32.411  29.338  1.00  0.00     0.057 A 
ATOM     80  C   UNL A   1      45.690  32.803  30.625  1.00  0.00     0.134 A 
ATOM     81  C   UNL A   1      45.264  33.398  28.345  1.00  0.00     0.134 A 
ATOM     82  F   UNL A   1      45.735  31.908  31.624  1.00  0.00    -0.206 F 
ATOM     83  C   UNL A   1      46.007  34.130  30.919  1.00  0.00     0.040 A 
ATOM     84  C   UNL A   1      45.603  34.723  28.620  1.00  0.00     0.040 A 
ATOM     85  F   UNL A   1      44.909  33.088  27.088  1.00  0.00    -0.206 F 
ATOM     86  C   UNL A   1      45.971  35.093  29.912  1.00  0.00     0.006 A 
ENDBRANCH  62  79
ENDBRANCH  36  37
ENDBRANCH  28  31
ENDBRANCH  26  27
ENDBRANCH  25  26
ENDBRANCH  24  25
ENDBRANCH   1  24
TORSDOF 17
ENDMDL
MODEL 3
REMARK VINA RESULT:     -10.7      3.749      5.932
REMARK SMILES C#CCN(CC(=O)NCCCCNC(=O)c1ccc(-c2c3nc(c(-c4c(F)cccc4F)c4ccc([nH]4)c(-c4c(F)cccc4F)c4nc(c(-c5c(F)cccc5F)c5ccc2[nH]5)C=C4)C=C3)cc1)C(=O)c1cc([N+](=O)[O-])c(F)cc1F
REMARK SMILES IDX 9 1 8 2 6 3 7 4 5 6 4 7 3 8 2 9 1 10 70 11 71 12 72 13 73 14
REMARK SMILES IDX 81 15 74 16 80 17 82 18 78 19 79 20 75 21 76 22 77 23 10 24
REMARK SMILES IDX 11 25 12 26 13 27 14 28 15 30 16 31 17 32 69 33 18 34 68 35
REMARK SMILES IDX 19 36 20 37 21 38 62 39 22 40 67 41 61 42 63 43 23 44 66 45
REMARK SMILES IDX 60 46 59 47 24 49 50 50 33 51 49 52 34 53 37 54 48 55 64 56
REMARK SMILES IDX 35 57 36 58 47 60 65 61 38 62 25 63 26 64 31 65 27 66 28 67
REMARK SMILES IDX 30 68 32 69 29 70 51 71 52 72 57 73 53 74 54 75 56 76 58 77
REMARK SMILES IDX 55 78 39 79 40 80 45 81 41 82 42 83 44 84 46 85 43 86
REMARK H PARENT 8 5 13 29 63 48 37 59
REMARK Flexibility Score: inf
ROOT
ATOM      1  C   UNL A   1      32.463  29.771  25.784  1.00  0.00     0.116 C 
ENDROOT
BRANCH   1   2
ATOM      2  N   UNL A   1      33.309  29.672  24.616  1.00  0.00    -0.355 N 
ATOM      3  C   UNL A   1      33.794  28.585  23.952  1.00  0.00     0.239 C 
ATOM      4  O   UNL A   1      34.321  28.791  22.852  1.00  0.00    -0.273 OA
ATOM      5  H   UNL A   1      33.580  30.538  24.234  1.00  0.00     0.163 HD
BRANCH   3   6
ATOM      6  C   UNL A   1      33.601  27.138  24.440  1.00  0.00     0.220 C 
BRANCH   6   7
ATOM      7  N   UNL A   1      33.296  26.113  23.438  1.00  0.00    -0.318 N 
BRANCH   7   8
ATOM      8  C   UNL A   1      34.007  24.839  23.541  1.00  0.00     0.210 C 
BRANCH   8   9
ATOM      9  C   UNL A   1      34.136  24.376  24.983  1.00  0.00    -0.085 C 
ATOM     10  C   UNL A   1      34.247  23.980  26.219  1.00  0.00     0.006 C 
ENDBRANCH   8   9
ENDBRANCH   7   8
BRANCH   7  11
ATOM     11  C   UNL A   1      32.328  26.251  22.435  1.00  0.00     0.258 C 
ATOM     12  O   UNL A   1      32.535  25.988  21.252  1.00  0.00    -0.269 OA
BRANCH  11  13
ATOM     13  C   UNL A   1      30.955  26.692  22.760  1.00  0.00     0.082 A 
ATOM     14  C   UNL A   1      30.538  27.969  22.354  1.00  0.00     0.105 A 
ATOM     15  C   UNL A   1      30.129  25.937  23.589  1.00  0.00     0.139 A 
ATOM     16  C   UNL A   1      29.263  28.433  22.728  1.00  0.00     0.305 A 
ATOM     17  C   UNL A   1      28.844  26.366  23.905  1.00  0.00     0.086 A 
ATOM     18  F   UNL A   1      30.569  24.803  24.147  1.00  0.00    -0.206 F 
ATOM     19  C   UNL A   1      28.409  27.613  23.468  1.00  0.00     0.203 A 
ATOM     20  F   UNL A   1      27.167  27.986  23.804  1.00  0.00    -0.199 F 
BRANCH  16  21
ATOM     21  N   UNL A   1      28.858  29.795  22.378  1.00  0.00     0.065 N 
ATOM     22  O   UNL A   1      28.812  30.079  21.174  1.00  0.00    -0.258 OA
ATOM     23  O   UNL A   1      28.602  30.591  23.290  1.00  0.00    -0.258 OA
ENDBRANCH  16  21
ENDBRANCH  11  13
ENDBRANCH   7  11
ENDBRANCH   6   7
ENDBRANCH   3   6
ENDBRANCH   1   2
BRANCH   1  24
ATOM     24  C   UNL A   1      31.437  30.903  25.721  1.00  0.00     0.023 C 
BRANCH  24  25
ATOM     25  C   UNL A   1      31.383  31.831  26.932  1.00  0.00     0.023 C 
BRANCH  25  26
ATOM     26  C   UNL A   1      32.608  32.706  27.138  1.00  0.00     0.116 C 
BRANCH  26  27
ATOM     27  N   UNL A   1      32.293  34.068  27.538  1.00  0.00    -0.352 N 
ATOM     28  C   UNL A   1      32.938  34.870  28.453  1.00  0.00     0.251 C 
ATOM     29  H   UNL A   1      31.513  34.472  27.093  1.00  0.00     0.163 HD
ATOM     30  O   UNL A   1      32.491  35.975  28.727  1.00  0.00    -0.269 OA
BRANCH  28  31
ATOM     31  C   UNL A   1      34.146  34.364  29.137  1.00  0.00     0.039 A 
ATOM     32  C   UNL A   1      33.995  33.689  30.351  1.00  0.00     0.014 A 
ATOM     33  C   UNL A   1      35.414  34.520  28.572  1.00  0.00     0.014 A 
ATOM     34  C   UNL A   1      35.106  33.102  30.958  1.00  0.00     0.010 A 
ATOM     35  C   UNL A   1      36.507  33.870  29.138  1.00  0.00     0.010 A 
ATOM     36  C   UNL A   1      36.362  33.152  30.333  1.00  0.00    -0.014 A 
BRANCH  36  37
ATOM     37  C   UNL A   1      37.536  32.446  30.906  1.00  0.00     0.031 A 
ATOM     38  C   UNL A   1      38.193  32.959  32.156  1.00  0.00     0.074 A 
ATOM     39  C   UNL A   1      38.058  31.389  30.254  1.00  0.00     0.049 A 
ATOM     40  N   UNL A   1      39.268  32.526  32.762  1.00  0.00    -0.248 NA
ATOM     41  C   UNL A   1      37.577  34.135  32.791  1.00  0.00     0.031 C 
ATOM     42  C   UNL A   1      37.546  30.830  29.001  1.00  0.00     0.029 A 
ATOM     43  N   UNL A   1      39.143  30.604  30.549  1.00  0.00    -0.354 N 
ATOM     44  C   UNL A   1      39.468  33.383  33.835  1.00  0.00     0.074 A 
ATOM     45  C   UNL A   1      38.433  34.391  33.770  1.00  0.00     0.031 C 
ATOM     46  C   UNL A   1      38.309  29.784  28.643  1.00  0.00     0.029 A 
ATOM     47  C   UNL A   1      39.380  29.619  29.620  1.00  0.00     0.049 A 
ATOM     48  H   UNL A   1      39.702  30.734  31.350  1.00  0.00     0.167 HD
ATOM     49  C   UNL A   1      40.415  33.323  34.802  1.00  0.00     0.037 A 
ATOM     50  C   UNL A   1      40.356  28.694  29.558  1.00  0.00     0.037 A 
ATOM     51  C   UNL A   1      41.426  32.302  34.881  1.00  0.00     0.049 A 
ATOM     52  C   UNL A   1      41.391  28.641  30.647  1.00  0.00     0.074 A 
ATOM     53  C   UNL A   1      42.381  32.109  35.863  1.00  0.00     0.029 A 
ATOM     54  N   UNL A   1      41.616  31.303  33.937  1.00  0.00    -0.354 N 
ATOM     55  N   UNL A   1      41.519  29.409  31.702  1.00  0.00    -0.248 NA
ATOM     56  C   UNL A   1      42.412  27.590  30.541  1.00  0.00     0.031 C 
ATOM     57  C   UNL A   1      43.179  31.021  35.491  1.00  0.00     0.029 A 
ATOM     58  C   UNL A   1      42.689  30.507  34.301  1.00  0.00     0.049 A 
ATOM     59  H   UNL A   1      41.069  31.178  33.128  1.00  0.00     0.167 HD
ATOM     60  C   UNL A   1      42.617  28.920  32.397  1.00  0.00     0.074 A 
ATOM     61  C   UNL A   1      43.110  27.780  31.652  1.00  0.00     0.031 C 
ATOM     62  C   UNL A   1      43.168  29.374  33.549  1.00  0.00     0.037 A 
BRANCH  49  63
ATOM     63  C   UNL A   1      40.400  34.394  35.853  1.00  0.00     0.057 A 
ATOM     64  C   UNL A   1      39.674  34.254  37.042  1.00  0.00     0.134 A 
ATOM     65  C   UNL A   1      41.146  35.569  35.686  1.00  0.00     0.134 A 
ATOM     66  F   UNL A   1      38.930  33.160  37.260  1.00  0.00    -0.206 F 
ATOM     67  C   UNL A   1      39.668  35.255  38.017  1.00  0.00     0.040 A 
ATOM     68  C   UNL A   1      41.169  36.564  36.664  1.00  0.00     0.040 A 
ATOM     69  F   UNL A   1      41.868  35.765  34.573  1.00  0.00    -0.206 F 
ATOM     70  C   UNL A   1      40.423  36.411  37.831  1.00  0.00     0.006 A 
ENDBRANCH  49  63
BRANCH  50  71
ATOM     71  C   UNL A   1      40.390  27.729  28.430  1.00  0.00     0.057 A 
ATOM     72  C   UNL A   1      41.078  28.027  27.248  1.00  0.00     0.134 A 
ATOM     73  C   UNL A   1      39.739  26.493  28.504  1.00  0.00     0.134 A 
ATOM     74  F   UNL A   1      41.706  29.203  27.109  1.00  0.00    -0.206 F 
ATOM     75  C   UNL A   1      41.103  27.136  26.173  1.00  0.00     0.040 A 
ATOM     76  C   UNL A   1      39.776  25.582  27.447  1.00  0.00     0.040 A 
ATOM     77  F   UNL A   1      39.069  26.146  29.613  1.00  0.00    -0.206 F 
ATOM     78  C   UNL A   1      40.454  25.907  26.274  1.00  0.00     0.006 A 
ENDBRANCH  50  71
BRANCH  62  79
ATOM     79  C   UNL A   1      44.348  28.622  34.090  1.00  0.00     0.057 A 
ATOM     80  C   UNL A   1      45.664  28.997  33.791  1.00  0.00     0.134 A 
ATOM     81  C   UNL A   1      44.165  27.533  34.951  1.00  0.00     0.134 A 
ATOM     82  F   UNL A   1      45.906  30.023  32.961  1.00  0.00    -0.206 F 
ATOM     83  C   UNL A   1      46.756  28.302  34.312  1.00  0.00     0.040 A 
ATOM     84  C   UNL A   1      45.250  26.847  35.500  1.00  0.00     0.040 A 
ATOM     85  F   UNL A   1      42.930  27.127  35.285  1.00  0.00    -0.206 F 
ATOM     86  C   UNL A   1      46.549  27.228  35.176  1.00  0.00     0.006 A 
ENDBRANCH  62  79
ENDBRANCH  36  37
ENDBRANCH  28  31
ENDBRANCH  26  27
ENDBRANCH  25  26
ENDBRANCH  24  25
ENDBRANCH   1  24
TORSDOF 17
ENDMDL
