MODEL 1
REMARK VINA RESULT:      -9.4      0.000      0.000
REMARK SMILES C[NH2+][C@H](CC(=O)NCCCCNC(=O)c1ccc(-c2c3nc(c(-c4c(F)cccc4F)c4ccc([nH]4)c(-c4c(F)cccc4F)c4nc(c(-c5c(F)cccc5F)c5ccc2[nH]5)C=C4)C=C3)cc1)c1cccc(C2CC2)c1
REMARK SMILES IDX 9 1 8 2 7 3 5 4 6 5 4 7 3 8 2 9 1 10 69 13 70 14 77 15 71 16
REMARK SMILES IDX 73 17 72 18 74 19 75 20 76 21 10 22 11 23 12 24 13 25 14 27
REMARK SMILES IDX 15 28 16 29 68 30 17 31 67 32 18 33 19 34 20 35 61 36 21 37
REMARK SMILES IDX 66 38 60 39 62 40 22 41 65 42 59 43 58 44 23 46 49 47 32 48
REMARK SMILES IDX 48 49 33 50 36 51 47 52 63 53 34 54 35 55 46 57 64 58 37 59
REMARK SMILES IDX 24 60 25 61 30 62 26 63 27 64 29 65 31 66 28 67 50 68 51 69
REMARK SMILES IDX 56 70 52 71 53 72 55 73 57 74 54 75 38 76 39 77 44 78 40 79
REMARK SMILES IDX 41 80 43 81 45 82 42 83
REMARK H PARENT 7 6 2 11 2 12 12 26 62 45 36 56
REMARK Flexibility Score: inf
ROOT
ATOM      1  C   UNL A   1      45.594  20.312  24.738  1.00  0.00     0.023 C 
ENDROOT
BRANCH   1   2
ATOM      2  C   UNL A   1      45.083  21.668  24.248  1.00  0.00     0.116 C 
BRANCH   2   3
ATOM      3  N   UNL A   1      46.143  22.595  23.913  1.00  0.00    -0.356 N 
ATOM      4  C   UNL A   1      46.333  23.900  24.243  1.00  0.00     0.226 C 
ATOM      5  O   UNL A   1      47.420  24.404  23.948  1.00  0.00    -0.275 OA
ATOM      6  H   UNL A   1      46.852  22.214  23.346  1.00  0.00     0.163 HD
BRANCH   4   7
ATOM      7  C   UNL A   1      45.284  24.699  24.988  1.00  0.00     0.170 C 
BRANCH   7   8
ATOM      8  C   UNL A   1      45.670  26.146  25.349  1.00  0.00     0.222 C 
BRANCH   8   9
ATOM      9  N   UNL A   1      46.495  26.747  24.279  1.00  0.00    -0.342 N 
ATOM     10  C   UNL A   1      47.562  27.593  24.796  1.00  0.00     0.331 C 
ATOM     11  H   UNL A   1      46.911  25.997  23.729  1.00  0.00     0.346 HD
ATOM     12  H   UNL A   1      45.883  27.337  23.715  1.00  0.00     0.346 HD
ENDBRANCH   8   9
BRANCH   8  13
ATOM     13  C   UNL A   1      44.486  27.053  25.661  1.00  0.00     0.010 A 
ATOM     14  C   UNL A   1      43.206  26.656  25.258  1.00  0.00     0.010 A 
ATOM     15  C   UNL A   1      44.620  28.283  26.328  1.00  0.00     0.014 A 
ATOM     16  C   UNL A   1      42.127  27.523  25.346  1.00  0.00     0.001 A 
ATOM     17  C   UNL A   1      43.517  29.137  26.540  1.00  0.00    -0.044 A 
ATOM     18  C   UNL A   1      42.289  28.753  25.971  1.00  0.00     0.004 A 
BRANCH  17  19
ATOM     19  C   UNL A   1      43.562  30.393  27.387  1.00  0.00     0.019 C 
ATOM     20  C   UNL A   1      44.913  30.945  27.780  1.00  0.00     0.009 C 
ATOM     21  C   UNL A   1      44.008  31.738  26.883  1.00  0.00     0.009 C 
ENDBRANCH  17  19
ENDBRANCH   8  13
ENDBRANCH   7   8
ENDBRANCH   4   7
ENDBRANCH   2   3
ENDBRANCH   1   2
BRANCH   1  22
ATOM     22  C   UNL A   1      44.627  19.134  24.590  1.00  0.00     0.023 C 
BRANCH  22  23
ATOM     23  C   UNL A   1      43.809  18.856  25.842  1.00  0.00     0.116 C 
BRANCH  23  24
ATOM     24  N   UNL A   1      42.383  18.823  25.542  1.00  0.00    -0.352 N 
ATOM     25  C   UNL A   1      41.368  19.628  25.981  1.00  0.00     0.251 C 
ATOM     26  H   UNL A   1      42.107  18.107  24.926  1.00  0.00     0.163 HD
ATOM     27  O   UNL A   1      40.201  19.248  25.853  1.00  0.00    -0.269 OA
BRANCH  25  28
ATOM     28  C   UNL A   1      41.644  20.948  26.588  1.00  0.00     0.039 A 
ATOM     29  C   UNL A   1      41.907  22.036  25.749  1.00  0.00     0.014 A 
ATOM     30  C   UNL A   1      41.728  21.104  27.975  1.00  0.00     0.014 A 
ATOM     31  C   UNL A   1      42.232  23.275  26.300  1.00  0.00     0.010 A 
ATOM     32  C   UNL A   1      41.955  22.361  28.524  1.00  0.00     0.010 A 
ATOM     33  C   UNL A   1      42.245  23.451  27.694  1.00  0.00    -0.014 A 
BRANCH  33  34
ATOM     34  C   UNL A   1      42.617  24.755  28.294  1.00  0.00     0.031 A 
ATOM     35  C   UNL A   1      41.573  25.822  28.487  1.00  0.00     0.074 A 
ATOM     36  C   UNL A   1      43.899  24.988  28.632  1.00  0.00     0.049 A 
ATOM     37  N   UNL A   1      41.702  27.028  28.980  1.00  0.00    -0.248 NA
ATOM     38  C   UNL A   1      40.208  25.507  28.034  1.00  0.00     0.031 C 
ATOM     39  C   UNL A   1      45.012  24.058  28.420  1.00  0.00     0.029 A 
ATOM     40  N   UNL A   1      44.484  26.076  29.224  1.00  0.00    -0.354 N 
ATOM     41  C   UNL A   1      40.446  27.614  28.882  1.00  0.00     0.074 A 
ATOM     42  C   UNL A   1      39.583  26.661  28.221  1.00  0.00     0.031 C 
ATOM     43  C   UNL A   1      46.137  24.601  28.911  1.00  0.00     0.029 A 
ATOM     44  C   UNL A   1      45.830  25.922  29.448  1.00  0.00     0.049 A 
ATOM     45  H   UNL A   1      43.986  26.890  29.467  1.00  0.00     0.167 HD
ATOM     46  C   UNL A   1      40.037  28.823  29.333  1.00  0.00     0.037 A 
ATOM     47  C   UNL A   1      46.712  26.752  30.036  1.00  0.00     0.037 A 
ATOM     48  C   UNL A   1      40.891  29.752  30.023  1.00  0.00     0.049 A 
ATOM     49  C   UNL A   1      46.221  28.061  30.585  1.00  0.00     0.074 A 
ATOM     50  C   UNL A   1      40.573  30.986  30.562  1.00  0.00     0.029 A 
ATOM     51  N   UNL A   1      42.237  29.537  30.279  1.00  0.00    -0.354 N 
ATOM     52  N   UNL A   1      45.016  28.576  30.539  1.00  0.00    -0.248 NA
ATOM     53  C   UNL A   1      47.207  28.895  31.284  1.00  0.00     0.031 C 
ATOM     54  C   UNL A   1      41.734  31.528  31.125  1.00  0.00     0.029 A 
ATOM     55  C   UNL A   1      42.765  30.615  30.968  1.00  0.00     0.049 A 
ATOM     56  H   UNL A   1      42.742  28.737  30.010  1.00  0.00     0.167 HD
ATOM     57  C   UNL A   1      45.094  29.787  31.214  1.00  0.00     0.074 A 
ATOM     58  C   UNL A   1      46.458  29.913  31.685  1.00  0.00     0.031 C 
ATOM     59  C   UNL A   1      44.129  30.715  31.421  1.00  0.00     0.037 A 
BRANCH  46  60
ATOM     60  C   UNL A   1      38.597  29.190  29.114  1.00  0.00     0.057 A 
ATOM     61  C   UNL A   1      37.656  29.128  30.151  1.00  0.00     0.134 A 
ATOM     62  C   UNL A   1      38.145  29.623  27.861  1.00  0.00     0.134 A 
ATOM     63  F   UNL A   1      38.019  28.707  31.373  1.00  0.00    -0.206 F 
ATOM     64  C   UNL A   1      36.315  29.456  29.945  1.00  0.00     0.040 A 
ATOM     65  C   UNL A   1      36.812  29.980  27.649  1.00  0.00     0.040 A 
ATOM     66  F   UNL A   1      38.991  29.709  26.824  1.00  0.00    -0.206 F 
ATOM     67  C   UNL A   1      35.891  29.889  28.691  1.00  0.00     0.006 A 
ENDBRANCH  46  60
BRANCH  47  68
ATOM     68  C   UNL A   1      48.132  26.345  30.177  1.00  0.00     0.057 A 
ATOM     69  C   UNL A   1      48.592  25.718  31.341  1.00  0.00     0.134 A 
ATOM     70  C   UNL A   1      49.060  26.564  29.153  1.00  0.00     0.134 A 
ATOM     71  F   UNL A   1      47.752  25.494  32.363  1.00  0.00    -0.206 F 
ATOM     72  C   UNL A   1      49.927  25.343  31.491  1.00  0.00     0.040 A 
ATOM     73  C   UNL A   1      50.394  26.171  29.279  1.00  0.00     0.040 A 
ATOM     74  F   UNL A   1      48.679  27.147  28.007  1.00  0.00    -0.206 F 
ATOM     75  C   UNL A   1      50.832  25.565  30.456  1.00  0.00     0.006 A 
ENDBRANCH  47  68
BRANCH  59  76
ATOM     76  C   UNL A   1      44.522  31.935  32.200  1.00  0.00     0.057 A 
ATOM     77  C   UNL A   1      44.428  31.976  33.596  1.00  0.00     0.134 A 
ATOM     78  C   UNL A   1      45.011  33.072  31.546  1.00  0.00     0.134 A 
ATOM     79  F   UNL A   1      43.955  30.921  34.277  1.00  0.00    -0.206 F 
ATOM     80  C   UNL A   1      44.778  33.118  34.315  1.00  0.00     0.040 A 
ATOM     81  C   UNL A   1      45.388  34.212  32.257  1.00  0.00     0.040 A 
ATOM     82  F   UNL A   1      45.133  33.092  30.211  1.00  0.00    -0.206 F 
ATOM     83  C   UNL A   1      45.264  34.240  33.645  1.00  0.00     0.006 A 
ENDBRANCH  59  76
ENDBRANCH  33  34
ENDBRANCH  25  28
ENDBRANCH  23  24
ENDBRANCH  22  23
ENDBRANCH   1  22
TORSDOF 15
ENDMDL
MODEL 2
REMARK VINA RESULT:      -9.1      5.875     11.184
REMARK SMILES C[NH2+][C@H](CC(=O)NCCCCNC(=O)c1ccc(-c2c3nc(c(-c4c(F)cccc4F)c4ccc([nH]4)c(-c4c(F)cccc4F)c4nc(c(-c5c(F)cccc5F)c5ccc2[nH]5)C=C4)C=C3)cc1)c1cccc(C2CC2)c1
REMARK SMILES IDX 9 1 8 2 7 3 5 4 6 5 4 7 3 8 2 9 1 10 69 13 70 14 77 15 71 16
REMARK SMILES IDX 73 17 72 18 74 19 75 20 76 21 10 22 11 23 12 24 13 25 14 27
REMARK SMILES IDX 15 28 16 29 68 30 17 31 67 32 18 33 19 34 20 35 61 36 21 37
REMARK SMILES IDX 66 38 60 39 62 40 22 41 65 42 59 43 58 44 23 46 49 47 32 48
REMARK SMILES IDX 48 49 33 50 36 51 47 52 63 53 34 54 35 55 46 57 64 58 37 59
REMARK SMILES IDX 24 60 25 61 30 62 26 63 27 64 29 65 31 66 28 67 50 68 51 69
REMARK SMILES IDX 56 70 52 71 53 72 55 73 57 74 54 75 38 76 39 77 44 78 40 79
REMARK SMILES IDX 41 80 43 81 45 82 42 83
REMARK H PARENT 7 6 2 11 2 12 12 26 62 45 36 56
REMARK Flexibility Score: inf
ROOT
ATOM      1  C   UNL A   1      31.189  30.593  25.646  1.00  0.00     0.023 C 
ENDROOT
BRANCH   1   2
ATOM      2  C   UNL A   1      32.501  29.841  25.869  1.00  0.00     0.116 C 
BRANCH   2   3
ATOM      3  N   UNL A   1      33.301  29.712  24.669  1.00  0.00    -0.356 N 
ATOM      4  C   UNL A   1      33.352  28.736  23.724  1.00  0.00     0.226 C 
ATOM      5  O   UNL A   1      34.020  28.967  22.712  1.00  0.00    -0.275 OA
ATOM      6  H   UNL A   1      33.917  30.463  24.509  1.00  0.00     0.163 HD
BRANCH   4   7
ATOM      7  C   UNL A   1      32.586  27.439  23.870  1.00  0.00     0.170 C 
BRANCH   7   8
ATOM      8  C   UNL A   1      31.588  27.115  22.740  1.00  0.00     0.222 C 
BRANCH   8   9
ATOM      9  N   UNL A   1      31.619  25.673  22.416  1.00  0.00    -0.342 N 
ATOM     10  C   UNL A   1      32.863  25.263  21.781  1.00  0.00     0.331 C 
ATOM     11  H   UNL A   1      31.503  25.142  23.279  1.00  0.00     0.346 HD
ATOM     12  H   UNL A   1      30.862  25.491  21.756  1.00  0.00     0.346 HD
ENDBRANCH   8   9
BRANCH   8  13
ATOM     13  C   UNL A   1      30.156  27.552  23.023  1.00  0.00     0.010 A 
ATOM     14  C   UNL A   1      29.306  26.677  23.709  1.00  0.00     0.010 A 
ATOM     15  C   UNL A   1      29.641  28.794  22.615  1.00  0.00     0.014 A 
ATOM     16  C   UNL A   1      27.949  26.942  23.826  1.00  0.00     0.001 A 
ATOM     17  C   UNL A   1      28.291  29.145  22.827  1.00  0.00    -0.044 A 
ATOM     18  C   UNL A   1      27.451  28.159  23.378  1.00  0.00     0.004 A 
BRANCH  17  19
ATOM     19  C   UNL A   1      27.714  30.520  22.558  1.00  0.00     0.019 C 
ATOM     20  C   UNL A   1      27.659  31.509  23.700  1.00  0.00     0.009 C 
ATOM     21  C   UNL A   1      28.529  31.783  22.508  1.00  0.00     0.009 C 
ENDBRANCH  17  19
ENDBRANCH   8  13
ENDBRANCH   7   8
ENDBRANCH   4   7
ENDBRANCH   2   3
ENDBRANCH   1   2
BRANCH   1  22
ATOM     22  C   UNL A   1      31.118  32.010  26.222  1.00  0.00     0.023 C 
BRANCH  22  23
ATOM     23  C   UNL A   1      32.377  32.429  26.965  1.00  0.00     0.116 C 
BRANCH  23  24
ATOM     24  N   UNL A   1      32.301  33.823  27.383  1.00  0.00    -0.352 N 
ATOM     25  C   UNL A   1      32.972  34.488  28.374  1.00  0.00     0.251 C 
ATOM     26  H   UNL A   1      31.665  34.374  26.872  1.00  0.00     0.163 HD
ATOM     27  O   UNL A   1      32.544  35.577  28.763  1.00  0.00    -0.269 OA
BRANCH  25  28
ATOM     28  C   UNL A   1      34.206  33.931  28.969  1.00  0.00     0.039 A 
ATOM     29  C   UNL A   1      35.444  34.355  28.477  1.00  0.00     0.014 A 
ATOM     30  C   UNL A   1      34.152  32.937  29.951  1.00  0.00     0.014 A 
ATOM     31  C   UNL A   1      36.620  33.798  28.981  1.00  0.00     0.010 A 
ATOM     32  C   UNL A   1      35.324  32.454  30.521  1.00  0.00     0.010 A 
ATOM     33  C   UNL A   1      36.569  32.851  30.017  1.00  0.00    -0.014 A 
BRANCH  33  34
ATOM     34  C   UNL A   1      37.808  32.229  30.543  1.00  0.00     0.031 A 
ATOM     35  C   UNL A   1      38.460  32.777  31.784  1.00  0.00     0.074 A 
ATOM     36  C   UNL A   1      38.363  31.195  29.881  1.00  0.00     0.049 A 
ATOM     37  N   UNL A   1      39.551  32.380  32.391  1.00  0.00    -0.248 NA
ATOM     38  C   UNL A   1      37.823  33.947  32.410  1.00  0.00     0.031 C 
ATOM     39  C   UNL A   1      37.863  30.629  28.626  1.00  0.00     0.029 A 
ATOM     40  N   UNL A   1      39.465  30.436  30.173  1.00  0.00    -0.354 N 
ATOM     41  C   UNL A   1      39.734  33.258  33.452  1.00  0.00     0.074 A 
ATOM     42  C   UNL A   1      38.684  34.249  33.370  1.00  0.00     0.031 C 
ATOM     43  C   UNL A   1      38.636  29.589  28.276  1.00  0.00     0.029 A 
ATOM     44  C   UNL A   1      39.695  29.430  29.267  1.00  0.00     0.049 A 
ATOM     45  H   UNL A   1      40.038  30.596  30.958  1.00  0.00     0.167 HD
ATOM     46  C   UNL A   1      40.670  33.223  34.429  1.00  0.00     0.037 A 
ATOM     47  C   UNL A   1      40.646  28.479  29.249  1.00  0.00     0.037 A 
ATOM     48  C   UNL A   1      41.691  32.214  34.526  1.00  0.00     0.049 A 
ATOM     49  C   UNL A   1      41.636  28.422  30.378  1.00  0.00     0.074 A 
ATOM     50  C   UNL A   1      42.664  32.056  35.497  1.00  0.00     0.029 A 
ATOM     51  N   UNL A   1      41.857  31.178  33.618  1.00  0.00    -0.354 N 
ATOM     52  N   UNL A   1      41.760  29.223  31.409  1.00  0.00    -0.248 NA
ATOM     53  C   UNL A   1      42.605  27.319  30.352  1.00  0.00     0.031 C 
ATOM     54  C   UNL A   1      43.435  30.936  35.162  1.00  0.00     0.029 A 
ATOM     55  C   UNL A   1      42.917  30.377  34.004  1.00  0.00     0.049 A 
ATOM     56  H   UNL A   1      41.304  31.035  32.817  1.00  0.00     0.167 HD
ATOM     57  C   UNL A   1      42.810  28.715  32.162  1.00  0.00     0.074 A 
ATOM     58  C   UNL A   1      43.267  27.519  31.483  1.00  0.00     0.031 C 
ATOM     59  C   UNL A   1      43.353  29.195  33.307  1.00  0.00     0.037 A 
BRANCH  46  60
ATOM     60  C   UNL A   1      40.612  34.295  35.479  1.00  0.00     0.057 A 
ATOM     61  C   UNL A   1      39.878  34.128  36.661  1.00  0.00     0.134 A 
ATOM     62  C   UNL A   1      41.306  35.501  35.319  1.00  0.00     0.134 A 
ATOM     63  F   UNL A   1      39.177  33.003  36.872  1.00  0.00    -0.206 F 
ATOM     64  C   UNL A   1      39.811  35.129  37.631  1.00  0.00     0.040 A 
ATOM     65  C   UNL A   1      41.270  36.501  36.294  1.00  0.00     0.040 A 
ATOM     66  F   UNL A   1      42.031  35.729  34.213  1.00  0.00    -0.206 F 
ATOM     67  C   UNL A   1      40.515  36.319  37.451  1.00  0.00     0.006 A 
ENDBRANCH  46  60
BRANCH  47  68
ATOM     68  C   UNL A   1      40.674  27.478  28.154  1.00  0.00     0.057 A 
ATOM     69  C   UNL A   1      39.963  26.276  28.255  1.00  0.00     0.134 A 
ATOM     70  C   UNL A   1      41.402  27.700  26.980  1.00  0.00     0.134 A 
ATOM     71  F   UNL A   1      39.257  26.001  29.363  1.00  0.00    -0.206 F 
ATOM     72  C   UNL A   1      39.992  25.321  27.238  1.00  0.00     0.040 A 
ATOM     73  C   UNL A   1      41.420  26.765  25.944  1.00  0.00     0.040 A 
ATOM     74  F   UNL A   1      42.092  28.838  26.816  1.00  0.00    -0.206 F 
ATOM     75  C   UNL A   1      40.719  25.567  26.075  1.00  0.00     0.006 A 
ENDBRANCH  47  68
BRANCH  59  76
ATOM     76  C   UNL A   1      44.491  28.413  33.893  1.00  0.00     0.057 A 
ATOM     77  C   UNL A   1      45.822  28.699  33.568  1.00  0.00     0.134 A 
ATOM     78  C   UNL A   1      44.250  27.375  34.800  1.00  0.00     0.134 A 
ATOM     79  F   UNL A   1      46.115  29.675  32.695  1.00  0.00    -0.206 F 
ATOM     80  C   UNL A   1      46.876  27.958  34.102  1.00  0.00     0.040 A 
ATOM     81  C   UNL A   1      45.297  26.643  35.360  1.00  0.00     0.040 A 
ATOM     82  F   UNL A   1      42.997  27.058  35.158  1.00  0.00    -0.206 F 
ATOM     83  C   UNL A   1      46.614  26.928  35.005  1.00  0.00     0.006 A 
ENDBRANCH  59  76
ENDBRANCH  33  34
ENDBRANCH  25  28
ENDBRANCH  23  24
ENDBRANCH  22  23
ENDBRANCH   1  22
TORSDOF 15
ENDMDL
MODEL 3
REMARK VINA RESULT:      -8.9      4.364      9.555
REMARK SMILES C[NH2+][C@H](CC(=O)NCCCCNC(=O)c1ccc(-c2c3nc(c(-c4c(F)cccc4F)c4ccc([nH]4)c(-c4c(F)cccc4F)c4nc(c(-c5c(F)cccc5F)c5ccc2[nH]5)C=C4)C=C3)cc1)c1cccc(C2CC2)c1
REMARK SMILES IDX 9 1 8 2 7 3 5 4 6 5 4 7 3 8 2 9 1 10 69 13 70 14 77 15 71 16
REMARK SMILES IDX 73 17 72 18 74 19 75 20 76 21 10 22 11 23 12 24 13 25 14 27
REMARK SMILES IDX 15 28 16 29 68 30 17 31 67 32 18 33 19 34 20 35 61 36 21 37
REMARK SMILES IDX 66 38 60 39 62 40 22 41 65 42 59 43 58 44 23 46 49 47 32 48
REMARK SMILES IDX 48 49 33 50 36 51 47 52 63 53 34 54 35 55 46 57 64 58 37 59
REMARK SMILES IDX 24 60 25 61 30 62 26 63 27 64 29 65 31 66 28 67 50 68 51 69
REMARK SMILES IDX 56 70 52 71 53 72 55 73 57 74 54 75 38 76 39 77 44 78 40 79
REMARK SMILES IDX 41 80 43 81 45 82 42 83
REMARK H PARENT 7 6 2 11 2 12 12 26 62 45 36 56
REMARK Flexibility Score: inf
ROOT
ATOM      1  C   UNL A   1      36.278  20.195  25.000  1.00  0.00     0.023 C 
ENDROOT
BRANCH   1   2
ATOM      2  C   UNL A   1      36.348  21.682  25.350  1.00  0.00     0.116 C 
BRANCH   2   3
ATOM      3  N   UNL A   1      35.668  22.015  26.584  1.00  0.00    -0.356 N 
ATOM      4  C   UNL A   1      34.402  22.446  26.824  1.00  0.00     0.226 C 
ATOM      5  O   UNL A   1      34.038  22.498  28.002  1.00  0.00    -0.275 OA
ATOM      6  H   UNL A   1      36.221  21.913  27.392  1.00  0.00     0.163 HD
BRANCH   4   7
ATOM      7  C   UNL A   1      33.449  22.798  25.701  1.00  0.00     0.170 C 
BRANCH   7   8
ATOM      8  C   UNL A   1      32.219  21.881  25.548  1.00  0.00     0.222 C 
BRANCH   8   9
ATOM      9  N   UNL A   1      30.989  22.685  25.378  1.00  0.00    -0.342 N 
ATOM     10  C   UNL A   1      30.311  22.953  26.638  1.00  0.00     0.331 C 
ATOM     11  H   UNL A   1      31.238  23.574  24.945  1.00  0.00     0.346 HD
ATOM     12  H   UNL A   1      30.349  22.145  24.793  1.00  0.00     0.346 HD
ENDBRANCH   8   9
BRANCH   8  13
ATOM     13  C   UNL A   1      32.331  20.862  24.422  1.00  0.00     0.010 A 
ATOM     14  C   UNL A   1      32.153  21.290  23.102  1.00  0.00     0.010 A 
ATOM     15  C   UNL A   1      32.596  19.500  24.647  1.00  0.00     0.014 A 
ATOM     16  C   UNL A   1      32.057  20.380  22.060  1.00  0.00     0.001 A 
ATOM     17  C   UNL A   1      32.624  18.564  23.592  1.00  0.00    -0.044 A 
ATOM     18  C   UNL A   1      32.280  19.031  22.310  1.00  0.00     0.004 A 
BRANCH  17  19
ATOM     19  C   UNL A   1      33.058  17.120  23.744  1.00  0.00     0.019 C 
ATOM     20  C   UNL A   1      34.402  16.713  23.184  1.00  0.00     0.009 C 
ATOM     21  C   UNL A   1      34.155  16.659  24.664  1.00  0.00     0.009 C 
ENDBRANCH  17  19
ENDBRANCH   8  13
ENDBRANCH   7   8
ENDBRANCH   4   7
ENDBRANCH   2   3
ENDBRANCH   1   2
BRANCH   1  22
ATOM     22  C   UNL A   1      37.620  19.466  24.886  1.00  0.00     0.023 C 
BRANCH  22  23
ATOM     23  C   UNL A   1      38.744  20.132  25.665  1.00  0.00     0.116 C 
BRANCH  23  24
ATOM     24  N   UNL A   1      39.849  19.208  25.887  1.00  0.00    -0.352 N 
ATOM     25  C   UNL A   1      41.173  19.455  26.125  1.00  0.00     0.251 C 
ATOM     26  H   UNL A   1      39.603  18.256  25.862  1.00  0.00     0.163 HD
ATOM     27  O   UNL A   1      41.990  18.541  25.981  1.00  0.00    -0.269 OA
BRANCH  25  28
ATOM     28  C   UNL A   1      41.638  20.787  26.566  1.00  0.00     0.039 A 
ATOM     29  C   UNL A   1      41.808  21.025  27.934  1.00  0.00     0.014 A 
ATOM     30  C   UNL A   1      41.829  21.827  25.652  1.00  0.00     0.014 A 
ATOM     31  C   UNL A   1      42.184  22.293  28.377  1.00  0.00     0.010 A 
ATOM     32  C   UNL A   1      42.299  23.062  26.086  1.00  0.00     0.010 A 
ATOM     33  C   UNL A   1      42.446  23.319  27.454  1.00  0.00    -0.014 A 
BRANCH  33  34
ATOM     34  C   UNL A   1      42.819  24.679  27.912  1.00  0.00     0.031 A 
ATOM     35  C   UNL A   1      44.268  25.076  27.996  1.00  0.00     0.074 A 
ATOM     36  C   UNL A   1      41.854  25.542  28.284  1.00  0.00     0.049 A 
ATOM     37  N   UNL A   1      44.796  26.211  28.383  1.00  0.00    -0.248 NA
ATOM     38  C   UNL A   1      45.261  24.053  27.630  1.00  0.00     0.031 C 
ATOM     39  C   UNL A   1      40.420  25.242  28.318  1.00  0.00     0.029 A 
ATOM     40  N   UNL A   1      41.931  26.844  28.701  1.00  0.00    -0.354 N 
ATOM     41  C   UNL A   1      46.171  26.029  28.321  1.00  0.00     0.074 A 
ATOM     42  C   UNL A   1      46.402  24.658  27.925  1.00  0.00     0.031 C 
ATOM     43  C   UNL A   1      39.751  26.342  28.698  1.00  0.00     0.029 A 
ATOM     44  C   UNL A   1      40.708  27.413  28.956  1.00  0.00     0.049 A 
ATOM     45  H   UNL A   1      42.784  27.326  28.808  1.00  0.00     0.167 HD
ATOM     46  C   UNL A   1      47.156  26.932  28.538  1.00  0.00     0.037 A 
ATOM     47  C   UNL A   1      40.396  28.664  29.341  1.00  0.00     0.037 A 
ATOM     48  C   UNL A   1      46.920  28.306  28.896  1.00  0.00     0.049 A 
ATOM     49  C   UNL A   1      41.503  29.666  29.515  1.00  0.00     0.074 A 
ATOM     50  C   UNL A   1      47.840  29.319  29.099  1.00  0.00     0.029 A 
ATOM     51  N   UNL A   1      45.663  28.859  29.092  1.00  0.00    -0.354 N 
ATOM     52  N   UNL A   1      42.797  29.497  29.393  1.00  0.00    -0.248 NA
ATOM     53  C   UNL A   1      41.104  31.037  29.860  1.00  0.00     0.031 C 
ATOM     54  C   UNL A   1      47.139  30.482  29.440  1.00  0.00     0.029 A 
ATOM     55  C   UNL A   1      45.782  30.200  29.414  1.00  0.00     0.049 A 
ATOM     56  H   UNL A   1      44.813  28.370  29.015  1.00  0.00     0.167 HD
ATOM     57  C   UNL A   1      43.368  30.739  29.632  1.00  0.00     0.074 A 
ATOM     58  C   UNL A   1      42.274  31.659  29.875  1.00  0.00     0.031 C 
ATOM     59  C   UNL A   1      44.676  31.090  29.655  1.00  0.00     0.037 A 
BRANCH  46  60
ATOM     60  C   UNL A   1      48.573  26.463  28.369  1.00  0.00     0.057 A 
ATOM     61  C   UNL A   1      49.239  26.565  27.140  1.00  0.00     0.134 A 
ATOM     62  C   UNL A   1      49.286  25.917  29.443  1.00  0.00     0.134 A 
ATOM     63  F   UNL A   1      48.609  27.065  26.065  1.00  0.00    -0.206 F 
ATOM     64  C   UNL A   1      50.551  26.117  26.977  1.00  0.00     0.040 A 
ATOM     65  C   UNL A   1      50.608  25.489  29.301  1.00  0.00     0.040 A 
ATOM     66  F   UNL A   1      48.712  25.792  30.649  1.00  0.00    -0.206 F 
ATOM     67  C   UNL A   1      51.241  25.581  28.063  1.00  0.00     0.006 A 
ENDBRANCH  46  60
BRANCH  47  68
ATOM     68  C   UNL A   1      38.976  29.048  29.537  1.00  0.00     0.057 A 
ATOM     69  C   UNL A   1      38.366  28.944  30.793  1.00  0.00     0.134 A 
ATOM     70  C   UNL A   1      38.199  29.535  28.481  1.00  0.00     0.134 A 
ATOM     71  F   UNL A   1      39.057  28.471  31.841  1.00  0.00    -0.206 F 
ATOM     72  C   UNL A   1      37.028  29.289  30.987  1.00  0.00     0.040 A 
ATOM     73  C   UNL A   1      36.866  29.908  28.665  1.00  0.00     0.040 A 
ATOM     74  F   UNL A   1      38.729  29.672  27.256  1.00  0.00    -0.206 F 
ATOM     75  C   UNL A   1      36.275  29.777  29.921  1.00  0.00     0.006 A 
ENDBRANCH  47  68
BRANCH  59  76
ATOM     76  C   UNL A   1      44.984  32.530  29.943  1.00  0.00     0.057 A 
ATOM     77  C   UNL A   1      45.113  33.472  28.915  1.00  0.00     0.134 A 
ATOM     78  C   UNL A   1      45.138  32.977  31.260  1.00  0.00     0.134 A 
ATOM     79  F   UNL A   1      44.988  33.100  27.632  1.00  0.00    -0.206 F 
ATOM     80  C   UNL A   1      45.416  34.805  29.186  1.00  0.00     0.040 A 
ATOM     81  C   UNL A   1      45.416  34.314  31.545  1.00  0.00     0.040 A 
ATOM     82  F   UNL A   1      45.017  32.125  32.289  1.00  0.00    -0.206 F 
ATOM     83  C   UNL A   1      45.565  35.231  30.505  1.00  0.00     0.006 A 
ENDBRANCH  59  76
ENDBRANCH  33  34
ENDBRANCH  25  28
ENDBRANCH  23  24
ENDBRANCH  22  23
ENDBRANCH   1  22
TORSDOF 15
ENDMDL
