MODEL 1
REMARK VINA RESULT:     -11.3      0.000      0.000
REMARK SMILES O=C(C[C@@H](NS(=O)(=O)c1ccc(Cl)cc1)c1ccc(F)cc1)NCCCCNC(=O)c1ccc(-c2c3nc(c(-c4c(F)cccc4F)c4ccc([nH]4)c(-c4c(F)cccc4F)c4nc(c(-c5c(F)cccc5F)c5ccc2[nH]5)C=C4)C=C3)cc1
REMARK SMILES IDX 24 1 23 2 1 3 2 4 3 6 4 7 5 8 6 10 7 11 8 12 9 13 10 14
REMARK SMILES IDX 15 15 11 16 14 17 12 18 13 19 16 20 17 21 22 22 18 23 21 24
REMARK SMILES IDX 19 25 20 26 25 27 26 28 27 29 28 30 29 31 30 33 31 34 32 35
REMARK SMILES IDX 84 36 33 37 83 38 34 39 35 40 36 41 77 42 37 43 82 44 76 45
REMARK SMILES IDX 78 46 38 47 81 48 75 49 74 50 39 52 65 53 48 54 64 55 49 56
REMARK SMILES IDX 52 57 63 58 79 59 50 60 51 61 62 63 80 64 53 65 40 66 41 67
REMARK SMILES IDX 46 68 42 69 43 70 45 71 47 72 44 73 66 74 67 75 72 76 68 77
REMARK SMILES IDX 69 78 71 79 73 80 70 81 54 82 55 83 60 84 56 85 57 86 59 87
REMARK SMILES IDX 61 88 58 89
REMARK H PARENT 23 5 5 9 28 32 78 51 52 62
REMARK Flexibility Score: inf
ROOT
ATOM      1  C   UNL A   1      36.839  21.983  24.439  1.00  0.00     0.116 C 
ENDROOT
BRANCH   1   2
ATOM      2  N   UNL A   1      35.944  22.932  25.071  1.00  0.00    -0.356 N 
ATOM      3  O   UNL A   1      35.189  23.803  23.084  1.00  0.00    -0.275 OA
ATOM      4  C   UNL A   1      35.174  23.787  24.310  1.00  0.00     0.221 C 
ATOM      5  H   UNL A   1      35.884  22.968  26.054  1.00  0.00     0.163 HD
BRANCH   4   6
ATOM      6  C   UNL A   1      34.262  24.687  25.110  1.00  0.00     0.124 C 
BRANCH   6   7
ATOM      7  C   UNL A   1      33.884  25.924  24.273  1.00  0.00     0.109 C 
BRANCH   7   8
ATOM      8  N   UNL A   1      32.940  25.498  23.207  1.00  0.00    -0.203 NA
ATOM      9  H   UNL A   1      32.039  25.331  23.655  1.00  0.00     0.142 HD
BRANCH   8  10
ATOM     10  S   UNL A   1      32.655  26.528  21.898  1.00  0.00     0.241 S 
ATOM     11  O   UNL A   1      33.824  27.366  21.730  1.00  0.00    -0.207 OA
ATOM     12  O   UNL A   1      32.180  25.668  20.840  1.00  0.00    -0.207 OA
BRANCH  10  13
ATOM     13  C   UNL A   1      31.292  27.545  22.396  1.00  0.00     0.082 A 
ATOM     14  C   UNL A   1      31.300  28.916  22.128  1.00  0.00     0.023 A 
ATOM     15  C   UNL A   1      30.180  26.940  22.993  1.00  0.00     0.023 A 
ATOM     16  C   UNL A   1      30.171  29.681  22.427  1.00  0.00     0.022 A 
ATOM     17  C   UNL A   1      29.060  27.713  23.305  1.00  0.00     0.022 A 
ATOM     18  C   UNL A   1      29.055  29.077  23.009  1.00  0.00     0.041 A 
ATOM     19  Cl  UNL A   1      27.658  30.018  23.352  1.00  0.00    -0.084 Cl
ENDBRANCH  10  13
ENDBRANCH   8  10
ENDBRANCH   7   8
BRANCH   7  20
ATOM     20  C   UNL A   1      33.274  27.012  25.148  1.00  0.00    -0.029 A 
ATOM     21  C   UNL A   1      32.241  26.680  26.044  1.00  0.00     0.008 A 
ATOM     22  C   UNL A   1      33.753  28.337  25.141  1.00  0.00     0.008 A 
ATOM     23  C   UNL A   1      31.713  27.638  26.913  1.00  0.00     0.039 A 
ATOM     24  C   UNL A   1      33.211  29.297  25.998  1.00  0.00     0.039 A 
ATOM     25  C   UNL A   1      32.202  28.937  26.882  1.00  0.00     0.123 A 
ATOM     26  F   UNL A   1      31.700  29.854  27.717  1.00  0.00    -0.207 F 
ENDBRANCH   7  20
ENDBRANCH   6   7
ENDBRANCH   4   6
ENDBRANCH   1   2
BRANCH   1  27
ATOM     27  C   UNL A   1      36.586  20.543  24.881  1.00  0.00     0.023 C 
BRANCH  27  28
ATOM     28  C   UNL A   1      37.826  19.646  24.937  1.00  0.00     0.023 C 
BRANCH  28  29
ATOM     29  C   UNL A   1      38.990  20.174  25.773  1.00  0.00     0.116 C 
BRANCH  29  30
ATOM     30  N   UNL A   1      40.136  19.280  25.772  1.00  0.00    -0.352 N 
ATOM     31  C   UNL A   1      41.449  19.535  26.084  1.00  0.00     0.251 C 
ATOM     32  H   UNL A   1      39.941  18.351  25.507  1.00  0.00     0.163 HD
ATOM     33  O   UNL A   1      42.299  18.670  25.888  1.00  0.00    -0.269 OA
BRANCH  31  34
ATOM     34  C   UNL A   1      41.857  20.852  26.623  1.00  0.00     0.039 A 
ATOM     35  C   UNL A   1      42.319  21.825  25.730  1.00  0.00     0.014 A 
ATOM     36  C   UNL A   1      41.810  21.130  27.992  1.00  0.00     0.014 A 
ATOM     37  C   UNL A   1      42.667  23.094  26.198  1.00  0.00     0.010 A 
ATOM     38  C   UNL A   1      42.104  22.413  28.452  1.00  0.00     0.010 A 
ATOM     39  C   UNL A   1      42.528  23.410  27.560  1.00  0.00    -0.014 A 
BRANCH  39  40
ATOM     40  C   UNL A   1      42.804  24.779  28.063  1.00  0.00     0.031 A 
ATOM     41  C   UNL A   1      44.195  25.176  28.468  1.00  0.00     0.074 A 
ATOM     42  C   UNL A   1      41.787  25.651  28.208  1.00  0.00     0.049 A 
ATOM     43  N   UNL A   1      44.608  26.294  29.008  1.00  0.00    -0.248 NA
ATOM     44  C   UNL A   1      45.257  24.181  28.254  1.00  0.00     0.031 C 
ATOM     45  C   UNL A   1      40.388  25.382  27.879  1.00  0.00     0.029 A 
ATOM     46  N   UNL A   1      41.776  26.940  28.683  1.00  0.00    -0.354 N 
ATOM     47  C   UNL A   1      45.972  26.133  29.214  1.00  0.00     0.074 A 
ATOM     48  C   UNL A   1      46.311  24.797  28.769  1.00  0.00     0.031 C 
ATOM     49  C   UNL A   1      39.656  26.477  28.143  1.00  0.00     0.029 A 
ATOM     50  C   UNL A   1      40.527  27.512  28.691  1.00  0.00     0.049 A 
ATOM     51  H   UNL A   1      42.586  27.409  28.988  1.00  0.00     0.167 HD
ATOM     52  C   UNL A   1      46.864  27.021  29.713  1.00  0.00     0.037 A 
ATOM     53  C   UNL A   1      40.126  28.730  29.103  1.00  0.00     0.037 A 
ATOM     54  C   UNL A   1      46.536  28.359  30.130  1.00  0.00     0.049 A 
ATOM     55  C   UNL A   1      41.133  29.697  29.653  1.00  0.00     0.074 A 
ATOM     56  C   UNL A   1      47.384  29.343  30.608  1.00  0.00     0.029 A 
ATOM     57  N   UNL A   1      45.261  28.902  30.114  1.00  0.00    -0.354 N 
ATOM     58  N   UNL A   1      42.424  29.539  29.815  1.00  0.00    -0.248 NA
ATOM     59  C   UNL A   1      40.630  31.011  30.080  1.00  0.00     0.031 C 
ATOM     60  C   UNL A   1      46.617  30.474  30.905  1.00  0.00     0.029 A 
ATOM     61  C   UNL A   1      45.298  30.204  30.583  1.00  0.00     0.049 A 
ATOM     62  H   UNL A   1      44.451  28.431  29.813  1.00  0.00     0.167 HD
ATOM     63  C   UNL A   1      42.890  30.734  30.345  1.00  0.00     0.074 A 
ATOM     64  C   UNL A   1      41.747  31.614  30.469  1.00  0.00     0.031 C 
ATOM     65  C   UNL A   1      44.154  31.069  30.697  1.00  0.00     0.037 A 
BRANCH  52  66
ATOM     66  C   UNL A   1      48.291  26.580  29.826  1.00  0.00     0.057 A 
ATOM     67  C   UNL A   1      49.185  26.768  28.765  1.00  0.00     0.134 A 
ATOM     68  C   UNL A   1      48.765  25.918  30.964  1.00  0.00     0.134 A 
ATOM     69  F   UNL A   1      48.791  27.391  27.643  1.00  0.00    -0.206 F 
ATOM     70  C   UNL A   1      50.500  26.304  28.829  1.00  0.00     0.040 A 
ATOM     71  C   UNL A   1      50.083  25.467  31.049  1.00  0.00     0.040 A 
ATOM     72  F   UNL A   1      47.959  25.716  32.018  1.00  0.00    -0.206 F 
ATOM     73  C   UNL A   1      50.952  25.653  29.975  1.00  0.00     0.006 A 
ENDBRANCH  52  66
BRANCH  53  74
ATOM     74  C   UNL A   1      38.698  29.109  28.983  1.00  0.00     0.057 A 
ATOM     75  C   UNL A   1      37.821  29.012  30.068  1.00  0.00     0.134 A 
ATOM     76  C   UNL A   1      38.177  29.564  27.767  1.00  0.00     0.134 A 
ATOM     77  F   UNL A   1      38.261  28.576  31.259  1.00  0.00    -0.206 F 
ATOM     78  C   UNL A   1      36.470  29.342  29.946  1.00  0.00     0.040 A 
ATOM     79  C   UNL A   1      36.833  29.915  27.635  1.00  0.00     0.040 A 
ATOM     80  F   UNL A   1      38.976  29.695  26.698  1.00  0.00    -0.206 F 
ATOM     81  C   UNL A   1      35.974  29.798  28.726  1.00  0.00     0.006 A 
ENDBRANCH  53  74
BRANCH  65  82
ATOM     82  C   UNL A   1      44.378  32.451  31.233  1.00  0.00     0.057 A 
ATOM     83  C   UNL A   1      44.694  33.508  30.371  1.00  0.00     0.134 A 
ATOM     84  C   UNL A   1      44.349  32.716  32.607  1.00  0.00     0.134 A 
ATOM     85  F   UNL A   1      44.744  33.314  29.044  1.00  0.00    -0.206 F 
ATOM     86  C   UNL A   1      44.985  34.782  30.860  1.00  0.00     0.040 A 
ATOM     87  C   UNL A   1      44.621  33.990  33.106  1.00  0.00     0.040 A 
ATOM     88  F   UNL A   1      44.042  31.745  33.481  1.00  0.00    -0.206 F 
ATOM     89  C   UNL A   1      44.949  35.026  32.231  1.00  0.00     0.006 A 
ENDBRANCH  65  82
ENDBRANCH  39  40
ENDBRANCH  31  34
ENDBRANCH  29  30
ENDBRANCH  28  29
ENDBRANCH  27  28
ENDBRANCH   1  27
TORSDOF 16
ENDMDL
MODEL 2
REMARK VINA RESULT:     -11.3      2.198      3.229
REMARK SMILES O=C(C[C@@H](NS(=O)(=O)c1ccc(Cl)cc1)c1ccc(F)cc1)NCCCCNC(=O)c1ccc(-c2c3nc(c(-c4c(F)cccc4F)c4ccc([nH]4)c(-c4c(F)cccc4F)c4nc(c(-c5c(F)cccc5F)c5ccc2[nH]5)C=C4)C=C3)cc1
REMARK SMILES IDX 24 1 23 2 1 3 2 4 3 6 4 7 5 8 6 10 7 11 8 12 9 13 10 14
REMARK SMILES IDX 15 15 11 16 14 17 12 18 13 19 16 20 17 21 22 22 18 23 21 24
REMARK SMILES IDX 19 25 20 26 25 27 26 28 27 29 28 30 29 31 30 33 31 34 32 35
REMARK SMILES IDX 84 36 33 37 83 38 34 39 35 40 36 41 77 42 37 43 82 44 76 45
REMARK SMILES IDX 78 46 38 47 81 48 75 49 74 50 39 52 65 53 48 54 64 55 49 56
REMARK SMILES IDX 52 57 63 58 79 59 50 60 51 61 62 63 80 64 53 65 40 66 41 67
REMARK SMILES IDX 46 68 42 69 43 70 45 71 47 72 44 73 66 74 67 75 72 76 68 77
REMARK SMILES IDX 69 78 71 79 73 80 70 81 54 82 55 83 60 84 56 85 57 86 59 87
REMARK SMILES IDX 61 88 58 89
REMARK H PARENT 23 5 5 9 28 32 78 51 52 62
REMARK Flexibility Score: inf
ROOT
ATOM      1  C   UNL A   1      36.174  21.522  25.522  1.00  0.00     0.116 C 
ENDROOT
BRANCH   1   2
ATOM      2  N   UNL A   1      35.419  22.350  24.601  1.00  0.00    -0.356 N 
ATOM      3  O   UNL A   1      35.953  24.316  25.662  1.00  0.00    -0.275 OA
ATOM      4  C   UNL A   1      35.374  23.719  24.761  1.00  0.00     0.221 C 
ATOM      5  H   UNL A   1      34.933  21.931  23.853  1.00  0.00     0.163 HD
BRANCH   4   6
ATOM      6  C   UNL A   1      34.583  24.447  23.700  1.00  0.00     0.124 C 
BRANCH   6   7
ATOM      7  C   UNL A   1      33.231  24.905  24.279  1.00  0.00     0.109 C 
BRANCH   7   8
ATOM      8  N   UNL A   1      32.849  23.973  25.373  1.00  0.00    -0.203 NA
ATOM      9  H   UNL A   1      32.715  24.538  26.212  1.00  0.00     0.142 HD
BRANCH   8  10
ATOM     10  S   UNL A   1      31.467  23.017  25.198  1.00  0.00     0.241 S 
ATOM     11  O   UNL A   1      30.861  22.870  26.505  1.00  0.00    -0.207 OA
ATOM     12  O   UNL A   1      30.746  23.599  24.090  1.00  0.00    -0.207 OA
BRANCH  10  13
ATOM     13  C   UNL A   1      32.061  21.436  24.663  1.00  0.00     0.082 A 
ATOM     14  C   UNL A   1      32.466  20.481  25.599  1.00  0.00     0.023 A 
ATOM     15  C   UNL A   1      32.048  21.136  23.296  1.00  0.00     0.023 A 
ATOM     16  C   UNL A   1      32.825  19.203  25.166  1.00  0.00     0.022 A 
ATOM     17  C   UNL A   1      32.423  19.862  22.867  1.00  0.00     0.022 A 
ATOM     18  C   UNL A   1      32.797  18.898  23.804  1.00  0.00     0.041 A 
ATOM     19  Cl  UNL A   1      33.216  17.315  23.278  1.00  0.00    -0.084 Cl
ENDBRANCH  10  13
ENDBRANCH   8  10
ENDBRANCH   7   8
BRANCH   7  20
ATOM     20  C   UNL A   1      33.307  26.342  24.779  1.00  0.00    -0.029 A 
ATOM     21  C   UNL A   1      33.211  26.599  26.160  1.00  0.00     0.008 A 
ATOM     22  C   UNL A   1      33.535  27.428  23.912  1.00  0.00     0.008 A 
ATOM     23  C   UNL A   1      33.353  27.897  26.657  1.00  0.00     0.039 A 
ATOM     24  C   UNL A   1      33.658  28.726  24.410  1.00  0.00     0.039 A 
ATOM     25  C   UNL A   1      33.574  28.948  25.778  1.00  0.00     0.123 A 
ATOM     26  F   UNL A   1      33.714  30.192  26.254  1.00  0.00    -0.207 F 
ENDBRANCH   7  20
ENDBRANCH   6   7
ENDBRANCH   4   6
ENDBRANCH   1   2
BRANCH   1  27
ATOM     27  C   UNL A   1      36.408  20.109  24.994  1.00  0.00     0.023 C 
BRANCH  27  28
ATOM     28  C   UNL A   1      37.864  19.766  24.662  1.00  0.00     0.023 C 
BRANCH  28  29
ATOM     29  C   UNL A   1      38.896  20.166  25.713  1.00  0.00     0.116 C 
BRANCH  29  30
ATOM     30  N   UNL A   1      40.018  19.244  25.780  1.00  0.00    -0.352 N 
ATOM     31  C   UNL A   1      41.325  19.476  26.135  1.00  0.00     0.251 C 
ATOM     32  H   UNL A   1      39.810  18.314  25.535  1.00  0.00     0.163 HD
ATOM     33  O   UNL A   1      42.160  18.585  25.996  1.00  0.00    -0.269 OA
BRANCH  31  34
ATOM     34  C   UNL A   1      41.746  20.798  26.652  1.00  0.00     0.039 A 
ATOM     35  C   UNL A   1      42.133  21.781  25.735  1.00  0.00     0.014 A 
ATOM     36  C   UNL A   1      41.786  21.070  28.022  1.00  0.00     0.014 A 
ATOM     37  C   UNL A   1      42.491  23.054  26.184  1.00  0.00     0.010 A 
ATOM     38  C   UNL A   1      42.088  22.357  28.468  1.00  0.00     0.010 A 
ATOM     39  C   UNL A   1      42.437  23.363  27.554  1.00  0.00    -0.014 A 
BRANCH  39  40
ATOM     40  C   UNL A   1      42.723  24.735  28.043  1.00  0.00     0.031 A 
ATOM     41  C   UNL A   1      44.119  25.129  28.433  1.00  0.00     0.074 A 
ATOM     42  C   UNL A   1      41.712  25.613  28.191  1.00  0.00     0.049 A 
ATOM     43  N   UNL A   1      44.543  26.249  28.961  1.00  0.00    -0.248 NA
ATOM     44  C   UNL A   1      45.175  24.127  28.218  1.00  0.00     0.031 C 
ATOM     45  C   UNL A   1      40.308  25.347  27.877  1.00  0.00     0.029 A 
ATOM     46  N   UNL A   1      41.710  26.905  28.656  1.00  0.00    -0.354 N 
ATOM     47  C   UNL A   1      45.908  26.083  29.156  1.00  0.00     0.074 A 
ATOM     48  C   UNL A   1      46.237  24.743  28.718  1.00  0.00     0.031 C 
ATOM     49  C   UNL A   1      39.583  26.447  28.139  1.00  0.00     0.029 A 
ATOM     50  C   UNL A   1      40.464  27.482  28.671  1.00  0.00     0.049 A 
ATOM     51  H   UNL A   1      42.525  27.373  28.950  1.00  0.00     0.167 HD
ATOM     52  C   UNL A   1      46.808  26.972  29.640  1.00  0.00     0.037 A 
ATOM     53  C   UNL A   1      40.072  28.705  29.077  1.00  0.00     0.037 A 
ATOM     54  C   UNL A   1      46.490  28.314  30.049  1.00  0.00     0.049 A 
ATOM     55  C   UNL A   1      41.089  29.672  29.610  1.00  0.00     0.074 A 
ATOM     56  C   UNL A   1      47.347  29.298  30.512  1.00  0.00     0.029 A 
ATOM     57  N   UNL A   1      45.217  28.862  30.040  1.00  0.00    -0.354 N 
ATOM     58  N   UNL A   1      42.380  29.509  29.762  1.00  0.00    -0.248 NA
ATOM     59  C   UNL A   1      40.595  30.992  30.031  1.00  0.00     0.031 C 
ATOM     60  C   UNL A   1      46.587  30.435  30.807  1.00  0.00     0.029 A 
ATOM     61  C   UNL A   1      45.264  30.168  30.499  1.00  0.00     0.049 A 
ATOM     62  H   UNL A   1      44.402  28.393  29.750  1.00  0.00     0.167 HD
ATOM     63  C   UNL A   1      42.856  30.707  30.278  1.00  0.00     0.074 A 
ATOM     64  C   UNL A   1      41.718  31.593  30.406  1.00  0.00     0.031 C 
ATOM     65  C   UNL A   1      44.124  31.039  30.616  1.00  0.00     0.037 A 
BRANCH  52  66
ATOM     66  C   UNL A   1      48.234  26.525  29.743  1.00  0.00     0.057 A 
ATOM     67  C   UNL A   1      49.127  26.731  28.685  1.00  0.00     0.134 A 
ATOM     68  C   UNL A   1      48.707  25.840  30.868  1.00  0.00     0.134 A 
ATOM     69  F   UNL A   1      48.734  27.375  27.575  1.00  0.00    -0.206 F 
ATOM     70  C   UNL A   1      50.441  26.263  28.739  1.00  0.00     0.040 A 
ATOM     71  C   UNL A   1      50.024  25.385  30.943  1.00  0.00     0.040 A 
ATOM     72  F   UNL A   1      47.901  25.621  31.919  1.00  0.00    -0.206 F 
ATOM     73  C   UNL A   1      50.893  25.589  29.873  1.00  0.00     0.006 A 
ENDBRANCH  52  66
BRANCH  53  74
ATOM     74  C   UNL A   1      38.645  29.091  28.967  1.00  0.00     0.057 A 
ATOM     75  C   UNL A   1      37.772  28.986  30.055  1.00  0.00     0.134 A 
ATOM     76  C   UNL A   1      38.120  29.557  27.757  1.00  0.00     0.134 A 
ATOM     77  F   UNL A   1      38.217  28.539  31.240  1.00  0.00    -0.206 F 
ATOM     78  C   UNL A   1      36.422  29.321  29.942  1.00  0.00     0.040 A 
ATOM     79  C   UNL A   1      36.776  29.914  27.635  1.00  0.00     0.040 A 
ATOM     80  F   UNL A   1      38.914  29.695  26.685  1.00  0.00    -0.206 F 
ATOM     81  C   UNL A   1      35.922  29.790  28.728  1.00  0.00     0.006 A 
ENDBRANCH  53  74
BRANCH  65  82
ATOM     82  C   UNL A   1      44.359  32.424  31.139  1.00  0.00     0.057 A 
ATOM     83  C   UNL A   1      44.273  32.693  32.511  1.00  0.00     0.134 A 
ATOM     84  C   UNL A   1      44.601  33.500  30.278  1.00  0.00     0.134 A 
ATOM     85  F   UNL A   1      44.036  31.704  33.386  1.00  0.00    -0.206 F 
ATOM     86  C   UNL A   1      44.410  33.990  33.006  1.00  0.00     0.040 A 
ATOM     87  C   UNL A   1      44.757  34.798  30.764  1.00  0.00     0.040 A 
ATOM     88  F   UNL A   1      44.705  33.301  28.955  1.00  0.00    -0.206 F 
ATOM     89  C   UNL A   1      44.653  35.047  32.132  1.00  0.00     0.006 A 
ENDBRANCH  65  82
ENDBRANCH  39  40
ENDBRANCH  31  34
ENDBRANCH  29  30
ENDBRANCH  28  29
ENDBRANCH  27  28
ENDBRANCH   1  27
TORSDOF 16
ENDMDL
MODEL 3
REMARK VINA RESULT:     -11.3      4.519      9.187
REMARK SMILES O=C(C[C@@H](NS(=O)(=O)c1ccc(Cl)cc1)c1ccc(F)cc1)NCCCCNC(=O)c1ccc(-c2c3nc(c(-c4c(F)cccc4F)c4ccc([nH]4)c(-c4c(F)cccc4F)c4nc(c(-c5c(F)cccc5F)c5ccc2[nH]5)C=C4)C=C3)cc1
REMARK SMILES IDX 24 1 23 2 1 3 2 4 3 6 4 7 5 8 6 10 7 11 8 12 9 13 10 14
REMARK SMILES IDX 15 15 11 16 14 17 12 18 13 19 16 20 17 21 22 22 18 23 21 24
REMARK SMILES IDX 19 25 20 26 25 27 26 28 27 29 28 30 29 31 30 33 31 34 32 35
REMARK SMILES IDX 84 36 33 37 83 38 34 39 35 40 36 41 77 42 37 43 82 44 76 45
REMARK SMILES IDX 78 46 38 47 81 48 75 49 74 50 39 52 65 53 48 54 64 55 49 56
REMARK SMILES IDX 52 57 63 58 79 59 50 60 51 61 62 63 80 64 53 65 40 66 41 67
REMARK SMILES IDX 46 68 42 69 43 70 45 71 47 72 44 73 66 74 67 75 72 76 68 77
REMARK SMILES IDX 69 78 71 79 73 80 70 81 54 82 55 83 60 84 56 85 57 86 59 87
REMARK SMILES IDX 61 88 58 89
REMARK H PARENT 23 5 5 9 28 32 78 51 52 62
REMARK Flexibility Score: inf
ROOT
ATOM      1  C   UNL A   1      32.944  30.167  26.149  1.00  0.00     0.116 C 
ENDROOT
BRANCH   1   2
ATOM      2  N   UNL A   1      33.207  29.700  24.801  1.00  0.00    -0.356 N 
ATOM      3  O   UNL A   1      33.619  27.536  25.449  1.00  0.00    -0.275 OA
ATOM      4  C   UNL A   1      33.534  28.381  24.565  1.00  0.00     0.221 C 
ATOM      5  H   UNL A   1      33.152  30.331  24.046  1.00  0.00     0.163 HD
BRANCH   4   6
ATOM      6  C   UNL A   1      33.738  28.039  23.108  1.00  0.00     0.124 C 
BRANCH   6   7
ATOM      7  C   UNL A   1      32.629  27.079  22.637  1.00  0.00     0.109 C 
BRANCH   7   8
ATOM      8  N   UNL A   1      32.659  25.868  23.499  1.00  0.00    -0.203 NA
ATOM      9  H   UNL A   1      31.715  25.738  23.864  1.00  0.00     0.142 HD
BRANCH   8  10
ATOM     10  S   UNL A   1      33.137  24.392  22.832  1.00  0.00     0.241 S 
ATOM     11  O   UNL A   1      32.079  23.433  23.073  1.00  0.00    -0.207 OA
ATOM     12  O   UNL A   1      33.580  24.710  21.495  1.00  0.00    -0.207 OA
BRANCH  10  13
ATOM     13  C   UNL A   1      34.569  23.906  23.755  1.00  0.00     0.082 A 
ATOM     14  C   UNL A   1      35.560  23.122  23.158  1.00  0.00     0.023 A 
ATOM     15  C   UNL A   1      34.724  24.381  25.062  1.00  0.00     0.023 A 
ATOM     16  C   UNL A   1      36.732  22.843  23.864  1.00  0.00     0.022 A 
ATOM     17  C   UNL A   1      35.891  24.085  25.769  1.00  0.00     0.022 A 
ATOM     18  C   UNL A   1      36.895  23.329  25.163  1.00  0.00     0.041 A 
ATOM     19  Cl  UNL A   1      38.351  23.004  26.017  1.00  0.00    -0.084 Cl
ENDBRANCH  10  13
ENDBRANCH   8  10
ENDBRANCH   7   8
BRANCH   7  20
ATOM     20  C   UNL A   1      31.264  27.754  22.681  1.00  0.00    -0.029 A 
ATOM     21  C   UNL A   1      30.188  27.097  23.308  1.00  0.00     0.008 A 
ATOM     22  C   UNL A   1      31.050  29.049  22.171  1.00  0.00     0.008 A 
ATOM     23  C   UNL A   1      28.944  27.721  23.432  1.00  0.00     0.039 A 
ATOM     24  C   UNL A   1      29.801  29.663  22.280  1.00  0.00     0.039 A 
ATOM     25  C   UNL A   1      28.762  28.997  22.916  1.00  0.00     0.123 A 
ATOM     26  F   UNL A   1      27.571  29.597  23.038  1.00  0.00    -0.207 F 
ENDBRANCH   7  20
ENDBRANCH   6   7
ENDBRANCH   4   6
ENDBRANCH   1   2
BRANCH   1  27
ATOM     27  C   UNL A   1      31.508  30.652  26.339  1.00  0.00     0.023 C 
BRANCH  27  28
ATOM     28  C   UNL A   1      31.356  32.144  26.648  1.00  0.00     0.023 C 
BRANCH  28  29
ATOM     29  C   UNL A   1      32.591  32.833  27.224  1.00  0.00     0.116 C 
BRANCH  29  30
ATOM     30  N   UNL A   1      32.341  34.213  27.604  1.00  0.00    -0.352 N 
ATOM     31  C   UNL A   1      32.966  34.991  28.548  1.00  0.00     0.251 C 
ATOM     32  H   UNL A   1      31.615  34.658  27.110  1.00  0.00     0.163 HD
ATOM     33  O   UNL A   1      32.515  36.101  28.817  1.00  0.00    -0.269 OA
BRANCH  31  34
ATOM     34  C   UNL A   1      34.159  34.492  29.271  1.00  0.00     0.039 A 
ATOM     35  C   UNL A   1      33.985  33.933  30.541  1.00  0.00     0.014 A 
ATOM     36  C   UNL A   1      35.441  34.590  28.723  1.00  0.00     0.014 A 
ATOM     37  C   UNL A   1      35.081  33.410  31.231  1.00  0.00     0.010 A 
ATOM     38  C   UNL A   1      36.526  34.018  29.386  1.00  0.00     0.010 A 
ATOM     39  C   UNL A   1      36.356  33.416  30.643  1.00  0.00    -0.014 A 
BRANCH  39  40
ATOM     40  C   UNL A   1      37.517  32.783  31.318  1.00  0.00     0.031 A 
ATOM     41  C   UNL A   1      38.188  31.582  30.714  1.00  0.00     0.074 A 
ATOM     42  C   UNL A   1      37.933  33.257  32.509  1.00  0.00     0.049 A 
ATOM     43  N   UNL A   1      39.155  30.847  31.201  1.00  0.00    -0.248 NA
ATOM     44  C   UNL A   1      37.697  31.139  29.401  1.00  0.00     0.031 C 
ATOM     45  C   UNL A   1      37.350  34.397  33.216  1.00  0.00     0.029 A 
ATOM     46  N   UNL A   1      38.938  32.828  33.339  1.00  0.00    -0.354 N 
ATOM     47  C   UNL A   1      39.378  29.846  30.264  1.00  0.00     0.074 A 
ATOM     48  C   UNL A   1      38.424  30.050  29.194  1.00  0.00     0.031 C 
ATOM     49  C   UNL A   1      38.019  34.591  34.364  1.00  0.00     0.029 A 
ATOM     50  C   UNL A   1      39.054  33.569  34.490  1.00  0.00     0.049 A 
ATOM     51  H   UNL A   1      39.522  32.063  33.130  1.00  0.00     0.167 HD
ATOM     52  C   UNL A   1      40.303  28.858  30.285  1.00  0.00     0.037 A 
ATOM     53  C   UNL A   1      39.893  33.435  35.536  1.00  0.00     0.037 A 
ATOM     54  C   UNL A   1      41.271  28.669  31.333  1.00  0.00     0.049 A 
ATOM     55  C   UNL A   1      40.910  32.331  35.536  1.00  0.00     0.074 A 
ATOM     56  C   UNL A   1      42.275  27.718  31.415  1.00  0.00     0.029 A 
ATOM     57  N   UNL A   1      41.359  29.446  32.476  1.00  0.00    -0.354 N 
ATOM     58  N   UNL A   1      41.126  31.410  34.629  1.00  0.00    -0.248 NA
ATOM     59  C   UNL A   1      41.798  32.244  36.705  1.00  0.00     0.031 C 
ATOM     60  C   UNL A   1      42.955  27.906  32.623  1.00  0.00     0.029 A 
ATOM     61  C   UNL A   1      42.395  28.991  33.276  1.00  0.00     0.049 A 
ATOM     62  H   UNL A   1      40.773  30.208  32.688  1.00  0.00     0.167 HD
ATOM     63  C   UNL A   1      42.182  30.647  35.106  1.00  0.00     0.074 A 
ATOM     64  C   UNL A   1      42.572  31.216  36.379  1.00  0.00     0.031 C 
ATOM     65  C   UNL A   1      42.774  29.569  34.538  1.00  0.00     0.037 A 
BRANCH  52  66
ATOM     66  C   UNL A   1      40.324  27.905  29.129  1.00  0.00     0.057 A 
ATOM     67  C   UNL A   1      41.103  28.170  27.996  1.00  0.00     0.134 A 
ATOM     68  C   UNL A   1      39.528  26.754  29.115  1.00  0.00     0.134 A 
ATOM     69  F   UNL A   1      41.883  29.261  27.945  1.00  0.00    -0.206 F 
ATOM     70  C   UNL A   1      41.083  27.326  26.884  1.00  0.00     0.040 A 
ATOM     71  C   UNL A   1      39.514  25.892  28.017  1.00  0.00     0.040 A 
ATOM     72  F   UNL A   1      38.767  26.441  30.174  1.00  0.00    -0.206 F 
ATOM     73  C   UNL A   1      40.288  26.182  26.894  1.00  0.00     0.006 A 
ENDBRANCH  52  66
BRANCH  53  74
ATOM     74  C   UNL A   1      39.819  34.397  36.661  1.00  0.00     0.057 A 
ATOM     75  C   UNL A   1      40.536  35.599  36.646  1.00  0.00     0.134 A 
ATOM     76  C   UNL A   1      39.039  34.122  37.789  1.00  0.00     0.134 A 
ATOM     77  F   UNL A   1      41.306  35.915  35.594  1.00  0.00    -0.206 F 
ATOM     78  C   UNL A   1      40.489  36.490  37.719  1.00  0.00     0.040 A 
ATOM     79  C   UNL A   1      38.968  35.012  38.861  1.00  0.00     0.040 A 
ATOM     80  F   UNL A   1      38.316  32.993  37.850  1.00  0.00    -0.206 F 
ATOM     81  C   UNL A   1      39.699  36.197  38.831  1.00  0.00     0.006 A 
ENDBRANCH  53  74
BRANCH  65  82
ATOM     82  C   UNL A   1      43.919  28.942  35.274  1.00  0.00     0.057 A 
ATOM     83  C   UNL A   1      45.239  29.315  34.991  1.00  0.00     0.134 A 
ATOM     84  C   UNL A   1      43.716  27.922  36.209  1.00  0.00     0.134 A 
ATOM     85  F   UNL A   1      45.497  30.281  34.097  1.00  0.00    -0.206 F 
ATOM     86  C   UNL A   1      46.319  28.684  35.608  1.00  0.00     0.040 A 
ATOM     87  C   UNL A   1      44.788  27.296  36.846  1.00  0.00     0.040 A 
ATOM     88  F   UNL A   1      42.473  27.530  36.529  1.00  0.00    -0.206 F 
ATOM     89  C   UNL A   1      46.096  27.672  36.539  1.00  0.00     0.006 A 
ENDBRANCH  65  82
ENDBRANCH  39  40
ENDBRANCH  31  34
ENDBRANCH  29  30
ENDBRANCH  28  29
ENDBRANCH  27  28
ENDBRANCH   1  27
TORSDOF 16
ENDMDL
