MODEL 1
REMARK VINA RESULT:     -12.3      0.000      0.000
REMARK SMILES Cc1ccc(-c2c[nH]c(=O)cc2C(=O)NCCCCNC(=O)c2ccc(-c3c4nc(c(-c5c(F)cccc5F)c5ccc([nH]5)c(-c5c(F)cccc5F)c5nc(c(-c6c(F)cccc6F)c6ccc3[nH]6)C=C5)C=C4)cc2)cc1Cl
REMARK SMILES IDX 18 1 17 2 16 3 15 4 13 5 14 6 12 8 6 9 7 10 8 11 11 12 9 13
REMARK SMILES IDX 10 15 5 16 1 17 2 18 3 19 78 20 4 21 77 22 79 23 19 24 20 25
REMARK SMILES IDX 21 26 22 28 23 29 24 30 76 31 25 32 75 33 26 34 27 35 28 36
REMARK SMILES IDX 69 37 29 38 74 39 68 40 70 41 30 42 73 43 67 44 66 45 31 47
REMARK SMILES IDX 57 48 40 49 56 50 41 51 44 52 55 53 71 54 42 55 43 56 54 58
REMARK SMILES IDX 72 59 45 60 32 61 33 62 38 63 34 64 35 65 37 66 39 67 36 68
REMARK SMILES IDX 58 69 59 70 64 71 60 72 61 73 63 74 65 75 62 76 46 77 47 78
REMARK SMILES IDX 52 79 48 80 49 81 51 82 53 83 50 84
REMARK H PARENT 15 7 8 14 20 27 70 46 44 57
REMARK Flexibility Score: inf
ROOT
ATOM      1  C   UNL A   1      37.214  20.914  24.834  1.00  0.00     0.023 C 
ENDROOT
BRANCH   1   2
ATOM      2  C   UNL A   1      35.954  21.567  25.419  1.00  0.00     0.023 C 
BRANCH   2   3
ATOM      3  C   UNL A   1      36.051  23.088  25.550  1.00  0.00     0.116 C 
BRANCH   3   4
ATOM      4  N   UNL A   1      35.514  23.733  24.370  1.00  0.00    -0.352 N 
ATOM      5  C   UNL A   1      34.331  24.293  24.015  1.00  0.00     0.252 C 
ATOM      6  O   UNL A   1      34.324  24.716  22.856  1.00  0.00    -0.269 OA
ATOM      7  H   UNL A   1      36.175  23.773  23.642  1.00  0.00     0.163 HD
BRANCH   5   8
ATOM      8  C   UNL A   1      33.126  24.462  24.918  1.00  0.00     0.054 A 
ATOM      9  C   UNL A   1      32.076  23.407  24.959  1.00  0.00     0.011 A 
ATOM     10  C   UNL A   1      30.952  23.633  25.670  1.00  0.00     0.095 A 
ATOM     11  N   UNL A   1      30.770  24.796  26.366  1.00  0.00    -0.328 N 
ATOM     12  C   UNL A   1      32.974  25.533  25.717  1.00  0.00     0.086 A 
ATOM     13  C   UNL A   1      31.715  25.777  26.459  1.00  0.00     0.248 A 
ATOM     14  H   UNL A   1      29.910  24.933  26.825  1.00  0.00     0.169 HD
ATOM     15  O   UNL A   1      31.548  26.806  27.096  1.00  0.00    -0.270 OA
BRANCH   9  16
ATOM     16  C   UNL A   1      32.170  22.054  24.366  1.00  0.00    -0.015 A 
ATOM     17  C   UNL A   1      32.368  18.122  22.566  1.00  0.00     0.046 C 
ATOM     18  C   UNL A   1      32.322  19.479  23.208  1.00  0.00    -0.032 A 
ATOM     19  C   UNL A   1      32.137  20.613  22.406  1.00  0.00     0.005 A 
ATOM     20  C   UNL A   1      32.458  19.652  24.594  1.00  0.00     0.044 A 
ATOM     21  C   UNL A   1      32.079  21.887  22.977  1.00  0.00     0.009 A 
ATOM     22  C   UNL A   1      32.372  20.925  25.169  1.00  0.00     0.029 A 
ATOM     23  Cl  UNL A   1      32.740  18.312  25.647  1.00  0.00    -0.084 Cl
ENDBRANCH   9  16
ENDBRANCH   5   8
ENDBRANCH   3   4
ENDBRANCH   2   3
ENDBRANCH   1   2
BRANCH   1  24
ATOM     24  C   UNL A   1      38.480  21.085  25.668  1.00  0.00     0.116 C 
BRANCH  24  25
ATOM     25  N   UNL A   1      39.366  19.931  25.608  1.00  0.00    -0.352 N 
ATOM     26  C   UNL A   1      40.693  19.852  25.953  1.00  0.00     0.251 C 
ATOM     27  H   UNL A   1      38.960  19.097  25.277  1.00  0.00     0.163 HD
ATOM     28  O   UNL A   1      41.338  18.834  25.734  1.00  0.00    -0.269 OA
BRANCH  26  29
ATOM     29  C   UNL A   1      41.342  21.032  26.555  1.00  0.00     0.039 A 
ATOM     30  C   UNL A   1      41.925  21.982  25.716  1.00  0.00     0.014 A 
ATOM     31  C   UNL A   1      41.312  21.222  27.938  1.00  0.00     0.014 A 
ATOM     32  C   UNL A   1      42.407  23.172  26.260  1.00  0.00     0.010 A 
ATOM     33  C   UNL A   1      41.729  22.437  28.471  1.00  0.00     0.010 A 
ATOM     34  C   UNL A   1      42.267  23.428  27.635  1.00  0.00    -0.014 A 
BRANCH  34  35
ATOM     35  C   UNL A   1      42.656  24.735  28.220  1.00  0.00     0.031 A 
ATOM     36  C   UNL A   1      41.624  25.810  28.411  1.00  0.00     0.074 A 
ATOM     37  C   UNL A   1      43.950  24.975  28.511  1.00  0.00     0.049 A 
ATOM     38  N   UNL A   1      41.783  27.050  28.799  1.00  0.00    -0.248 NA
ATOM     39  C   UNL A   1      40.230  25.451  28.102  1.00  0.00     0.031 C 
ATOM     40  C   UNL A   1      45.050  24.022  28.343  1.00  0.00     0.029 A 
ATOM     41  N   UNL A   1      44.563  26.103  28.999  1.00  0.00    -0.354 N 
ATOM     42  C   UNL A   1      40.515  27.615  28.784  1.00  0.00     0.074 A 
ATOM     43  C   UNL A   1      39.605  26.604  28.288  1.00  0.00     0.031 C 
ATOM     44  C   UNL A   1      46.197  24.599  28.738  1.00  0.00     0.029 A 
ATOM     45  C   UNL A   1      45.924  25.975  29.139  1.00  0.00     0.049 A 
ATOM     46  H   UNL A   1      44.074  26.927  29.225  1.00  0.00     0.167 HD
ATOM     47  C   UNL A   1      40.139  28.856  29.173  1.00  0.00     0.037 A 
ATOM     48  C   UNL A   1      46.850  26.874  29.527  1.00  0.00     0.037 A 
ATOM     49  C   UNL A   1      41.045  29.857  29.672  1.00  0.00     0.049 A 
ATOM     50  C   UNL A   1      46.408  28.265  29.893  1.00  0.00     0.074 A 
ATOM     51  C   UNL A   1      40.757  31.137  30.113  1.00  0.00     0.029 A 
ATOM     52  N   UNL A   1      42.416  29.690  29.795  1.00  0.00    -0.354 N 
ATOM     53  N   UNL A   1      45.198  28.771  29.922  1.00  0.00    -0.248 NA
ATOM     54  C   UNL A   1      47.463  29.214  30.278  1.00  0.00     0.031 C 
ATOM     55  C   UNL A   1      41.960  31.760  30.460  1.00  0.00     0.029 A 
ATOM     56  C   UNL A   1      42.990  30.851  30.286  1.00  0.00     0.049 A 
ATOM     57  H   UNL A   1      42.909  28.868  29.567  1.00  0.00     0.167 HD
ATOM     58  C   UNL A   1      45.344  30.081  30.362  1.00  0.00     0.074 A 
ATOM     59  C   UNL A   1      46.756  30.285  30.606  1.00  0.00     0.031 C 
ATOM     60  C   UNL A   1      44.395  31.032  30.542  1.00  0.00     0.037 A 
BRANCH  47  61
ATOM     61  C   UNL A   1      38.680  29.197  29.093  1.00  0.00     0.057 A 
ATOM     62  C   UNL A   1      37.853  29.148  30.223  1.00  0.00     0.134 A 
ATOM     63  C   UNL A   1      38.108  29.637  27.894  1.00  0.00     0.134 A 
ATOM     64  F   UNL A   1      38.335  28.722  31.402  1.00  0.00    -0.206 F 
ATOM     65  C   UNL A   1      36.506  29.507  30.160  1.00  0.00     0.040 A 
ATOM     66  C   UNL A   1      36.770  30.027  27.823  1.00  0.00     0.040 A 
ATOM     67  F   UNL A   1      38.845  29.714  26.775  1.00  0.00    -0.206 F 
ATOM     68  C   UNL A   1      35.963  29.960  28.959  1.00  0.00     0.006 A 
ENDBRANCH  47  61
BRANCH  48  69
ATOM     69  C   UNL A   1      48.288  26.503  29.591  1.00  0.00     0.057 A 
ATOM     70  C   UNL A   1      48.833  25.917  30.741  1.00  0.00     0.134 A 
ATOM     71  C   UNL A   1      49.165  26.782  28.536  1.00  0.00     0.134 A 
ATOM     72  F   UNL A   1      48.049  25.645  31.795  1.00  0.00    -0.206 F 
ATOM     73  C   UNL A   1      50.200  25.658  30.854  1.00  0.00     0.040 A 
ATOM     74  C   UNL A   1      50.530  26.497  28.623  1.00  0.00     0.040 A 
ATOM     75  F   UNL A   1      48.709  27.336  27.402  1.00  0.00    -0.206 F 
ATOM     76  C   UNL A   1      51.052  25.948  29.791  1.00  0.00     0.006 A 
ENDBRANCH  48  69
BRANCH  60  77
ATOM     77  C   UNL A   1      44.848  32.362  31.071  1.00  0.00     0.057 A 
ATOM     78  C   UNL A   1      45.211  33.414  30.220  1.00  0.00     0.134 A 
ATOM     79  C   UNL A   1      44.887  32.603  32.451  1.00  0.00     0.134 A 
ATOM     80  F   UNL A   1      45.207  33.244  28.889  1.00  0.00    -0.206 F 
ATOM     81  C   UNL A   1      45.622  34.649  30.723  1.00  0.00     0.040 A 
ATOM     82  C   UNL A   1      45.267  33.843  32.965  1.00  0.00     0.040 A 
ATOM     83  F   UNL A   1      44.543  31.642  33.321  1.00  0.00    -0.206 F 
ATOM     84  C   UNL A   1      45.643  34.868  32.099  1.00  0.00     0.006 A 
ENDBRANCH  60  77
ENDBRANCH  34  35
ENDBRANCH  26  29
ENDBRANCH  24  25
ENDBRANCH   1  24
TORSDOF 12
ENDMDL
MODEL 2
REMARK VINA RESULT:     -12.1      0.817      6.398
REMARK SMILES Cc1ccc(-c2c[nH]c(=O)cc2C(=O)NCCCCNC(=O)c2ccc(-c3c4nc(c(-c5c(F)cccc5F)c5ccc([nH]5)c(-c5c(F)cccc5F)c5nc(c(-c6c(F)cccc6F)c6ccc3[nH]6)C=C5)C=C4)cc2)cc1Cl
REMARK SMILES IDX 18 1 17 2 16 3 15 4 13 5 14 6 12 8 6 9 7 10 8 11 11 12 9 13
REMARK SMILES IDX 10 15 5 16 1 17 2 18 3 19 78 20 4 21 77 22 79 23 19 24 20 25
REMARK SMILES IDX 21 26 22 28 23 29 24 30 76 31 25 32 75 33 26 34 27 35 28 36
REMARK SMILES IDX 69 37 29 38 74 39 68 40 70 41 30 42 73 43 67 44 66 45 31 47
REMARK SMILES IDX 57 48 40 49 56 50 41 51 44 52 55 53 71 54 42 55 43 56 54 58
REMARK SMILES IDX 72 59 45 60 32 61 33 62 38 63 34 64 35 65 37 66 39 67 36 68
REMARK SMILES IDX 58 69 59 70 64 71 60 72 61 73 63 74 65 75 62 76 46 77 47 78
REMARK SMILES IDX 52 79 48 80 49 81 51 82 53 83 50 84
REMARK H PARENT 15 7 8 14 20 27 70 46 44 57
REMARK Flexibility Score: inf
ROOT
ATOM      1  C   UNL A   1      37.764  20.277  24.749  1.00  0.00     0.023 C 
ENDROOT
BRANCH   1   2
ATOM      2  C   UNL A   1      36.383  20.762  25.212  1.00  0.00     0.023 C 
BRANCH   2   3
ATOM      3  C   UNL A   1      36.250  22.284  25.268  1.00  0.00     0.116 C 
BRANCH   3   4
ATOM      4  N   UNL A   1      35.566  22.776  24.090  1.00  0.00    -0.352 N 
ATOM      5  C   UNL A   1      34.311  23.198  23.793  1.00  0.00     0.252 C 
ATOM      6  O   UNL A   1      34.176  23.517  22.609  1.00  0.00    -0.269 OA
ATOM      7  H   UNL A   1      36.162  22.812  23.308  1.00  0.00     0.163 HD
BRANCH   5   8
ATOM      8  C   UNL A   1      33.169  23.337  24.778  1.00  0.00     0.054 A 
ATOM      9  C   UNL A   1      32.295  22.167  25.071  1.00  0.00     0.011 A 
ATOM     10  C   UNL A   1      31.208  22.344  25.851  1.00  0.00     0.095 A 
ATOM     11  N   UNL A   1      30.908  23.564  26.391  1.00  0.00    -0.328 N 
ATOM     12  C   UNL A   1      32.920  24.487  25.430  1.00  0.00     0.086 A 
ATOM     13  C   UNL A   1      31.700  24.667  26.252  1.00  0.00     0.248 A 
ATOM     14  H   UNL A   1      30.076  23.651  26.910  1.00  0.00     0.169 HD
ATOM     15  O   UNL A   1      31.431  25.750  26.750  1.00  0.00    -0.270 OA
BRANCH   9  16
ATOM     16  C   UNL A   1      32.544  20.765  24.668  1.00  0.00    -0.015 A 
ATOM     17  C   UNL A   1      33.356  16.663  23.547  1.00  0.00     0.046 C 
ATOM     18  C   UNL A   1      33.050  18.085  23.921  1.00  0.00    -0.032 A 
ATOM     19  C   UNL A   1      33.249  18.508  25.241  1.00  0.00     0.005 A 
ATOM     20  C   UNL A   1      32.567  19.013  22.985  1.00  0.00     0.044 A 
ATOM     21  C   UNL A   1      32.983  19.828  25.614  1.00  0.00     0.009 A 
ATOM     22  C   UNL A   1      32.326  20.342  23.351  1.00  0.00     0.029 A 
ATOM     23  Cl  UNL A   1      32.245  18.560  21.348  1.00  0.00    -0.084 Cl
ENDBRANCH   9  16
ENDBRANCH   5   8
ENDBRANCH   3   4
ENDBRANCH   2   3
ENDBRANCH   1   2
BRANCH   1  24
ATOM     24  C   UNL A   1      38.899  20.511  25.741  1.00  0.00     0.116 C 
BRANCH  24  25
ATOM     25  N   UNL A   1      39.884  19.438  25.748  1.00  0.00    -0.352 N 
ATOM     26  C   UNL A   1      41.217  19.501  26.077  1.00  0.00     0.251 C 
ATOM     27  H   UNL A   1      39.552  18.551  25.481  1.00  0.00     0.163 HD
ATOM     28  O   UNL A   1      41.948  18.531  25.919  1.00  0.00    -0.269 OA
BRANCH  26  29
ATOM     29  C   UNL A   1      41.763  20.773  26.587  1.00  0.00     0.039 A 
ATOM     30  C   UNL A   1      42.300  21.687  25.680  1.00  0.00     0.014 A 
ATOM     31  C   UNL A   1      41.680  21.080  27.947  1.00  0.00     0.014 A 
ATOM     32  C   UNL A   1      42.680  22.952  26.128  1.00  0.00     0.010 A 
ATOM     33  C   UNL A   1      41.994  22.363  28.379  1.00  0.00     0.010 A 
ATOM     34  C   UNL A   1      42.484  23.315  27.471  1.00  0.00    -0.014 A 
BRANCH  34  35
ATOM     35  C   UNL A   1      42.762  24.693  27.947  1.00  0.00     0.031 A 
ATOM     36  C   UNL A   1      44.157  25.083  28.347  1.00  0.00     0.074 A 
ATOM     37  C   UNL A   1      41.746  25.567  28.085  1.00  0.00     0.049 A 
ATOM     38  N   UNL A   1      44.581  26.196  28.889  1.00  0.00    -0.248 NA
ATOM     39  C   UNL A   1      45.212  24.080  28.129  1.00  0.00     0.031 C 
ATOM     40  C   UNL A   1      40.343  25.299  27.757  1.00  0.00     0.029 A 
ATOM     41  N   UNL A   1      41.733  26.859  28.550  1.00  0.00    -0.354 N 
ATOM     42  C   UNL A   1      45.947  26.028  29.075  1.00  0.00     0.074 A 
ATOM     43  C   UNL A   1      46.272  24.684  28.646  1.00  0.00     0.031 C 
ATOM     44  C   UNL A   1      39.613  26.395  28.014  1.00  0.00     0.029 A 
ATOM     45  C   UNL A   1      40.482  27.427  28.571  1.00  0.00     0.049 A 
ATOM     46  H   UNL A   1      42.545  27.334  28.843  1.00  0.00     0.167 HD
ATOM     47  C   UNL A   1      46.853  26.922  29.536  1.00  0.00     0.037 A 
ATOM     48  C   UNL A   1      40.079  28.635  29.008  1.00  0.00     0.037 A 
ATOM     49  C   UNL A   1      46.527  28.260  29.955  1.00  0.00     0.049 A 
ATOM     50  C   UNL A   1      41.101  29.584  29.576  1.00  0.00     0.074 A 
ATOM     51  C   UNL A   1      47.379  29.249  30.417  1.00  0.00     0.029 A 
ATOM     52  N   UNL A   1      45.248  28.796  29.965  1.00  0.00    -0.354 N 
ATOM     53  N   UNL A   1      42.398  29.430  29.698  1.00  0.00    -0.248 NA
ATOM     54  C   UNL A   1      40.602  30.876  30.069  1.00  0.00     0.031 C 
ATOM     55  C   UNL A   1      46.608  30.368  30.748  1.00  0.00     0.029 A 
ATOM     56  C   UNL A   1      45.286  30.095  30.444  1.00  0.00     0.049 A 
ATOM     57  H   UNL A   1      44.435  28.323  29.675  1.00  0.00     0.167 HD
ATOM     58  C   UNL A   1      42.871  30.617  30.246  1.00  0.00     0.074 A 
ATOM     59  C   UNL A   1      41.726  31.486  30.414  1.00  0.00     0.031 C 
ATOM     60  C   UNL A   1      44.139  30.954  30.586  1.00  0.00     0.037 A 
BRANCH  47  61
ATOM     61  C   UNL A   1      48.289  26.490  29.595  1.00  0.00     0.057 A 
ATOM     62  C   UNL A   1      49.175  26.750  28.541  1.00  0.00     0.134 A 
ATOM     63  C   UNL A   1      48.806  25.865  30.735  1.00  0.00     0.134 A 
ATOM     64  F   UNL A   1      48.740  27.335  27.414  1.00  0.00    -0.206 F 
ATOM     65  C   UNL A   1      50.521  26.389  28.612  1.00  0.00     0.040 A 
ATOM     66  C   UNL A   1      50.156  25.524  30.831  1.00  0.00     0.040 A 
ATOM     67  F   UNL A   1      48.014  25.592  31.782  1.00  0.00    -0.206 F 
ATOM     68  C   UNL A   1      51.018  25.783  29.765  1.00  0.00     0.006 A 
ENDBRANCH  47  61
BRANCH  48  69
ATOM     69  C   UNL A   1      38.647  29.030  28.940  1.00  0.00     0.057 A 
ATOM     70  C   UNL A   1      38.102  29.570  27.769  1.00  0.00     0.134 A 
ATOM     71  C   UNL A   1      37.807  28.937  30.056  1.00  0.00     0.134 A 
ATOM     72  F   UNL A   1      38.862  29.706  26.672  1.00  0.00    -0.206 F 
ATOM     73  C   UNL A   1      36.789  30.040  27.720  1.00  0.00     0.040 A 
ATOM     74  C   UNL A   1      36.480  29.372  30.011  1.00  0.00     0.040 A 
ATOM     75  F   UNL A   1      38.261  28.423  31.208  1.00  0.00    -0.206 F 
ATOM     76  C   UNL A   1      35.973  29.939  28.845  1.00  0.00     0.006 A 
ENDBRANCH  48  69
BRANCH  60  77
ATOM     77  C   UNL A   1      44.360  32.337  31.128  1.00  0.00     0.057 A 
ATOM     78  C   UNL A   1      44.587  33.435  30.289  1.00  0.00     0.134 A 
ATOM     79  C   UNL A   1      44.310  32.577  32.508  1.00  0.00     0.134 A 
ATOM     80  F   UNL A   1      44.660  33.271  28.959  1.00  0.00    -0.206 F 
ATOM     81  C   UNL A   1      44.783  34.717  30.804  1.00  0.00     0.040 A 
ATOM     82  C   UNL A   1      44.473  33.859  33.032  1.00  0.00     0.040 A 
ATOM     83  F   UNL A   1      44.086  31.571  33.367  1.00  0.00    -0.206 F 
ATOM     84  C   UNL A   1      44.719  34.933  32.179  1.00  0.00     0.006 A 
ENDBRANCH  60  77
ENDBRANCH  34  35
ENDBRANCH  26  29
ENDBRANCH  24  25
ENDBRANCH   1  24
TORSDOF 12
ENDMDL
MODEL 3
REMARK VINA RESULT:     -12.1      4.708      8.996
REMARK SMILES Cc1ccc(-c2c[nH]c(=O)cc2C(=O)NCCCCNC(=O)c2ccc(-c3c4nc(c(-c5c(F)cccc5F)c5ccc([nH]5)c(-c5c(F)cccc5F)c5nc(c(-c6c(F)cccc6F)c6ccc3[nH]6)C=C5)C=C4)cc2)cc1Cl
REMARK SMILES IDX 18 1 17 2 16 3 15 4 13 5 14 6 12 8 6 9 7 10 8 11 11 12 9 13
REMARK SMILES IDX 10 15 5 16 1 17 2 18 3 19 78 20 4 21 77 22 79 23 19 24 20 25
REMARK SMILES IDX 21 26 22 28 23 29 24 30 76 31 25 32 75 33 26 34 27 35 28 36
REMARK SMILES IDX 69 37 29 38 74 39 68 40 70 41 30 42 73 43 67 44 66 45 31 47
REMARK SMILES IDX 57 48 40 49 56 50 41 51 44 52 55 53 71 54 42 55 43 56 54 58
REMARK SMILES IDX 72 59 45 60 32 61 33 62 38 63 34 64 35 65 37 66 39 67 36 68
REMARK SMILES IDX 58 69 59 70 64 71 60 72 61 73 63 74 65 75 62 76 46 77 47 78
REMARK SMILES IDX 52 79 48 80 49 81 51 82 53 83 50 84
REMARK H PARENT 15 7 8 14 20 27 70 46 44 57
REMARK Flexibility Score: inf
ROOT
ATOM      1  C   UNL A   1      31.508  31.776  26.502  1.00  0.00     0.023 C 
ENDROOT
BRANCH   1   2
ATOM      2  C   UNL A   1      31.825  30.455  25.789  1.00  0.00     0.023 C 
BRANCH   2   3
ATOM      3  C   UNL A   1      32.504  29.417  26.684  1.00  0.00     0.116 C 
BRANCH   3   4
ATOM      4  N   UNL A   1      31.632  28.281  26.893  1.00  0.00    -0.352 N 
ATOM      5  C   UNL A   1      31.464  27.060  26.327  1.00  0.00     0.252 C 
ATOM      6  O   UNL A   1      30.550  26.410  26.841  1.00  0.00    -0.269 OA
ATOM      7  H   UNL A   1      31.001  28.434  27.633  1.00  0.00     0.163 HD
BRANCH   5   8
ATOM      8  C   UNL A   1      32.311  26.477  25.215  1.00  0.00     0.054 A 
ATOM      9  C   UNL A   1      31.940  26.719  23.793  1.00  0.00     0.011 A 
ATOM     10  C   UNL A   1      32.631  26.087  22.822  1.00  0.00     0.095 A 
ATOM     11  N   UNL A   1      33.673  25.252  23.115  1.00  0.00    -0.328 N 
ATOM     12  C   UNL A   1      33.420  25.756  25.461  1.00  0.00     0.086 A 
ATOM     13  C   UNL A   1      34.140  25.042  24.381  1.00  0.00     0.248 A 
ATOM     14  H   UNL A   1      34.110  24.775  22.373  1.00  0.00     0.169 HD
ATOM     15  O   UNL A   1      35.081  24.305  24.632  1.00  0.00    -0.270 OA
BRANCH   9  16
ATOM     16  C   UNL A   1      30.926  27.680  23.304  1.00  0.00    -0.015 A 
ATOM     17  C   UNL A   1      28.025  30.568  21.895  1.00  0.00     0.046 C 
ATOM     18  C   UNL A   1      29.013  29.545  22.377  1.00  0.00    -0.032 A 
ATOM     19  C   UNL A   1      30.371  29.703  22.072  1.00  0.00     0.005 A 
ATOM     20  C   UNL A   1      28.621  28.426  23.127  1.00  0.00     0.044 A 
ATOM     21  C   UNL A   1      31.314  28.773  22.517  1.00  0.00     0.009 A 
ATOM     22  C   UNL A   1      29.568  27.508  23.596  1.00  0.00     0.029 A 
ATOM     23  Cl  UNL A   1      26.960  28.128  23.502  1.00  0.00    -0.084 Cl
ENDBRANCH   9  16
ENDBRANCH   5   8
ENDBRANCH   3   4
ENDBRANCH   2   3
ENDBRANCH   1   2
BRANCH   1  24
ATOM     24  C   UNL A   1      32.679  32.406  27.251  1.00  0.00     0.116 C 
BRANCH  24  25
ATOM     25  N   UNL A   1      32.482  33.820  27.538  1.00  0.00    -0.352 N 
ATOM     26  C   UNL A   1      33.148  34.611  28.443  1.00  0.00     0.251 C 
ATOM     27  H   UNL A   1      31.780  34.269  27.015  1.00  0.00     0.163 HD
ATOM     28  O   UNL A   1      32.787  35.762  28.654  1.00  0.00    -0.269 OA
BRANCH  26  29
ATOM     29  C   UNL A   1      34.284  34.036  29.188  1.00  0.00     0.039 A 
ATOM     30  C   UNL A   1      34.023  33.249  30.311  1.00  0.00     0.014 A 
ATOM     31  C   UNL A   1      35.591  34.223  28.734  1.00  0.00     0.014 A 
ATOM     32  C   UNL A   1      35.074  32.578  30.935  1.00  0.00     0.010 A 
ATOM     33  C   UNL A   1      36.626  33.498  29.314  1.00  0.00     0.010 A 
ATOM     34  C   UNL A   1      36.375  32.659  30.410  1.00  0.00    -0.014 A 
BRANCH  34  35
ATOM     35  C   UNL A   1      37.487  31.857  30.977  1.00  0.00     0.031 A 
ATOM     36  C   UNL A   1      37.997  32.150  32.360  1.00  0.00     0.074 A 
ATOM     37  C   UNL A   1      38.082  30.915  30.219  1.00  0.00     0.049 A 
ATOM     38  N   UNL A   1      39.026  31.639  32.987  1.00  0.00    -0.248 NA
ATOM     39  C   UNL A   1      37.267  33.168  33.132  1.00  0.00     0.031 C 
ATOM     40  C   UNL A   1      37.697  30.557  28.851  1.00  0.00     0.029 A 
ATOM     41  N   UNL A   1      39.148  30.091  30.487  1.00  0.00    -0.354 N 
ATOM     42  C   UNL A   1      39.065  32.270  34.224  1.00  0.00     0.074 A 
ATOM     43  C   UNL A   1      37.995  33.246  34.236  1.00  0.00     0.031 C 
ATOM     44  C   UNL A   1      38.502  29.577  28.409  1.00  0.00     0.029 A 
ATOM     45  C   UNL A   1      39.490  29.271  29.438  1.00  0.00     0.049 A 
ATOM     46  H   UNL A   1      39.625  30.090  31.349  1.00  0.00     0.167 HD
ATOM     47  C   UNL A   1      39.898  32.039  35.265  1.00  0.00     0.037 A 
ATOM     48  C   UNL A   1      40.499  28.387  29.315  1.00  0.00     0.037 A 
ATOM     49  C   UNL A   1      40.957  31.064  35.252  1.00  0.00     0.049 A 
ATOM     50  C   UNL A   1      41.449  28.199  30.467  1.00  0.00     0.074 A 
ATOM     51  C   UNL A   1      41.842  30.740  36.265  1.00  0.00     0.029 A 
ATOM     52  N   UNL A   1      41.273  30.256  34.170  1.00  0.00    -0.354 N 
ATOM     53  N   UNL A   1      41.443  28.767  31.649  1.00  0.00    -0.248 NA
ATOM     54  C   UNL A   1      42.551  27.246  30.266  1.00  0.00     0.031 C 
ATOM     55  C   UNL A   1      42.722  29.767  35.781  1.00  0.00     0.029 A 
ATOM     56  C   UNL A   1      42.353  29.448  34.485  1.00  0.00     0.049 A 
ATOM     57  H   UNL A   1      40.801  30.256  33.306  1.00  0.00     0.167 HD
ATOM     58  C   UNL A   1      42.513  28.214  32.342  1.00  0.00     0.074 A 
ATOM     59  C   UNL A   1      43.134  27.253  31.456  1.00  0.00     0.031 C 
ATOM     60  C   UNL A   1      42.947  28.482  33.598  1.00  0.00     0.037 A 
BRANCH  47  61
ATOM     61  C   UNL A   1      39.690  32.843  36.514  1.00  0.00     0.057 A 
ATOM     62  C   UNL A   1      40.431  34.004  36.770  1.00  0.00     0.134 A 
ATOM     63  C   UNL A   1      38.702  32.490  37.441  1.00  0.00     0.134 A 
ATOM     64  F   UNL A   1      41.403  34.390  35.928  1.00  0.00    -0.206 F 
ATOM     65  C   UNL A   1      40.209  34.777  37.910  1.00  0.00     0.040 A 
ATOM     66  C   UNL A   1      38.450  33.270  38.571  1.00  0.00     0.040 A 
ATOM     67  F   UNL A   1      37.953  31.394  37.255  1.00  0.00    -0.206 F 
ATOM     68  C   UNL A   1      39.207  34.416  38.810  1.00  0.00     0.006 A 
ENDBRANCH  47  61
BRANCH  48  69
ATOM     69  C   UNL A   1      40.679  27.611  28.060  1.00  0.00     0.057 A 
ATOM     70  C   UNL A   1      40.121  26.334  27.914  1.00  0.00     0.134 A 
ATOM     71  C   UNL A   1      41.463  28.093  27.005  1.00  0.00     0.134 A 
ATOM     72  F   UNL A   1      39.379  25.807  28.898  1.00  0.00    -0.206 F 
ATOM     73  C   UNL A   1      40.367  25.552  26.785  1.00  0.00     0.040 A 
ATOM     74  C   UNL A   1      41.689  27.334  25.854  1.00  0.00     0.040 A 
ATOM     75  F   UNL A   1      42.022  29.310  27.075  1.00  0.00    -0.206 F 
ATOM     76  C   UNL A   1      41.152  26.053  25.750  1.00  0.00     0.006 A 
ENDBRANCH  48  69
BRANCH  60  77
ATOM     77  C   UNL A   1      44.120  27.692  34.102  1.00  0.00     0.057 A 
ATOM     78  C   UNL A   1      43.965  26.436  34.703  1.00  0.00     0.134 A 
ATOM     79  C   UNL A   1      45.425  28.181  33.954  1.00  0.00     0.134 A 
ATOM     80  F   UNL A   1      42.742  25.917  34.888  1.00  0.00    -0.206 F 
ATOM     81  C   UNL A   1      45.063  25.708  35.161  1.00  0.00     0.040 A 
ATOM     82  C   UNL A   1      46.532  27.448  34.379  1.00  0.00     0.040 A 
ATOM     83  F   UNL A   1      45.644  29.373  33.378  1.00  0.00    -0.206 F 
ATOM     84  C   UNL A   1      46.352  26.210  34.993  1.00  0.00     0.006 A 
ENDBRANCH  60  77
ENDBRANCH  34  35
ENDBRANCH  26  29
ENDBRANCH  24  25
ENDBRANCH   1  24
TORSDOF 12
ENDMDL
