MODEL 1
REMARK VINA RESULT:     -12.1      0.000      0.000
REMARK SMILES C/C(C(=O)NCCCCNC(=O)c1ccc(-c2c3nc(c(-c4c(F)cccc4F)c4ccc([nH]4)c(-c4c(F)cccc4F)c4nc(c(-c5c(F)cccc5F)c5ccc2[nH]5)C=C4)C=C3)cc1)=C(\C)C(=O)N[C@H]1CCCC1(C)C
REMARK SMILES IDX 7 1 6 2 5 3 3 4 4 5 2 7 1 8 67 9 68 10 69 11 70 12 71 13
REMARK SMILES IDX 72 15 73 16 76 17 74 18 75 19 77 20 78 21 8 22 9 23 10 24
REMARK SMILES IDX 11 25 12 27 13 28 14 29 66 30 15 31 65 32 16 33 17 34 18 35
REMARK SMILES IDX 59 36 19 37 64 38 58 39 60 40 20 41 63 42 57 43 56 44 21 46
REMARK SMILES IDX 47 47 30 48 46 49 31 50 34 51 45 52 61 53 32 54 33 55 44 57
REMARK SMILES IDX 62 58 35 59 22 60 23 61 28 62 24 63 25 64 27 65 29 66 26 67
REMARK SMILES IDX 48 68 49 69 54 70 50 71 51 72 53 73 55 74 52 75 36 76 37 77
REMARK SMILES IDX 42 78 38 79 39 80 41 81 43 82 40 83
REMARK H PARENT 5 6 71 14 10 26 60 45 34 56
REMARK Flexibility Score: inf
ROOT
ATOM      1  C   UNL A   1      37.227  21.127  24.794  1.00  0.00     0.023 C 
ENDROOT
BRANCH   1   2
ATOM      2  C   UNL A   1      35.729  20.881  24.969  1.00  0.00     0.116 C 
BRANCH   2   3
ATOM      3  N   UNL A   1      35.209  21.139  26.306  1.00  0.00    -0.352 N 
ATOM      4  C   UNL A   1      34.605  22.218  26.899  1.00  0.00     0.247 C 
ATOM      5  O   UNL A   1      34.080  22.045  27.998  1.00  0.00    -0.270 OA
ATOM      6  H   UNL A   1      35.316  20.374  26.916  1.00  0.00     0.163 HD
BRANCH   4   7
ATOM      7  C   UNL A   1      34.595  23.558  26.229  1.00  0.00     0.022 C 
ATOM      8  C   UNL A   1      35.882  24.077  25.661  1.00  0.00     0.051 C 
ATOM      9  C   UNL A   1      33.444  24.251  26.018  1.00  0.00     0.022 C 
ATOM     10  C   UNL A   1      33.494  25.744  25.857  1.00  0.00     0.051 C 
BRANCH   9  11
ATOM     11  C   UNL A   1      32.088  23.706  26.265  1.00  0.00     0.247 C 
ATOM     12  O   UNL A   1      31.581  23.876  27.377  1.00  0.00    -0.270 OA
ATOM     13  N   UNL A   1      31.337  23.093  25.308  1.00  0.00    -0.349 N 
ATOM     14  H   UNL A   1      30.504  22.787  25.733  1.00  0.00     0.164 HD
BRANCH  13  15
ATOM     15  C   UNL A   1      31.277  22.697  23.865  1.00  0.00     0.088 C 
ATOM     16  C   UNL A   1      31.444  23.979  23.015  1.00  0.00     0.025 C 
ATOM     17  C   UNL A   1      32.281  21.727  23.190  1.00  0.00    -0.015 C 
ATOM     18  C   UNL A   1      32.904  23.991  22.550  1.00  0.00     0.003 C 
ATOM     19  C   UNL A   1      33.492  22.643  22.975  1.00  0.00     0.008 C 
ATOM     20  C   UNL A   1      32.516  20.431  23.960  1.00  0.00     0.013 C 
ATOM     21  C   UNL A   1      31.817  21.279  21.771  1.00  0.00     0.013 C 
ENDBRANCH  13  15
ENDBRANCH   9  11
ENDBRANCH   4   7
ENDBRANCH   2   3
ENDBRANCH   1   2
BRANCH   1  22
ATOM     22  C   UNL A   1      38.120  19.899  25.005  1.00  0.00     0.023 C 
BRANCH  22  23
ATOM     23  C   UNL A   1      39.374  20.107  25.854  1.00  0.00     0.116 C 
BRANCH  23  24
ATOM     24  N   UNL A   1      40.317  18.997  25.834  1.00  0.00    -0.352 N 
ATOM     25  C   UNL A   1      41.669  19.037  26.089  1.00  0.00     0.251 C 
ATOM     26  H   UNL A   1      39.943  18.114  25.612  1.00  0.00     0.163 HD
ATOM     27  O   UNL A   1      42.361  18.028  25.979  1.00  0.00    -0.269 OA
BRANCH  25  28
ATOM     28  C   UNL A   1      42.293  20.328  26.447  1.00  0.00     0.039 A 
ATOM     29  C   UNL A   1      42.899  21.087  25.444  1.00  0.00     0.014 A 
ATOM     30  C   UNL A   1      42.208  20.816  27.753  1.00  0.00     0.014 A 
ATOM     31  C   UNL A   1      43.341  22.379  25.732  1.00  0.00     0.010 A 
ATOM     32  C   UNL A   1      42.588  22.127  28.021  1.00  0.00     0.010 A 
ATOM     33  C   UNL A   1      43.147  22.925  27.012  1.00  0.00    -0.014 A 
BRANCH  33  34
ATOM     34  C   UNL A   1      43.495  24.338  27.307  1.00  0.00     0.031 A 
ATOM     35  C   UNL A   1      44.924  24.793  27.241  1.00  0.00     0.074 A 
ATOM     36  C   UNL A   1      42.532  25.189  27.714  1.00  0.00     0.049 A 
ATOM     37  N   UNL A   1      45.434  25.964  27.531  1.00  0.00    -0.248 NA
ATOM     38  C   UNL A   1      45.919  23.794  26.821  1.00  0.00     0.031 C 
ATOM     39  C   UNL A   1      41.116  24.851  27.879  1.00  0.00     0.029 A 
ATOM     40  N   UNL A   1      42.600  26.511  28.077  1.00  0.00    -0.354 N 
ATOM     41  C   UNL A   1      46.803  25.836  27.346  1.00  0.00     0.074 A 
ATOM     42  C   UNL A   1      47.052  24.461  26.968  1.00  0.00     0.031 C 
ATOM     43  C   UNL A   1      40.448  25.940  28.291  1.00  0.00     0.029 A 
ATOM     44  C   UNL A   1      41.389  27.044  28.451  1.00  0.00     0.049 A 
ATOM     45  H   UNL A   1      43.437  27.028  28.069  1.00  0.00     0.167 HD
ATOM     46  C   UNL A   1      47.764  26.782  27.458  1.00  0.00     0.037 A 
ATOM     47  C   UNL A   1      41.076  28.282  28.878  1.00  0.00     0.037 A 
ATOM     48  C   UNL A   1      47.510  28.155  27.807  1.00  0.00     0.049 A 
ATOM     49  C   UNL A   1      42.160  29.318  28.982  1.00  0.00     0.074 A 
ATOM     50  C   UNL A   1      48.406  29.208  27.875  1.00  0.00     0.029 A 
ATOM     51  N   UNL A   1      46.265  28.666  28.148  1.00  0.00    -0.354 N 
ATOM     52  N   UNL A   1      43.441  29.204  28.725  1.00  0.00    -0.248 NA
ATOM     53  C   UNL A   1      41.754  30.659  29.428  1.00  0.00     0.031 C 
ATOM     54  C   UNL A   1      47.711  30.346  28.296  1.00  0.00     0.029 A 
ATOM     55  C   UNL A   1      46.374  30.013  28.447  1.00  0.00     0.049 A 
ATOM     56  H   UNL A   1      45.430  28.146  28.172  1.00  0.00     0.167 HD
ATOM     57  C   UNL A   1      43.988  30.461  28.952  1.00  0.00     0.074 A 
ATOM     58  C   UNL A   1      42.898  31.325  29.353  1.00  0.00     0.031 C 
ATOM     59  C   UNL A   1      45.277  30.860  28.838  1.00  0.00     0.037 A 
BRANCH  46  60
ATOM     60  C   UNL A   1      49.181  26.365  27.194  1.00  0.00     0.057 A 
ATOM     61  C   UNL A   1      49.724  26.376  25.901  1.00  0.00     0.134 A 
ATOM     62  C   UNL A   1      50.023  25.978  28.244  1.00  0.00     0.134 A 
ATOM     63  F   UNL A   1      48.968  26.725  24.849  1.00  0.00    -0.206 F 
ATOM     64  C   UNL A   1      51.045  25.992  25.660  1.00  0.00     0.040 A 
ATOM     65  C   UNL A   1      51.352  25.617  28.019  1.00  0.00     0.040 A 
ATOM     66  F   UNL A   1      49.568  25.950  29.506  1.00  0.00    -0.206 F 
ATOM     67  C   UNL A   1      51.864  25.617  26.723  1.00  0.00     0.006 A 
ENDBRANCH  46  60
BRANCH  47  68
ATOM     68  C   UNL A   1      39.671  28.618  29.218  1.00  0.00     0.057 A 
ATOM     69  C   UNL A   1      38.807  29.159  28.258  1.00  0.00     0.134 A 
ATOM     70  C   UNL A   1      39.160  28.417  30.505  1.00  0.00     0.134 A 
ATOM     71  F   UNL A   1      39.244  29.391  27.012  1.00  0.00    -0.206 F 
ATOM     72  C   UNL A   1      37.492  29.507  28.571  1.00  0.00     0.040 A 
ATOM     73  C   UNL A   1      37.839  28.739  30.826  1.00  0.00     0.040 A 
ATOM     74  F   UNL A   1      39.935  27.896  31.468  1.00  0.00    -0.206 F 
ATOM     75  C   UNL A   1      37.003  29.293  29.858  1.00  0.00     0.006 A 
ENDBRANCH  47  68
BRANCH  59  76
ATOM     76  C   UNL A   1      45.574  32.304  29.123  1.00  0.00     0.057 A 
ATOM     77  C   UNL A   1      45.952  32.743  30.397  1.00  0.00     0.134 A 
ATOM     78  C   UNL A   1      45.520  33.256  28.097  1.00  0.00     0.134 A 
ATOM     79  F   UNL A   1      46.010  31.882  31.424  1.00  0.00    -0.206 F 
ATOM     80  C   UNL A   1      46.247  34.085  30.647  1.00  0.00     0.040 A 
ATOM     81  C   UNL A   1      45.838  34.595  28.328  1.00  0.00     0.040 A 
ATOM     82  F   UNL A   1      45.174  32.899  26.852  1.00  0.00    -0.206 F 
ATOM     83  C   UNL A   1      46.196  35.014  29.608  1.00  0.00     0.006 A 
ENDBRANCH  59  76
ENDBRANCH  33  34
ENDBRANCH  25  28
ENDBRANCH  23  24
ENDBRANCH  22  23
ENDBRANCH   1  22
TORSDOF 13
ENDMDL
MODEL 2
REMARK VINA RESULT:     -12.1      5.251      9.326
REMARK SMILES C/C(C(=O)NCCCCNC(=O)c1ccc(-c2c3nc(c(-c4c(F)cccc4F)c4ccc([nH]4)c(-c4c(F)cccc4F)c4nc(c(-c5c(F)cccc5F)c5ccc2[nH]5)C=C4)C=C3)cc1)=C(\C)C(=O)N[C@H]1CCCC1(C)C
REMARK SMILES IDX 7 1 6 2 5 3 3 4 4 5 2 7 1 8 67 9 68 10 69 11 70 12 71 13
REMARK SMILES IDX 72 15 73 16 76 17 74 18 75 19 77 20 78 21 8 22 9 23 10 24
REMARK SMILES IDX 11 25 12 27 13 28 14 29 66 30 15 31 65 32 16 33 17 34 18 35
REMARK SMILES IDX 59 36 19 37 64 38 58 39 60 40 20 41 63 42 57 43 56 44 21 46
REMARK SMILES IDX 47 47 30 48 46 49 31 50 34 51 45 52 61 53 32 54 33 55 44 57
REMARK SMILES IDX 62 58 35 59 22 60 23 61 28 62 24 63 25 64 27 65 29 66 26 67
REMARK SMILES IDX 48 68 49 69 54 70 50 71 51 72 53 73 55 74 52 75 36 76 37 77
REMARK SMILES IDX 42 78 38 79 39 80 41 81 43 82 40 83
REMARK H PARENT 5 6 71 14 10 26 60 45 34 56
REMARK Flexibility Score: inf
ROOT
ATOM      1  C   UNL A   1      31.019  30.927  25.398  1.00  0.00     0.023 C 
ENDROOT
BRANCH   1   2
ATOM      2  C   UNL A   1      32.082  29.840  25.559  1.00  0.00     0.116 C 
BRANCH   2   3
ATOM      3  N   UNL A   1      32.998  29.698  24.434  1.00  0.00    -0.352 N 
ATOM      4  C   UNL A   1      33.714  28.647  23.919  1.00  0.00     0.247 C 
ATOM      5  O   UNL A   1      34.237  28.800  22.817  1.00  0.00    -0.270 OA
ATOM      6  H   UNL A   1      33.132  30.536  23.937  1.00  0.00     0.163 HD
BRANCH   4   7
ATOM      7  C   UNL A   1      33.857  27.366  24.682  1.00  0.00     0.022 C 
ATOM      8  C   UNL A   1      34.063  27.443  26.165  1.00  0.00     0.051 C 
ATOM      9  C   UNL A   1      33.686  26.153  24.093  1.00  0.00     0.022 C 
ATOM     10  C   UNL A   1      34.335  24.937  24.694  1.00  0.00     0.051 C 
BRANCH   9  11
ATOM     11  C   UNL A   1      33.188  25.962  22.710  1.00  0.00     0.247 C 
ATOM     12  O   UNL A   1      34.013  25.878  21.796  1.00  0.00    -0.270 OA
ATOM     13  N   UNL A   1      31.872  25.798  22.400  1.00  0.00    -0.349 N 
ATOM     14  H   UNL A   1      31.803  25.735  21.420  1.00  0.00     0.164 HD
BRANCH  13  15
ATOM     15  C   UNL A   1      30.488  25.678  22.958  1.00  0.00     0.088 C 
ATOM     16  C   UNL A   1      30.476  24.484  23.941  1.00  0.00     0.025 C 
ATOM     17  C   UNL A   1      29.787  26.787  23.784  1.00  0.00    -0.015 C 
ATOM     18  C   UNL A   1      30.571  25.091  25.344  1.00  0.00     0.003 C 
ATOM     19  C   UNL A   1      30.447  26.605  25.157  1.00  0.00     0.008 C 
ATOM     20  C   UNL A   1      29.856  28.176  23.156  1.00  0.00     0.013 C 
ATOM     21  C   UNL A   1      28.268  26.508  23.992  1.00  0.00     0.013 C 
ENDBRANCH  13  15
ENDBRANCH   9  11
ENDBRANCH   4   7
ENDBRANCH   2   3
ENDBRANCH   1   2
BRANCH   1  22
ATOM     22  C   UNL A   1      31.003  31.993  26.500  1.00  0.00     0.023 C 
BRANCH  22  23
ATOM     23  C   UNL A   1      32.353  32.606  26.872  1.00  0.00     0.116 C 
BRANCH  23  24
ATOM     24  N   UNL A   1      32.277  33.927  27.482  1.00  0.00    -0.352 N 
ATOM     25  C   UNL A   1      33.155  34.491  28.380  1.00  0.00     0.251 C 
ATOM     26  H   UNL A   1      31.505  34.481  27.222  1.00  0.00     0.163 HD
ATOM     27  O   UNL A   1      32.936  35.599  28.863  1.00  0.00    -0.269 OA
BRANCH  25  28
ATOM     28  C   UNL A   1      34.344  33.721  28.799  1.00  0.00     0.039 A 
ATOM     29  C   UNL A   1      35.611  34.273  28.600  1.00  0.00     0.014 A 
ATOM     30  C   UNL A   1      34.198  32.496  29.455  1.00  0.00     0.014 A 
ATOM     31  C   UNL A   1      36.731  33.637  29.141  1.00  0.00     0.010 A 
ATOM     32  C   UNL A   1      35.306  31.900  30.049  1.00  0.00     0.010 A 
ATOM     33  C   UNL A   1      36.580  32.470  29.909  1.00  0.00    -0.014 A 
BRANCH  33  34
ATOM     34  C   UNL A   1      37.739  31.846  30.596  1.00  0.00     0.031 A 
ATOM     35  C   UNL A   1      38.545  30.785  29.905  1.00  0.00     0.074 A 
ATOM     36  C   UNL A   1      38.012  32.180  31.873  1.00  0.00     0.049 A 
ATOM     37  N   UNL A   1      39.545  30.075  30.365  1.00  0.00    -0.248 NA
ATOM     38  C   UNL A   1      38.161  30.455  28.524  1.00  0.00     0.031 C 
ATOM     39  C   UNL A   1      37.264  33.151  32.675  1.00  0.00     0.029 A 
ATOM     40  N   UNL A   1      38.986  31.728  32.728  1.00  0.00    -0.354 N 
ATOM     41  C   UNL A   1      39.895  29.208  29.340  1.00  0.00     0.074 A 
ATOM     42  C   UNL A   1      38.970  29.443  28.252  1.00  0.00     0.031 C 
ATOM     43  C   UNL A   1      37.817  33.236  33.895  1.00  0.00     0.029 A 
ATOM     44  C   UNL A   1      38.937  32.304  33.975  1.00  0.00     0.049 A 
ATOM     45  H   UNL A   1      39.657  31.055  32.471  1.00  0.00     0.167 HD
ATOM     46  C   UNL A   1      40.909  28.312  29.299  1.00  0.00     0.037 A 
ATOM     47  C   UNL A   1      39.706  32.100  35.061  1.00  0.00     0.037 A 
ATOM     48  C   UNL A   1      41.845  28.101  30.372  1.00  0.00     0.049 A 
ATOM     49  C   UNL A   1      40.834  31.109  34.985  1.00  0.00     0.074 A 
ATOM     50  C   UNL A   1      42.951  27.269  30.400  1.00  0.00     0.029 A 
ATOM     51  N   UNL A   1      41.782  28.726  31.609  1.00  0.00    -0.354 N 
ATOM     52  N   UNL A   1      41.204  30.353  33.980  1.00  0.00    -0.248 NA
ATOM     53  C   UNL A   1      41.656  30.948  36.193  1.00  0.00     0.031 C 
ATOM     54  C   UNL A   1      43.534  27.362  31.668  1.00  0.00     0.029 A 
ATOM     55  C   UNL A   1      42.818  28.284  32.414  1.00  0.00     0.049 A 
ATOM     56  H   UNL A   1      41.102  29.387  31.873  1.00  0.00     0.167 HD
ATOM     57  C   UNL A   1      42.316  29.647  34.424  1.00  0.00     0.074 A 
ATOM     58  C   UNL A   1      42.568  30.076  35.784  1.00  0.00     0.031 C 
ATOM     59  C   UNL A   1      43.059  28.727  33.763  1.00  0.00     0.037 A 
BRANCH  46  60
ATOM     60  C   UNL A   1      41.063  27.497  28.049  1.00  0.00     0.057 A 
ATOM     61  C   UNL A   1      40.419  26.262  27.888  1.00  0.00     0.134 A 
ATOM     62  C   UNL A   1      41.836  27.966  26.979  1.00  0.00     0.134 A 
ATOM     63  F   UNL A   1      39.673  25.751  28.879  1.00  0.00    -0.206 F 
ATOM     64  C   UNL A   1      40.561  25.510  26.720  1.00  0.00     0.040 A 
ATOM     65  C   UNL A   1      41.965  27.235  25.797  1.00  0.00     0.040 A 
ATOM     66  F   UNL A   1      42.474  29.142  27.064  1.00  0.00    -0.206 F 
ATOM     67  C   UNL A   1      41.331  26.000  25.668  1.00  0.00     0.006 A 
ENDBRANCH  46  60
BRANCH  47  68
ATOM     68  C   UNL A   1      39.453  32.866  36.307  1.00  0.00     0.057 A 
ATOM     69  C   UNL A   1      38.530  32.413  37.257  1.00  0.00     0.134 A 
ATOM     70  C   UNL A   1      40.118  34.068  36.576  1.00  0.00     0.134 A 
ATOM     71  F   UNL A   1      37.850  31.278  37.047  1.00  0.00    -0.206 F 
ATOM     72  C   UNL A   1      38.261  33.138  38.419  1.00  0.00     0.040 A 
ATOM     73  C   UNL A   1      39.876  34.792  37.746  1.00  0.00     0.040 A 
ATOM     74  F   UNL A   1      41.020  34.552  35.709  1.00  0.00    -0.206 F 
ATOM     75  C   UNL A   1      38.939  34.330  38.668  1.00  0.00     0.006 A 
ENDBRANCH  47  68
BRANCH  59  76
ATOM     76  C   UNL A   1      44.234  28.145  34.492  1.00  0.00     0.057 A 
ATOM     77  C   UNL A   1      45.479  28.785  34.518  1.00  0.00     0.134 A 
ATOM     78  C   UNL A   1      44.104  26.951  35.213  1.00  0.00     0.134 A 
ATOM     79  F   UNL A   1      45.671  29.925  33.837  1.00  0.00    -0.206 F 
ATOM     80  C   UNL A   1      46.560  28.246  35.217  1.00  0.00     0.040 A 
ATOM     81  C   UNL A   1      45.169  26.416  35.937  1.00  0.00     0.040 A 
ATOM     82  F   UNL A   1      42.935  26.293  35.237  1.00  0.00    -0.206 F 
ATOM     83  C   UNL A   1      46.404  27.061  35.935  1.00  0.00     0.006 A 
ENDBRANCH  59  76
ENDBRANCH  33  34
ENDBRANCH  25  28
ENDBRANCH  23  24
ENDBRANCH  22  23
ENDBRANCH   1  22
TORSDOF 13
ENDMDL
MODEL 3
REMARK VINA RESULT:     -12.0      5.684      9.906
REMARK SMILES C/C(C(=O)NCCCCNC(=O)c1ccc(-c2c3nc(c(-c4c(F)cccc4F)c4ccc([nH]4)c(-c4c(F)cccc4F)c4nc(c(-c5c(F)cccc5F)c5ccc2[nH]5)C=C4)C=C3)cc1)=C(\C)C(=O)N[C@H]1CCCC1(C)C
REMARK SMILES IDX 7 1 6 2 5 3 3 4 4 5 2 7 1 8 67 9 68 10 69 11 70 12 71 13
REMARK SMILES IDX 72 15 73 16 76 17 74 18 75 19 77 20 78 21 8 22 9 23 10 24
REMARK SMILES IDX 11 25 12 27 13 28 14 29 66 30 15 31 65 32 16 33 17 34 18 35
REMARK SMILES IDX 59 36 19 37 64 38 58 39 60 40 20 41 63 42 57 43 56 44 21 46
REMARK SMILES IDX 47 47 30 48 46 49 31 50 34 51 45 52 61 53 32 54 33 55 44 57
REMARK SMILES IDX 62 58 35 59 22 60 23 61 28 62 24 63 25 64 27 65 29 66 26 67
REMARK SMILES IDX 48 68 49 69 54 70 50 71 51 72 53 73 55 74 52 75 36 76 37 77
REMARK SMILES IDX 42 78 38 79 39 80 41 81 43 82 40 83
REMARK H PARENT 5 6 71 14 10 26 60 45 34 56
REMARK Flexibility Score: inf
ROOT
ATOM      1  C   UNL A   1      32.184  30.317  26.692  1.00  0.00     0.023 C 
ENDROOT
BRANCH   1   2
ATOM      2  C   UNL A   1      31.798  29.724  25.337  1.00  0.00     0.116 C 
BRANCH   2   3
ATOM      3  N   UNL A   1      32.870  29.680  24.350  1.00  0.00    -0.352 N 
ATOM      4  C   UNL A   1      33.713  28.695  23.906  1.00  0.00     0.247 C 
ATOM      5  O   UNL A   1      34.375  28.923  22.895  1.00  0.00    -0.270 OA
ATOM      6  H   UNL A   1      33.020  30.546  23.906  1.00  0.00     0.163 HD
BRANCH   4   7
ATOM      7  C   UNL A   1      33.826  27.392  24.637  1.00  0.00     0.022 C 
ATOM      8  C   UNL A   1      34.042  27.426  26.120  1.00  0.00     0.051 C 
ATOM      9  C   UNL A   1      33.619  26.198  24.019  1.00  0.00     0.022 C 
ATOM     10  C   UNL A   1      34.238  24.952  24.586  1.00  0.00     0.051 C 
BRANCH   9  11
ATOM     11  C   UNL A   1      33.109  26.055  22.635  1.00  0.00     0.247 C 
ATOM     12  O   UNL A   1      33.924  26.038  21.709  1.00  0.00    -0.270 OA
ATOM     13  N   UNL A   1      31.794  25.864  22.333  1.00  0.00    -0.349 N 
ATOM     14  H   UNL A   1      31.714  25.843  21.352  1.00  0.00     0.164 HD
BRANCH  13  15
ATOM     15  C   UNL A   1      30.422  25.676  22.902  1.00  0.00     0.088 C 
ATOM     16  C   UNL A   1      30.453  24.423  23.809  1.00  0.00     0.025 C 
ATOM     17  C   UNL A   1      29.709  26.714  23.806  1.00  0.00    -0.015 C 
ATOM     18  C   UNL A   1      30.556  24.944  25.246  1.00  0.00     0.003 C 
ATOM     19  C   UNL A   1      30.393  26.463  25.155  1.00  0.00     0.008 C 
ATOM     20  C   UNL A   1      29.735  28.140  23.265  1.00  0.00     0.013 C 
ATOM     21  C   UNL A   1      28.199  26.385  24.016  1.00  0.00     0.013 C 
ENDBRANCH  13  15
ENDBRANCH   9  11
ENDBRANCH   4   7
ENDBRANCH   2   3
ENDBRANCH   1   2
BRANCH   1  22
ATOM     22  C   UNL A   1      31.780  31.781  26.903  1.00  0.00     0.023 C 
BRANCH  22  23
ATOM     23  C   UNL A   1      32.879  32.726  27.389  1.00  0.00     0.116 C 
BRANCH  23  24
ATOM     24  N   UNL A   1      32.439  34.089  27.655  1.00  0.00    -0.352 N 
ATOM     25  C   UNL A   1      32.978  34.989  28.546  1.00  0.00     0.251 C 
ATOM     26  H   UNL A   1      31.663  34.404  27.136  1.00  0.00     0.163 HD
ATOM     27  O   UNL A   1      32.467  36.094  28.713  1.00  0.00    -0.269 OA
BRANCH  25  28
ATOM     28  C   UNL A   1      34.154  34.588  29.345  1.00  0.00     0.039 A 
ATOM     29  C   UNL A   1      33.954  34.025  30.607  1.00  0.00     0.014 A 
ATOM     30  C   UNL A   1      35.441  34.699  28.814  1.00  0.00     0.014 A 
ATOM     31  C   UNL A   1      35.040  33.488  31.301  1.00  0.00     0.010 A 
ATOM     32  C   UNL A   1      36.511  34.104  29.476  1.00  0.00     0.010 A 
ATOM     33  C   UNL A   1      36.319  33.483  30.719  1.00  0.00    -0.014 A 
BRANCH  33  34
ATOM     34  C   UNL A   1      37.463  32.808  31.382  1.00  0.00     0.031 A 
ATOM     35  C   UNL A   1      38.123  31.626  30.732  1.00  0.00     0.074 A 
ATOM     36  C   UNL A   1      37.853  33.211  32.608  1.00  0.00     0.049 A 
ATOM     37  N   UNL A   1      39.085  30.863  31.186  1.00  0.00    -0.248 NA
ATOM     38  C   UNL A   1      37.615  31.229  29.410  1.00  0.00     0.031 C 
ATOM     39  C   UNL A   1      37.251  34.306  33.372  1.00  0.00     0.029 A 
ATOM     40  N   UNL A   1      38.840  32.736  33.435  1.00  0.00    -0.354 N 
ATOM     41  C   UNL A   1      39.284  29.890  30.216  1.00  0.00     0.074 A 
ATOM     42  C   UNL A   1      38.311  30.128  29.172  1.00  0.00     0.031 C 
ATOM     43  C   UNL A   1      37.893  34.432  34.544  1.00  0.00     0.029 A 
ATOM     44  C   UNL A   1      38.929  33.408  34.631  1.00  0.00     0.049 A 
ATOM     45  H   UNL A   1      39.429  31.985  33.193  1.00  0.00     0.167 HD
ATOM     46  C   UNL A   1      40.210  28.903  30.186  1.00  0.00     0.037 A 
ATOM     47  C   UNL A   1      39.751  33.215  35.680  1.00  0.00     0.037 A 
ATOM     48  C   UNL A   1      41.196  28.687  31.212  1.00  0.00     0.049 A 
ATOM     49  C   UNL A   1      40.779  32.120  35.616  1.00  0.00     0.074 A 
ATOM     50  C   UNL A   1      42.223  27.760  31.240  1.00  0.00     0.029 A 
ATOM     51  N   UNL A   1      41.275  29.408  32.395  1.00  0.00    -0.354 N 
ATOM     52  N   UNL A   1      41.009  31.258  34.656  1.00  0.00    -0.248 NA
ATOM     53  C   UNL A   1      41.665  31.975  36.780  1.00  0.00     0.031 C 
ATOM     54  C   UNL A   1      42.899  27.893  32.457  1.00  0.00     0.029 A 
ATOM     55  C   UNL A   1      42.320  28.933  33.168  1.00  0.00     0.049 A 
ATOM     56  H   UNL A   1      40.676  30.148  32.646  1.00  0.00     0.167 HD
ATOM     57  C   UNL A   1      42.082  30.487  35.086  1.00  0.00     0.074 A 
ATOM     58  C   UNL A   1      42.465  30.993  36.387  1.00  0.00     0.031 C 
ATOM     59  C   UNL A   1      42.693  29.453  34.458  1.00  0.00     0.037 A 
BRANCH  46  60
ATOM     60  C   UNL A   1      40.204  27.984  28.999  1.00  0.00     0.057 A 
ATOM     61  C   UNL A   1      40.921  28.282  27.833  1.00  0.00     0.134 A 
ATOM     62  C   UNL A   1      39.499  26.774  29.033  1.00  0.00     0.134 A 
ATOM     63  F   UNL A   1      41.607  29.430  27.731  1.00  0.00    -0.206 F 
ATOM     64  C   UNL A   1      40.917  27.422  26.732  1.00  0.00     0.040 A 
ATOM     65  C   UNL A   1      39.508  25.895  27.950  1.00  0.00     0.040 A 
ATOM     66  F   UNL A   1      38.796  26.425  30.121  1.00  0.00    -0.206 F 
ATOM     67  C   UNL A   1      40.213  26.221  26.792  1.00  0.00     0.006 A 
ENDBRANCH  46  60
BRANCH  47  68
ATOM     68  C   UNL A   1      39.654  34.094  36.872  1.00  0.00     0.057 A 
ATOM     69  C   UNL A   1      40.342  35.312  36.929  1.00  0.00     0.134 A 
ATOM     70  C   UNL A   1      38.881  33.738  37.984  1.00  0.00     0.134 A 
ATOM     71  F   UNL A   1      41.113  35.698  35.902  1.00  0.00    -0.206 F 
ATOM     72  C   UNL A   1      40.284  36.134  38.055  1.00  0.00     0.040 A 
ATOM     73  C   UNL A   1      38.794  34.563  39.108  1.00  0.00     0.040 A 
ATOM     74  F   UNL A   1      38.192  32.588  37.990  1.00  0.00    -0.206 F 
ATOM     75  C   UNL A   1      39.503  35.762  39.147  1.00  0.00     0.006 A 
ENDBRANCH  47  68
BRANCH  59  76
ATOM     76  C   UNL A   1      43.859  28.821  35.158  1.00  0.00     0.057 A 
ATOM     77  C   UNL A   1      43.700  27.734  36.026  1.00  0.00     0.134 A 
ATOM     78  C   UNL A   1      45.162  29.280  34.927  1.00  0.00     0.134 A 
ATOM     79  F   UNL A   1      42.476  27.256  36.299  1.00  0.00    -0.206 F 
ATOM     80  C   UNL A   1      44.794  27.138  36.656  1.00  0.00     0.040 A 
ATOM     81  C   UNL A   1      46.266  28.677  35.530  1.00  0.00     0.040 A 
ATOM     82  F   UNL A   1      45.384  30.312  34.099  1.00  0.00    -0.206 F 
ATOM     83  C   UNL A   1      46.083  27.606  36.403  1.00  0.00     0.006 A 
ENDBRANCH  59  76
ENDBRANCH  33  34
ENDBRANCH  25  28
ENDBRANCH  23  24
ENDBRANCH  22  23
ENDBRANCH   1  22
TORSDOF 13
ENDMDL
