MODEL 1
REMARK VINA RESULT:     -11.9      0.000      0.000
REMARK SMILES CC[C@@H](C)[C@H](NC(=O)NCc1ccc(C)cc1)C(=O)NCCCCNC(=O)c1ccc(-c2c3nc(c(-c4c(F)cccc4F)c4ccc([nH]4)c(-c4c(F)cccc4F)c4nc(c(-c5c(F)cccc5F)c5ccc2[nH]5)C=C4)C=C3)cc1
REMARK SMILES IDX 22 1 21 2 20 3 18 4 19 5 5 7 3 8 4 9 2 10 1 11 6 12 7 13
REMARK SMILES IDX 8 15 9 16 10 18 11 19 12 20 17 21 13 22 16 23 14 24 15 25
REMARK SMILES IDX 23 26 24 27 25 28 26 29 27 31 28 32 29 33 81 34 30 35 80 36
REMARK SMILES IDX 31 37 32 38 33 39 74 40 34 41 79 42 73 43 75 44 35 45 78 46
REMARK SMILES IDX 72 47 71 48 36 50 62 51 45 52 61 53 46 54 49 55 60 56 76 57
REMARK SMILES IDX 47 58 48 59 59 61 77 62 50 63 37 64 38 65 43 66 39 67 40 68
REMARK SMILES IDX 42 69 44 70 41 71 63 72 64 73 69 74 65 75 66 76 68 77 70 78
REMARK SMILES IDX 67 79 51 80 52 81 57 82 53 83 54 84 56 85 58 86 55 87
REMARK H PARENT 20 6 6 14 9 17 25 30 75 49 49 60
REMARK Flexibility Score: inf
ROOT
ATOM      1  C   UNL A   1      31.888  30.461  25.764  1.00  0.00     0.023 C 
ENDROOT
BRANCH   1   2
ATOM      2  C   UNL A   1      31.182  29.219  25.223  1.00  0.00     0.116 C 
BRANCH   2   3
ATOM      3  N   UNL A   1      30.799  29.206  23.819  1.00  0.00    -0.354 N 
ATOM      4  C   UNL A   1      31.018  28.265  22.853  1.00  0.00     0.242 C 
ATOM      5  O   UNL A   1      30.194  28.196  21.933  1.00  0.00    -0.273 OA
ATOM      6  H   UNL A   1      30.305  30.001  23.519  1.00  0.00     0.163 HD
BRANCH   4   7
ATOM      7  C   UNL A   1      32.172  27.242  22.914  1.00  0.00     0.175 C 
BRANCH   7   8
ATOM      8  C   UNL A   1      33.381  27.772  23.772  1.00  0.00     0.018 C 
ATOM      9  C   UNL A   1      34.400  28.501  22.887  1.00  0.00     0.010 C 
BRANCH   8  10
ATOM     10  C   UNL A   1      34.060  26.680  24.630  1.00  0.00     0.002 C 
ATOM     11  C   UNL A   1      33.289  26.160  25.834  1.00  0.00     0.004 C 
ENDBRANCH   8  10
ENDBRANCH   7   8
BRANCH   7  12
ATOM     12  N   UNL A   1      32.583  26.767  21.595  1.00  0.00    -0.326 N 
ATOM     13  C   UNL A   1      32.683  25.552  21.040  1.00  0.00     0.315 C 
ATOM     14  H   UNL A   1      32.841  27.495  20.984  1.00  0.00     0.166 HD
ATOM     15  O   UNL A   1      33.049  25.504  19.862  1.00  0.00    -0.249 OA
ATOM     16  N   UNL A   1      32.333  24.400  21.622  1.00  0.00    -0.334 N 
ATOM     17  H   UNL A   1      32.046  23.721  20.970  1.00  0.00     0.165 HD
BRANCH  16  18
ATOM     18  C   UNL A   1      32.278  23.912  22.992  1.00  0.00     0.153 C 
BRANCH  18  19
ATOM     19  C   UNL A   1      33.538  23.217  23.470  1.00  0.00    -0.029 A 
ATOM     20  C   UNL A   1      34.755  23.482  22.825  1.00  0.00     0.006 A 
ATOM     21  C   UNL A   1      33.544  22.260  24.495  1.00  0.00     0.006 A 
ATOM     22  C   UNL A   1      35.950  22.896  23.252  1.00  0.00     0.004 A 
ATOM     23  C   UNL A   1      34.743  21.669  24.926  1.00  0.00     0.004 A 
ATOM     24  C   UNL A   1      35.961  22.005  24.326  1.00  0.00    -0.051 A 
ATOM     25  C   UNL A   1      37.253  21.388  24.774  1.00  0.00     0.044 C 
ENDBRANCH  18  19
ENDBRANCH  16  18
ENDBRANCH   7  12
ENDBRANCH   4   7
ENDBRANCH   2   3
ENDBRANCH   1   2
BRANCH   1  26
ATOM     26  C   UNL A   1      33.276  30.264  26.338  1.00  0.00     0.023 C 
BRANCH  26  27
ATOM     27  C   UNL A   1      33.365  30.323  27.848  1.00  0.00     0.116 C 
BRANCH  27  28
ATOM     28  N   UNL A   1      34.122  31.453  28.366  1.00  0.00    -0.352 N 
ATOM     29  C   UNL A   1      35.429  31.483  28.835  1.00  0.00     0.251 C 
ATOM     30  H   UNL A   1      33.643  32.314  28.386  1.00  0.00     0.163 HD
ATOM     31  O   UNL A   1      35.920  32.521  29.236  1.00  0.00    -0.269 OA
BRANCH  29  32
ATOM     32  C   UNL A   1      36.270  30.266  28.679  1.00  0.00     0.039 A 
ATOM     33  C   UNL A   1      36.565  29.548  29.842  1.00  0.00     0.014 A 
ATOM     34  C   UNL A   1      36.984  30.033  27.508  1.00  0.00     0.014 A 
ATOM     35  C   UNL A   1      37.760  28.842  29.911  1.00  0.00     0.010 A 
ATOM     36  C   UNL A   1      38.226  29.442  27.609  1.00  0.00     0.010 A 
ATOM     37  C   UNL A   1      38.642  28.919  28.836  1.00  0.00    -0.014 A 
BRANCH  37  38
ATOM     38  C   UNL A   1      40.047  28.555  28.947  1.00  0.00     0.031 A 
ATOM     39  C   UNL A   1      40.479  27.203  28.547  1.00  0.00     0.074 A 
ATOM     40  C   UNL A   1      40.946  29.450  29.414  1.00  0.00     0.049 A 
ATOM     41  N   UNL A   1      41.542  26.623  28.989  1.00  0.00    -0.248 NA
ATOM     42  C   UNL A   1      39.672  26.343  27.688  1.00  0.00     0.031 C 
ATOM     43  C   UNL A   1      42.402  29.334  29.398  1.00  0.00     0.029 A 
ATOM     44  N   UNL A   1      40.693  30.567  30.226  1.00  0.00    -0.354 N 
ATOM     45  C   UNL A   1      41.710  25.457  28.280  1.00  0.00     0.074 A 
ATOM     46  C   UNL A   1      40.456  25.265  27.600  1.00  0.00     0.031 C 
ATOM     47  C   UNL A   1      42.907  30.114  30.366  1.00  0.00     0.029 A 
ATOM     48  C   UNL A   1      41.786  30.650  31.117  1.00  0.00     0.049 A 
ATOM     49  H   UNL A   1      39.915  31.168  30.184  1.00  0.00     0.167 HD
ATOM     50  C   UNL A   1      42.945  24.880  28.260  1.00  0.00     0.037 A 
ATOM     51  C   UNL A   1      41.626  30.537  32.467  1.00  0.00     0.037 A 
ATOM     52  C   UNL A   1      43.814  25.499  29.267  1.00  0.00     0.049 A 
ATOM     53  C   UNL A   1      42.416  29.407  33.085  1.00  0.00     0.074 A 
ATOM     54  C   UNL A   1      44.842  26.424  29.192  1.00  0.00     0.029 A 
ATOM     55  N   UNL A   1      43.483  25.386  30.616  1.00  0.00    -0.354 N 
ATOM     56  N   UNL A   1      42.887  28.397  32.409  1.00  0.00    -0.248 NA
ATOM     57  C   UNL A   1      42.714  29.314  34.511  1.00  0.00     0.031 C 
ATOM     58  C   UNL A   1      45.081  26.919  30.501  1.00  0.00     0.029 A 
ATOM     59  C   UNL A   1      44.224  26.270  31.375  1.00  0.00     0.049 A 
ATOM     60  H   UNL A   1      42.813  24.761  30.978  1.00  0.00     0.167 HD
ATOM     61  C   UNL A   1      43.509  27.522  33.265  1.00  0.00     0.074 A 
ATOM     62  C   UNL A   1      43.395  28.155  34.566  1.00  0.00     0.031 C 
ATOM     63  C   UNL A   1      44.049  26.347  32.820  1.00  0.00     0.037 A 
BRANCH  50  64
ATOM     64  C   UNL A   1      43.471  23.940  27.181  1.00  0.00     0.057 A 
ATOM     65  C   UNL A   1      44.110  24.469  26.038  1.00  0.00     0.134 A 
ATOM     66  C   UNL A   1      43.290  22.544  27.123  1.00  0.00     0.134 A 
ATOM     67  F   UNL A   1      44.412  25.771  25.937  1.00  0.00    -0.206 F 
ATOM     68  C   UNL A   1      44.463  23.693  24.920  1.00  0.00     0.040 A 
ATOM     69  C   UNL A   1      43.651  21.755  26.020  1.00  0.00     0.040 A 
ATOM     70  F   UNL A   1      42.744  21.839  28.113  1.00  0.00    -0.206 F 
ATOM     71  C   UNL A   1      44.222  22.331  24.902  1.00  0.00     0.006 A 
ENDBRANCH  50  64
BRANCH  51  72
ATOM     72  C   UNL A   1      40.311  31.028  32.950  1.00  0.00     0.057 A 
ATOM     73  C   UNL A   1      39.301  30.088  33.222  1.00  0.00     0.134 A 
ATOM     74  C   UNL A   1      40.157  32.304  33.498  1.00  0.00     0.134 A 
ATOM     75  F   UNL A   1      39.388  28.843  32.724  1.00  0.00    -0.206 F 
ATOM     76  C   UNL A   1      38.248  30.366  34.096  1.00  0.00     0.040 A 
ATOM     77  C   UNL A   1      39.098  32.598  34.366  1.00  0.00     0.040 A 
ATOM     78  F   UNL A   1      41.087  33.248  33.301  1.00  0.00    -0.206 F 
ATOM     79  C   UNL A   1      38.165  31.616  34.700  1.00  0.00     0.006 A 
ENDBRANCH  51  72
BRANCH  63  80
ATOM     80  C   UNL A   1      44.539  25.198  33.677  1.00  0.00     0.057 A 
ATOM     81  C   UNL A   1      43.726  24.423  34.519  1.00  0.00     0.134 A 
ATOM     82  C   UNL A   1      45.873  24.738  33.559  1.00  0.00     0.134 A 
ATOM     83  F   UNL A   1      42.415  24.659  34.646  1.00  0.00    -0.206 F 
ATOM     84  C   UNL A   1      44.214  23.316  35.232  1.00  0.00     0.040 A 
ATOM     85  C   UNL A   1      46.354  23.603  34.220  1.00  0.00     0.040 A 
ATOM     86  F   UNL A   1      46.766  25.355  32.773  1.00  0.00    -0.206 F 
ATOM     87  C   UNL A   1      45.527  22.894  35.074  1.00  0.00     0.006 A 
ENDBRANCH  63  80
ENDBRANCH  37  38
ENDBRANCH  29  32
ENDBRANCH  27  28
ENDBRANCH  26  27
ENDBRANCH   1  26
TORSDOF 16
ENDMDL
MODEL 2
REMARK VINA RESULT:     -11.5      3.731      9.050
REMARK SMILES CC[C@@H](C)[C@H](NC(=O)NCc1ccc(C)cc1)C(=O)NCCCCNC(=O)c1ccc(-c2c3nc(c(-c4c(F)cccc4F)c4ccc([nH]4)c(-c4c(F)cccc4F)c4nc(c(-c5c(F)cccc5F)c5ccc2[nH]5)C=C4)C=C3)cc1
REMARK SMILES IDX 22 1 21 2 20 3 18 4 19 5 5 7 3 8 4 9 2 10 1 11 6 12 7 13
REMARK SMILES IDX 8 15 9 16 10 18 11 19 12 20 17 21 13 22 16 23 14 24 15 25
REMARK SMILES IDX 23 26 24 27 25 28 26 29 27 31 28 32 29 33 81 34 30 35 80 36
REMARK SMILES IDX 31 37 32 38 33 39 74 40 34 41 79 42 73 43 75 44 35 45 78 46
REMARK SMILES IDX 72 47 71 48 36 50 62 51 45 52 61 53 46 54 49 55 60 56 76 57
REMARK SMILES IDX 47 58 48 59 59 61 77 62 50 63 37 64 38 65 43 66 39 67 40 68
REMARK SMILES IDX 42 69 44 70 41 71 63 72 64 73 69 74 65 75 66 76 68 77 70 78
REMARK SMILES IDX 67 79 51 80 52 81 57 82 53 83 54 84 56 85 58 86 55 87
REMARK H PARENT 20 6 6 14 9 17 25 30 75 49 49 60
REMARK Flexibility Score: inf
ROOT
ATOM      1  C   UNL A   1      36.853  21.975  24.443  1.00  0.00     0.023 C 
ENDROOT
BRANCH   1   2
ATOM      2  C   UNL A   1      35.446  21.838  25.022  1.00  0.00     0.116 C 
BRANCH   2   3
ATOM      3  N   UNL A   1      34.347  21.600  24.099  1.00  0.00    -0.354 N 
ATOM      4  C   UNL A   1      33.375  22.447  23.645  1.00  0.00     0.242 C 
ATOM      5  O   UNL A   1      32.903  22.220  22.525  1.00  0.00    -0.273 OA
ATOM      6  H   UNL A   1      34.295  20.683  23.745  1.00  0.00     0.163 HD
BRANCH   4   7
ATOM      7  C   UNL A   1      32.923  23.706  24.416  1.00  0.00     0.175 C 
BRANCH   7   8
ATOM      8  C   UNL A   1      34.017  24.839  24.382  1.00  0.00     0.018 C 
ATOM      9  C   UNL A   1      34.134  25.525  25.749  1.00  0.00     0.010 C 
BRANCH   8  10
ATOM     10  C   UNL A   1      33.808  25.870  23.249  1.00  0.00     0.002 C 
ATOM     11  C   UNL A   1      32.604  25.672  22.341  1.00  0.00     0.004 C 
ENDBRANCH   8  10
ENDBRANCH   7   8
BRANCH   7  12
ATOM     12  N   UNL A   1      32.462  23.410  25.770  1.00  0.00    -0.326 N 
ATOM     13  C   UNL A   1      31.401  23.799  26.490  1.00  0.00     0.315 C 
ATOM     14  H   UNL A   1      33.056  22.793  26.257  1.00  0.00     0.166 HD
ATOM     15  O   UNL A   1      31.295  23.328  27.626  1.00  0.00    -0.249 OA
ATOM     16  N   UNL A   1      30.406  24.577  26.051  1.00  0.00    -0.334 N 
ATOM     17  H   UNL A   1      29.553  24.389  26.505  1.00  0.00     0.165 HD
BRANCH  16  18
ATOM     18  C   UNL A   1      30.286  25.637  25.061  1.00  0.00     0.153 C 
BRANCH  18  19
ATOM     19  C   UNL A   1      30.856  26.974  25.490  1.00  0.00    -0.029 A 
ATOM     20  C   UNL A   1      31.170  27.186  26.841  1.00  0.00     0.006 A 
ATOM     21  C   UNL A   1      31.029  28.052  24.610  1.00  0.00     0.006 A 
ATOM     22  C   UNL A   1      31.733  28.387  27.281  1.00  0.00     0.004 A 
ATOM     23  C   UNL A   1      31.593  29.261  25.049  1.00  0.00     0.004 A 
ATOM     24  C   UNL A   1      31.977  29.427  26.383  1.00  0.00    -0.051 A 
ATOM     25  C   UNL A   1      32.586  30.709  26.870  1.00  0.00     0.044 C 
ENDBRANCH  18  19
ENDBRANCH  16  18
ENDBRANCH   7  12
ENDBRANCH   4   7
ENDBRANCH   2   3
ENDBRANCH   1   2
BRANCH   1  26
ATOM     26  C   UNL A   1      38.009  21.843  25.414  1.00  0.00     0.023 C 
BRANCH  26  27
ATOM     27  C   UNL A   1      38.504  23.145  26.008  1.00  0.00     0.116 C 
BRANCH  27  28
ATOM     28  N   UNL A   1      39.910  23.139  26.389  1.00  0.00    -0.352 N 
ATOM     29  C   UNL A   1      40.679  24.181  26.892  1.00  0.00     0.251 C 
ATOM     30  H   UNL A   1      40.379  22.281  26.273  1.00  0.00     0.163 HD
ATOM     31  O   UNL A   1      41.852  24.010  27.164  1.00  0.00    -0.269 OA
BRANCH  29  32
ATOM     32  C   UNL A   1      40.002  25.456  27.253  1.00  0.00     0.039 A 
ATOM     33  C   UNL A   1      40.385  26.597  26.541  1.00  0.00     0.014 A 
ATOM     34  C   UNL A   1      39.275  25.573  28.432  1.00  0.00     0.014 A 
ATOM     35  C   UNL A   1      40.313  27.835  27.168  1.00  0.00     0.010 A 
ATOM     36  C   UNL A   1      39.316  26.775  29.107  1.00  0.00     0.010 A 
ATOM     37  C   UNL A   1      39.911  27.885  28.501  1.00  0.00    -0.014 A 
BRANCH  37  38
ATOM     38  C   UNL A   1      40.162  29.037  29.354  1.00  0.00     0.031 A 
ATOM     39  C   UNL A   1      39.135  30.089  29.472  1.00  0.00     0.074 A 
ATOM     40  C   UNL A   1      41.329  29.141  30.029  1.00  0.00     0.049 A 
ATOM     41  N   UNL A   1      39.383  31.309  29.807  1.00  0.00    -0.248 NA
ATOM     42  C   UNL A   1      37.740  29.868  29.107  1.00  0.00     0.031 C 
ATOM     43  C   UNL A   1      41.663  30.103  31.075  1.00  0.00     0.029 A 
ATOM     44  N   UNL A   1      42.549  28.519  29.722  1.00  0.00    -0.354 N 
ATOM     45  C   UNL A   1      38.180  31.952  29.974  1.00  0.00     0.074 A 
ATOM     46  C   UNL A   1      37.212  31.062  29.389  1.00  0.00     0.031 C 
ATOM     47  C   UNL A   1      42.998  30.237  31.127  1.00  0.00     0.029 A 
ATOM     48  C   UNL A   1      43.551  29.466  30.027  1.00  0.00     0.049 A 
ATOM     49  H   UNL A   1      42.679  27.610  29.368  1.00  0.00     0.167 HD
ATOM     50  C   UNL A   1      38.153  33.099  30.710  1.00  0.00     0.037 A 
ATOM     51  C   UNL A   1      44.391  29.960  29.073  1.00  0.00     0.037 A 
ATOM     52  C   UNL A   1      39.517  33.582  30.954  1.00  0.00     0.049 A 
ATOM     53  C   UNL A   1      44.333  31.462  28.924  1.00  0.00     0.074 A 
ATOM     54  C   UNL A   1      40.355  33.537  32.055  1.00  0.00     0.029 A 
ATOM     55  N   UNL A   1      40.307  33.971  29.874  1.00  0.00    -0.354 N 
ATOM     56  N   UNL A   1      43.341  32.196  29.345  1.00  0.00    -0.248 NA
ATOM     57  C   UNL A   1      45.371  32.251  28.269  1.00  0.00     0.031 C 
ATOM     58  C   UNL A   1      41.671  33.836  31.617  1.00  0.00     0.029 A 
ATOM     59  C   UNL A   1      41.627  34.097  30.257  1.00  0.00     0.049 A 
ATOM     60  H   UNL A   1      39.969  34.134  28.963  1.00  0.00     0.167 HD
ATOM     61  C   UNL A   1      43.566  33.508  29.014  1.00  0.00     0.074 A 
ATOM     62  C   UNL A   1      44.864  33.493  28.363  1.00  0.00     0.031 C 
ATOM     63  C   UNL A   1      42.653  34.485  29.296  1.00  0.00     0.037 A 
BRANCH  50  64
ATOM     64  C   UNL A   1      36.936  33.663  31.433  1.00  0.00     0.057 A 
ATOM     65  C   UNL A   1      36.841  33.557  32.839  1.00  0.00     0.134 A 
ATOM     66  C   UNL A   1      35.780  34.204  30.835  1.00  0.00     0.134 A 
ATOM     67  F   UNL A   1      37.862  33.112  33.583  1.00  0.00    -0.206 F 
ATOM     68  C   UNL A   1      35.682  33.887  33.563  1.00  0.00     0.040 A 
ATOM     69  C   UNL A   1      34.622  34.553  31.548  1.00  0.00     0.040 A 
ATOM     70  F   UNL A   1      35.674  34.427  29.526  1.00  0.00    -0.206 F 
ATOM     71  C   UNL A   1      34.561  34.376  32.916  1.00  0.00     0.006 A 
ENDBRANCH  50  64
BRANCH  51  72
ATOM     72  C   UNL A   1      44.669  29.000  27.975  1.00  0.00     0.057 A 
ATOM     73  C   UNL A   1      45.546  27.930  28.223  1.00  0.00     0.134 A 
ATOM     74  C   UNL A   1      43.831  28.892  26.861  1.00  0.00     0.134 A 
ATOM     75  F   UNL A   1      46.379  27.973  29.276  1.00  0.00    -0.206 F 
ATOM     76  C   UNL A   1      45.509  26.754  27.471  1.00  0.00     0.040 A 
ATOM     77  C   UNL A   1      43.793  27.722  26.094  1.00  0.00     0.040 A 
ATOM     78  F   UNL A   1      42.953  29.861  26.571  1.00  0.00    -0.206 F 
ATOM     79  C   UNL A   1      44.603  26.634  26.422  1.00  0.00     0.006 A 
ENDBRANCH  51  72
BRANCH  63  80
ATOM     80  C   UNL A   1      42.665  35.909  28.777  1.00  0.00     0.057 A 
ATOM     81  C   UNL A   1      41.919  36.369  27.682  1.00  0.00     0.134 A 
ATOM     82  C   UNL A   1      43.351  36.922  29.491  1.00  0.00     0.134 A 
ATOM     83  F   UNL A   1      41.126  35.554  26.976  1.00  0.00    -0.206 F 
ATOM     84  C   UNL A   1      41.903  37.717  27.290  1.00  0.00     0.040 A 
ATOM     85  C   UNL A   1      43.296  38.276  29.144  1.00  0.00     0.040 A 
ATOM     86  F   UNL A   1      44.087  36.647  30.577  1.00  0.00    -0.206 F 
ATOM     87  C   UNL A   1      42.581  38.678  28.028  1.00  0.00     0.006 A 
ENDBRANCH  63  80
ENDBRANCH  37  38
ENDBRANCH  29  32
ENDBRANCH  27  28
ENDBRANCH  26  27
ENDBRANCH   1  26
TORSDOF 16
ENDMDL
MODEL 3
REMARK VINA RESULT:     -11.5      1.808      2.568
REMARK SMILES CC[C@@H](C)[C@H](NC(=O)NCc1ccc(C)cc1)C(=O)NCCCCNC(=O)c1ccc(-c2c3nc(c(-c4c(F)cccc4F)c4ccc([nH]4)c(-c4c(F)cccc4F)c4nc(c(-c5c(F)cccc5F)c5ccc2[nH]5)C=C4)C=C3)cc1
REMARK SMILES IDX 22 1 21 2 20 3 18 4 19 5 5 7 3 8 4 9 2 10 1 11 6 12 7 13
REMARK SMILES IDX 8 15 9 16 10 18 11 19 12 20 17 21 13 22 16 23 14 24 15 25
REMARK SMILES IDX 23 26 24 27 25 28 26 29 27 31 28 32 29 33 81 34 30 35 80 36
REMARK SMILES IDX 31 37 32 38 33 39 74 40 34 41 79 42 73 43 75 44 35 45 78 46
REMARK SMILES IDX 72 47 71 48 36 50 62 51 45 52 61 53 46 54 49 55 60 56 76 57
REMARK SMILES IDX 47 58 48 59 59 61 77 62 50 63 37 64 38 65 43 66 39 67 40 68
REMARK SMILES IDX 42 69 44 70 41 71 63 72 64 73 69 74 65 75 66 76 68 77 70 78
REMARK SMILES IDX 67 79 51 80 52 81 57 82 53 83 54 84 56 85 58 86 55 87
REMARK H PARENT 20 6 6 14 9 17 25 30 75 49 49 60
REMARK Flexibility Score: inf
ROOT
ATOM      1  C   UNL A   1      33.642  28.666  26.882  1.00  0.00     0.023 C 
ENDROOT
BRANCH   1   2
ATOM      2  C   UNL A   1      32.296  27.974  26.673  1.00  0.00     0.116 C 
BRANCH   2   3
ATOM      3  N   UNL A   1      31.612  28.177  25.405  1.00  0.00    -0.354 N 
ATOM      4  C   UNL A   1      30.963  27.285  24.599  1.00  0.00     0.242 C 
ATOM      5  O   UNL A   1      30.042  27.720  23.898  1.00  0.00    -0.273 OA
ATOM      6  H   UNL A   1      31.617  29.105  25.077  1.00  0.00     0.163 HD
BRANCH   4   7
ATOM      7  C   UNL A   1      31.263  25.771  24.601  1.00  0.00     0.175 C 
BRANCH   7   8
ATOM      8  C   UNL A   1      31.092  25.138  23.168  1.00  0.00     0.018 C 
ATOM      9  C   UNL A   1      30.512  23.720  23.264  1.00  0.00     0.010 C 
BRANCH   8  10
ATOM     10  C   UNL A   1      32.384  25.162  22.321  1.00  0.00     0.002 C 
ATOM     11  C   UNL A   1      33.135  23.849  22.158  1.00  0.00     0.004 C 
ENDBRANCH   8  10
ENDBRANCH   7   8
BRANCH   7  12
ATOM     12  N   UNL A   1      30.521  25.044  25.629  1.00  0.00    -0.326 N 
ATOM     13  C   UNL A   1      30.853  24.086  26.504  1.00  0.00     0.315 C 
ATOM     14  H   UNL A   1      29.577  25.317  25.692  1.00  0.00     0.166 HD
ATOM     15  O   UNL A   1      29.967  23.699  27.272  1.00  0.00    -0.249 OA
ATOM     16  N   UNL A   1      32.080  23.583  26.677  1.00  0.00    -0.334 N 
ATOM     17  H   UNL A   1      32.230  23.266  27.597  1.00  0.00     0.165 HD
BRANCH  16  18
ATOM     18  C   UNL A   1      33.245  23.390  25.827  1.00  0.00     0.153 C 
BRANCH  18  19
ATOM     19  C   UNL A   1      33.486  21.957  25.394  1.00  0.00    -0.029 A 
ATOM     20  C   UNL A   1      32.390  21.140  25.084  1.00  0.00     0.006 A 
ATOM     21  C   UNL A   1      34.761  21.373  25.350  1.00  0.00     0.006 A 
ATOM     22  C   UNL A   1      32.560  19.824  24.644  1.00  0.00     0.004 A 
ATOM     23  C   UNL A   1      34.936  20.051  24.909  1.00  0.00     0.004 A 
ATOM     24  C   UNL A   1      33.837  19.275  24.525  1.00  0.00    -0.051 A 
ATOM     25  C   UNL A   1      34.004  17.863  24.047  1.00  0.00     0.044 C 
ENDBRANCH  18  19
ENDBRANCH  16  18
ENDBRANCH   7  12
ENDBRANCH   4   7
ENDBRANCH   2   3
ENDBRANCH   1   2
BRANCH   1  26
ATOM     26  C   UNL A   1      33.637  29.944  27.695  1.00  0.00     0.023 C 
BRANCH  26  27
ATOM     27  C   UNL A   1      34.671  30.973  27.287  1.00  0.00     0.116 C 
BRANCH  27  28
ATOM     28  N   UNL A   1      35.316  31.655  28.400  1.00  0.00    -0.352 N 
ATOM     29  C   UNL A   1      36.338  31.201  29.223  1.00  0.00     0.251 C 
ATOM     30  H   UNL A   1      34.982  32.561  28.596  1.00  0.00     0.163 HD
ATOM     31  O   UNL A   1      36.772  31.902  30.118  1.00  0.00    -0.269 OA
BRANCH  29  32
ATOM     32  C   UNL A   1      37.009  29.917  28.885  1.00  0.00     0.039 A 
ATOM     33  C   UNL A   1      37.220  29.018  29.935  1.00  0.00     0.014 A 
ATOM     34  C   UNL A   1      37.671  29.751  27.673  1.00  0.00     0.014 A 
ATOM     35  C   UNL A   1      38.312  28.161  29.876  1.00  0.00     0.010 A 
ATOM     36  C   UNL A   1      38.825  28.995  27.659  1.00  0.00     0.010 A 
ATOM     37  C   UNL A   1      39.183  28.265  28.795  1.00  0.00    -0.014 A 
BRANCH  37  38
ATOM     38  C   UNL A   1      40.529  27.710  28.815  1.00  0.00     0.031 A 
ATOM     39  C   UNL A   1      40.731  26.286  28.490  1.00  0.00     0.074 A 
ATOM     40  C   UNL A   1      41.583  28.496  29.132  1.00  0.00     0.049 A 
ATOM     41  N   UNL A   1      41.741  25.589  28.886  1.00  0.00    -0.248 NA
ATOM     42  C   UNL A   1      39.734  25.495  27.775  1.00  0.00     0.031 C 
ATOM     43  C   UNL A   1      43.000  28.170  29.002  1.00  0.00     0.029 A 
ATOM     44  N   UNL A   1      41.564  29.690  29.870  1.00  0.00    -0.354 N 
ATOM     45  C   UNL A   1      41.679  24.366  28.262  1.00  0.00     0.074 A 
ATOM     46  C   UNL A   1      40.351  24.312  27.708  1.00  0.00     0.031 C 
ATOM     47  C   UNL A   1      43.698  28.933  29.857  1.00  0.00     0.029 A 
ATOM     48  C   UNL A   1      42.738  29.674  30.655  1.00  0.00     0.049 A 
ATOM     49  H   UNL A   1      40.876  30.392  29.845  1.00  0.00     0.167 HD
ATOM     50  C   UNL A   1      42.815  23.617  28.184  1.00  0.00     0.037 A 
ATOM     51  C   UNL A   1      42.693  29.677  32.018  1.00  0.00     0.037 A 
ATOM     52  C   UNL A   1      43.852  24.171  29.061  1.00  0.00     0.049 A 
ATOM     53  C   UNL A   1      43.375  28.490  32.656  1.00  0.00     0.074 A 
ATOM     54  C   UNL A   1      44.986  24.931  28.825  1.00  0.00     0.029 A 
ATOM     55  N   UNL A   1      43.639  24.199  30.438  1.00  0.00    -0.354 N 
ATOM     56  N   UNL A   1      43.636  27.378  32.027  1.00  0.00    -0.248 NA
ATOM     57  C   UNL A   1      43.792  28.451  34.054  1.00  0.00     0.031 C 
ATOM     58  C   UNL A   1      45.414  25.474  30.065  1.00  0.00     0.029 A 
ATOM     59  C   UNL A   1      44.563  25.016  31.057  1.00  0.00     0.049 A 
ATOM     60  H   UNL A   1      42.927  23.703  30.904  1.00  0.00     0.167 HD
ATOM     61  C   UNL A   1      44.210  26.483  32.894  1.00  0.00     0.074 A 
ATOM     62  C   UNL A   1      44.308  27.212  34.145  1.00  0.00     0.031 C 
ATOM     63  C   UNL A   1      44.538  25.215  32.502  1.00  0.00     0.037 A 
BRANCH  50  64
ATOM     64  C   UNL A   1      43.101  22.541  27.143  1.00  0.00     0.057 A 
ATOM     65  C   UNL A   1      42.395  21.318  27.183  1.00  0.00     0.134 A 
ATOM     66  C   UNL A   1      44.114  22.568  26.164  1.00  0.00     0.134 A 
ATOM     67  F   UNL A   1      41.364  21.126  28.017  1.00  0.00    -0.206 F 
ATOM     68  C   UNL A   1      42.718  20.211  26.379  1.00  0.00     0.040 A 
ATOM     69  C   UNL A   1      44.437  21.476  25.344  1.00  0.00     0.040 A 
ATOM     70  F   UNL A   1      44.872  23.638  25.931  1.00  0.00    -0.206 F 
ATOM     71  C   UNL A   1      43.752  20.283  25.462  1.00  0.00     0.006 A 
ENDBRANCH  50  64
BRANCH  51  72
ATOM     72  C   UNL A   1      41.510  30.384  32.570  1.00  0.00     0.057 A 
ATOM     73  C   UNL A   1      40.399  29.622  32.974  1.00  0.00     0.134 A 
ATOM     74  C   UNL A   1      41.592  31.694  33.051  1.00  0.00     0.134 A 
ATOM     75  F   UNL A   1      40.259  28.357  32.546  1.00  0.00    -0.206 F 
ATOM     76  C   UNL A   1      39.476  30.098  33.907  1.00  0.00     0.040 A 
ATOM     77  C   UNL A   1      40.666  32.186  33.978  1.00  0.00     0.040 A 
ATOM     78  F   UNL A   1      42.631  32.475  32.727  1.00  0.00    -0.206 F 
ATOM     79  C   UNL A   1      39.628  31.374  34.439  1.00  0.00     0.006 A 
ENDBRANCH  51  72
BRANCH  63  80
ATOM     80  C   UNL A   1      44.945  24.068  33.404  1.00  0.00     0.057 A 
ATOM     81  C   UNL A   1      44.154  22.940  33.671  1.00  0.00     0.134 A 
ATOM     82  C   UNL A   1      46.257  24.006  33.933  1.00  0.00     0.134 A 
ATOM     83  F   UNL A   1      42.932  22.795  33.144  1.00  0.00    -0.206 F 
ATOM     84  C   UNL A   1      44.609  21.865  34.451  1.00  0.00     0.040 A 
ATOM     85  C   UNL A   1      46.739  22.915  34.662  1.00  0.00     0.040 A 
ATOM     86  F   UNL A   1      47.143  24.994  33.743  1.00  0.00    -0.206 F 
ATOM     87  C   UNL A   1      45.908  21.842  34.938  1.00  0.00     0.006 A 
ENDBRANCH  63  80
ENDBRANCH  37  38
ENDBRANCH  29  32
ENDBRANCH  27  28
ENDBRANCH  26  27
ENDBRANCH   1  26
TORSDOF 16
ENDMDL
