MODEL 1
REMARK VINA RESULT:     -12.8      0.000      0.000
REMARK SMILES CCc1ncc(C[N@H+]2CCC[C@@H](c3cccc(C(=O)NCCCCNC(=O)c4ccc(-c5c6nc(c(-c7c(F)cccc7F)c7ccc([nH]7)c(-c7c(F)cccc7F)c7nc(c(-c8c(F)cccc8F)c8ccc5[nH]8)C=C7)C=C6)cc4)c3)C2)cn1
REMARK SMILES IDX 21 1 20 2 18 3 19 4 17 6 13 7 14 8 82 9 15 10 16 11 12 12
REMARK SMILES IDX 8 13 9 14 83 15 10 17 11 18 7 19 6 20 3 21 4 22 85 23 5 24
REMARK SMILES IDX 84 25 2 26 1 27 22 28 23 29 24 30 25 31 26 32 27 34 28 35
REMARK SMILES IDX 29 36 81 37 30 38 80 39 31 40 32 41 33 42 74 43 34 44 79 45
REMARK SMILES IDX 73 46 75 47 35 48 78 49 72 50 71 51 36 53 62 54 45 55 61 56
REMARK SMILES IDX 46 57 49 58 60 59 76 60 47 61 48 62 59 64 77 65 50 66 37 67
REMARK SMILES IDX 38 68 43 69 39 70 40 71 42 72 44 73 41 74 63 75 64 76 69 77
REMARK SMILES IDX 65 78 66 79 68 80 70 81 67 82 51 83 52 84 57 85 53 86 54 87
REMARK SMILES IDX 56 88 58 89 55 90
REMARK H PARENT 20 5 8 16 25 33 75 52 49 63
REMARK Flexibility Score: inf
ROOT
ATOM      1  C   UNL A   1      37.111  22.410  25.257  1.00  0.00     0.116 C 
ENDROOT
BRANCH   1   2
ATOM      2  N   UNL A   1      36.215  22.169  26.377  1.00  0.00    -0.352 N 
ATOM      3  C   UNL A   1      34.907  21.722  26.410  1.00  0.00     0.251 C 
ATOM      4  O   UNL A   1      34.359  21.576  27.501  1.00  0.00    -0.269 OA
ATOM      5  H   UNL A   1      36.606  22.357  27.262  1.00  0.00     0.163 HD
BRANCH   3   6
ATOM      6  C   UNL A   1      34.125  21.494  25.165  1.00  0.00     0.040 A 
ATOM      7  C   UNL A   1      32.769  22.404  23.373  1.00  0.00    -0.039 A 
ATOM      8  C   UNL A   1      32.262  21.125  23.116  1.00  0.00     0.004 A 
ATOM      9  C   UNL A   1      33.814  22.532  24.292  1.00  0.00     0.018 A 
ATOM     10  C   UNL A   1      32.715  20.029  23.853  1.00  0.00     0.001 A 
ATOM     11  C   UNL A   1      33.613  20.219  24.907  1.00  0.00     0.014 A 
BRANCH   7  12
ATOM     12  C   UNL A   1      32.194  23.676  22.777  1.00  0.00     0.074 C 
ATOM     13  N   UNL A   1      31.169  25.880  23.305  1.00  0.00    -0.331 N 
ATOM     14  C   UNL A   1      32.091  26.555  22.383  1.00  0.00     0.262 C 
ATOM     15  C   UNL A   1      31.761  24.654  23.868  1.00  0.00     0.270 C 
ATOM     16  H   UNL A   1      30.364  25.595  22.747  1.00  0.00     0.348 HD
ATOM     17  C   UNL A   1      32.507  25.632  21.235  1.00  0.00     0.062 C 
ATOM     18  C   UNL A   1      33.138  24.349  21.766  1.00  0.00     0.020 C 
BRANCH  13  19
ATOM     19  C   UNL A   1      30.628  26.774  24.347  1.00  0.00     0.302 C 
BRANCH  19  20
ATOM     20  C   UNL A   1      29.982  28.031  23.846  1.00  0.00     0.043 A 
ATOM     21  C   UNL A   1      28.648  30.303  23.197  1.00  0.00     0.127 A 
ATOM     22  N   UNL A   1      29.840  30.431  23.811  1.00  0.00    -0.241 NA
ATOM     23  N   UNL A   1      28.093  29.132  22.839  1.00  0.00    -0.241 NA
ATOM     24  C   UNL A   1      30.483  29.286  24.113  1.00  0.00     0.124 A 
ATOM     25  C   UNL A   1      28.781  28.023  23.163  1.00  0.00     0.124 A 
BRANCH  21  26
ATOM     26  C   UNL A   1      27.832  31.547  22.986  1.00  0.00     0.074 C 
ATOM     27  C   UNL A   1      28.685  32.664  22.403  1.00  0.00     0.012 C 
ENDBRANCH  21  26
ENDBRANCH  19  20
ENDBRANCH  13  19
ENDBRANCH   7  12
ENDBRANCH   3   6
ENDBRANCH   1   2
BRANCH   1  28
ATOM     28  C   UNL A   1      37.367  21.217  24.350  1.00  0.00     0.023 C 
BRANCH  28  29
ATOM     29  C   UNL A   1      37.979  19.987  25.001  1.00  0.00     0.023 C 
BRANCH  29  30
ATOM     30  C   UNL A   1      39.201  20.231  25.876  1.00  0.00     0.116 C 
BRANCH  30  31
ATOM     31  N   UNL A   1      40.190  19.163  25.832  1.00  0.00    -0.352 N 
ATOM     32  C   UNL A   1      41.543  19.197  26.091  1.00  0.00     0.251 C 
ATOM     33  H   UNL A   1      39.837  18.280  25.578  1.00  0.00     0.163 HD
ATOM     34  O   UNL A   1      42.222  18.192  25.939  1.00  0.00    -0.269 OA
BRANCH  32  35
ATOM     35  C   UNL A   1      42.185  20.466  26.503  1.00  0.00     0.039 A 
ATOM     36  C   UNL A   1      42.742  21.282  25.515  1.00  0.00     0.014 A 
ATOM     37  C   UNL A   1      42.203  20.873  27.838  1.00  0.00     0.014 A 
ATOM     38  C   UNL A   1      43.223  22.548  25.855  1.00  0.00     0.010 A 
ATOM     39  C   UNL A   1      42.600  22.168  28.162  1.00  0.00     0.010 A 
ATOM     40  C   UNL A   1      43.103  23.024  27.171  1.00  0.00    -0.014 A 
BRANCH  40  41
ATOM     41  C   UNL A   1      43.460  24.426  27.511  1.00  0.00     0.031 A 
ATOM     42  C   UNL A   1      44.891  24.885  27.471  1.00  0.00     0.074 A 
ATOM     43  C   UNL A   1      42.494  25.273  27.919  1.00  0.00     0.049 A 
ATOM     44  N   UNL A   1      45.388  26.062  27.756  1.00  0.00    -0.248 NA
ATOM     45  C   UNL A   1      45.898  23.884  27.089  1.00  0.00     0.031 C 
ATOM     46  C   UNL A   1      41.077  24.931  28.071  1.00  0.00     0.029 A 
ATOM     47  N   UNL A   1      42.557  26.594  28.285  1.00  0.00    -0.354 N 
ATOM     48  C   UNL A   1      46.762  25.941  27.596  1.00  0.00     0.074 A 
ATOM     49  C   UNL A   1      47.026  24.561  27.247  1.00  0.00     0.031 C 
ATOM     50  C   UNL A   1      40.401  26.022  28.464  1.00  0.00     0.029 A 
ATOM     51  C   UNL A   1      41.337  27.130  28.624  1.00  0.00     0.049 A 
ATOM     52  H   UNL A   1      43.395  27.109  28.302  1.00  0.00     0.167 HD
ATOM     53  C   UNL A   1      47.716  26.896  27.705  1.00  0.00     0.037 A 
ATOM     54  C   UNL A   1      41.009  28.375  29.017  1.00  0.00     0.037 A 
ATOM     55  C   UNL A   1      47.451  28.273  28.033  1.00  0.00     0.049 A 
ATOM     56  C   UNL A   1      42.084  29.421  29.117  1.00  0.00     0.074 A 
ATOM     57  C   UNL A   1      48.341  29.330  28.102  1.00  0.00     0.029 A 
ATOM     58  N   UNL A   1      46.201  28.782  28.352  1.00  0.00    -0.354 N 
ATOM     59  N   UNL A   1      43.368  29.310  28.880  1.00  0.00    -0.248 NA
ATOM     60  C   UNL A   1      41.660  30.766  29.527  1.00  0.00     0.031 C 
ATOM     61  C   UNL A   1      47.637  30.471  28.503  1.00  0.00     0.029 A 
ATOM     62  C   UNL A   1      46.300  30.134  28.639  1.00  0.00     0.049 A 
ATOM     63  H   UNL A   1      45.366  28.261  28.371  1.00  0.00     0.167 HD
ATOM     64  C   UNL A   1      43.903  30.574  29.094  1.00  0.00     0.074 A 
ATOM     65  C   UNL A   1      42.799  31.440  29.454  1.00  0.00     0.031 C 
ATOM     66  C   UNL A   1      45.193  30.981  29.003  1.00  0.00     0.037 A 
BRANCH  53  67
ATOM     67  C   UNL A   1      49.138  26.483  27.456  1.00  0.00     0.057 A 
ATOM     68  C   UNL A   1      49.687  26.470  26.166  1.00  0.00     0.134 A 
ATOM     69  C   UNL A   1      49.978  26.125  28.518  1.00  0.00     0.134 A 
ATOM     70  F   UNL A   1      48.933  26.790  25.103  1.00  0.00    -0.206 F 
ATOM     71  C   UNL A   1      51.010  26.089  25.938  1.00  0.00     0.040 A 
ATOM     72  C   UNL A   1      51.311  25.769  28.306  1.00  0.00     0.040 A 
ATOM     73  F   UNL A   1      49.520  26.122  29.778  1.00  0.00    -0.206 F 
ATOM     74  C   UNL A   1      51.828  25.744  27.012  1.00  0.00     0.006 A 
ENDBRANCH  53  67
BRANCH  54  75
ATOM     75  C   UNL A   1      39.594  28.713  29.316  1.00  0.00     0.057 A 
ATOM     76  C   UNL A   1      39.075  28.565  30.608  1.00  0.00     0.134 A 
ATOM     77  C   UNL A   1      38.728  29.182  28.321  1.00  0.00     0.134 A 
ATOM     78  F   UNL A   1      39.852  28.103  31.598  1.00  0.00    -0.206 F 
ATOM     79  C   UNL A   1      37.740  28.851  30.896  1.00  0.00     0.040 A 
ATOM     80  C   UNL A   1      37.397  29.495  28.601  1.00  0.00     0.040 A 
ATOM     81  F   UNL A   1      39.166  29.354  27.066  1.00  0.00    -0.206 F 
ATOM     82  C   UNL A   1      36.897  29.322  29.891  1.00  0.00     0.006 A 
ENDBRANCH  54  75
BRANCH  66  83
ATOM     83  C   UNL A   1      45.469  32.430  29.279  1.00  0.00     0.057 A 
ATOM     84  C   UNL A   1      45.408  33.400  28.269  1.00  0.00     0.134 A 
ATOM     85  C   UNL A   1      45.789  32.864  30.571  1.00  0.00     0.134 A 
ATOM     86  F   UNL A   1      45.120  33.048  27.006  1.00  0.00    -0.206 F 
ATOM     87  C   UNL A   1      45.688  34.742  28.528  1.00  0.00     0.040 A 
ATOM     88  C   UNL A   1      46.044  34.208  30.848  1.00  0.00     0.040 A 
ATOM     89  F   UNL A   1      45.856  31.989  31.587  1.00  0.00    -0.206 F 
ATOM     90  C   UNL A   1      46.003  35.150  29.823  1.00  0.00     0.006 A 
ENDBRANCH  66  83
ENDBRANCH  40  41
ENDBRANCH  32  35
ENDBRANCH  30  31
ENDBRANCH  29  30
ENDBRANCH  28  29
ENDBRANCH   1  28
TORSDOF 15
ENDMDL
MODEL 2
REMARK VINA RESULT:     -12.6      0.505      6.099
REMARK SMILES CCc1ncc(C[N@H+]2CCC[C@@H](c3cccc(C(=O)NCCCCNC(=O)c4ccc(-c5c6nc(c(-c7c(F)cccc7F)c7ccc([nH]7)c(-c7c(F)cccc7F)c7nc(c(-c8c(F)cccc8F)c8ccc5[nH]8)C=C7)C=C6)cc4)c3)C2)cn1
REMARK SMILES IDX 21 1 20 2 18 3 19 4 17 6 13 7 14 8 82 9 15 10 16 11 12 12
REMARK SMILES IDX 8 13 9 14 83 15 10 17 11 18 7 19 6 20 3 21 4 22 85 23 5 24
REMARK SMILES IDX 84 25 2 26 1 27 22 28 23 29 24 30 25 31 26 32 27 34 28 35
REMARK SMILES IDX 29 36 81 37 30 38 80 39 31 40 32 41 33 42 74 43 34 44 79 45
REMARK SMILES IDX 73 46 75 47 35 48 78 49 72 50 71 51 36 53 62 54 45 55 61 56
REMARK SMILES IDX 46 57 49 58 60 59 76 60 47 61 48 62 59 64 77 65 50 66 37 67
REMARK SMILES IDX 38 68 43 69 39 70 40 71 42 72 44 73 41 74 63 75 64 76 69 77
REMARK SMILES IDX 65 78 66 79 68 80 70 81 67 82 51 83 52 84 57 85 53 86 54 87
REMARK SMILES IDX 56 88 58 89 55 90
REMARK H PARENT 20 5 8 16 25 33 75 52 49 63
REMARK Flexibility Score: inf
ROOT
ATOM      1  C   UNL A   1      36.849  22.527  25.377  1.00  0.00     0.116 C 
ENDROOT
BRANCH   1   2
ATOM      2  N   UNL A   1      35.942  22.186  26.463  1.00  0.00    -0.352 N 
ATOM      3  C   UNL A   1      34.664  21.658  26.443  1.00  0.00     0.251 C 
ATOM      4  O   UNL A   1      34.100  21.435  27.513  1.00  0.00    -0.269 OA
ATOM      5  H   UNL A   1      36.298  22.362  27.364  1.00  0.00     0.163 HD
BRANCH   3   6
ATOM      6  C   UNL A   1      33.929  21.432  25.170  1.00  0.00     0.040 A 
ATOM      7  C   UNL A   1      32.640  22.346  23.330  1.00  0.00    -0.039 A 
ATOM      8  C   UNL A   1      32.143  21.067  23.052  1.00  0.00     0.004 A 
ATOM      9  C   UNL A   1      33.651  22.472  24.288  1.00  0.00     0.018 A 
ATOM     10  C   UNL A   1      32.569  19.970  23.803  1.00  0.00     0.001 A 
ATOM     11  C   UNL A   1      33.427  20.158  24.890  1.00  0.00     0.014 A 
BRANCH   7  12
ATOM     12  C   UNL A   1      32.088  23.619  22.716  1.00  0.00     0.074 C 
ATOM     13  N   UNL A   1      30.987  25.795  23.206  1.00  0.00    -0.331 N 
ATOM     14  C   UNL A   1      31.961  26.503  22.367  1.00  0.00     0.262 C 
ATOM     15  C   UNL A   1      31.558  24.569  23.789  1.00  0.00     0.270 C 
ATOM     16  H   UNL A   1      30.230  25.507  22.586  1.00  0.00     0.348 HD
ATOM     17  C   UNL A   1      32.477  25.609  21.237  1.00  0.00     0.062 C 
ATOM     18  C   UNL A   1      33.090  24.327  21.790  1.00  0.00     0.020 C 
BRANCH  13  19
ATOM     19  C   UNL A   1      30.354  26.661  24.221  1.00  0.00     0.302 C 
BRANCH  19  20
ATOM     20  C   UNL A   1      29.721  27.914  23.696  1.00  0.00     0.043 A 
ATOM     21  C   UNL A   1      28.436  30.205  23.016  1.00  0.00     0.127 A 
ATOM     22  N   UNL A   1      29.685  30.311  23.509  1.00  0.00    -0.241 NA
ATOM     23  N   UNL A   1      27.797  29.043  22.791  1.00  0.00    -0.241 NA
ATOM     24  C   UNL A   1      30.301  29.156  23.829  1.00  0.00     0.124 A 
ATOM     25  C   UNL A   1      28.462  27.923  23.127  1.00  0.00     0.124 A 
BRANCH  21  26
ATOM     26  C   UNL A   1      27.660  31.472  22.795  1.00  0.00     0.074 C 
ATOM     27  C   UNL A   1      28.304  32.321  21.708  1.00  0.00     0.012 C 
ENDBRANCH  21  26
ENDBRANCH  19  20
ENDBRANCH  13  19
ENDBRANCH   7  12
ENDBRANCH   3   6
ENDBRANCH   1   2
BRANCH   1  28
ATOM     28  C   UNL A   1      37.171  21.399  24.410  1.00  0.00     0.023 C 
BRANCH  28  29
ATOM     29  C   UNL A   1      37.833  20.165  25.001  1.00  0.00     0.023 C 
BRANCH  29  30
ATOM     30  C   UNL A   1      39.110  20.406  25.796  1.00  0.00     0.116 C 
BRANCH  30  31
ATOM     31  N   UNL A   1      40.027  19.275  25.811  1.00  0.00    -0.352 N 
ATOM     32  C   UNL A   1      41.380  19.236  26.069  1.00  0.00     0.251 C 
ATOM     33  H   UNL A   1      39.617  18.405  25.603  1.00  0.00     0.163 HD
ATOM     34  O   UNL A   1      41.992  18.182  25.971  1.00  0.00    -0.269 OA
BRANCH  32  35
ATOM     35  C   UNL A   1      42.104  20.480  26.414  1.00  0.00     0.039 A 
ATOM     36  C   UNL A   1      42.626  21.256  25.376  1.00  0.00     0.014 A 
ATOM     37  C   UNL A   1      42.232  20.904  27.738  1.00  0.00     0.014 A 
ATOM     38  C   UNL A   1      43.184  22.505  25.660  1.00  0.00     0.010 A 
ATOM     39  C   UNL A   1      42.707  22.185  28.011  1.00  0.00     0.010 A 
ATOM     40  C   UNL A   1      43.177  23.004  26.973  1.00  0.00    -0.014 A 
BRANCH  40  41
ATOM     41  C   UNL A   1      43.617  24.393  27.264  1.00  0.00     0.031 A 
ATOM     42  C   UNL A   1      42.627  25.435  27.705  1.00  0.00     0.074 A 
ATOM     43  C   UNL A   1      44.907  24.732  27.070  1.00  0.00     0.049 A 
ATOM     44  N   UNL A   1      42.827  26.699  27.982  1.00  0.00    -0.248 NA
ATOM     45  C   UNL A   1      41.224  25.010  27.822  1.00  0.00     0.031 C 
ATOM     46  C   UNL A   1      45.953  23.833  26.577  1.00  0.00     0.029 A 
ATOM     47  N   UNL A   1      45.559  25.924  27.261  1.00  0.00    -0.354 N 
ATOM     48  C   UNL A   1      41.579  27.219  28.296  1.00  0.00     0.074 A 
ATOM     49  C   UNL A   1      40.619  26.150  28.119  1.00  0.00     0.031 C 
ATOM     50  C   UNL A   1      47.120  24.495  26.537  1.00  0.00     0.029 A 
ATOM     51  C   UNL A   1      46.901  25.871  26.969  1.00  0.00     0.049 A 
ATOM     52  H   UNL A   1      45.108  26.740  27.577  1.00  0.00     0.167 HD
ATOM     53  C   UNL A   1      41.262  28.466  28.719  1.00  0.00     0.037 A 
ATOM     54  C   UNL A   1      47.849  26.824  27.043  1.00  0.00     0.037 A 
ATOM     55  C   UNL A   1      42.219  29.524  28.913  1.00  0.00     0.049 A 
ATOM     56  C   UNL A   1      47.475  28.196  27.528  1.00  0.00     0.074 A 
ATOM     57  C   UNL A   1      42.007  30.801  29.402  1.00  0.00     0.029 A 
ATOM     58  N   UNL A   1      43.572  29.428  28.624  1.00  0.00    -0.354 N 
ATOM     59  N   UNL A   1      46.303  28.649  27.903  1.00  0.00    -0.248 NA
ATOM     60  C   UNL A   1      48.558  29.186  27.611  1.00  0.00     0.031 C 
ATOM     61  C   UNL A   1      43.224  31.492  29.369  1.00  0.00     0.029 A 
ATOM     62  C   UNL A   1      44.204  30.629  28.904  1.00  0.00     0.049 A 
ATOM     63  H   UNL A   1      44.019  28.624  28.273  1.00  0.00     0.167 HD
ATOM     64  C   UNL A   1      46.511  29.969  28.284  1.00  0.00     0.074 A 
ATOM     65  C   UNL A   1      47.925  30.234  28.118  1.00  0.00     0.031 C 
ATOM     66  C   UNL A   1      45.611  30.880  28.728  1.00  0.00     0.037 A 
BRANCH  53  67
ATOM     67  C   UNL A   1      39.816  28.751  29.009  1.00  0.00     0.057 A 
ATOM     68  C   UNL A   1      39.281  28.608  30.297  1.00  0.00     0.134 A 
ATOM     69  C   UNL A   1      38.958  29.203  28.000  1.00  0.00     0.134 A 
ATOM     70  F   UNL A   1      40.047  28.166  31.306  1.00  0.00    -0.206 F 
ATOM     71  C   UNL A   1      37.938  28.876  30.564  1.00  0.00     0.040 A 
ATOM     72  C   UNL A   1      37.619  29.501  28.261  1.00  0.00     0.040 A 
ATOM     73  F   UNL A   1      39.405  29.368  26.747  1.00  0.00    -0.206 F 
ATOM     74  C   UNL A   1      37.104  29.332  29.545  1.00  0.00     0.006 A 
ENDBRANCH  53  67
BRANCH  54  75
ATOM     75  C   UNL A   1      49.254  26.507  26.680  1.00  0.00     0.057 A 
ATOM     76  C   UNL A   1      49.705  26.641  25.362  1.00  0.00     0.134 A 
ATOM     77  C   UNL A   1      50.172  26.055  27.635  1.00  0.00     0.134 A 
ATOM     78  F   UNL A   1      48.866  27.052  24.400  1.00  0.00    -0.206 F 
ATOM     79  C   UNL A   1      51.014  26.318  25.000  1.00  0.00     0.040 A 
ATOM     80  C   UNL A   1      51.491  25.752  27.292  1.00  0.00     0.040 A 
ATOM     81  F   UNL A   1      49.804  25.913  28.916  1.00  0.00    -0.206 F 
ATOM     82  C   UNL A   1      51.913  25.876  25.969  1.00  0.00     0.006 A 
ENDBRANCH  54  75
BRANCH  66  83
ATOM     83  C   UNL A   1      46.139  32.239  29.083  1.00  0.00     0.057 A 
ATOM     84  C   UNL A   1      46.166  33.288  28.153  1.00  0.00     0.134 A 
ATOM     85  C   UNL A   1      46.618  32.506  30.371  1.00  0.00     0.134 A 
ATOM     86  F   UNL A   1      45.734  33.094  26.897  1.00  0.00    -0.206 F 
ATOM     87  C   UNL A   1      46.680  34.543  28.483  1.00  0.00     0.040 A 
ATOM     88  C   UNL A   1      47.109  33.765  30.721  1.00  0.00     0.040 A 
ATOM     89  F   UNL A   1      46.613  31.550  31.312  1.00  0.00    -0.206 F 
ATOM     90  C   UNL A   1      47.149  34.785  29.773  1.00  0.00     0.006 A 
ENDBRANCH  66  83
ENDBRANCH  40  41
ENDBRANCH  32  35
ENDBRANCH  30  31
ENDBRANCH  29  30
ENDBRANCH  28  29
ENDBRANCH   1  28
TORSDOF 15
ENDMDL
MODEL 3
REMARK VINA RESULT:     -12.3      4.823      8.644
REMARK SMILES CCc1ncc(C[N@H+]2CCC[C@@H](c3cccc(C(=O)NCCCCNC(=O)c4ccc(-c5c6nc(c(-c7c(F)cccc7F)c7ccc([nH]7)c(-c7c(F)cccc7F)c7nc(c(-c8c(F)cccc8F)c8ccc5[nH]8)C=C7)C=C6)cc4)c3)C2)cn1
REMARK SMILES IDX 21 1 20 2 18 3 19 4 17 6 13 7 14 8 82 9 15 10 16 11 12 12
REMARK SMILES IDX 8 13 9 14 83 15 10 17 11 18 7 19 6 20 3 21 4 22 85 23 5 24
REMARK SMILES IDX 84 25 2 26 1 27 22 28 23 29 24 30 25 31 26 32 27 34 28 35
REMARK SMILES IDX 29 36 81 37 30 38 80 39 31 40 32 41 33 42 74 43 34 44 79 45
REMARK SMILES IDX 73 46 75 47 35 48 78 49 72 50 71 51 36 53 62 54 45 55 61 56
REMARK SMILES IDX 46 57 49 58 60 59 76 60 47 61 48 62 59 64 77 65 50 66 37 67
REMARK SMILES IDX 38 68 43 69 39 70 40 71 42 72 44 73 41 74 63 75 64 76 69 77
REMARK SMILES IDX 65 78 66 79 68 80 70 81 67 82 51 83 52 84 57 85 53 86 54 87
REMARK SMILES IDX 56 88 58 89 55 90
REMARK H PARENT 20 5 8 16 25 33 75 52 49 63
REMARK Flexibility Score: inf
ROOT
ATOM      1  C   UNL A   1      36.842  21.132  25.369  1.00  0.00     0.116 C 
ENDROOT
BRANCH   1   2
ATOM      2  N   UNL A   1      35.822  21.391  26.375  1.00  0.00    -0.352 N 
ATOM      3  C   UNL A   1      34.445  21.457  26.273  1.00  0.00     0.251 C 
ATOM      4  O   UNL A   1      33.786  21.672  27.288  1.00  0.00    -0.269 OA
ATOM      5  H   UNL A   1      36.173  21.545  27.283  1.00  0.00     0.163 HD
BRANCH   3   6
ATOM      6  C   UNL A   1      33.752  21.358  24.960  1.00  0.00     0.040 A 
ATOM      7  C   UNL A   1      32.519  22.447  23.179  1.00  0.00    -0.039 A 
ATOM      8  C   UNL A   1      32.034  21.203  22.762  1.00  0.00     0.004 A 
ATOM      9  C   UNL A   1      33.499  22.479  24.176  1.00  0.00     0.018 A 
ATOM     10  C   UNL A   1      32.439  20.037  23.414  1.00  0.00     0.001 A 
ATOM     11  C   UNL A   1      33.262  20.117  24.541  1.00  0.00     0.014 A 
BRANCH   7  12
ATOM     12  C   UNL A   1      31.983  23.775  22.675  1.00  0.00     0.074 C 
ATOM     13  N   UNL A   1      30.994  25.953  23.357  1.00  0.00    -0.331 N 
ATOM     14  C   UNL A   1      31.948  26.678  22.509  1.00  0.00     0.262 C 
ATOM     15  C   UNL A   1      31.548  24.673  23.832  1.00  0.00     0.270 C 
ATOM     16  H   UNL A   1      30.194  25.731  22.763  1.00  0.00     0.348 HD
ATOM     17  C   UNL A   1      32.368  25.839  21.299  1.00  0.00     0.062 C 
ATOM     18  C   UNL A   1      32.961  24.505  21.738  1.00  0.00     0.020 C 
BRANCH  13  19
ATOM     19  C   UNL A   1      30.450  26.774  24.456  1.00  0.00     0.302 C 
BRANCH  19  20
ATOM     20  C   UNL A   1      31.452  27.614  25.191  1.00  0.00     0.043 A 
ATOM     21  C   UNL A   1      33.463  28.906  26.473  1.00  0.00     0.127 A 
ATOM     22  N   UNL A   1      33.273  29.184  25.169  1.00  0.00    -0.241 NA
ATOM     23  N   UNL A   1      32.699  28.070  27.198  1.00  0.00    -0.241 NA
ATOM     24  C   UNL A   1      32.261  28.534  24.561  1.00  0.00     0.124 A 
ATOM     25  C   UNL A   1      31.703  27.452  26.539  1.00  0.00     0.124 A 
BRANCH  21  26
ATOM     26  C   UNL A   1      34.674  29.490  27.144  1.00  0.00     0.074 C 
ATOM     27  C   UNL A   1      34.365  30.862  27.725  1.00  0.00     0.012 C 
ENDBRANCH  21  26
ENDBRANCH  19  20
ENDBRANCH  13  19
ENDBRANCH   7  12
ENDBRANCH   3   6
ENDBRANCH   1   2
BRANCH   1  28
ATOM     28  C   UNL A   1      37.281  22.337  24.553  1.00  0.00     0.023 C 
BRANCH  28  29
ATOM     29  C   UNL A   1      37.354  23.666  25.287  1.00  0.00     0.023 C 
BRANCH  29  30
ATOM     30  C   UNL A   1      38.311  23.726  26.470  1.00  0.00     0.116 C 
BRANCH  30  31
ATOM     31  N   UNL A   1      39.719  23.739  26.099  1.00  0.00    -0.352 N 
ATOM     32  C   UNL A   1      40.720  24.620  26.450  1.00  0.00     0.251 C 
ATOM     33  H   UNL A   1      40.000  23.005  25.506  1.00  0.00     0.163 HD
ATOM     34  O   UNL A   1      41.841  24.492  25.980  1.00  0.00    -0.269 OA
BRANCH  32  35
ATOM     35  C   UNL A   1      40.423  25.752  27.356  1.00  0.00     0.039 A 
ATOM     36  C   UNL A   1      39.554  25.537  28.429  1.00  0.00     0.014 A 
ATOM     37  C   UNL A   1      41.023  27.001  27.181  1.00  0.00     0.014 A 
ATOM     38  C   UNL A   1      39.370  26.542  29.381  1.00  0.00     0.010 A 
ATOM     39  C   UNL A   1      40.909  27.968  28.177  1.00  0.00     0.010 A 
ATOM     40  C   UNL A   1      40.090  27.745  29.293  1.00  0.00    -0.014 A 
BRANCH  40  41
ATOM     41  C   UNL A   1      40.028  28.753  30.383  1.00  0.00     0.031 A 
ATOM     42  C   UNL A   1      39.026  29.873  30.335  1.00  0.00     0.074 A 
ATOM     43  C   UNL A   1      40.921  28.694  31.390  1.00  0.00     0.049 A 
ATOM     44  N   UNL A   1      38.842  30.852  31.184  1.00  0.00    -0.248 NA
ATOM     45  C   UNL A   1      38.133  29.916  29.167  1.00  0.00     0.031 C 
ATOM     46  C   UNL A   1      41.990  27.699  31.515  1.00  0.00     0.029 A 
ATOM     47  N   UNL A   1      41.077  29.488  32.498  1.00  0.00    -0.354 N 
ATOM     48  C   UNL A   1      37.823  31.629  30.650  1.00  0.00     0.074 A 
ATOM     49  C   UNL A   1      37.468  31.042  29.376  1.00  0.00     0.031 C 
ATOM     50  C   UNL A   1      42.667  27.922  32.653  1.00  0.00     0.029 A 
ATOM     51  C   UNL A   1      42.105  29.092  33.320  1.00  0.00     0.049 A 
ATOM     52  H   UNL A   1      40.506  30.267  32.686  1.00  0.00     0.167 HD
ATOM     53  C   UNL A   1      37.219  32.718  31.184  1.00  0.00     0.037 A 
ATOM     54  C   UNL A   1      42.543  29.610  34.482  1.00  0.00     0.037 A 
ATOM     55  C   UNL A   1      37.559  33.291  32.460  1.00  0.00     0.049 A 
ATOM     56  C   UNL A   1      41.847  30.811  35.060  1.00  0.00     0.074 A 
ATOM     57  C   UNL A   1      36.961  34.352  33.116  1.00  0.00     0.029 A 
ATOM     58  N   UNL A   1      38.593  32.851  33.272  1.00  0.00    -0.354 N 
ATOM     59  N   UNL A   1      40.828  31.484  34.583  1.00  0.00    -0.248 NA
ATOM     60  C   UNL A   1      42.355  31.315  36.342  1.00  0.00     0.031 C 
ATOM     61  C   UNL A   1      37.660  34.582  34.307  1.00  0.00     0.029 A 
ATOM     62  C   UNL A   1      38.664  33.633  34.414  1.00  0.00     0.049 A 
ATOM     63  H   UNL A   1      39.189  32.094  33.069  1.00  0.00     0.167 HD
ATOM     64  C   UNL A   1      40.561  32.478  35.515  1.00  0.00     0.074 A 
ATOM     65  C   UNL A   1      41.510  32.303  36.596  1.00  0.00     0.031 C 
ATOM     66  C   UNL A   1      39.618  33.451  35.478  1.00  0.00     0.037 A 
BRANCH  53  67
ATOM     67  C   UNL A   1      36.117  33.356  30.386  1.00  0.00     0.057 A 
ATOM     68  C   UNL A   1      34.770  33.219  30.749  1.00  0.00     0.134 A 
ATOM     69  C   UNL A   1      36.406  34.141  29.263  1.00  0.00     0.134 A 
ATOM     70  F   UNL A   1      34.424  32.470  31.808  1.00  0.00    -0.206 F 
ATOM     71  C   UNL A   1      33.749  33.817  30.009  1.00  0.00     0.040 A 
ATOM     72  C   UNL A   1      35.396  34.766  28.531  1.00  0.00     0.040 A 
ATOM     73  F   UNL A   1      37.674  34.318  28.863  1.00  0.00    -0.206 F 
ATOM     74  C   UNL A   1      34.062  34.599  28.899  1.00  0.00     0.006 A 
ENDBRANCH  53  67
BRANCH  54  75
ATOM     75  C   UNL A   1      43.681  28.979  35.198  1.00  0.00     0.057 A 
ATOM     76  C   UNL A   1      43.464  28.011  36.185  1.00  0.00     0.134 A 
ATOM     77  C   UNL A   1      45.007  29.333  34.920  1.00  0.00     0.134 A 
ATOM     78  F   UNL A   1      42.215  27.644  36.508  1.00  0.00    -0.206 F 
ATOM     79  C   UNL A   1      44.522  27.431  36.887  1.00  0.00     0.040 A 
ATOM     80  C   UNL A   1      46.076  28.743  35.596  1.00  0.00     0.040 A 
ATOM     81  F   UNL A   1      45.282  30.248  33.979  1.00  0.00    -0.206 F 
ATOM     82  C   UNL A   1      45.835  27.795  36.589  1.00  0.00     0.006 A 
ENDBRANCH  54  75
BRANCH  66  83
ATOM     83  C   UNL A   1      39.558  34.384  36.652  1.00  0.00     0.057 A 
ATOM     84  C   UNL A   1      38.874  34.048  37.829  1.00  0.00     0.134 A 
ATOM     85  C   UNL A   1      40.199  35.628  36.611  1.00  0.00     0.134 A 
ATOM     86  F   UNL A   1      38.226  32.877  37.928  1.00  0.00    -0.206 F 
ATOM     87  C   UNL A   1      38.803  34.930  38.908  1.00  0.00     0.040 A 
ATOM     88  C   UNL A   1      40.159  36.507  37.695  1.00  0.00     0.040 A 
ATOM     89  F   UNL A   1      40.879  36.008  35.519  1.00  0.00    -0.206 F 
ATOM     90  C   UNL A   1      39.451  36.162  38.844  1.00  0.00     0.006 A 
ENDBRANCH  66  83
ENDBRANCH  40  41
ENDBRANCH  32  35
ENDBRANCH  30  31
ENDBRANCH  29  30
ENDBRANCH  28  29
ENDBRANCH   1  28
TORSDOF 15
ENDMDL
