MODEL 1
REMARK VINA RESULT:     -10.1      0.000      0.000
REMARK SMILES CCCC[N@H+](CC)[C@H]1CCC[C@]([NH3+])(C(=O)NCCCCNC(=O)c2ccc(-c3c4nc(c(-c5c(F)cccc5F)c5ccc([nH]5)c(-c5c(F)cccc5F)c5nc(c(-c6c(F)cccc6F)c6ccc3[nH]6)C=C5)C=C4)cc2)C1
REMARK SMILES IDX 17 1 16 2 14 3 15 4 12 6 8 7 9 8 78 9 10 10 11 11 5 12 4 14
REMARK SMILES IDX 3 15 2 16 1 17 6 18 7 19 13 20 18 24 19 25 20 26 21 27 22 28
REMARK SMILES IDX 23 30 24 31 25 32 77 33 26 34 76 35 27 36 28 37 29 38 70 39
REMARK SMILES IDX 30 40 75 41 69 42 71 43 31 44 74 45 68 46 67 47 32 49 58 50
REMARK SMILES IDX 41 51 57 52 42 53 45 54 56 55 72 56 43 57 44 58 55 60 73 61
REMARK SMILES IDX 46 62 33 63 34 64 39 65 35 66 36 67 38 68 40 69 37 70 59 71
REMARK SMILES IDX 60 72 65 73 61 74 62 75 64 76 66 77 63 78 47 79 48 80 53 81
REMARK SMILES IDX 49 82 50 83 52 84 54 85 51 86
REMARK H PARENT 16 5 5 13 13 21 13 22 13 23 21 29 71 48 45 59
REMARK Flexibility Score: inf
ROOT
ATOM      1  C   UNL A   1      35.301  20.736  25.329  1.00  0.00     0.116 C 
ENDROOT
BRANCH   1   2
ATOM      2  N   UNL A   1      34.224  21.148  24.453  1.00  0.00    -0.351 N 
ATOM      3  C   UNL A   1      33.207  22.042  24.598  1.00  0.00     0.281 C 
ATOM      4  O   UNL A   1      32.458  22.153  23.620  1.00  0.00    -0.268 OA
ATOM      5  H   UNL A   1      34.227  20.692  23.580  1.00  0.00     0.163 HD
BRANCH   3   6
ATOM      6  C   UNL A   1      33.046  22.950  25.866  1.00  0.00     0.179 C 
ATOM      7  C   UNL A   1      32.687  25.195  24.662  1.00  0.00     0.190 C 
ATOM      8  C   UNL A   1      34.091  25.660  25.105  1.00  0.00     0.065 C 
ATOM      9  C   UNL A   1      32.130  24.173  25.681  1.00  0.00     0.144 C 
ATOM     10  C   UNL A   1      35.035  24.490  25.376  1.00  0.00     0.013 C 
ATOM     11  C   UNL A   1      34.432  23.461  26.331  1.00  0.00     0.079 C 
BRANCH   7  12
ATOM     12  N   UNL A   1      31.713  26.269  24.376  1.00  0.00    -0.333 N 
ATOM     13  H   UNL A   1      31.442  25.955  23.444  1.00  0.00     0.348 HD
BRANCH  12  14
ATOM     14  C   UNL A   1      32.276  27.612  24.204  1.00  0.00     0.262 C 
BRANCH  14  15
ATOM     15  C   UNL A   1      31.547  28.651  25.067  1.00  0.00     0.061 C 
BRANCH  15  16
ATOM     16  C   UNL A   1      32.454  29.571  25.892  1.00  0.00     0.002 C 
ATOM     17  C   UNL A   1      33.341  28.827  26.881  1.00  0.00     0.004 C 
ENDBRANCH  15  16
ENDBRANCH  14  15
ENDBRANCH  12  14
BRANCH  12  18
ATOM     18  C   UNL A   1      30.414  26.257  25.050  1.00  0.00     0.258 C 
ATOM     19  C   UNL A   1      29.181  26.252  24.158  1.00  0.00     0.071 C 
ENDBRANCH  12  18
ENDBRANCH   7  12
BRANCH   6  20
ATOM     20  N   UNL A   1      32.532  22.097  26.971  1.00  0.00    -0.345 N 
ATOM     21  H   UNL A   1      33.244  21.416  27.235  1.00  0.00     0.345 HD
ATOM     22  H   UNL A   1      31.692  21.607  26.661  1.00  0.00     0.345 HD
ATOM     23  H   UNL A   1      32.306  22.681  27.776  1.00  0.00     0.345 HD
ENDBRANCH   6  20
ENDBRANCH   3   6
ENDBRANCH   1   2
BRANCH   1  24
ATOM     24  C   UNL A   1      36.672  20.984  24.700  1.00  0.00     0.023 C 
BRANCH  24  25
ATOM     25  C   UNL A   1      37.710  19.892  24.973  1.00  0.00     0.023 C 
BRANCH  25  26
ATOM     26  C   UNL A   1      38.943  20.340  25.748  1.00  0.00     0.116 C 
BRANCH  26  27
ATOM     27  N   UNL A   1      39.997  19.340  25.782  1.00  0.00    -0.352 N 
ATOM     28  C   UNL A   1      41.320  19.489  26.126  1.00  0.00     0.251 C 
ATOM     29  H   UNL A   1      39.727  18.429  25.523  1.00  0.00     0.163 HD
ATOM     30  O   UNL A   1      42.102  18.558  26.001  1.00  0.00    -0.269 OA
BRANCH  28  31
ATOM     31  C   UNL A   1      41.799  20.801  26.611  1.00  0.00     0.039 A 
ATOM     32  C   UNL A   1      42.270  21.728  25.677  1.00  0.00     0.014 A 
ATOM     33  C   UNL A   1      41.760  21.124  27.970  1.00  0.00     0.014 A 
ATOM     34  C   UNL A   1      42.639  23.007  26.100  1.00  0.00     0.010 A 
ATOM     35  C   UNL A   1      42.064  22.419  28.380  1.00  0.00     0.010 A 
ATOM     36  C   UNL A   1      42.503  23.373  27.450  1.00  0.00    -0.014 A 
BRANCH  36  37
ATOM     37  C   UNL A   1      42.806  24.753  27.904  1.00  0.00     0.031 A 
ATOM     38  C   UNL A   1      44.224  25.158  28.192  1.00  0.00     0.074 A 
ATOM     39  C   UNL A   1      41.798  25.620  28.121  1.00  0.00     0.049 A 
ATOM     40  N   UNL A   1      44.680  26.288  28.670  1.00  0.00    -0.248 NA
ATOM     41  C   UNL A   1      45.266  24.151  27.933  1.00  0.00     0.031 C 
ATOM     42  C   UNL A   1      40.375  25.332  27.925  1.00  0.00     0.029 A 
ATOM     43  N   UNL A   1      41.814  26.918  28.567  1.00  0.00    -0.354 N 
ATOM     44  C   UNL A   1      46.055  26.125  28.779  1.00  0.00     0.074 A 
ATOM     45  C   UNL A   1      46.354  24.770  28.368  1.00  0.00     0.031 C 
ATOM     46  C   UNL A   1      39.658  26.424  28.234  1.00  0.00     0.029 A 
ATOM     47  C   UNL A   1      40.564  27.478  28.682  1.00  0.00     0.049 A 
ATOM     48  H   UNL A   1      42.643  27.402  28.785  1.00  0.00     0.167 HD
ATOM     49  C   UNL A   1      46.986  27.029  29.162  1.00  0.00     0.037 A 
ATOM     50  C   UNL A   1      40.191  28.699  29.109  1.00  0.00     0.037 A 
ATOM     51  C   UNL A   1      46.690  28.384  29.549  1.00  0.00     0.049 A 
ATOM     52  C   UNL A   1      41.245  29.683  29.533  1.00  0.00     0.074 A 
ATOM     53  C   UNL A   1      47.569  29.390  29.906  1.00  0.00     0.029 A 
ATOM     54  N   UNL A   1      45.414  28.921  29.626  1.00  0.00    -0.354 N 
ATOM     55  N   UNL A   1      42.548  29.534  29.570  1.00  0.00    -0.248 NA
ATOM     56  C   UNL A   1      40.780  31.008  29.969  1.00  0.00     0.031 C 
ATOM     57  C   UNL A   1      46.824  30.527  30.235  1.00  0.00     0.029 A 
ATOM     58  C   UNL A   1      45.482  30.241  30.040  1.00  0.00     0.049 A 
ATOM     59  H   UNL A   1      44.583  28.436  29.417  1.00  0.00     0.167 HD
ATOM     60  C   UNL A   1      43.057  30.751  30.004  1.00  0.00     0.074 A 
ATOM     61  C   UNL A   1      41.925  31.632  30.203  1.00  0.00     0.031 C 
ATOM     62  C   UNL A   1      44.347  31.108  30.219  1.00  0.00     0.037 A 
BRANCH  49  63
ATOM     63  C   UNL A   1      48.420  26.586  29.174  1.00  0.00     0.057 A 
ATOM     64  C   UNL A   1      49.262  26.792  28.073  1.00  0.00     0.134 A 
ATOM     65  C   UNL A   1      48.977  25.985  30.309  1.00  0.00     0.134 A 
ATOM     66  F   UNL A   1      48.787  27.350  26.949  1.00  0.00    -0.206 F 
ATOM     67  C   UNL A   1      50.601  26.398  28.093  1.00  0.00     0.040 A 
ATOM     68  C   UNL A   1      50.321  25.611  30.351  1.00  0.00     0.040 A 
ATOM     69  F   UNL A   1      48.228  25.763  31.400  1.00  0.00    -0.206 F 
ATOM     70  C   UNL A   1      51.136  25.813  29.239  1.00  0.00     0.006 A 
ENDBRANCH  49  63
BRANCH  50  71
ATOM     71  C   UNL A   1      38.754  29.072  29.143  1.00  0.00     0.057 A 
ATOM     72  C   UNL A   1      38.108  29.561  28.002  1.00  0.00     0.134 A 
ATOM     73  C   UNL A   1      38.000  28.969  30.318  1.00  0.00     0.134 A 
ATOM     74  F   UNL A   1      38.783  29.700  26.851  1.00  0.00    -0.206 F 
ATOM     75  C   UNL A   1      36.771  29.961  28.033  1.00  0.00     0.040 A 
ATOM     76  C   UNL A   1      36.654  29.339  30.356  1.00  0.00     0.040 A 
ATOM     77  F   UNL A   1      38.558  28.499  31.443  1.00  0.00    -0.206 F 
ATOM     78  C   UNL A   1      36.039  29.846  29.214  1.00  0.00     0.006 A 
ENDBRANCH  50  71
BRANCH  62  79
ATOM     79  C   UNL A   1      44.605  32.519  30.656  1.00  0.00     0.057 A 
ATOM     80  C   UNL A   1      44.786  33.558  29.735  1.00  0.00     0.134 A 
ATOM     81  C   UNL A   1      44.634  32.848  32.018  1.00  0.00     0.134 A 
ATOM     82  F   UNL A   1      44.782  33.307  28.417  1.00  0.00    -0.206 F 
ATOM     83  C   UNL A   1      45.008  34.871  30.153  1.00  0.00     0.040 A 
ATOM     84  C   UNL A   1      44.829  34.161  32.448  1.00  0.00     0.040 A 
ATOM     85  F   UNL A   1      44.458  31.900  32.952  1.00  0.00    -0.206 F 
ATOM     86  C   UNL A   1      45.024  35.176  31.513  1.00  0.00     0.006 A 
ENDBRANCH  62  79
ENDBRANCH  36  37
ENDBRANCH  28  31
ENDBRANCH  26  27
ENDBRANCH  25  26
ENDBRANCH  24  25
ENDBRANCH   1  24
TORSDOF 17
ENDMDL
MODEL 2
REMARK VINA RESULT:     -10.1      1.005      6.349
REMARK SMILES CCCC[N@H+](CC)[C@H]1CCC[C@]([NH3+])(C(=O)NCCCCNC(=O)c2ccc(-c3c4nc(c(-c5c(F)cccc5F)c5ccc([nH]5)c(-c5c(F)cccc5F)c5nc(c(-c6c(F)cccc6F)c6ccc3[nH]6)C=C5)C=C4)cc2)C1
REMARK SMILES IDX 17 1 16 2 14 3 15 4 12 6 8 7 9 8 78 9 10 10 11 11 5 12 4 14
REMARK SMILES IDX 3 15 2 16 1 17 6 18 7 19 13 20 18 24 19 25 20 26 21 27 22 28
REMARK SMILES IDX 23 30 24 31 25 32 77 33 26 34 76 35 27 36 28 37 29 38 70 39
REMARK SMILES IDX 30 40 75 41 69 42 71 43 31 44 74 45 68 46 67 47 32 49 58 50
REMARK SMILES IDX 41 51 57 52 42 53 45 54 56 55 72 56 43 57 44 58 55 60 73 61
REMARK SMILES IDX 46 62 33 63 34 64 39 65 35 66 36 67 38 68 40 69 37 70 59 71
REMARK SMILES IDX 60 72 65 73 61 74 62 75 64 76 66 77 63 78 47 79 48 80 53 81
REMARK SMILES IDX 49 82 50 83 52 84 54 85 51 86
REMARK H PARENT 16 5 5 13 13 21 13 22 13 23 21 29 71 48 45 59
REMARK Flexibility Score: inf
ROOT
ATOM      1  C   UNL A   1      35.305  20.648  25.270  1.00  0.00     0.116 C 
ENDROOT
BRANCH   1   2
ATOM      2  N   UNL A   1      34.322  21.199  24.361  1.00  0.00    -0.351 N 
ATOM      3  C   UNL A   1      33.326  22.114  24.522  1.00  0.00     0.281 C 
ATOM      4  O   UNL A   1      32.669  22.364  23.505  1.00  0.00    -0.268 OA
ATOM      5  H   UNL A   1      34.387  20.843  23.445  1.00  0.00     0.163 HD
BRANCH   3   6
ATOM      6  C   UNL A   1      33.084  22.882  25.868  1.00  0.00     0.179 C 
ATOM      7  C   UNL A   1      32.753  25.237  24.889  1.00  0.00     0.190 C 
ATOM      8  C   UNL A   1      34.124  25.668  25.453  1.00  0.00     0.065 C 
ATOM      9  C   UNL A   1      32.160  24.107  25.764  1.00  0.00     0.144 C 
ATOM     10  C   UNL A   1      35.071  24.485  25.649  1.00  0.00     0.013 C 
ATOM     11  C   UNL A   1      34.436  23.355  26.457  1.00  0.00     0.079 C 
BRANCH   7  12
ATOM     12  N   UNL A   1      31.777  26.325  24.665  1.00  0.00    -0.333 N 
ATOM     13  H   UNL A   1      32.433  27.104  24.726  1.00  0.00     0.348 HD
BRANCH  12  14
ATOM     14  C   UNL A   1      30.798  26.534  25.737  1.00  0.00     0.262 C 
BRANCH  14  15
ATOM     15  C   UNL A   1      31.354  27.433  26.850  1.00  0.00     0.061 C 
BRANCH  15  16
ATOM     16  C   UNL A   1      32.121  28.671  26.373  1.00  0.00     0.002 C 
ATOM     17  C   UNL A   1      33.421  28.913  27.129  1.00  0.00     0.004 C 
ENDBRANCH  15  16
ENDBRANCH  14  15
ENDBRANCH  12  14
BRANCH  12  18
ATOM     18  C   UNL A   1      31.235  26.537  23.323  1.00  0.00     0.258 C 
ATOM     19  C   UNL A   1      30.508  27.852  23.079  1.00  0.00     0.071 C 
ENDBRANCH  12  18
ENDBRANCH   7  12
BRANCH   6  20
ATOM     20  N   UNL A   1      32.527  21.911  26.849  1.00  0.00    -0.345 N 
ATOM     21  H   UNL A   1      32.923  20.987  26.676  1.00  0.00     0.345 HD
ATOM     22  H   UNL A   1      31.513  21.870  26.748  1.00  0.00     0.345 HD
ATOM     23  H   UNL A   1      32.763  22.209  27.795  1.00  0.00     0.345 HD
ENDBRANCH   6  20
ENDBRANCH   3   6
ENDBRANCH   1   2
BRANCH   1  24
ATOM     24  C   UNL A   1      36.722  21.099  24.918  1.00  0.00     0.023 C 
BRANCH  24  25
ATOM     25  C   UNL A   1      37.780  19.994  24.977  1.00  0.00     0.023 C 
BRANCH  25  26
ATOM     26  C   UNL A   1      39.061  20.354  25.722  1.00  0.00     0.116 C 
BRANCH  26  27
ATOM     27  N   UNL A   1      40.027  19.268  25.762  1.00  0.00    -0.352 N 
ATOM     28  C   UNL A   1      41.367  19.316  26.065  1.00  0.00     0.251 C 
ATOM     29  H   UNL A   1      39.673  18.376  25.542  1.00  0.00     0.163 HD
ATOM     30  O   UNL A   1      42.064  18.318  25.952  1.00  0.00    -0.269 OA
BRANCH  28  31
ATOM     31  C   UNL A   1      41.970  20.597  26.490  1.00  0.00     0.039 A 
ATOM     32  C   UNL A   1      42.442  21.473  25.508  1.00  0.00     0.014 A 
ATOM     33  C   UNL A   1      42.046  20.944  27.841  1.00  0.00     0.014 A 
ATOM     34  C   UNL A   1      42.928  22.728  25.880  1.00  0.00     0.010 A 
ATOM     35  C   UNL A   1      42.467  22.220  28.204  1.00  0.00     0.010 A 
ATOM     36  C   UNL A   1      42.909  23.125  27.227  1.00  0.00    -0.014 A 
BRANCH  36  37
ATOM     37  C   UNL A   1      43.339  24.487  27.632  1.00  0.00     0.031 A 
ATOM     38  C   UNL A   1      42.315  25.526  27.991  1.00  0.00     0.074 A 
ATOM     39  C   UNL A   1      44.648  24.805  27.613  1.00  0.00     0.049 A 
ATOM     40  N   UNL A   1      42.489  26.788  28.293  1.00  0.00    -0.248 NA
ATOM     41  C   UNL A   1      40.907  25.099  27.983  1.00  0.00     0.031 C 
ATOM     42  C   UNL A   1      45.736  23.898  27.237  1.00  0.00     0.029 A 
ATOM     43  N   UNL A   1      45.286  25.984  27.905  1.00  0.00    -0.354 N 
ATOM     44  C   UNL A   1      41.217  27.306  28.500  1.00  0.00     0.074 A 
ATOM     45  C   UNL A   1      40.277  26.237  28.237  1.00  0.00     0.031 C 
ATOM     46  C   UNL A   1      46.906  24.549  27.337  1.00  0.00     0.029 A 
ATOM     47  C   UNL A   1      46.651  25.926  27.749  1.00  0.00     0.049 A 
ATOM     48  H   UNL A   1      44.812  26.795  28.198  1.00  0.00     0.167 HD
ATOM     49  C   UNL A   1      40.865  28.551  28.896  1.00  0.00     0.037 A 
ATOM     50  C   UNL A   1      47.588  26.879  27.911  1.00  0.00     0.037 A 
ATOM     51  C   UNL A   1      41.802  29.607  29.180  1.00  0.00     0.049 A 
ATOM     52  C   UNL A   1      47.170  28.255  28.348  1.00  0.00     0.074 A 
ATOM     53  C   UNL A   1      41.546  30.887  29.635  1.00  0.00     0.029 A 
ATOM     54  N   UNL A   1      43.177  29.500  29.036  1.00  0.00    -0.354 N 
ATOM     55  N   UNL A   1      45.967  28.712  28.601  1.00  0.00    -0.248 NA
ATOM     56  C   UNL A   1      48.239  29.248  28.530  1.00  0.00     0.031 C 
ATOM     57  C   UNL A   1      42.763  31.570  29.733  1.00  0.00     0.029 A 
ATOM     58  C   UNL A   1      43.781  30.699  29.379  1.00  0.00     0.049 A 
ATOM     59  H   UNL A   1      43.654  28.693  28.734  1.00  0.00     0.167 HD
ATOM     60  C   UNL A   1      46.137  30.032  28.998  1.00  0.00     0.074 A 
ATOM     61  C   UNL A   1      47.560  30.298  28.967  1.00  0.00     0.031 C 
ATOM     62  C   UNL A   1      45.200  30.943  29.356  1.00  0.00     0.037 A 
BRANCH  49  63
ATOM     63  C   UNL A   1      39.401  28.839  29.058  1.00  0.00     0.057 A 
ATOM     64  C   UNL A   1      38.750  28.670  30.288  1.00  0.00     0.134 A 
ATOM     65  C   UNL A   1      38.643  29.330  27.989  1.00  0.00     0.134 A 
ATOM     66  F   UNL A   1      39.416  28.191  31.350  1.00  0.00    -0.206 F 
ATOM     67  C   UNL A   1      37.394  28.959  30.442  1.00  0.00     0.040 A 
ATOM     68  C   UNL A   1      37.292  29.648  28.137  1.00  0.00     0.040 A 
ATOM     69  F   UNL A   1      39.206  29.520  26.785  1.00  0.00    -0.206 F 
ATOM     70  C   UNL A   1      36.662  29.458  29.366  1.00  0.00     0.006 A 
ENDBRANCH  49  63
BRANCH  50  71
ATOM     71  C   UNL A   1      49.021  26.565  27.675  1.00  0.00     0.057 A 
ATOM     72  C   UNL A   1      49.594  26.717  26.408  1.00  0.00     0.134 A 
ATOM     73  C   UNL A   1      49.843  26.085  28.702  1.00  0.00     0.134 A 
ATOM     74  F   UNL A   1      48.852  27.155  25.379  1.00  0.00    -0.206 F 
ATOM     75  C   UNL A   1      50.926  26.380  26.162  1.00  0.00     0.040 A 
ATOM     76  C   UNL A   1      51.183  25.770  28.476  1.00  0.00     0.040 A 
ATOM     77  F   UNL A   1      49.356  25.925  29.941  1.00  0.00    -0.206 F 
ATOM     78  C   UNL A   1      51.726  25.907  27.201  1.00  0.00     0.006 A 
ENDBRANCH  50  71
BRANCH  62  79
ATOM     79  C   UNL A   1      45.685  32.297  29.779  1.00  0.00     0.057 A 
ATOM     80  C   UNL A   1      45.839  33.347  28.866  1.00  0.00     0.134 A 
ATOM     81  C   UNL A   1      45.965  32.564  31.126  1.00  0.00     0.134 A 
ATOM     82  F   UNL A   1      45.599  33.154  27.560  1.00  0.00    -0.206 F 
ATOM     83  C   UNL A   1      46.274  34.609  29.274  1.00  0.00     0.040 A 
ATOM     84  C   UNL A   1      46.375  33.828  31.550  1.00  0.00     0.040 A 
ATOM     85  F   UNL A   1      45.829  31.603  32.053  1.00  0.00    -0.206 F 
ATOM     86  C   UNL A   1      46.538  34.854  30.620  1.00  0.00     0.006 A 
ENDBRANCH  62  79
ENDBRANCH  36  37
ENDBRANCH  28  31
ENDBRANCH  26  27
ENDBRANCH  25  26
ENDBRANCH  24  25
ENDBRANCH   1  24
TORSDOF 17
ENDMDL
MODEL 3
REMARK VINA RESULT:     -10.0      4.678     10.213
REMARK SMILES CCCC[N@H+](CC)[C@H]1CCC[C@]([NH3+])(C(=O)NCCCCNC(=O)c2ccc(-c3c4nc(c(-c5c(F)cccc5F)c5ccc([nH]5)c(-c5c(F)cccc5F)c5nc(c(-c6c(F)cccc6F)c6ccc3[nH]6)C=C5)C=C4)cc2)C1
REMARK SMILES IDX 17 1 16 2 14 3 15 4 12 6 8 7 9 8 78 9 10 10 11 11 5 12 4 14
REMARK SMILES IDX 3 15 2 16 1 17 6 18 7 19 13 20 18 24 19 25 20 26 21 27 22 28
REMARK SMILES IDX 23 30 24 31 25 32 77 33 26 34 76 35 27 36 28 37 29 38 70 39
REMARK SMILES IDX 30 40 75 41 69 42 71 43 31 44 74 45 68 46 67 47 32 49 58 50
REMARK SMILES IDX 41 51 57 52 42 53 45 54 56 55 72 56 43 57 44 58 55 60 73 61
REMARK SMILES IDX 46 62 33 63 34 64 39 65 35 66 36 67 38 68 40 69 37 70 59 71
REMARK SMILES IDX 60 72 65 73 61 74 62 75 64 76 66 77 63 78 47 79 48 80 53 81
REMARK SMILES IDX 49 82 50 83 52 84 54 85 51 86
REMARK H PARENT 16 5 5 13 13 21 13 22 13 23 21 29 71 48 45 59
REMARK Flexibility Score: inf
ROOT
ATOM      1  C   UNL A   1      33.235  35.297  30.311  1.00  0.00     0.116 C 
ENDROOT
BRANCH   1   2
ATOM      2  N   UNL A   1      34.302  35.711  31.198  1.00  0.00    -0.351 N 
ATOM      3  C   UNL A   1      34.802  35.182  32.349  1.00  0.00     0.281 C 
ATOM      4  O   UNL A   1      35.744  35.805  32.851  1.00  0.00    -0.268 OA
ATOM      5  H   UNL A   1      34.754  36.538  30.915  1.00  0.00     0.163 HD
BRANCH   3   6
ATOM      6  C   UNL A   1      34.301  33.822  32.950  1.00  0.00     0.179 C 
ATOM      7  C   UNL A   1      36.532  33.019  33.947  1.00  0.00     0.190 C 
ATOM      8  C   UNL A   1      36.636  31.938  32.849  1.00  0.00     0.065 C 
ATOM      9  C   UNL A   1      35.045  33.353  34.212  1.00  0.00     0.144 C 
ATOM     10  C   UNL A   1      35.859  32.310  31.589  1.00  0.00     0.013 C 
ATOM     11  C   UNL A   1      34.412  32.701  31.887  1.00  0.00     0.079 C 
BRANCH   7  12
ATOM     12  N   UNL A   1      37.262  32.738  35.201  1.00  0.00    -0.333 N 
ATOM     13  H   UNL A   1      36.575  32.107  35.614  1.00  0.00     0.348 HD
BRANCH  12  14
ATOM     14  C   UNL A   1      37.389  33.865  36.131  1.00  0.00     0.262 C 
BRANCH  14  15
ATOM     15  C   UNL A   1      38.848  34.315  36.286  1.00  0.00     0.061 C 
BRANCH  15  16
ATOM     16  C   UNL A   1      39.288  34.633  37.720  1.00  0.00     0.002 C 
ATOM     17  C   UNL A   1      39.632  36.101  37.940  1.00  0.00     0.004 C 
ENDBRANCH  15  16
ENDBRANCH  14  15
ENDBRANCH  12  14
BRANCH  12  18
ATOM     18  C   UNL A   1      38.438  31.868  35.167  1.00  0.00     0.258 C 
ATOM     19  C   UNL A   1      38.424  30.664  36.099  1.00  0.00     0.071 C 
ENDBRANCH  12  18
ENDBRANCH   7  12
BRANCH   6  20
ATOM     20  N   UNL A   1      32.848  33.966  33.243  1.00  0.00    -0.345 N 
ATOM     21  H   UNL A   1      32.427  34.605  32.570  1.00  0.00     0.345 HD
ATOM     22  H   UNL A   1      32.727  34.336  34.186  1.00  0.00     0.345 HD
ATOM     23  H   UNL A   1      32.396  33.054  33.175  1.00  0.00     0.345 HD
ENDBRANCH   6  20
ENDBRANCH   3   6
ENDBRANCH   1   2
BRANCH   1  24
ATOM     24  C   UNL A   1      33.768  34.870  28.943  1.00  0.00     0.023 C 
BRANCH  24  25
ATOM     25  C   UNL A   1      35.261  34.533  28.912  1.00  0.00     0.023 C 
BRANCH  25  26
ATOM     26  C   UNL A   1      35.649  33.357  28.023  1.00  0.00     0.116 C 
BRANCH  26  27
ATOM     27  N   UNL A   1      34.563  32.414  27.809  1.00  0.00    -0.352 N 
ATOM     28  C   UNL A   1      34.583  31.042  27.883  1.00  0.00     0.251 C 
ATOM     29  H   UNL A   1      33.692  32.814  27.581  1.00  0.00     0.163 HD
ATOM     30  O   UNL A   1      33.598  30.389  27.572  1.00  0.00    -0.269 OA
BRANCH  28  31
ATOM     31  C   UNL A   1      35.825  30.357  28.303  1.00  0.00     0.039 A 
ATOM     32  C   UNL A   1      36.934  30.403  27.455  1.00  0.00     0.014 A 
ATOM     33  C   UNL A   1      35.902  29.697  29.533  1.00  0.00     0.014 A 
ATOM     34  C   UNL A   1      38.145  29.845  27.872  1.00  0.00     0.010 A 
ATOM     35  C   UNL A   1      37.125  29.202  29.975  1.00  0.00     0.010 A 
ATOM     36  C   UNL A   1      38.259  29.274  29.151  1.00  0.00    -0.014 A 
BRANCH  36  37
ATOM     37  C   UNL A   1      39.558  28.754  29.646  1.00  0.00     0.031 A 
ATOM     38  C   UNL A   1      40.275  29.458  30.763  1.00  0.00     0.074 A 
ATOM     39  C   UNL A   1      40.122  27.688  29.045  1.00  0.00     0.049 A 
ATOM     40  N   UNL A   1      41.451  29.204  31.279  1.00  0.00    -0.248 NA
ATOM     41  C   UNL A   1      39.593  30.616  31.362  1.00  0.00     0.031 C 
ATOM     42  C   UNL A   1      39.548  26.948  27.919  1.00  0.00     0.029 A 
ATOM     43  N   UNL A   1      41.312  27.050  29.289  1.00  0.00    -0.354 N 
ATOM     44  C   UNL A   1      41.653  30.174  32.253  1.00  0.00     0.074 A 
ATOM     45  C   UNL A   1      40.504  31.053  32.220  1.00  0.00     0.031 C 
ATOM     46  C   UNL A   1      40.378  25.948  27.581  1.00  0.00     0.029 A 
ATOM     47  C   UNL A   1      41.557  25.996  28.441  1.00  0.00     0.049 A 
ATOM     48  H   UNL A   1      41.931  27.321  30.004  1.00  0.00     0.167 HD
ATOM     49  C   UNL A   1      42.690  30.305  33.113  1.00  0.00     0.037 A 
ATOM     50  C   UNL A   1      42.616  25.170  28.361  1.00  0.00     0.037 A 
ATOM     51  C   UNL A   1      43.822  29.417  33.160  1.00  0.00     0.049 A 
ATOM     52  C   UNL A   1      43.757  25.340  29.325  1.00  0.00     0.074 A 
ATOM     53  C   UNL A   1      44.899  29.438  34.028  1.00  0.00     0.029 A 
ATOM     54  N   UNL A   1      44.020  28.346  32.303  1.00  0.00    -0.354 N 
ATOM     55  N   UNL A   1      43.904  26.224  30.283  1.00  0.00    -0.248 NA
ATOM     56  C   UNL A   1      44.876  24.395  29.204  1.00  0.00     0.031 C 
ATOM     57  C   UNL A   1      45.768  28.402  33.673  1.00  0.00     0.029 A 
ATOM     58  C   UNL A   1      45.210  27.708  32.611  1.00  0.00     0.049 A 
ATOM     59  H   UNL A   1      43.406  28.078  31.581  1.00  0.00     0.167 HD
ATOM     60  C   UNL A   1      45.115  25.924  30.893  1.00  0.00     0.074 A 
ATOM     61  C   UNL A   1      45.654  24.768  30.209  1.00  0.00     0.031 C 
ATOM     62  C   UNL A   1      45.726  26.550  31.929  1.00  0.00     0.037 A 
BRANCH  49  63
ATOM     63  C   UNL A   1      42.645  31.450  34.083  1.00  0.00     0.057 A 
ATOM     64  C   UNL A   1      43.075  32.735  33.724  1.00  0.00     0.134 A 
ATOM     65  C   UNL A   1      42.131  31.278  35.373  1.00  0.00     0.134 A 
ATOM     66  F   UNL A   1      43.591  32.964  32.507  1.00  0.00    -0.206 F 
ATOM     67  C   UNL A   1      43.012  33.803  34.620  1.00  0.00     0.040 A 
ATOM     68  C   UNL A   1      42.038  32.344  36.270  1.00  0.00     0.040 A 
ATOM     69  F   UNL A   1      41.697  30.074  35.779  1.00  0.00    -0.206 F 
ATOM     70  C   UNL A   1      42.484  33.610  35.896  1.00  0.00     0.006 A 
ENDBRANCH  49  63
BRANCH  50  71
ATOM     71  C   UNL A   1      42.647  24.091  27.340  1.00  0.00     0.057 A 
ATOM     72  C   UNL A   1      43.139  24.330  26.052  1.00  0.00     0.134 A 
ATOM     73  C   UNL A   1      42.165  22.807  27.618  1.00  0.00     0.134 A 
ATOM     74  F   UNL A   1      43.596  25.547  25.719  1.00  0.00    -0.206 F 
ATOM     75  C   UNL A   1      43.128  23.340  25.068  1.00  0.00     0.040 A 
ATOM     76  C   UNL A   1      42.173  21.799  26.653  1.00  0.00     0.040 A 
ATOM     77  F   UNL A   1      41.687  22.511  28.836  1.00  0.00    -0.206 F 
ATOM     78  C   UNL A   1      42.646  22.067  25.370  1.00  0.00     0.006 A 
ENDBRANCH  50  71
BRANCH  62  79
ATOM     79  C   UNL A   1      47.025  25.975  32.409  1.00  0.00     0.057 A 
ATOM     80  C   UNL A   1      48.249  26.320  31.823  1.00  0.00     0.134 A 
ATOM     81  C   UNL A   1      47.054  25.092  33.497  1.00  0.00     0.134 A 
ATOM     82  F   UNL A   1      48.288  27.150  30.770  1.00  0.00    -0.206 F 
ATOM     83  C   UNL A   1      49.453  25.792  32.289  1.00  0.00     0.040 A 
ATOM     84  C   UNL A   1      48.254  24.578  33.989  1.00  0.00     0.040 A 
ATOM     85  F   UNL A   1      45.916  24.728  34.109  1.00  0.00    -0.206 F 
ATOM     86  C   UNL A   1      49.459  24.923  33.379  1.00  0.00     0.006 A 
ENDBRANCH  62  79
ENDBRANCH  36  37
ENDBRANCH  28  31
ENDBRANCH  26  27
ENDBRANCH  25  26
ENDBRANCH  24  25
ENDBRANCH   1  24
TORSDOF 17
ENDMDL
