MODEL 1
REMARK VINA RESULT:     -13.4      0.000      0.000
REMARK SMILES Cc1cc(C(=O)NCCCCNC(=O)c2ccc(-c3c4nc(c(-c5c(F)cccc5F)c5ccc([nH]5)c(-c5c(F)cccc5F)c5nc(c(-c6c(F)cccc6F)c6ccc3[nH]6)C=C5)C=C4)cc2)ccc1NC(=O)N1C[C@@H](C)[C@H](C)C1
REMARK SMILES IDX 10 1 9 2 8 3 7 4 5 5 6 6 4 8 1 9 2 10 3 11 71 12 70 13 69 14
REMARK SMILES IDX 72 15 73 16 74 18 75 19 76 20 81 21 77 22 79 23 78 24 80 25
REMARK SMILES IDX 11 26 12 27 13 28 14 30 15 31 16 32 68 33 17 34 67 35 18 36
REMARK SMILES IDX 19 37 20 38 61 39 21 40 66 41 60 42 62 43 22 44 65 45 59 46
REMARK SMILES IDX 58 47 23 49 49 50 32 51 48 52 33 53 36 54 47 55 63 56 34 57
REMARK SMILES IDX 35 58 46 60 64 61 37 62 24 63 25 64 30 65 26 66 27 67 29 68
REMARK SMILES IDX 31 69 28 70 50 71 51 72 56 73 52 74 53 75 55 76 57 77 54 78
REMARK SMILES IDX 38 79 39 80 44 81 40 82 41 83 43 84 45 85 42 86
REMARK H PARENT 7 7 72 17 12 29 62 48 36 59
REMARK Flexibility Score: inf
ROOT
ATOM      1  C   UNL A   1      33.182  31.259  27.292  1.00  0.00     0.023 C 
ENDROOT
BRANCH   1   2
ATOM      2  C   UNL A   1      32.149  30.214  26.876  1.00  0.00     0.023 C 
BRANCH   2   3
ATOM      3  C   UNL A   1      32.370  29.596  25.483  1.00  0.00     0.116 C 
BRANCH   3   4
ATOM      4  N   UNL A   1      31.308  29.900  24.529  1.00  0.00    -0.352 N 
ATOM      5  C   UNL A   1      30.500  29.088  23.762  1.00  0.00     0.251 C 
ATOM      6  O   UNL A   1      29.535  29.587  23.187  1.00  0.00    -0.269 OA
ATOM      7  H   UNL A   1      31.136  30.863  24.412  1.00  0.00     0.163 HD
BRANCH   5   8
ATOM      8  C   UNL A   1      30.739  27.626  23.647  1.00  0.00     0.040 A 
ATOM      9  C   UNL A   1      32.827  25.292  21.500  1.00  0.00     0.046 C 
ATOM     10  C   UNL A   1      31.763  25.737  22.466  1.00  0.00    -0.027 A 
ATOM     11  C   UNL A   1      31.599  27.128  22.661  1.00  0.00     0.019 A 
ATOM     12  C   UNL A   1      30.980  24.853  23.229  1.00  0.00     0.045 A 
ATOM     13  C   UNL A   1      30.280  25.363  24.325  1.00  0.00     0.027 A 
ATOM     14  C   UNL A   1      30.185  26.729  24.543  1.00  0.00     0.016 A 
BRANCH  12  15
ATOM     15  N   UNL A   1      30.921  23.474  22.949  1.00  0.00    -0.308 N 
ATOM     16  C   UNL A   1      31.908  22.536  23.104  1.00  0.00     0.321 C 
ATOM     17  H   UNL A   1      30.064  23.143  22.596  1.00  0.00     0.171 HD
ATOM     18  O   UNL A   1      31.973  21.598  22.310  1.00  0.00    -0.248 OA
ATOM     19  N   UNL A   1      32.780  22.665  24.159  1.00  0.00    -0.324 N 
ATOM     20  C   UNL A   1      34.110  22.088  24.111  1.00  0.00     0.125 C 
ATOM     21  C   UNL A   1      32.392  22.986  25.530  1.00  0.00     0.125 C 
ATOM     22  C   UNL A   1      34.502  21.838  25.566  1.00  0.00     0.010 C 
ATOM     23  C   UNL A   1      33.687  22.887  26.343  1.00  0.00     0.010 C 
ATOM     24  C   UNL A   1      36.003  21.967  25.794  1.00  0.00     0.010 C 
ATOM     25  C   UNL A   1      33.460  22.512  27.805  1.00  0.00     0.010 C 
ENDBRANCH  12  15
ENDBRANCH   5   8
ENDBRANCH   3   4
ENDBRANCH   2   3
ENDBRANCH   1   2
BRANCH   1  26
ATOM     26  C   UNL A   1      34.531  30.661  27.651  1.00  0.00     0.116 C 
BRANCH  26  27
ATOM     27  N   UNL A   1      35.348  31.503  28.518  1.00  0.00    -0.352 N 
ATOM     28  C   UNL A   1      36.550  31.221  29.158  1.00  0.00     0.251 C 
ATOM     29  H   UNL A   1      34.995  32.408  28.673  1.00  0.00     0.163 HD
ATOM     30  O   UNL A   1      37.061  32.045  29.885  1.00  0.00    -0.269 OA
BRANCH  28  31
ATOM     31  C   UNL A   1      37.284  29.970  28.811  1.00  0.00     0.039 A 
ATOM     32  C   UNL A   1      37.357  28.982  29.799  1.00  0.00     0.014 A 
ATOM     33  C   UNL A   1      38.104  29.900  27.692  1.00  0.00     0.014 A 
ATOM     34  C   UNL A   1      38.454  28.127  29.820  1.00  0.00     0.010 A 
ATOM     35  C   UNL A   1      39.257  29.146  27.777  1.00  0.00     0.010 A 
ATOM     36  C   UNL A   1      39.471  28.328  28.890  1.00  0.00    -0.014 A 
BRANCH  36  37
ATOM     37  C   UNL A   1      40.845  27.892  29.116  1.00  0.00     0.031 A 
ATOM     38  C   UNL A   1      41.344  26.629  28.542  1.00  0.00     0.074 A 
ATOM     39  C   UNL A   1      41.693  28.733  29.750  1.00  0.00     0.049 A 
ATOM     40  N   UNL A   1      42.398  26.005  28.949  1.00  0.00    -0.248 NA
ATOM     41  C   UNL A   1      40.641  25.926  27.478  1.00  0.00     0.031 C 
ATOM     42  C   UNL A   1      43.150  28.665  29.789  1.00  0.00     0.029 A 
ATOM     43  N   UNL A   1      41.368  29.739  30.672  1.00  0.00    -0.354 N 
ATOM     44  C   UNL A   1      42.680  25.011  28.038  1.00  0.00     0.074 A 
ATOM     45  C   UNL A   1      41.505  24.946  27.203  1.00  0.00     0.031 C 
ATOM     46  C   UNL A   1      43.589  29.361  30.849  1.00  0.00     0.029 A 
ATOM     47  C   UNL A   1      42.420  29.766  31.611  1.00  0.00     0.049 A 
ATOM     48  H   UNL A   1      40.566  30.311  30.665  1.00  0.00     0.167 HD
ATOM     49  C   UNL A   1      43.935  24.470  28.018  1.00  0.00     0.037 A 
ATOM     50  C   UNL A   1      42.205  29.457  32.923  1.00  0.00     0.037 A 
ATOM     51  C   UNL A   1      44.727  24.954  29.154  1.00  0.00     0.049 A 
ATOM     52  C   UNL A   1      42.991  28.262  33.413  1.00  0.00     0.074 A 
ATOM     53  C   UNL A   1      45.706  25.929  29.272  1.00  0.00     0.029 A 
ATOM     54  N   UNL A   1      44.344  24.628  30.452  1.00  0.00    -0.354 N 
ATOM     55  N   UNL A   1      43.560  27.395  32.624  1.00  0.00    -0.248 NA
ATOM     56  C   UNL A   1      43.167  27.930  34.825  1.00  0.00     0.031 C 
ATOM     57  C   UNL A   1      45.858  26.237  30.647  1.00  0.00     0.029 A 
ATOM     58  C   UNL A   1      44.990  25.436  31.368  1.00  0.00     0.049 A 
ATOM     59  H   UNL A   1      43.702  23.919  30.685  1.00  0.00     0.167 HD
ATOM     60  C   UNL A   1      44.121  26.394  33.372  1.00  0.00     0.074 A 
ATOM     61  C   UNL A   1      43.873  26.788  34.746  1.00  0.00     0.031 C 
ATOM     62  C   UNL A   1      44.721  25.312  32.794  1.00  0.00     0.037 A 
BRANCH  49  63
ATOM     63  C   UNL A   1      44.551  23.767  26.816  1.00  0.00     0.057 A 
ATOM     64  C   UNL A   1      44.158  22.455  26.472  1.00  0.00     0.134 A 
ATOM     65  C   UNL A   1      45.589  24.269  26.010  1.00  0.00     0.134 A 
ATOM     66  F   UNL A   1      43.099  21.864  27.038  1.00  0.00    -0.206 F 
ATOM     67  C   UNL A   1      44.829  21.674  25.518  1.00  0.00     0.040 A 
ATOM     68  C   UNL A   1      46.297  23.486  25.084  1.00  0.00     0.040 A 
ATOM     69  F   UNL A   1      45.935  25.557  26.017  1.00  0.00    -0.206 F 
ATOM     70  C   UNL A   1      45.931  22.173  24.849  1.00  0.00     0.006 A 
ENDBRANCH  49  63
BRANCH  50  71
ATOM     71  C   UNL A   1      40.857  29.846  33.411  1.00  0.00     0.057 A 
ATOM     72  C   UNL A   1      40.627  31.190  33.748  1.00  0.00     0.134 A 
ATOM     73  C   UNL A   1      39.734  29.042  33.199  1.00  0.00     0.134 A 
ATOM     74  F   UNL A   1      41.663  32.013  33.971  1.00  0.00    -0.206 F 
ATOM     75  C   UNL A   1      39.344  31.741  33.761  1.00  0.00     0.040 A 
ATOM     76  C   UNL A   1      38.441  29.580  33.219  1.00  0.00     0.040 A 
ATOM     77  F   UNL A   1      39.872  27.755  32.848  1.00  0.00    -0.206 F 
ATOM     78  C   UNL A   1      38.247  30.940  33.462  1.00  0.00     0.006 A 
ENDBRANCH  50  71
BRANCH  62  79
ATOM     79  C   UNL A   1      45.173  24.069  33.515  1.00  0.00     0.057 A 
ATOM     80  C   UNL A   1      46.417  23.938  34.150  1.00  0.00     0.134 A 
ATOM     81  C   UNL A   1      44.275  23.001  33.723  1.00  0.00     0.134 A 
ATOM     82  F   UNL A   1      47.327  24.921  34.119  1.00  0.00    -0.206 F 
ATOM     83  C   UNL A   1      46.761  22.803  34.897  1.00  0.00     0.040 A 
ATOM     84  C   UNL A   1      44.588  21.888  34.508  1.00  0.00     0.040 A 
ATOM     85  F   UNL A   1      43.045  23.004  33.189  1.00  0.00    -0.206 F 
ATOM     86  C   UNL A   1      45.841  21.780  35.090  1.00  0.00     0.006 A 
ENDBRANCH  62  79
ENDBRANCH  36  37
ENDBRANCH  28  31
ENDBRANCH  26  27
ENDBRANCH   1  26
TORSDOF 12
ENDMDL
MODEL 2
REMARK VINA RESULT:     -13.2      3.825      9.434
REMARK SMILES Cc1cc(C(=O)NCCCCNC(=O)c2ccc(-c3c4nc(c(-c5c(F)cccc5F)c5ccc([nH]5)c(-c5c(F)cccc5F)c5nc(c(-c6c(F)cccc6F)c6ccc3[nH]6)C=C5)C=C4)cc2)ccc1NC(=O)N1C[C@@H](C)[C@H](C)C1
REMARK SMILES IDX 10 1 9 2 8 3 7 4 5 5 6 6 4 8 1 9 2 10 3 11 71 12 70 13 69 14
REMARK SMILES IDX 72 15 73 16 74 18 75 19 76 20 81 21 77 22 79 23 78 24 80 25
REMARK SMILES IDX 11 26 12 27 13 28 14 30 15 31 16 32 68 33 17 34 67 35 18 36
REMARK SMILES IDX 19 37 20 38 61 39 21 40 66 41 60 42 62 43 22 44 65 45 59 46
REMARK SMILES IDX 58 47 23 49 49 50 32 51 48 52 33 53 36 54 47 55 63 56 34 57
REMARK SMILES IDX 35 58 46 60 64 61 37 62 24 63 25 64 30 65 26 66 27 67 29 68
REMARK SMILES IDX 31 69 28 70 50 71 51 72 56 73 52 74 53 75 55 76 57 77 54 78
REMARK SMILES IDX 38 79 39 80 44 81 40 82 41 83 43 84 45 85 42 86
REMARK H PARENT 7 7 72 17 12 29 62 48 36 59
REMARK Flexibility Score: inf
ROOT
ATOM      1  C   UNL A   1      38.493  21.385  25.680  1.00  0.00     0.023 C 
ENDROOT
BRANCH   1   2
ATOM      2  C   UNL A   1      37.311  21.335  24.716  1.00  0.00     0.023 C 
BRANCH   2   3
ATOM      3  C   UNL A   1      35.925  21.470  25.375  1.00  0.00     0.116 C 
BRANCH   3   4
ATOM      4  N   UNL A   1      35.049  20.326  25.142  1.00  0.00    -0.352 N 
ATOM      5  C   UNL A   1      33.763  20.237  24.653  1.00  0.00     0.251 C 
ATOM      6  O   UNL A   1      33.318  19.130  24.357  1.00  0.00    -0.269 OA
ATOM      7  H   UNL A   1      35.451  19.457  25.375  1.00  0.00     0.163 HD
BRANCH   5   8
ATOM      8  C   UNL A   1      32.921  21.441  24.435  1.00  0.00     0.040 A 
ATOM      9  C   UNL A   1      30.652  23.680  26.500  1.00  0.00     0.046 C 
ATOM     10  C   UNL A   1      31.287  23.061  25.285  1.00  0.00    -0.027 A 
ATOM     11  C   UNL A   1      32.175  21.979  25.491  1.00  0.00     0.019 A 
ATOM     12  C   UNL A   1      31.103  23.540  23.976  1.00  0.00     0.045 A 
ATOM     13  C   UNL A   1      31.991  23.120  22.983  1.00  0.00     0.027 A 
ATOM     14  C   UNL A   1      32.904  22.104  23.220  1.00  0.00     0.016 A 
BRANCH  12  15
ATOM     15  N   UNL A   1      30.086  24.460  23.653  1.00  0.00    -0.308 N 
ATOM     16  C   UNL A   1      29.993  25.780  24.010  1.00  0.00     0.321 C 
ATOM     17  H   UNL A   1      29.349  24.110  23.102  1.00  0.00     0.171 HD
ATOM     18  O   UNL A   1      28.883  26.268  24.216  1.00  0.00    -0.248 OA
ATOM     19  N   UNL A   1      31.149  26.519  24.105  1.00  0.00    -0.324 N 
ATOM     20  C   UNL A   1      31.222  27.694  24.953  1.00  0.00     0.125 C 
ATOM     21  C   UNL A   1      32.234  26.503  23.128  1.00  0.00     0.125 C 
ATOM     22  C   UNL A   1      32.303  28.579  24.335  1.00  0.00     0.010 C 
ATOM     23  C   UNL A   1      33.217  27.575  23.609  1.00  0.00     0.010 C 
ATOM     24  C   UNL A   1      33.044  29.406  25.379  1.00  0.00     0.010 C 
ATOM     25  C   UNL A   1      34.027  28.207  22.480  1.00  0.00     0.010 C 
ENDBRANCH  12  15
ENDBRANCH   5   8
ENDBRANCH   3   4
ENDBRANCH   2   3
ENDBRANCH   1   2
BRANCH   1  26
ATOM     26  C   UNL A   1      38.842  22.792  26.131  1.00  0.00     0.116 C 
BRANCH  26  27
ATOM     27  N   UNL A   1      40.220  22.954  26.581  1.00  0.00    -0.352 N 
ATOM     28  C   UNL A   1      40.887  24.093  27.020  1.00  0.00     0.251 C 
ATOM     29  H   UNL A   1      40.760  22.132  26.573  1.00  0.00     0.163 HD
ATOM     30  O   UNL A   1      42.061  24.037  27.312  1.00  0.00    -0.269 OA
BRANCH  28  31
ATOM     31  C   UNL A   1      40.107  25.335  27.288  1.00  0.00     0.039 A 
ATOM     32  C   UNL A   1      40.403  26.453  26.500  1.00  0.00     0.014 A 
ATOM     33  C   UNL A   1      39.346  25.477  28.441  1.00  0.00     0.014 A 
ATOM     34  C   UNL A   1      40.217  27.724  27.034  1.00  0.00     0.010 A 
ATOM     35  C   UNL A   1      39.278  26.724  29.027  1.00  0.00     0.010 A 
ATOM     36  C   UNL A   1      39.800  27.834  28.357  1.00  0.00    -0.014 A 
BRANCH  36  37
ATOM     37  C   UNL A   1      40.067  29.014  29.174  1.00  0.00     0.031 A 
ATOM     38  C   UNL A   1      39.033  30.046  29.377  1.00  0.00     0.074 A 
ATOM     39  C   UNL A   1      41.235  29.079  29.852  1.00  0.00     0.049 A 
ATOM     40  N   UNL A   1      39.269  31.249  29.783  1.00  0.00    -0.248 NA
ATOM     41  C   UNL A   1      37.629  29.812  29.074  1.00  0.00     0.031 C 
ATOM     42  C   UNL A   1      41.572  29.964  30.962  1.00  0.00     0.029 A 
ATOM     43  N   UNL A   1      42.449  28.458  29.523  1.00  0.00    -0.354 N 
ATOM     44  C   UNL A   1      38.061  31.840  30.077  1.00  0.00     0.074 A 
ATOM     45  C   UNL A   1      37.076  30.940  29.526  1.00  0.00     0.031 C 
ATOM     46  C   UNL A   1      42.908  30.054  31.055  1.00  0.00     0.029 A 
ATOM     47  C   UNL A   1      43.467  29.354  29.911  1.00  0.00     0.049 A 
ATOM     48  H   UNL A   1      42.567  27.574  29.104  1.00  0.00     0.167 HD
ATOM     49  C   UNL A   1      38.044  32.947  30.879  1.00  0.00     0.037 A 
ATOM     50  C   UNL A   1      44.303  29.916  28.991  1.00  0.00     0.037 A 
ATOM     51  C   UNL A   1      39.408  33.421  31.137  1.00  0.00     0.049 A 
ATOM     52  C   UNL A   1      44.230  31.425  28.931  1.00  0.00     0.074 A 
ATOM     53  C   UNL A   1      40.266  33.281  32.217  1.00  0.00     0.029 A 
ATOM     54  N   UNL A   1      40.185  33.897  30.084  1.00  0.00    -0.354 N 
ATOM     55  N   UNL A   1      43.256  32.126  29.441  1.00  0.00    -0.248 NA
ATOM     56  C   UNL A   1      45.226  32.260  28.263  1.00  0.00     0.031 C 
ATOM     57  C   UNL A   1      41.576  33.609  31.787  1.00  0.00     0.029 A 
ATOM     58  C   UNL A   1      41.514  33.969  30.452  1.00  0.00     0.049 A 
ATOM     59  H   UNL A   1      39.834  34.148  29.199  1.00  0.00     0.167 HD
ATOM     60  C   UNL A   1      43.444  33.450  29.150  1.00  0.00     0.074 A 
ATOM     61  C   UNL A   1      44.706  33.488  28.436  1.00  0.00     0.031 C 
ATOM     62  C   UNL A   1      42.530  34.402  29.503  1.00  0.00     0.037 A 
BRANCH  49  63
ATOM     63  C   UNL A   1      36.839  33.408  31.688  1.00  0.00     0.057 A 
ATOM     64  C   UNL A   1      35.757  34.059  31.056  1.00  0.00     0.134 A 
ATOM     65  C   UNL A   1      36.706  33.332  33.086  1.00  0.00     0.134 A 
ATOM     66  F   UNL A   1      35.643  34.108  29.723  1.00  0.00    -0.206 F 
ATOM     67  C   UNL A   1      34.723  34.696  31.759  1.00  0.00     0.040 A 
ATOM     68  C   UNL A   1      35.702  34.000  33.805  1.00  0.00     0.040 A 
ATOM     69  F   UNL A   1      37.492  32.556  33.834  1.00  0.00    -0.206 F 
ATOM     70  C   UNL A   1      34.713  34.705  33.142  1.00  0.00     0.006 A 
ENDBRANCH  49  63
BRANCH  50  71
ATOM     71  C   UNL A   1      44.590  29.032  27.831  1.00  0.00     0.057 A 
ATOM     72  C   UNL A   1      45.527  27.998  27.992  1.00  0.00     0.134 A 
ATOM     73  C   UNL A   1      43.726  28.944  26.737  1.00  0.00     0.134 A 
ATOM     74  F   UNL A   1      46.390  28.027  29.019  1.00  0.00    -0.206 F 
ATOM     75  C   UNL A   1      45.529  26.868  27.171  1.00  0.00     0.040 A 
ATOM     76  C   UNL A   1      43.725  27.821  25.901  1.00  0.00     0.040 A 
ATOM     77  F   UNL A   1      42.787  29.880  26.532  1.00  0.00    -0.206 F 
ATOM     78  C   UNL A   1      44.602  26.763  26.140  1.00  0.00     0.006 A 
ENDBRANCH  50  71
BRANCH  62  79
ATOM     79  C   UNL A   1      42.539  35.838  29.050  1.00  0.00     0.057 A 
ATOM     80  C   UNL A   1      43.351  36.835  29.612  1.00  0.00     0.134 A 
ATOM     81  C   UNL A   1      41.819  36.226  27.899  1.00  0.00     0.134 A 
ATOM     82  F   UNL A   1      44.163  36.576  30.645  1.00  0.00    -0.206 F 
ATOM     83  C   UNL A   1      43.404  38.137  29.095  1.00  0.00     0.040 A 
ATOM     84  C   UNL A   1      41.904  37.506  27.346  1.00  0.00     0.040 A 
ATOM     85  F   UNL A   1      41.017  35.368  27.251  1.00  0.00    -0.206 F 
ATOM     86  C   UNL A   1      42.691  38.473  27.951  1.00  0.00     0.006 A 
ENDBRANCH  62  79
ENDBRANCH  36  37
ENDBRANCH  28  31
ENDBRANCH  26  27
ENDBRANCH   1  26
TORSDOF 12
ENDMDL
MODEL 3
REMARK VINA RESULT:     -13.1      1.050      1.837
REMARK SMILES Cc1cc(C(=O)NCCCCNC(=O)c2ccc(-c3c4nc(c(-c5c(F)cccc5F)c5ccc([nH]5)c(-c5c(F)cccc5F)c5nc(c(-c6c(F)cccc6F)c6ccc3[nH]6)C=C5)C=C4)cc2)ccc1NC(=O)N1C[C@@H](C)[C@H](C)C1
REMARK SMILES IDX 10 1 9 2 8 3 7 4 5 5 6 6 4 8 1 9 2 10 3 11 71 12 70 13 69 14
REMARK SMILES IDX 72 15 73 16 74 18 75 19 76 20 81 21 77 22 79 23 78 24 80 25
REMARK SMILES IDX 11 26 12 27 13 28 14 30 15 31 16 32 68 33 17 34 67 35 18 36
REMARK SMILES IDX 19 37 20 38 61 39 21 40 66 41 60 42 62 43 22 44 65 45 59 46
REMARK SMILES IDX 58 47 23 49 49 50 32 51 48 52 33 53 36 54 47 55 63 56 34 57
REMARK SMILES IDX 35 58 46 60 64 61 37 62 24 63 25 64 30 65 26 66 27 67 29 68
REMARK SMILES IDX 31 69 28 70 50 71 51 72 56 73 52 74 53 75 55 76 57 77 54 78
REMARK SMILES IDX 38 79 39 80 44 81 40 82 41 83 43 84 45 85 42 86
REMARK H PARENT 7 7 72 17 12 29 62 48 36 59
REMARK Flexibility Score: inf
ROOT
ATOM      1  C   UNL A   1      33.360  30.251  27.608  1.00  0.00     0.023 C 
ENDROOT
BRANCH   1   2
ATOM      2  C   UNL A   1      33.795  28.958  26.924  1.00  0.00     0.023 C 
BRANCH   2   3
ATOM      3  C   UNL A   1      33.700  28.968  25.387  1.00  0.00     0.116 C 
BRANCH   3   4
ATOM      4  N   UNL A   1      32.548  29.703  24.874  1.00  0.00    -0.352 N 
ATOM      5  C   UNL A   1      31.306  29.284  24.445  1.00  0.00     0.251 C 
ATOM      6  O   UNL A   1      30.432  30.127  24.252  1.00  0.00    -0.269 OA
ATOM      7  H   UNL A   1      32.682  30.678  24.826  1.00  0.00     0.163 HD
BRANCH   5   8
ATOM      8  C   UNL A   1      30.985  27.847  24.254  1.00  0.00     0.040 A 
ATOM      9  C   UNL A   1      29.952  24.899  26.413  1.00  0.00     0.046 C 
ATOM     10  C   UNL A   1      30.453  25.653  25.212  1.00  0.00    -0.027 A 
ATOM     11  C   UNL A   1      30.662  27.044  25.355  1.00  0.00     0.019 A 
ATOM     12  C   UNL A   1      30.656  25.068  23.949  1.00  0.00     0.045 A 
ATOM     13  C   UNL A   1      30.787  25.908  22.841  1.00  0.00     0.027 A 
ATOM     14  C   UNL A   1      30.922  27.280  22.993  1.00  0.00     0.016 A 
BRANCH  12  15
ATOM     15  N   UNL A   1      30.682  23.671  23.768  1.00  0.00    -0.308 N 
ATOM     16  C   UNL A   1      31.728  22.892  23.346  1.00  0.00     0.321 C 
ATOM     17  H   UNL A   1      29.845  23.195  23.969  1.00  0.00     0.171 HD
ATOM     18  O   UNL A   1      31.494  21.894  22.667  1.00  0.00    -0.248 OA
ATOM     19  N   UNL A   1      33.004  23.245  23.717  1.00  0.00    -0.324 N 
ATOM     20  C   UNL A   1      34.154  22.846  22.928  1.00  0.00     0.125 C 
ATOM     21  C   UNL A   1      33.401  23.654  25.062  1.00  0.00     0.125 C 
ATOM     22  C   UNL A   1      35.328  22.804  23.905  1.00  0.00     0.010 C 
ATOM     23  C   UNL A   1      34.923  23.812  24.995  1.00  0.00     0.010 C 
ATOM     24  C   UNL A   1      36.652  23.151  23.238  1.00  0.00     0.010 C 
ATOM     25  C   UNL A   1      35.619  23.566  26.331  1.00  0.00     0.010 C 
ENDBRANCH  12  15
ENDBRANCH   5   8
ENDBRANCH   3   4
ENDBRANCH   2   3
ENDBRANCH   1   2
BRANCH   1  26
ATOM     26  C   UNL A   1      34.263  31.430  27.295  1.00  0.00     0.116 C 
BRANCH  26  27
ATOM     27  N   UNL A   1      34.866  32.053  28.468  1.00  0.00    -0.352 N 
ATOM     28  C   UNL A   1      35.837  31.564  29.337  1.00  0.00     0.251 C 
ATOM     29  H   UNL A   1      34.536  32.955  28.677  1.00  0.00     0.163 HD
ATOM     30  O   UNL A   1      36.181  32.220  30.295  1.00  0.00    -0.269 OA
BRANCH  28  31
ATOM     31  C   UNL A   1      36.565  30.312  28.984  1.00  0.00     0.039 A 
ATOM     32  C   UNL A   1      36.653  29.328  29.975  1.00  0.00     0.014 A 
ATOM     33  C   UNL A   1      37.369  30.237  27.854  1.00  0.00     0.014 A 
ATOM     34  C   UNL A   1      37.749  28.473  29.984  1.00  0.00     0.010 A 
ATOM     35  C   UNL A   1      38.523  29.484  27.925  1.00  0.00     0.010 A 
ATOM     36  C   UNL A   1      38.753  28.670  29.039  1.00  0.00    -0.014 A 
BRANCH  36  37
ATOM     37  C   UNL A   1      40.130  28.235  29.246  1.00  0.00     0.031 A 
ATOM     38  C   UNL A   1      40.600  26.934  28.734  1.00  0.00     0.074 A 
ATOM     39  C   UNL A   1      41.005  29.104  29.801  1.00  0.00     0.049 A 
ATOM     40  N   UNL A   1      41.662  26.326  29.144  1.00  0.00    -0.248 NA
ATOM     41  C   UNL A   1      39.858  26.176  27.737  1.00  0.00     0.031 C 
ATOM     42  C   UNL A   1      42.462  29.024  29.797  1.00  0.00     0.029 A 
ATOM     43  N   UNL A   1      40.718  30.167  30.671  1.00  0.00    -0.354 N 
ATOM     44  C   UNL A   1      41.906  25.277  28.287  1.00  0.00     0.074 A 
ATOM     45  C   UNL A   1      40.704  25.172  27.495  1.00  0.00     0.031 C 
ATOM     46  C   UNL A   1      42.941  29.778  30.799  1.00  0.00     0.029 A 
ATOM     47  C   UNL A   1      41.801  30.239  31.572  1.00  0.00     0.049 A 
ATOM     48  H   UNL A   1      39.921  30.745  30.655  1.00  0.00     0.167 HD
ATOM     49  C   UNL A   1      43.155  24.722  28.259  1.00  0.00     0.037 A 
ATOM     50  C   UNL A   1      41.625  30.012  32.907  1.00  0.00     0.037 A 
ATOM     51  C   UNL A   1      43.988  25.266  29.338  1.00  0.00     0.049 A 
ATOM     52  C   UNL A   1      42.417  28.841  33.443  1.00  0.00     0.074 A 
ATOM     53  C   UNL A   1      44.978  26.236  29.366  1.00  0.00     0.029 A 
ATOM     54  N   UNL A   1      43.644  25.022  30.665  1.00  0.00    -0.354 N 
ATOM     55  N   UNL A   1      42.954  27.922  32.690  1.00  0.00    -0.248 NA
ATOM     56  C   UNL A   1      42.636  28.592  34.866  1.00  0.00     0.031 C 
ATOM     57  C   UNL A   1      45.177  26.624  30.714  1.00  0.00     0.029 A 
ATOM     58  C   UNL A   1      44.326  25.877  31.509  1.00  0.00     0.049 A 
ATOM     59  H   UNL A   1      43.004  24.335  30.960  1.00  0.00     0.167 HD
ATOM     60  C   UNL A   1      43.530  26.962  33.478  1.00  0.00     0.074 A 
ATOM     61  C   UNL A   1      43.330  27.441  34.833  1.00  0.00     0.031 C 
ATOM     62  C   UNL A   1      44.102  25.842  32.948  1.00  0.00     0.037 A 
BRANCH  49  63
ATOM     63  C   UNL A   1      43.726  23.943  27.082  1.00  0.00     0.057 A 
ATOM     64  C   UNL A   1      44.469  24.601  26.078  1.00  0.00     0.134 A 
ATOM     65  C   UNL A   1      43.516  22.578  26.817  1.00  0.00     0.134 A 
ATOM     66  F   UNL A   1      44.882  25.867  26.219  1.00  0.00    -0.206 F 
ATOM     67  C   UNL A   1      44.838  23.993  24.868  1.00  0.00     0.040 A 
ATOM     68  C   UNL A   1      43.841  21.967  25.595  1.00  0.00     0.040 A 
ATOM     69  F   UNL A   1      43.051  21.737  27.743  1.00  0.00    -0.206 F 
ATOM     70  C   UNL A   1      44.487  22.682  24.603  1.00  0.00     0.006 A 
ENDBRANCH  49  63
BRANCH  50  71
ATOM     71  C   UNL A   1      40.296  30.443  33.413  1.00  0.00     0.057 A 
ATOM     72  C   UNL A   1      40.102  31.801  33.717  1.00  0.00     0.134 A 
ATOM     73  C   UNL A   1      39.153  29.657  33.249  1.00  0.00     0.134 A 
ATOM     74  F   UNL A   1      41.160  32.607  33.894  1.00  0.00    -0.206 F 
ATOM     75  C   UNL A   1      38.831  32.378  33.742  1.00  0.00     0.040 A 
ATOM     76  C   UNL A   1      37.873  30.223  33.283  1.00  0.00     0.040 A 
ATOM     77  F   UNL A   1      39.257  28.358  32.932  1.00  0.00    -0.206 F 
ATOM     78  C   UNL A   1      37.712  31.593  33.491  1.00  0.00     0.006 A 
ENDBRANCH  50  71
BRANCH  62  79
ATOM     79  C   UNL A   1      44.568  24.640  33.728  1.00  0.00     0.057 A 
ATOM     80  C   UNL A   1      43.707  23.741  34.375  1.00  0.00     0.134 A 
ATOM     81  C   UNL A   1      45.929  24.267  33.715  1.00  0.00     0.134 A 
ATOM     82  F   UNL A   1      42.379  23.921  34.376  1.00  0.00    -0.206 F 
ATOM     83  C   UNL A   1      44.173  22.580  35.006  1.00  0.00     0.040 A 
ATOM     84  C   UNL A   1      46.398  23.086  34.295  1.00  0.00     0.040 A 
ATOM     85  F   UNL A   1      46.859  25.026  33.116  1.00  0.00    -0.206 F 
ATOM     86  C   UNL A   1      45.519  22.241  34.956  1.00  0.00     0.006 A 
ENDBRANCH  62  79
ENDBRANCH  36  37
ENDBRANCH  28  31
ENDBRANCH  26  27
ENDBRANCH   1  26
TORSDOF 12
ENDMDL
