MODEL 1
REMARK VINA RESULT:     -12.4      0.000      0.000
REMARK SMILES Cc1cc2c(c(C)c1Cl)C=C(C(=O)NCCCCNC(=O)c1ccc(-c3c4nc(c(-c5c(F)cccc5F)c5ccc([nH]5)c(-c5c(F)cccc5F)c5nc(c(-c6c(F)cccc6F)c6ccc3[nH]6)C=C5)C=C4)cc1)[C@H](C(F)(F)F)O2
REMARK SMILES IDX 17 1 16 2 15 3 14 4 12 5 13 6 11 8 1 9 2 10 3 11 8 12 4 13
REMARK SMILES IDX 6 14 9 15 5 16 81 17 7 18 10 19 76 20 77 21 78 22 79 23
REMARK SMILES IDX 80 24 18 25 19 26 20 27 21 29 22 30 23 31 75 32 24 33 74 34
REMARK SMILES IDX 25 35 26 36 27 37 68 38 28 39 73 40 67 41 69 42 29 43 72 44
REMARK SMILES IDX 66 45 65 46 30 48 56 49 39 50 55 51 40 52 43 53 54 54 70 55
REMARK SMILES IDX 41 56 42 57 53 59 71 60 44 61 31 62 32 63 37 64 33 65 34 66
REMARK SMILES IDX 36 67 38 68 35 69 57 70 58 71 63 72 59 73 60 74 62 75 64 76
REMARK SMILES IDX 61 77 45 78 46 79 51 80 47 81 48 82 50 83 52 84 49 85
REMARK H PARENT 14 7 19 28 69 47 43 58
REMARK Flexibility Score: inf
ROOT
ATOM      1  C   UNL A   1      37.541  20.591  24.927  1.00  0.00     0.023 C 
ENDROOT
BRANCH   1   2
ATOM      2  C   UNL A   1      36.848  21.835  24.372  1.00  0.00     0.023 C 
BRANCH   2   3
ATOM      3  C   UNL A   1      36.530  22.899  25.421  1.00  0.00     0.116 C 
BRANCH   3   4
ATOM      4  N   UNL A   1      35.686  22.375  26.479  1.00  0.00    -0.352 N 
ATOM      5  C   UNL A   1      34.371  22.397  26.798  1.00  0.00     0.251 C 
ATOM      6  O   UNL A   1      34.070  21.731  27.795  1.00  0.00    -0.270 OA
ATOM      7  H   UNL A   1      36.210  21.870  27.141  1.00  0.00     0.163 HD
BRANCH   5   8
ATOM      8  C   UNL A   1      33.307  23.143  26.063  1.00  0.00     0.067 C 
ATOM      9  C   UNL A   1      29.259  27.508  23.422  1.00  0.00     0.046 C 
ATOM     10  C   UNL A   1      30.360  26.779  24.143  1.00  0.00    -0.028 A 
ATOM     11  C   UNL A   1      30.303  25.383  24.207  1.00  0.00     0.052 A 
ATOM     12  C   UNL A   1      31.427  27.446  24.780  1.00  0.00     0.047 A 
ATOM     13  C   UNL A   1      31.294  24.667  24.867  1.00  0.00     0.128 A 
ATOM     14  C   UNL A   1      32.440  26.728  25.461  1.00  0.00    -0.021 A 
ATOM     15  Cl  UNL A   1      31.461  29.184  24.724  1.00  0.00    -0.084 Cl
ATOM     16  C   UNL A   1      32.352  25.315  25.512  1.00  0.00     0.022 A 
ATOM     17  O   UNL A   1      31.136  23.309  24.871  1.00  0.00    -0.475 OA
ATOM     18  C   UNL A   1      33.598  27.425  26.135  1.00  0.00     0.047 C 
ATOM     19  C   UNL A   1      33.304  24.477  26.250  1.00  0.00     0.026 C 
ATOM     20  C   UNL A   1      32.339  22.529  25.095  1.00  0.00     0.314 C 
BRANCH  20  21
ATOM     21  C   UNL A   1      32.979  22.136  23.755  1.00  0.00     0.429 C 
ATOM     22  F   UNL A   1      32.072  21.967  22.768  1.00  0.00    -0.167 F 
ATOM     23  F   UNL A   1      33.868  23.055  23.316  1.00  0.00    -0.167 F 
ATOM     24  F   UNL A   1      33.659  20.969  23.886  1.00  0.00    -0.167 F 
ENDBRANCH  20  21
ENDBRANCH   5   8
ENDBRANCH   3   4
ENDBRANCH   2   3
ENDBRANCH   1   2
BRANCH   1  25
ATOM     25  C   UNL A   1      38.823  20.859  25.707  1.00  0.00     0.116 C 
BRANCH  25  26
ATOM     26  N   UNL A   1      39.780  19.764  25.649  1.00  0.00    -0.352 N 
ATOM     27  C   UNL A   1      41.108  19.774  26.004  1.00  0.00     0.251 C 
ATOM     28  H   UNL A   1      39.432  18.907  25.312  1.00  0.00     0.163 HD
ATOM     29  O   UNL A   1      41.817  18.795  25.821  1.00  0.00    -0.269 OA
BRANCH  27  30
ATOM     30  C   UNL A   1      41.674  21.010  26.577  1.00  0.00     0.039 A 
ATOM     31  C   UNL A   1      42.157  21.993  25.713  1.00  0.00     0.014 A 
ATOM     32  C   UNL A   1      41.658  21.215  27.960  1.00  0.00     0.014 A 
ATOM     33  C   UNL A   1      42.565  23.220  26.234  1.00  0.00     0.010 A 
ATOM     34  C   UNL A   1      41.997  22.460  28.468  1.00  0.00     0.010 A 
ATOM     35  C   UNL A   1      42.454  23.473  27.611  1.00  0.00    -0.014 A 
BRANCH  35  36
ATOM     36  C   UNL A   1      42.833  24.783  28.187  1.00  0.00     0.031 A 
ATOM     37  C   UNL A   1      41.777  25.828  28.403  1.00  0.00     0.074 A 
ATOM     38  C   UNL A   1      44.126  25.053  28.447  1.00  0.00     0.049 A 
ATOM     39  N   UNL A   1      41.910  27.069  28.790  1.00  0.00    -0.248 NA
ATOM     40  C   UNL A   1      40.389  25.430  28.114  1.00  0.00     0.031 C 
ATOM     41  C   UNL A   1      45.244  24.132  28.242  1.00  0.00     0.029 A 
ATOM     42  N   UNL A   1      44.718  26.192  28.933  1.00  0.00    -0.354 N 
ATOM     43  C   UNL A   1      40.629  27.605  28.773  1.00  0.00     0.074 A 
ATOM     44  C   UNL A   1      39.740  26.572  28.289  1.00  0.00     0.031 C 
ATOM     45  C   UNL A   1      46.383  24.731  28.626  1.00  0.00     0.029 A 
ATOM     46  C   UNL A   1      46.080  26.088  29.070  1.00  0.00     0.049 A 
ATOM     47  H   UNL A   1      44.213  27.005  29.163  1.00  0.00     0.167 HD
ATOM     48  C   UNL A   1      40.227  28.841  29.150  1.00  0.00     0.037 A 
ATOM     49  C   UNL A   1      46.981  26.989  29.505  1.00  0.00     0.037 A 
ATOM     50  C   UNL A   1      41.109  29.853  29.665  1.00  0.00     0.049 A 
ATOM     51  C   UNL A   1      46.509  28.351  29.929  1.00  0.00     0.074 A 
ATOM     52  C   UNL A   1      40.795  31.122  30.115  1.00  0.00     0.029 A 
ATOM     53  N   UNL A   1      42.480  29.702  29.808  1.00  0.00    -0.354 N 
ATOM     54  N   UNL A   1      45.291  28.838  29.935  1.00  0.00    -0.248 NA
ATOM     55  C   UNL A   1      47.534  29.289  30.409  1.00  0.00     0.031 C 
ATOM     56  C   UNL A   1      41.981  31.750  30.508  1.00  0.00     0.029 A 
ATOM     57  C   UNL A   1      43.029  30.859  30.334  1.00  0.00     0.049 A 
ATOM     58  H   UNL A   1      42.988  28.893  29.569  1.00  0.00     0.167 HD
ATOM     59  C   UNL A   1      45.399  30.127  30.434  1.00  0.00     0.074 A 
ATOM     60  C   UNL A   1      46.800  30.344  30.734  1.00  0.00     0.031 C 
ATOM     61  C   UNL A   1      44.425  31.050  30.628  1.00  0.00     0.037 A 
BRANCH  48  62
ATOM     62  C   UNL A   1      38.766  29.154  29.033  1.00  0.00     0.057 A 
ATOM     63  C   UNL A   1      37.909  29.084  30.140  1.00  0.00     0.134 A 
ATOM     64  C   UNL A   1      38.213  29.550  27.809  1.00  0.00     0.134 A 
ATOM     65  F   UNL A   1      38.375  28.694  31.336  1.00  0.00    -0.206 F 
ATOM     66  C   UNL A   1      36.549  29.376  30.029  1.00  0.00     0.040 A 
ATOM     67  C   UNL A   1      36.859  29.869  27.692  1.00  0.00     0.040 A 
ATOM     68  F   UNL A   1      38.978  29.637  26.712  1.00  0.00    -0.206 F 
ATOM     69  C   UNL A   1      36.022  29.776  28.803  1.00  0.00     0.006 A 
ENDBRANCH  48  62
BRANCH  49  70
ATOM     70  C   UNL A   1      48.412  26.614  29.598  1.00  0.00     0.057 A 
ATOM     71  C   UNL A   1      48.905  25.946  30.726  1.00  0.00     0.134 A 
ATOM     72  C   UNL A   1      49.316  26.895  28.567  1.00  0.00     0.134 A 
ATOM     73  F   UNL A   1      48.089  25.667  31.753  1.00  0.00    -0.206 F 
ATOM     74  C   UNL A   1      50.246  25.577  30.829  1.00  0.00     0.040 A 
ATOM     75  C   UNL A   1      50.657  26.513  28.648  1.00  0.00     0.040 A 
ATOM     76  F   UNL A   1      48.903  27.527  27.459  1.00  0.00    -0.206 F 
ATOM     77  C   UNL A   1      51.126  25.855  29.784  1.00  0.00     0.006 A 
ENDBRANCH  49  70
BRANCH  61  78
ATOM     78  C   UNL A   1      44.836  32.370  31.208  1.00  0.00     0.057 A 
ATOM     79  C   UNL A   1      45.158  33.461  30.393  1.00  0.00     0.134 A 
ATOM     80  C   UNL A   1      44.846  32.567  32.594  1.00  0.00     0.134 A 
ATOM     81  F   UNL A   1      45.175  33.331  29.057  1.00  0.00    -0.206 F 
ATOM     82  C   UNL A   1      45.489  34.702  30.938  1.00  0.00     0.040 A 
ATOM     83  C   UNL A   1      45.156  33.808  33.150  1.00  0.00     0.040 A 
ATOM     84  F   UNL A   1      44.538  31.562  33.428  1.00  0.00    -0.206 F 
ATOM     85  C   UNL A   1      45.481  34.880  32.320  1.00  0.00     0.006 A 
ENDBRANCH  61  78
ENDBRANCH  35  36
ENDBRANCH  27  30
ENDBRANCH  25  26
ENDBRANCH   1  25
TORSDOF 12
ENDMDL
MODEL 2
REMARK VINA RESULT:     -12.4      0.065      1.300
REMARK SMILES Cc1cc2c(c(C)c1Cl)C=C(C(=O)NCCCCNC(=O)c1ccc(-c3c4nc(c(-c5c(F)cccc5F)c5ccc([nH]5)c(-c5c(F)cccc5F)c5nc(c(-c6c(F)cccc6F)c6ccc3[nH]6)C=C5)C=C4)cc1)[C@H](C(F)(F)F)O2
REMARK SMILES IDX 17 1 16 2 15 3 14 4 12 5 13 6 11 8 1 9 2 10 3 11 8 12 4 13
REMARK SMILES IDX 6 14 9 15 5 16 81 17 7 18 10 19 76 20 77 21 78 22 79 23
REMARK SMILES IDX 80 24 18 25 19 26 20 27 21 29 22 30 23 31 75 32 24 33 74 34
REMARK SMILES IDX 25 35 26 36 27 37 68 38 28 39 73 40 67 41 69 42 29 43 72 44
REMARK SMILES IDX 66 45 65 46 30 48 56 49 39 50 55 51 40 52 43 53 54 54 70 55
REMARK SMILES IDX 41 56 42 57 53 59 71 60 44 61 31 62 32 63 37 64 33 65 34 66
REMARK SMILES IDX 36 67 38 68 35 69 57 70 58 71 63 72 59 73 60 74 62 75 64 76
REMARK SMILES IDX 61 77 45 78 46 79 51 80 47 81 48 82 50 83 52 84 49 85
REMARK H PARENT 14 7 19 28 69 47 43 58
REMARK Flexibility Score: inf
ROOT
ATOM      1  C   UNL A   1      37.496  20.591  24.923  1.00  0.00     0.023 C 
ENDROOT
BRANCH   1   2
ATOM      2  C   UNL A   1      36.805  21.840  24.375  1.00  0.00     0.023 C 
BRANCH   2   3
ATOM      3  C   UNL A   1      36.491  22.900  25.429  1.00  0.00     0.116 C 
BRANCH   3   4
ATOM      4  N   UNL A   1      35.637  22.376  26.479  1.00  0.00    -0.352 N 
ATOM      5  C   UNL A   1      34.321  22.403  26.790  1.00  0.00     0.251 C 
ATOM      6  O   UNL A   1      34.009  21.736  27.782  1.00  0.00    -0.270 OA
ATOM      7  H   UNL A   1      36.154  21.866  27.143  1.00  0.00     0.163 HD
BRANCH   5   8
ATOM      8  C   UNL A   1      33.265  23.157  26.050  1.00  0.00     0.067 C 
ATOM      9  C   UNL A   1      29.250  27.550  23.405  1.00  0.00     0.046 C 
ATOM     10  C   UNL A   1      30.342  26.813  24.131  1.00  0.00    -0.028 A 
ATOM     11  C   UNL A   1      30.283  25.418  24.181  1.00  0.00     0.052 A 
ATOM     12  C   UNL A   1      31.402  27.474  24.787  1.00  0.00     0.047 A 
ATOM     13  C   UNL A   1      31.267  24.694  24.846  1.00  0.00     0.128 A 
ATOM     14  C   UNL A   1      32.407  26.749  25.473  1.00  0.00    -0.021 A 
ATOM     15  Cl  UNL A   1      31.438  29.212  24.748  1.00  0.00    -0.084 Cl
ATOM     16  C   UNL A   1      32.317  25.335  25.508  1.00  0.00     0.022 A 
ATOM     17  O   UNL A   1      31.107  23.337  24.834  1.00  0.00    -0.475 OA
ATOM     18  C   UNL A   1      33.558  27.439  26.166  1.00  0.00     0.047 C 
ATOM     19  C   UNL A   1      33.261  24.490  26.249  1.00  0.00     0.026 C 
ATOM     20  C   UNL A   1      32.308  22.554  25.065  1.00  0.00     0.314 C 
BRANCH  20  21
ATOM     21  C   UNL A   1      32.962  22.172  23.728  1.00  0.00     0.429 C 
ATOM     22  F   UNL A   1      32.069  22.045  22.722  1.00  0.00    -0.167 F 
ATOM     23  F   UNL A   1      33.880  23.080  23.323  1.00  0.00    -0.167 F 
ATOM     24  F   UNL A   1      33.613  20.988  23.847  1.00  0.00    -0.167 F 
ENDBRANCH  20  21
ENDBRANCH   5   8
ENDBRANCH   3   4
ENDBRANCH   2   3
ENDBRANCH   1   2
BRANCH   1  25
ATOM     25  C   UNL A   1      38.778  20.852  25.705  1.00  0.00     0.116 C 
BRANCH  25  26
ATOM     26  N   UNL A   1      39.730  19.754  25.646  1.00  0.00    -0.352 N 
ATOM     27  C   UNL A   1      41.058  19.758  26.001  1.00  0.00     0.251 C 
ATOM     28  H   UNL A   1      39.379  18.898  25.308  1.00  0.00     0.163 HD
ATOM     29  O   UNL A   1      41.762  18.775  25.817  1.00  0.00    -0.269 OA
BRANCH  27  30
ATOM     30  C   UNL A   1      41.629  20.991  26.576  1.00  0.00     0.039 A 
ATOM     31  C   UNL A   1      42.135  21.964  25.713  1.00  0.00     0.014 A 
ATOM     32  C   UNL A   1      41.595  21.203  27.957  1.00  0.00     0.014 A 
ATOM     33  C   UNL A   1      42.549  23.189  26.233  1.00  0.00     0.010 A 
ATOM     34  C   UNL A   1      41.940  22.448  28.463  1.00  0.00     0.010 A 
ATOM     35  C   UNL A   1      42.421  23.451  27.607  1.00  0.00    -0.014 A 
BRANCH  35  36
ATOM     36  C   UNL A   1      42.805  24.760  28.181  1.00  0.00     0.031 A 
ATOM     37  C   UNL A   1      41.754  25.810  28.396  1.00  0.00     0.074 A 
ATOM     38  C   UNL A   1      44.100  25.025  28.440  1.00  0.00     0.049 A 
ATOM     39  N   UNL A   1      41.892  27.051  28.782  1.00  0.00    -0.248 NA
ATOM     40  C   UNL A   1      40.364  25.418  28.109  1.00  0.00     0.031 C 
ATOM     41  C   UNL A   1      45.214  24.098  28.236  1.00  0.00     0.029 A 
ATOM     42  N   UNL A   1      44.696  26.162  28.925  1.00  0.00    -0.354 N 
ATOM     43  C   UNL A   1      40.614  27.593  28.764  1.00  0.00     0.074 A 
ATOM     44  C   UNL A   1      39.720  26.562  28.282  1.00  0.00     0.031 C 
ATOM     45  C   UNL A   1      46.355  24.693  28.619  1.00  0.00     0.029 A 
ATOM     46  C   UNL A   1      46.058  26.052  29.062  1.00  0.00     0.049 A 
ATOM     47  H   UNL A   1      44.195  26.977  29.154  1.00  0.00     0.167 HD
ATOM     48  C   UNL A   1      40.217  28.831  29.140  1.00  0.00     0.037 A 
ATOM     49  C   UNL A   1      46.963  26.949  29.495  1.00  0.00     0.037 A 
ATOM     50  C   UNL A   1      41.104  29.839  29.653  1.00  0.00     0.049 A 
ATOM     51  C   UNL A   1      46.497  28.314  29.918  1.00  0.00     0.074 A 
ATOM     52  C   UNL A   1      40.796  31.110  30.102  1.00  0.00     0.029 A 
ATOM     53  N   UNL A   1      42.475  29.683  29.797  1.00  0.00    -0.354 N 
ATOM     54  N   UNL A   1      45.281  28.806  29.923  1.00  0.00    -0.248 NA
ATOM     55  C   UNL A   1      47.526  29.248  30.396  1.00  0.00     0.031 C 
ATOM     56  C   UNL A   1      41.985  31.734  30.494  1.00  0.00     0.029 A 
ATOM     57  C   UNL A   1      43.028  30.837  30.321  1.00  0.00     0.049 A 
ATOM     58  H   UNL A   1      42.979  28.871  29.558  1.00  0.00     0.167 HD
ATOM     59  C   UNL A   1      45.395  30.096  30.421  1.00  0.00     0.074 A 
ATOM     60  C   UNL A   1      46.797  30.307  30.720  1.00  0.00     0.031 C 
ATOM     61  C   UNL A   1      44.426  31.023  30.614  1.00  0.00     0.037 A 
BRANCH  48  62
ATOM     62  C   UNL A   1      38.757  29.150  29.023  1.00  0.00     0.057 A 
ATOM     63  C   UNL A   1      37.897  29.064  30.125  1.00  0.00     0.134 A 
ATOM     64  C   UNL A   1      38.210  29.567  27.804  1.00  0.00     0.134 A 
ATOM     65  F   UNL A   1      38.357  28.654  31.316  1.00  0.00    -0.206 F 
ATOM     66  C   UNL A   1      36.538  29.362  30.015  1.00  0.00     0.040 A 
ATOM     67  C   UNL A   1      36.857  29.891  27.687  1.00  0.00     0.040 A 
ATOM     68  F   UNL A   1      38.980  29.670  26.711  1.00  0.00    -0.206 F 
ATOM     69  C   UNL A   1      36.017  29.784  28.794  1.00  0.00     0.006 A 
ENDBRANCH  48  62
BRANCH  49  70
ATOM     70  C   UNL A   1      48.393  26.569  29.589  1.00  0.00     0.057 A 
ATOM     71  C   UNL A   1      49.282  26.868  28.549  1.00  0.00     0.134 A 
ATOM     72  C   UNL A   1      48.910  25.918  30.715  1.00  0.00     0.134 A 
ATOM     73  F   UNL A   1      48.839  27.475  27.438  1.00  0.00    -0.206 F 
ATOM     74  C   UNL A   1      50.632  26.527  28.622  1.00  0.00     0.040 A 
ATOM     75  C   UNL A   1      50.264  25.589  30.809  1.00  0.00     0.040 A 
ATOM     76  F   UNL A   1      48.111  25.611  31.746  1.00  0.00    -0.206 F 
ATOM     77  C   UNL A   1      51.129  25.891  29.758  1.00  0.00     0.006 A 
ENDBRANCH  49  70
BRANCH  61  78
ATOM     78  C   UNL A   1      44.842  32.342  31.192  1.00  0.00     0.057 A 
ATOM     79  C   UNL A   1      44.913  32.547  32.575  1.00  0.00     0.134 A 
ATOM     80  C   UNL A   1      45.235  33.394  30.357  1.00  0.00     0.134 A 
ATOM     81  F   UNL A   1      44.539  31.580  33.427  1.00  0.00    -0.206 F 
ATOM     82  C   UNL A   1      45.350  33.760  33.108  1.00  0.00     0.040 A 
ATOM     83  C   UNL A   1      45.694  34.604  30.877  1.00  0.00     0.040 A 
ATOM     84  F   UNL A   1      45.197  33.255  29.023  1.00  0.00    -0.206 F 
ATOM     85  C   UNL A   1      45.749  34.790  32.258  1.00  0.00     0.006 A 
ENDBRANCH  61  78
ENDBRANCH  35  36
ENDBRANCH  27  30
ENDBRANCH  25  26
ENDBRANCH   1  25
TORSDOF 12
ENDMDL
MODEL 3
REMARK VINA RESULT:     -12.3      0.361      6.190
REMARK SMILES Cc1cc2c(c(C)c1Cl)C=C(C(=O)NCCCCNC(=O)c1ccc(-c3c4nc(c(-c5c(F)cccc5F)c5ccc([nH]5)c(-c5c(F)cccc5F)c5nc(c(-c6c(F)cccc6F)c6ccc3[nH]6)C=C5)C=C4)cc1)[C@H](C(F)(F)F)O2
REMARK SMILES IDX 17 1 16 2 15 3 14 4 12 5 13 6 11 8 1 9 2 10 3 11 8 12 4 13
REMARK SMILES IDX 6 14 9 15 5 16 81 17 7 18 10 19 76 20 77 21 78 22 79 23
REMARK SMILES IDX 80 24 18 25 19 26 20 27 21 29 22 30 23 31 75 32 24 33 74 34
REMARK SMILES IDX 25 35 26 36 27 37 68 38 28 39 73 40 67 41 69 42 29 43 72 44
REMARK SMILES IDX 66 45 65 46 30 48 56 49 39 50 55 51 40 52 43 53 54 54 70 55
REMARK SMILES IDX 41 56 42 57 53 59 71 60 44 61 31 62 32 63 37 64 33 65 34 66
REMARK SMILES IDX 36 67 38 68 35 69 57 70 58 71 63 72 59 73 60 74 62 75 64 76
REMARK SMILES IDX 61 77 45 78 46 79 51 80 47 81 48 82 50 83 52 84 49 85
REMARK H PARENT 14 7 19 28 69 47 43 58
REMARK Flexibility Score: inf
ROOT
ATOM      1  C   UNL A   1      37.571  20.221  24.936  1.00  0.00     0.023 C 
ENDROOT
BRANCH   1   2
ATOM      2  C   UNL A   1      36.801  21.414  24.370  1.00  0.00     0.023 C 
BRANCH   2   3
ATOM      3  C   UNL A   1      36.508  22.515  25.388  1.00  0.00     0.116 C 
BRANCH   3   4
ATOM      4  N   UNL A   1      35.665  22.036  26.468  1.00  0.00    -0.352 N 
ATOM      5  C   UNL A   1      34.358  22.109  26.810  1.00  0.00     0.251 C 
ATOM      6  O   UNL A   1      34.051  21.469  27.822  1.00  0.00    -0.270 OA
ATOM      7  H   UNL A   1      36.182  21.522  27.128  1.00  0.00     0.163 HD
BRANCH   5   8
ATOM      8  C   UNL A   1      33.307  22.883  26.083  1.00  0.00     0.067 C 
ATOM      9  C   UNL A   1      29.366  27.351  23.454  1.00  0.00     0.046 C 
ATOM     10  C   UNL A   1      30.454  26.594  24.166  1.00  0.00    -0.028 A 
ATOM     11  C   UNL A   1      30.351  25.202  24.247  1.00  0.00     0.052 A 
ATOM     12  C   UNL A   1      31.552  27.232  24.779  1.00  0.00     0.047 A 
ATOM     13  C   UNL A   1      31.328  24.460  24.900  1.00  0.00     0.128 A 
ATOM     14  C   UNL A   1      32.551  26.488  25.453  1.00  0.00    -0.021 A 
ATOM     15  Cl  UNL A   1      31.644  28.967  24.702  1.00  0.00    -0.084 Cl
ATOM     16  C   UNL A   1      32.416  25.080  25.521  1.00  0.00     0.022 A 
ATOM     17  O   UNL A   1      31.124  23.109  24.922  1.00  0.00    -0.475 OA
ATOM     18  C   UNL A   1      33.742  27.154  26.101  1.00  0.00     0.047 C 
ATOM     19  C   UNL A   1      33.352  24.218  26.254  1.00  0.00     0.026 C 
ATOM     20  C   UNL A   1      32.304  22.291  25.137  1.00  0.00     0.314 C 
BRANCH  20  21
ATOM     21  C   UNL A   1      32.909  21.862  23.792  1.00  0.00     0.429 C 
ATOM     22  F   UNL A   1      33.565  20.682  23.862  1.00  0.00    -0.167 F 
ATOM     23  F   UNL A   1      31.976  21.733  22.822  1.00  0.00    -0.167 F 
ATOM     24  F   UNL A   1      33.795  22.794  23.358  1.00  0.00    -0.167 F 
ENDBRANCH  20  21
ENDBRANCH   5   8
ENDBRANCH   3   4
ENDBRANCH   2   3
ENDBRANCH   1   2
BRANCH   1  25
ATOM     25  C   UNL A   1      38.819  20.578  25.735  1.00  0.00     0.116 C 
BRANCH  25  26
ATOM     26  N   UNL A   1      39.846  19.548  25.704  1.00  0.00    -0.352 N 
ATOM     27  C   UNL A   1      41.170  19.653  26.057  1.00  0.00     0.251 C 
ATOM     28  H   UNL A   1      39.555  18.661  25.390  1.00  0.00     0.163 HD
ATOM     29  O   UNL A   1      41.941  18.718  25.898  1.00  0.00    -0.269 OA
BRANCH  27  30
ATOM     30  C   UNL A   1      41.653  20.938  26.598  1.00  0.00     0.039 A 
ATOM     31  C   UNL A   1      42.137  21.902  25.713  1.00  0.00     0.014 A 
ATOM     32  C   UNL A   1      41.558  21.204  27.967  1.00  0.00     0.014 A 
ATOM     33  C   UNL A   1      42.466  23.168  26.195  1.00  0.00     0.010 A 
ATOM     34  C   UNL A   1      41.819  22.485  28.432  1.00  0.00     0.010 A 
ATOM     35  C   UNL A   1      42.275  23.477  27.552  1.00  0.00    -0.014 A 
BRANCH  35  36
ATOM     36  C   UNL A   1      42.568  24.827  28.083  1.00  0.00     0.031 A 
ATOM     37  C   UNL A   1      43.970  25.169  28.499  1.00  0.00     0.074 A 
ATOM     38  C   UNL A   1      41.568  25.713  28.254  1.00  0.00     0.049 A 
ATOM     39  N   UNL A   1      44.417  26.249  29.086  1.00  0.00    -0.248 NA
ATOM     40  C   UNL A   1      44.999  24.147  28.249  1.00  0.00     0.031 C 
ATOM     41  C   UNL A   1      40.162  25.479  27.922  1.00  0.00     0.029 A 
ATOM     42  N   UNL A   1      41.585  26.988  28.761  1.00  0.00    -0.354 N 
ATOM     43  C   UNL A   1      45.772  26.027  29.292  1.00  0.00     0.074 A 
ATOM     44  C   UNL A   1      46.064  24.693  28.815  1.00  0.00     0.031 C 
ATOM     45  C   UNL A   1      39.455  26.585  28.208  1.00  0.00     0.029 A 
ATOM     46  C   UNL A   1      40.350  27.589  28.774  1.00  0.00     0.049 A 
ATOM     47  H   UNL A   1      42.403  27.429  29.083  1.00  0.00     0.167 HD
ATOM     48  C   UNL A   1      46.695  26.871  29.810  1.00  0.00     0.037 A 
ATOM     49  C   UNL A   1      39.986  28.814  29.197  1.00  0.00     0.037 A 
ATOM     50  C   UNL A   1      46.407  28.209  30.249  1.00  0.00     0.049 A 
ATOM     51  C   UNL A   1      41.030  29.737  29.758  1.00  0.00     0.074 A 
ATOM     52  C   UNL A   1      47.278  29.158  30.750  1.00  0.00     0.029 A 
ATOM     53  N   UNL A   1      45.148  28.790  30.227  1.00  0.00    -0.354 N 
ATOM     54  N   UNL A   1      42.314  29.527  29.923  1.00  0.00    -0.248 NA
ATOM     55  C   UNL A   1      40.578  31.067  30.191  1.00  0.00     0.031 C 
ATOM     56  C   UNL A   1      46.542  30.308  31.054  1.00  0.00     0.029 A 
ATOM     57  C   UNL A   1      45.218  30.084  30.712  1.00  0.00     0.049 A 
ATOM     58  H   UNL A   1      44.326  28.346  29.915  1.00  0.00     0.167 HD
ATOM     59  C   UNL A   1      42.826  30.700  30.459  1.00  0.00     0.074 A 
ATOM     60  C   UNL A   1      41.717  31.624  30.580  1.00  0.00     0.031 C 
ATOM     61  C   UNL A   1      44.101  30.987  30.818  1.00  0.00     0.037 A 
BRANCH  48  62
ATOM     62  C   UNL A   1      48.104  26.369  29.912  1.00  0.00     0.057 A 
ATOM     63  C   UNL A   1      48.571  25.721  31.064  1.00  0.00     0.134 A 
ATOM     64  C   UNL A   1      48.996  26.513  28.843  1.00  0.00     0.134 A 
ATOM     65  F   UNL A   1      47.770  25.568  32.129  1.00  0.00    -0.206 F 
ATOM     66  C   UNL A   1      49.882  25.254  31.157  1.00  0.00     0.040 A 
ATOM     67  C   UNL A   1      50.303  26.028  28.915  1.00  0.00     0.040 A 
ATOM     68  F   UNL A   1      48.611  27.123  27.712  1.00  0.00    -0.206 F 
ATOM     69  C   UNL A   1      50.750  25.401  30.077  1.00  0.00     0.006 A 
ENDBRANCH  48  62
BRANCH  49  70
ATOM     70  C   UNL A   1      38.574  29.249  29.067  1.00  0.00     0.057 A 
ATOM     71  C   UNL A   1      38.072  29.687  27.835  1.00  0.00     0.134 A 
ATOM     72  C   UNL A   1      37.692  29.224  30.152  1.00  0.00     0.134 A 
ATOM     73  F   UNL A   1      38.876  29.750  26.764  1.00  0.00    -0.206 F 
ATOM     74  C   UNL A   1      36.745  30.092  27.690  1.00  0.00     0.040 A 
ATOM     75  C   UNL A   1      36.356  29.607  30.016  1.00  0.00     0.040 A 
ATOM     76  F   UNL A   1      38.112  28.808  31.356  1.00  0.00    -0.206 F 
ATOM     77  C   UNL A   1      35.880  30.046  28.782  1.00  0.00     0.006 A 
ENDBRANCH  49  70
BRANCH  61  78
ATOM     78  C   UNL A   1      44.370  32.359  31.357  1.00  0.00     0.057 A 
ATOM     79  C   UNL A   1      44.671  33.434  30.512  1.00  0.00     0.134 A 
ATOM     80  C   UNL A   1      44.264  32.620  32.729  1.00  0.00     0.134 A 
ATOM     81  F   UNL A   1      44.795  33.244  29.189  1.00  0.00    -0.206 F 
ATOM     82  C   UNL A   1      44.869  34.720  31.014  1.00  0.00     0.040 A 
ATOM     83  C   UNL A   1      44.441  33.906  33.241  1.00  0.00     0.040 A 
ATOM     84  F   UNL A   1      43.970  31.633  33.589  1.00  0.00    -0.206 F 
ATOM     85  C   UNL A   1      44.747  34.960  32.382  1.00  0.00     0.006 A 
ENDBRANCH  61  78
ENDBRANCH  35  36
ENDBRANCH  27  30
ENDBRANCH  25  26
ENDBRANCH   1  25
TORSDOF 12
ENDMDL
