MODEL 1
REMARK VINA RESULT:     -10.9      0.000      0.000
REMARK SMILES CCOc1cccc(OCC)c1-c1ccc([C@@H](C)C(=O)NCCCCNC(=O)c2ccc(-c3c4nc(c(-c5c(F)cccc5F)c5ccc([nH]5)c(-c5c(F)cccc5F)c5nc(c(-c6c(F)cccc6F)c6ccc3[nH]6)C=C5)C=C4)cc2)cc1F
REMARK SMILES IDX 22 1 21 2 19 3 20 4 17 6 18 7 16 8 13 9 14 10 84 11 15 12
REMARK SMILES IDX 83 13 85 14 12 15 4 16 5 17 6 18 8 19 7 20 3 21 2 22 1 23
REMARK SMILES IDX 9 24 10 25 11 26 23 27 24 28 25 29 26 30 27 31 28 33 29 34
REMARK SMILES IDX 30 35 82 36 31 37 81 38 32 39 33 40 34 41 75 42 35 43 80 44
REMARK SMILES IDX 74 45 76 46 36 47 79 48 73 49 72 50 37 52 63 53 46 54 62 55
REMARK SMILES IDX 47 56 50 57 61 58 77 59 48 60 49 61 60 63 78 64 51 65 38 66
REMARK SMILES IDX 39 67 44 68 40 69 41 70 43 71 45 72 42 73 64 74 65 75 70 76
REMARK SMILES IDX 66 77 67 78 69 79 71 80 68 81 52 82 53 83 58 84 54 85 55 86
REMARK SMILES IDX 57 87 59 88 56 89
REMARK H PARENT 21 5 26 32 76 51 50 62
REMARK Flexibility Score: inf
ROOT
ATOM      1  C   UNL A   1      31.429  29.455  24.866  1.00  0.00     0.116 C 
ENDROOT
BRANCH   1   2
ATOM      2  N   UNL A   1      32.674  29.556  24.123  1.00  0.00    -0.356 N 
ATOM      3  C   UNL A   1      33.245  28.824  23.125  1.00  0.00     0.227 C 
ATOM      4  O   UNL A   1      34.381  29.188  22.793  1.00  0.00    -0.274 OA
ATOM      5  H   UNL A   1      33.227  30.320  24.404  1.00  0.00     0.163 HD
BRANCH   3   6
ATOM      6  C   UNL A   1      32.598  27.617  22.403  1.00  0.00     0.105 C 
ATOM      7  C   UNL A   1      31.082  27.706  22.254  1.00  0.00     0.023 C 
BRANCH   6   8
ATOM      8  C   UNL A   1      33.093  26.274  22.910  1.00  0.00    -0.033 A 
ATOM      9  C   UNL A   1      33.614  23.656  23.905  1.00  0.00     0.025 A 
ATOM     10  C   UNL A   1      33.130  23.875  22.617  1.00  0.00     0.012 A 
ATOM     11  C   UNL A   1      33.861  24.794  24.684  1.00  0.00     0.131 A 
ATOM     12  C   UNL A   1      33.021  25.154  22.096  1.00  0.00     0.005 A 
ATOM     13  C   UNL A   1      33.558  26.084  24.217  1.00  0.00     0.044 A 
ATOM     14  F   UNL A   1      34.338  24.671  25.934  1.00  0.00    -0.206 F 
BRANCH   9  15
ATOM     15  C   UNL A   1      33.706  22.270  24.397  1.00  0.00     0.069 A 
ATOM     16  C   UNL A   1      34.999  21.668  24.398  1.00  0.00     0.130 A 
ATOM     17  C   UNL A   1      35.239  20.398  24.926  1.00  0.00     0.047 A 
ATOM     18  C   UNL A   1      34.195  19.693  25.502  1.00  0.00     0.008 A 
ATOM     19  C   UNL A   1      32.649  21.529  24.976  1.00  0.00     0.130 A 
ATOM     20  C   UNL A   1      32.920  20.254  25.516  1.00  0.00     0.047 A 
BRANCH  16  21
ATOM     21  O   UNL A   1      36.047  22.316  23.786  1.00  0.00    -0.493 OA
BRANCH  21  22
ATOM     22  C   UNL A   1      37.265  22.257  24.535  1.00  0.00     0.226 C 
ATOM     23  C   UNL A   1      37.371  23.513  25.387  1.00  0.00     0.049 C 
ENDBRANCH  21  22
ENDBRANCH  16  21
BRANCH  19  24
ATOM     24  O   UNL A   1      31.310  21.788  25.103  1.00  0.00    -0.493 OA
BRANCH  24  25
ATOM     25  C   UNL A   1      30.700  22.458  26.195  1.00  0.00     0.226 C 
ATOM     26  C   UNL A   1      30.646  23.959  25.938  1.00  0.00     0.049 C 
ENDBRANCH  24  25
ENDBRANCH  19  24
ENDBRANCH   9  15
ENDBRANCH   6   8
ENDBRANCH   3   6
ENDBRANCH   1   2
BRANCH   1  27
ATOM     27  C   UNL A   1      31.670  29.321  26.378  1.00  0.00     0.023 C 
BRANCH  27  28
ATOM     28  C   UNL A   1      32.656  28.248  26.815  1.00  0.00     0.023 C 
BRANCH  28  29
ATOM     29  C   UNL A   1      33.978  28.777  27.342  1.00  0.00     0.116 C 
BRANCH  29  30
ATOM     30  N   UNL A   1      33.897  30.091  27.967  1.00  0.00    -0.352 N 
ATOM     31  C   UNL A   1      34.899  30.783  28.609  1.00  0.00     0.251 C 
ATOM     32  H   UNL A   1      33.021  30.537  27.924  1.00  0.00     0.163 HD
ATOM     33  O   UNL A   1      34.668  31.862  29.147  1.00  0.00    -0.269 OA
BRANCH  31  34
ATOM     34  C   UNL A   1      36.248  30.184  28.687  1.00  0.00     0.039 A 
ATOM     35  C   UNL A   1      37.097  30.273  27.582  1.00  0.00     0.014 A 
ATOM     36  C   UNL A   1      36.695  29.595  29.872  1.00  0.00     0.014 A 
ATOM     37  C   UNL A   1      38.417  29.831  27.690  1.00  0.00     0.010 A 
ATOM     38  C   UNL A   1      38.031  29.248  30.010  1.00  0.00     0.010 A 
ATOM     39  C   UNL A   1      38.904  29.348  28.915  1.00  0.00    -0.014 A 
BRANCH  39  40
ATOM     40  C   UNL A   1      40.305  28.886  29.070  1.00  0.00     0.031 A 
ATOM     41  C   UNL A   1      41.336  29.829  29.629  1.00  0.00     0.074 A 
ATOM     42  C   UNL A   1      40.665  27.657  28.651  1.00  0.00     0.049 A 
ATOM     43  N   UNL A   1      42.628  29.667  29.752  1.00  0.00    -0.248 NA
ATOM     44  C   UNL A   1      40.854  31.148  30.075  1.00  0.00     0.031 C 
ATOM     45  C   UNL A   1      39.771  26.669  28.042  1.00  0.00     0.029 A 
ATOM     46  N   UNL A   1      41.886  27.032  28.667  1.00  0.00    -0.354 N 
ATOM     47  C   UNL A   1      43.110  30.864  30.268  1.00  0.00     0.074 A 
ATOM     48  C   UNL A   1      41.985  31.766  30.373  1.00  0.00     0.031 C 
ATOM     49  C   UNL A   1      40.470  25.555  27.766  1.00  0.00     0.029 A 
ATOM     50  C   UNL A   1      41.862  25.760  28.148  1.00  0.00     0.049 A 
ATOM     51  H   UNL A   1      42.702  27.456  29.017  1.00  0.00     0.167 HD
ATOM     52  C   UNL A   1      44.369  31.174  30.653  1.00  0.00     0.037 A 
ATOM     53  C   UNL A   1      42.858  24.864  28.000  1.00  0.00     0.037 A 
ATOM     54  C   UNL A   1      45.478  30.262  30.591  1.00  0.00     0.049 A 
ATOM     55  C   UNL A   1      44.242  25.225  28.463  1.00  0.00     0.074 A 
ATOM     56  C   UNL A   1      46.786  30.464  30.992  1.00  0.00     0.029 A 
ATOM     57  N   UNL A   1      45.400  28.963  30.112  1.00  0.00    -0.354 N 
ATOM     58  N   UNL A   1      44.673  26.344  28.994  1.00  0.00    -0.248 NA
ATOM     59  C   UNL A   1      45.279  24.193  28.319  1.00  0.00     0.031 C 
ATOM     60  C   UNL A   1      47.506  29.293  30.736  1.00  0.00     0.029 A 
ATOM     61  C   UNL A   1      46.637  28.351  30.211  1.00  0.00     0.049 A 
ATOM     62  H   UNL A   1      44.587  28.539  29.755  1.00  0.00     0.167 HD
ATOM     63  C   UNL A   1      46.016  26.137  29.282  1.00  0.00     0.074 A 
ATOM     64  C   UNL A   1      46.326  24.782  28.877  1.00  0.00     0.031 C 
ATOM     65  C   UNL A   1      46.914  26.990  29.831  1.00  0.00     0.037 A 
BRANCH  52  66
ATOM     66  C   UNL A   1      44.604  32.550  31.203  1.00  0.00     0.057 A 
ATOM     67  C   UNL A   1      44.472  32.826  32.571  1.00  0.00     0.134 A 
ATOM     68  C   UNL A   1      44.995  33.602  30.366  1.00  0.00     0.134 A 
ATOM     69  F   UNL A   1      44.081  31.866  33.423  1.00  0.00    -0.206 F 
ATOM     70  C   UNL A   1      44.698  34.104  33.082  1.00  0.00     0.040 A 
ATOM     71  C   UNL A   1      45.251  34.878  30.870  1.00  0.00     0.040 A 
ATOM     72  F   UNL A   1      45.142  33.406  29.047  1.00  0.00    -0.206 F 
ATOM     73  C   UNL A   1      45.097  35.133  32.232  1.00  0.00     0.006 A 
ENDBRANCH  52  66
BRANCH  53  74
ATOM     74  C   UNL A   1      42.585  23.525  27.420  1.00  0.00     0.057 A 
ATOM     75  C   UNL A   1      42.616  23.319  26.035  1.00  0.00     0.134 A 
ATOM     76  C   UNL A   1      42.245  22.431  28.225  1.00  0.00     0.134 A 
ATOM     77  F   UNL A   1      42.916  24.333  25.210  1.00  0.00    -0.206 F 
ATOM     78  C   UNL A   1      42.287  22.086  25.469  1.00  0.00     0.040 A 
ATOM     79  C   UNL A   1      41.940  21.186  27.675  1.00  0.00     0.040 A 
ATOM     80  F   UNL A   1      42.207  22.559  29.559  1.00  0.00    -0.206 F 
ATOM     81  C   UNL A   1      41.949  21.013  26.292  1.00  0.00     0.006 A 
ENDBRANCH  53  74
BRANCH  65  82
ATOM     82  C   UNL A   1      48.295  26.464  30.081  1.00  0.00     0.057 A 
ATOM     83  C   UNL A   1      49.325  26.609  29.145  1.00  0.00     0.134 A 
ATOM     84  C   UNL A   1      48.603  25.835  31.294  1.00  0.00     0.134 A 
ATOM     85  F   UNL A   1      49.090  27.193  27.960  1.00  0.00    -0.206 F 
ATOM     86  C   UNL A   1      50.609  26.122  29.395  1.00  0.00     0.040 A 
ATOM     87  C   UNL A   1      49.889  25.368  31.566  1.00  0.00     0.040 A 
ATOM     88  F   UNL A   1      47.662  25.675  32.237  1.00  0.00    -0.206 F 
ATOM     89  C   UNL A   1      50.895  25.505  30.612  1.00  0.00     0.006 A 
ENDBRANCH  65  82
ENDBRANCH  39  40
ENDBRANCH  31  34
ENDBRANCH  29  30
ENDBRANCH  28  29
ENDBRANCH  27  28
ENDBRANCH   1  27
TORSDOF 17
ENDMDL
MODEL 2
REMARK VINA RESULT:     -10.7      4.666      6.762
REMARK SMILES CCOc1cccc(OCC)c1-c1ccc([C@@H](C)C(=O)NCCCCNC(=O)c2ccc(-c3c4nc(c(-c5c(F)cccc5F)c5ccc([nH]5)c(-c5c(F)cccc5F)c5nc(c(-c6c(F)cccc6F)c6ccc3[nH]6)C=C5)C=C4)cc2)cc1F
REMARK SMILES IDX 22 1 21 2 19 3 20 4 17 6 18 7 16 8 13 9 14 10 84 11 15 12
REMARK SMILES IDX 83 13 85 14 12 15 4 16 5 17 6 18 8 19 7 20 3 21 2 22 1 23
REMARK SMILES IDX 9 24 10 25 11 26 23 27 24 28 25 29 26 30 27 31 28 33 29 34
REMARK SMILES IDX 30 35 82 36 31 37 81 38 32 39 33 40 34 41 75 42 35 43 80 44
REMARK SMILES IDX 74 45 76 46 36 47 79 48 73 49 72 50 37 52 63 53 46 54 62 55
REMARK SMILES IDX 47 56 50 57 61 58 77 59 48 60 49 61 60 63 78 64 51 65 38 66
REMARK SMILES IDX 39 67 44 68 40 69 41 70 43 71 45 72 42 73 64 74 65 75 70 76
REMARK SMILES IDX 66 77 67 78 69 79 71 80 68 81 52 82 53 83 58 84 54 85 55 86
REMARK SMILES IDX 57 87 59 88 56 89
REMARK H PARENT 21 5 26 32 76 51 50 62
REMARK Flexibility Score: inf
ROOT
ATOM      1  C   UNL A   1      34.050  32.231  29.136  1.00  0.00     0.116 C 
ENDROOT
BRANCH   1   2
ATOM      2  N   UNL A   1      34.889  31.222  28.513  1.00  0.00    -0.356 N 
ATOM      3  C   UNL A   1      34.730  30.376  27.456  1.00  0.00     0.227 C 
ATOM      4  O   UNL A   1      35.666  29.587  27.271  1.00  0.00    -0.274 OA
ATOM      5  H   UNL A   1      35.766  31.129  28.951  1.00  0.00     0.163 HD
BRANCH   3   6
ATOM      6  C   UNL A   1      33.507  30.333  26.508  1.00  0.00     0.105 C 
ATOM      7  C   UNL A   1      32.223  30.901  27.103  1.00  0.00     0.023 C 
BRANCH   6   8
ATOM      8  C   UNL A   1      33.329  28.995  25.811  1.00  0.00    -0.033 A 
ATOM      9  C   UNL A   1      33.347  26.371  24.704  1.00  0.00     0.025 A 
ATOM     10  C   UNL A   1      33.011  26.609  26.034  1.00  0.00     0.012 A 
ATOM     11  C   UNL A   1      33.650  27.494  23.922  1.00  0.00     0.131 A 
ATOM     12  C   UNL A   1      32.864  27.898  26.521  1.00  0.00     0.005 A 
ATOM     13  C   UNL A   1      33.692  28.784  24.476  1.00  0.00     0.044 A 
ATOM     14  F   UNL A   1      33.974  27.351  22.627  1.00  0.00    -0.206 F 
BRANCH   9  15
ATOM     15  C   UNL A   1      33.487  24.975  24.252  1.00  0.00     0.069 A 
ATOM     16  C   UNL A   1      32.509  24.492  23.334  1.00  0.00     0.130 A 
ATOM     17  C   UNL A   1      32.580  23.222  22.755  1.00  0.00     0.047 A 
ATOM     18  C   UNL A   1      33.653  22.399  23.054  1.00  0.00     0.008 A 
ATOM     19  C   UNL A   1      34.568  24.115  24.557  1.00  0.00     0.130 A 
ATOM     20  C   UNL A   1      34.624  22.842  23.948  1.00  0.00     0.047 A 
BRANCH  16  21
ATOM     21  O   UNL A   1      31.402  25.260  23.056  1.00  0.00    -0.493 OA
BRANCH  21  22
ATOM     22  C   UNL A   1      30.301  25.007  23.933  1.00  0.00     0.226 C 
ATOM     23  C   UNL A   1      29.608  26.326  24.236  1.00  0.00     0.049 C 
ENDBRANCH  21  22
ENDBRANCH  16  21
BRANCH  19  24
ATOM     24  O   UNL A   1      35.633  24.247  25.407  1.00  0.00    -0.493 OA
BRANCH  24  25
ATOM     25  C   UNL A   1      36.777  23.408  25.432  1.00  0.00     0.226 C 
ATOM     26  C   UNL A   1      37.912  24.075  26.200  1.00  0.00     0.049 C 
ENDBRANCH  24  25
ENDBRANCH  19  24
ENDBRANCH   9  15
ENDBRANCH   6   8
ENDBRANCH   3   6
ENDBRANCH   1   2
BRANCH   1  27
ATOM     27  C   UNL A   1      34.394  33.648  28.648  1.00  0.00     0.023 C 
BRANCH  27  28
ATOM     28  C   UNL A   1      33.251  34.653  28.625  1.00  0.00     0.023 C 
BRANCH  28  29
ATOM     29  C   UNL A   1      33.517  35.933  29.397  1.00  0.00     0.116 C 
BRANCH  29  30
ATOM     30  N   UNL A   1      32.530  36.235  30.425  1.00  0.00    -0.352 N 
ATOM     31  C   UNL A   1      32.569  35.895  31.759  1.00  0.00     0.251 C 
ATOM     32  H   UNL A   1      31.740  36.743  30.130  1.00  0.00     0.163 HD
ATOM     33  O   UNL A   1      31.629  36.165  32.500  1.00  0.00    -0.269 OA
BRANCH  31  34
ATOM     34  C   UNL A   1      33.738  35.154  32.276  1.00  0.00     0.039 A 
ATOM     35  C   UNL A   1      33.568  33.843  32.725  1.00  0.00     0.014 A 
ATOM     36  C   UNL A   1      35.010  35.733  32.255  1.00  0.00     0.014 A 
ATOM     37  C   UNL A   1      34.687  33.090  33.089  1.00  0.00     0.010 A 
ATOM     38  C   UNL A   1      36.126  34.953  32.521  1.00  0.00     0.010 A 
ATOM     39  C   UNL A   1      35.977  33.628  32.956  1.00  0.00    -0.014 A 
BRANCH  39  40
ATOM     40  C   UNL A   1      37.186  32.850  33.318  1.00  0.00     0.031 A 
ATOM     41  C   UNL A   1      37.892  33.141  34.615  1.00  0.00     0.074 A 
ATOM     42  C   UNL A   1      37.688  31.938  32.462  1.00  0.00     0.049 A 
ATOM     43  N   UNL A   1      39.015  32.655  35.076  1.00  0.00    -0.248 NA
ATOM     44  C   UNL A   1      37.268  34.143  35.497  1.00  0.00     0.031 C 
ATOM     45  C   UNL A   1      37.128  31.602  31.151  1.00  0.00     0.029 A 
ATOM     46  N   UNL A   1      38.792  31.130  32.567  1.00  0.00    -0.354 N 
ATOM     47  C   UNL A   1      39.239  33.305  36.283  1.00  0.00     0.074 A 
ATOM     48  C   UNL A   1      38.172  34.265  36.454  1.00  0.00     0.031 C 
ATOM     49  C   UNL A   1      37.878  30.641  30.586  1.00  0.00     0.029 A 
ATOM     50  C   UNL A   1      38.986  30.316  31.477  1.00  0.00     0.049 A 
ATOM     51  H   UNL A   1      39.389  31.133  33.349  1.00  0.00     0.167 HD
ATOM     52  C   UNL A   1      40.223  33.096  37.187  1.00  0.00     0.037 A 
ATOM     53  C   UNL A   1      39.953  29.410  31.232  1.00  0.00     0.037 A 
ATOM     54  C   UNL A   1      41.258  32.109  37.039  1.00  0.00     0.049 A 
ATOM     55  C   UNL A   1      41.019  29.178  32.266  1.00  0.00     0.074 A 
ATOM     56  C   UNL A   1      42.281  31.792  37.914  1.00  0.00     0.029 A 
ATOM     57  N   UNL A   1      41.386  31.266  35.946  1.00  0.00    -0.354 N 
ATOM     58  N   UNL A   1      41.190  29.766  33.426  1.00  0.00    -0.248 NA
ATOM     59  C   UNL A   1      42.023  28.147  31.964  1.00  0.00     0.031 C 
ATOM     60  C   UNL A   1      43.042  30.769  37.340  1.00  0.00     0.029 A 
ATOM     61  C   UNL A   1      42.470  30.425  36.127  1.00  0.00     0.049 A 
ATOM     62  H   UNL A   1      40.795  31.265  35.159  1.00  0.00     0.167 HD
ATOM     63  C   UNL A   1      42.292  29.151  34.006  1.00  0.00     0.074 A 
ATOM     64  C   UNL A   1      42.742  28.137  33.077  1.00  0.00     0.031 C 
ATOM     65  C   UNL A   1      42.880  29.401  35.201  1.00  0.00     0.037 A 
BRANCH  52  66
ATOM     66  C   UNL A   1      40.209  33.936  38.431  1.00  0.00     0.057 A 
ATOM     67  C   UNL A   1      39.493  33.545  39.571  1.00  0.00     0.134 A 
ATOM     68  C   UNL A   1      40.939  35.128  38.503  1.00  0.00     0.134 A 
ATOM     69  F   UNL A   1      38.758  32.422  39.560  1.00  0.00    -0.206 F 
ATOM     70  C   UNL A   1      39.486  34.322  40.730  1.00  0.00     0.040 A 
ATOM     71  C   UNL A   1      40.961  35.900  39.666  1.00  0.00     0.040 A 
ATOM     72  F   UNL A   1      41.648  35.559  37.448  1.00  0.00    -0.206 F 
ATOM     73  C   UNL A   1      40.228  35.499  40.782  1.00  0.00     0.006 A 
ENDBRANCH  52  66
BRANCH  53  74
ATOM     74  C   UNL A   1      39.946  28.625  29.971  1.00  0.00     0.057 A 
ATOM     75  C   UNL A   1      39.235  27.422  29.875  1.00  0.00     0.134 A 
ATOM     76  C   UNL A   1      40.679  29.031  28.849  1.00  0.00     0.134 A 
ATOM     77  F   UNL A   1      38.529  26.971  30.922  1.00  0.00    -0.206 F 
ATOM     78  C   UNL A   1      39.280  26.634  28.723  1.00  0.00     0.040 A 
ATOM     79  C   UNL A   1      40.712  28.266  27.683  1.00  0.00     0.040 A 
ATOM     80  F   UNL A   1      41.374  30.177  28.873  1.00  0.00    -0.206 F 
ATOM     81  C   UNL A   1      40.021  27.057  27.621  1.00  0.00     0.006 A 
ENDBRANCH  53  74
BRANCH  65  82
ATOM     82  C   UNL A   1      44.032  28.527  35.594  1.00  0.00     0.057 A 
ATOM     83  C   UNL A   1      43.854  27.354  36.336  1.00  0.00     0.134 A 
ATOM     84  C   UNL A   1      45.335  28.849  35.190  1.00  0.00     0.134 A 
ATOM     85  F   UNL A   1      42.632  26.997  36.761  1.00  0.00    -0.206 F 
ATOM     86  C   UNL A   1      44.935  26.543  36.687  1.00  0.00     0.040 A 
ATOM     87  C   UNL A   1      46.419  28.034  35.513  1.00  0.00     0.040 A 
ATOM     88  F   UNL A   1      45.570  29.955  34.468  1.00  0.00    -0.206 F 
ATOM     89  C   UNL A   1      46.221  26.880  36.269  1.00  0.00     0.006 A 
ENDBRANCH  65  82
ENDBRANCH  39  40
ENDBRANCH  31  34
ENDBRANCH  29  30
ENDBRANCH  28  29
ENDBRANCH  27  28
ENDBRANCH   1  27
TORSDOF 17
ENDMDL
MODEL 3
REMARK VINA RESULT:     -10.6      3.590      7.475
REMARK SMILES CCOc1cccc(OCC)c1-c1ccc([C@@H](C)C(=O)NCCCCNC(=O)c2ccc(-c3c4nc(c(-c5c(F)cccc5F)c5ccc([nH]5)c(-c5c(F)cccc5F)c5nc(c(-c6c(F)cccc6F)c6ccc3[nH]6)C=C5)C=C4)cc2)cc1F
REMARK SMILES IDX 22 1 21 2 19 3 20 4 17 6 18 7 16 8 13 9 14 10 84 11 15 12
REMARK SMILES IDX 83 13 85 14 12 15 4 16 5 17 6 18 8 19 7 20 3 21 2 22 1 23
REMARK SMILES IDX 9 24 10 25 11 26 23 27 24 28 25 29 26 30 27 31 28 33 29 34
REMARK SMILES IDX 30 35 82 36 31 37 81 38 32 39 33 40 34 41 75 42 35 43 80 44
REMARK SMILES IDX 74 45 76 46 36 47 79 48 73 49 72 50 37 52 63 53 46 54 62 55
REMARK SMILES IDX 47 56 50 57 61 58 77 59 48 60 49 61 60 63 78 64 51 65 38 66
REMARK SMILES IDX 39 67 44 68 40 69 41 70 43 71 45 72 42 73 64 74 65 75 70 76
REMARK SMILES IDX 66 77 67 78 69 79 71 80 68 81 52 82 53 83 58 84 54 85 55 86
REMARK SMILES IDX 57 87 59 88 56 89
REMARK H PARENT 21 5 26 32 76 51 50 62
REMARK Flexibility Score: inf
ROOT
ATOM      1  C   UNL A   1      33.513  29.328  26.579  1.00  0.00     0.116 C 
ENDROOT
BRANCH   1   2
ATOM      2  N   UNL A   1      33.710  29.557  25.157  1.00  0.00    -0.356 N 
ATOM      3  C   UNL A   1      33.337  28.889  24.029  1.00  0.00     0.227 C 
ATOM      4  O   UNL A   1      33.769  29.367  22.971  1.00  0.00    -0.274 OA
ATOM      5  H   UNL A   1      34.229  30.371  24.968  1.00  0.00     0.163 HD
BRANCH   3   6
ATOM      6  C   UNL A   1      32.444  27.626  23.977  1.00  0.00     0.105 C 
ATOM      7  C   UNL A   1      31.162  27.723  24.799  1.00  0.00     0.023 C 
BRANCH   6   8
ATOM      8  C   UNL A   1      33.214  26.333  24.180  1.00  0.00    -0.033 A 
ATOM      9  C   UNL A   1      34.298  23.714  24.460  1.00  0.00     0.025 A 
ATOM     10  C   UNL A   1      34.020  24.269  23.214  1.00  0.00     0.012 A 
ATOM     11  C   UNL A   1      34.045  24.521  25.578  1.00  0.00     0.131 A 
ATOM     12  C   UNL A   1      33.632  25.594  23.084  1.00  0.00     0.005 A 
ATOM     13  C   UNL A   1      33.463  25.792  25.448  1.00  0.00     0.044 A 
ATOM     14  F   UNL A   1      34.295  24.064  26.815  1.00  0.00    -0.206 F 
BRANCH   9  15
ATOM     15  C   UNL A   1      34.707  22.300  24.526  1.00  0.00     0.069 A 
ATOM     16  C   UNL A   1      36.105  22.033  24.606  1.00  0.00     0.130 A 
ATOM     17  C   UNL A   1      36.620  20.745  24.770  1.00  0.00     0.047 A 
ATOM     18  C   UNL A   1      35.748  19.675  24.889  1.00  0.00     0.008 A 
ATOM     19  C   UNL A   1      33.832  21.193  24.634  1.00  0.00     0.130 A 
ATOM     20  C   UNL A   1      34.375  19.903  24.813  1.00  0.00     0.047 A 
BRANCH  16  21
ATOM     21  O   UNL A   1      37.002  23.063  24.438  1.00  0.00    -0.493 OA
BRANCH  21  22
ATOM     22  C   UNL A   1      38.016  23.103  25.446  1.00  0.00     0.226 C 
ATOM     23  C   UNL A   1      37.632  24.150  26.479  1.00  0.00     0.049 C 
ENDBRANCH  21  22
ENDBRANCH  16  21
BRANCH  19  24
ATOM     24  O   UNL A   1      32.467  21.093  24.562  1.00  0.00    -0.493 OA
BRANCH  24  25
ATOM     25  C   UNL A   1      31.549  21.653  25.487  1.00  0.00     0.226 C 
ATOM     26  C   UNL A   1      30.919  22.918  24.915  1.00  0.00     0.049 C 
ENDBRANCH  24  25
ENDBRANCH  19  24
ENDBRANCH   9  15
ENDBRANCH   6   8
ENDBRANCH   3   6
ENDBRANCH   1   2
BRANCH   1  27
ATOM     27  C   UNL A   1      32.178  29.908  27.074  1.00  0.00     0.023 C 
BRANCH  27  28
ATOM     28  C   UNL A   1      31.918  31.374  26.760  1.00  0.00     0.023 C 
BRANCH  28  29
ATOM     29  C   UNL A   1      33.016  32.323  27.209  1.00  0.00     0.116 C 
BRANCH  29  30
ATOM     30  N   UNL A   1      32.559  33.667  27.534  1.00  0.00    -0.352 N 
ATOM     31  C   UNL A   1      33.088  34.538  28.460  1.00  0.00     0.251 C 
ATOM     32  H   UNL A   1      31.777  33.991  27.031  1.00  0.00     0.163 HD
ATOM     33  O   UNL A   1      32.556  35.623  28.672  1.00  0.00    -0.269 OA
BRANCH  31  34
ATOM     34  C   UNL A   1      34.279  34.127  29.233  1.00  0.00     0.039 A 
ATOM     35  C   UNL A   1      34.112  33.320  30.360  1.00  0.00     0.014 A 
ATOM     36  C   UNL A   1      35.560  34.484  28.805  1.00  0.00     0.014 A 
ATOM     37  C   UNL A   1      35.236  32.816  31.018  1.00  0.00     0.010 A 
ATOM     38  C   UNL A   1      36.672  33.903  29.398  1.00  0.00     0.010 A 
ATOM     39  C   UNL A   1      36.523  33.075  30.521  1.00  0.00    -0.014 A 
BRANCH  39  40
ATOM     40  C   UNL A   1      37.738  32.541  31.185  1.00  0.00     0.031 A 
ATOM     41  C   UNL A   1      38.484  31.398  30.551  1.00  0.00     0.074 A 
ATOM     42  C   UNL A   1      38.129  33.030  32.378  1.00  0.00     0.049 A 
ATOM     43  N   UNL A   1      39.502  30.716  31.009  1.00  0.00    -0.248 NA
ATOM     44  C   UNL A   1      37.996  30.935  29.240  1.00  0.00     0.031 C 
ATOM     45  C   UNL A   1      37.460  34.099  33.121  1.00  0.00     0.029 A 
ATOM     46  N   UNL A   1      39.186  32.681  33.180  1.00  0.00    -0.354 N 
ATOM     47  C   UNL A   1      39.759  29.738  30.057  1.00  0.00     0.074 A 
ATOM     48  C   UNL A   1      38.752  29.871  29.028  1.00  0.00     0.031 C 
ATOM     49  C   UNL A   1      38.137  34.335  34.258  1.00  0.00     0.029 A 
ATOM     50  C   UNL A   1      39.266  33.416  34.338  1.00  0.00     0.049 A 
ATOM     51  H   UNL A   1      39.827  31.971  32.947  1.00  0.00     0.167 HD
ATOM     52  C   UNL A   1      40.764  28.833  30.023  1.00  0.00     0.037 A 
ATOM     53  C   UNL A   1      40.155  33.349  35.349  1.00  0.00     0.037 A 
ATOM     54  C   UNL A   1      41.791  28.732  31.023  1.00  0.00     0.049 A 
ATOM     55  C   UNL A   1      41.278  32.353  35.272  1.00  0.00     0.074 A 
ATOM     56  C   UNL A   1      42.876  27.875  31.063  1.00  0.00     0.029 A 
ATOM     57  N   UNL A   1      41.868  29.532  32.152  1.00  0.00    -0.354 N 
ATOM     58  N   UNL A   1      41.536  31.466  34.340  1.00  0.00    -0.248 NA
ATOM     59  C   UNL A   1      42.244  32.355  36.380  1.00  0.00     0.031 C 
ATOM     60  C   UNL A   1      43.599  28.142  32.229  1.00  0.00     0.029 A 
ATOM     61  C   UNL A   1      42.986  29.191  32.894  1.00  0.00     0.049 A 
ATOM     62  H   UNL A   1      41.225  30.238  32.391  1.00  0.00     0.167 HD
ATOM     63  C   UNL A   1      42.711  30.835  34.731  1.00  0.00     0.074 A 
ATOM     64  C   UNL A   1      43.121  31.448  35.977  1.00  0.00     0.031 C 
ATOM     65  C   UNL A   1      43.390  29.837  34.115  1.00  0.00     0.037 A 
BRANCH  52  66
ATOM     66  C   UNL A   1      40.813  27.900  28.849  1.00  0.00     0.057 A 
ATOM     67  C   UNL A   1      40.005  26.757  28.786  1.00  0.00     0.134 A 
ATOM     68  C   UNL A   1      41.652  28.159  27.758  1.00  0.00     0.134 A 
ATOM     69  F   UNL A   1      39.193  26.442  29.808  1.00  0.00    -0.206 F 
ATOM     70  C   UNL A   1      40.045  25.893  27.691  1.00  0.00     0.040 A 
ATOM     71  C   UNL A   1      41.681  27.317  26.645  1.00  0.00     0.040 A 
ATOM     72  F   UNL A   1      42.451  29.237  27.753  1.00  0.00    -0.206 F 
ATOM     73  C   UNL A   1      40.880  26.177  26.613  1.00  0.00     0.006 A 
ENDBRANCH  52  66
BRANCH  53  74
ATOM     74  C   UNL A   1      40.047  34.272  36.508  1.00  0.00     0.057 A 
ATOM     75  C   UNL A   1      39.363  33.893  37.670  1.00  0.00     0.134 A 
ATOM     76  C   UNL A   1      40.584  35.564  36.470  1.00  0.00     0.134 A 
ATOM     77  F   UNL A   1      38.810  32.674  37.759  1.00  0.00    -0.206 F 
ATOM     78  C   UNL A   1      39.187  34.774  38.738  1.00  0.00     0.040 A 
ATOM     79  C   UNL A   1      40.439  36.447  37.541  1.00  0.00     0.040 A 
ATOM     80  F   UNL A   1      41.259  35.985  35.391  1.00  0.00    -0.206 F 
ATOM     81  C   UNL A   1      39.728  36.057  38.674  1.00  0.00     0.006 A 
ENDBRANCH  53  74
BRANCH  65  82
ATOM     82  C   UNL A   1      44.674  29.391  34.747  1.00  0.00     0.057 A 
ATOM     83  C   UNL A   1      45.903  29.977  34.423  1.00  0.00     0.134 A 
ATOM     84  C   UNL A   1      44.671  28.384  35.722  1.00  0.00     0.134 A 
ATOM     85  F   UNL A   1      45.973  30.938  33.490  1.00  0.00    -0.206 F 
ATOM     86  C   UNL A   1      47.090  29.558  35.027  1.00  0.00     0.040 A 
ATOM     87  C   UNL A   1      45.847  27.976  36.350  1.00  0.00     0.040 A 
ATOM     88  F   UNL A   1      43.524  27.791  36.084  1.00  0.00    -0.206 F 
ATOM     89  C   UNL A   1      47.062  28.559  35.998  1.00  0.00     0.006 A 
ENDBRANCH  65  82
ENDBRANCH  39  40
ENDBRANCH  31  34
ENDBRANCH  29  30
ENDBRANCH  28  29
ENDBRANCH  27  28
ENDBRANCH   1  27
TORSDOF 17
ENDMDL
