MODEL 1
REMARK VINA RESULT:     -10.8      0.000      0.000
REMARK SMILES CCCC1CN(c2cc(C(=O)NCCCCNC(=O)c3ccc(-c4c5nc(c(-c6c(F)cccc6F)c6ccc([nH]6)c(-c6c(F)cccc6F)c6nc(c(-c7c(F)cccc7F)c7ccc4[nH]7)C=C6)C=C5)cc3)ccc2F)C1
REMARK SMILES IDX 14 1 13 2 12 3 10 4 11 5 9 7 7 8 8 9 76 10 75 11 77 12 74 13
REMARK SMILES IDX 6 14 4 15 5 16 78 17 3 18 2 19 1 20 15 21 16 22 17 23 18 24
REMARK SMILES IDX 19 26 20 27 21 28 73 29 22 30 72 31 23 32 24 33 25 34 66 35
REMARK SMILES IDX 26 36 71 37 65 38 67 39 27 40 70 41 64 42 63 43 28 45 54 46
REMARK SMILES IDX 37 47 53 48 38 49 41 50 52 51 68 52 39 53 40 54 51 56 69 57
REMARK SMILES IDX 42 58 29 59 30 60 35 61 31 62 32 63 34 64 36 65 33 66 55 67
REMARK SMILES IDX 56 68 61 69 57 70 58 71 60 72 62 73 59 74 43 75 44 76 49 77
REMARK SMILES IDX 45 78 46 79 48 80 50 81 47 82
REMARK H PARENT 12 6 17 25 67 44 41 55
REMARK Flexibility Score: inf
ROOT
ATOM      1  C   UNL A   1      38.910  22.433  26.129  1.00  0.00     0.023 C 
ENDROOT
BRANCH   1   2
ATOM      2  C   UNL A   1      37.630  23.198  25.792  1.00  0.00     0.116 C 
BRANCH   2   3
ATOM      3  N   UNL A   1      37.431  23.213  24.362  1.00  0.00    -0.352 N 
ATOM      4  C   UNL A   1      36.322  23.065  23.575  1.00  0.00     0.251 C 
ATOM      5  O   UNL A   1      36.522  23.032  22.359  1.00  0.00    -0.269 OA
ATOM      6  H   UNL A   1      38.260  23.359  23.851  1.00  0.00     0.163 HD
BRANCH   4   7
ATOM      7  C   UNL A   1      34.917  22.998  24.082  1.00  0.00     0.042 A 
ATOM      8  C   UNL A   1      33.083  21.464  24.680  1.00  0.00     0.074 A 
ATOM      9  C   UNL A   1      34.401  21.703  24.257  1.00  0.00     0.042 A 
ATOM     10  C   UNL A   1      32.255  22.564  24.891  1.00  0.00     0.146 A 
ATOM     11  C   UNL A   1      32.755  23.860  24.782  1.00  0.00     0.042 A 
ATOM     12  F   UNL A   1      30.985  22.406  25.290  1.00  0.00    -0.205 F 
ATOM     13  C   UNL A   1      34.090  24.074  24.411  1.00  0.00     0.017 A 
BRANCH   8  14
ATOM     14  N   UNL A   1      32.710  20.136  24.927  1.00  0.00    -0.368 N 
ATOM     15  C   UNL A   1      33.087  18.106  25.007  1.00  0.00     0.028 C 
ATOM     16  C   UNL A   1      32.669  19.112  23.929  1.00  0.00     0.122 C 
ATOM     17  C   UNL A   1      32.911  19.250  26.023  1.00  0.00     0.122 C 
BRANCH  15  18
ATOM     18  C   UNL A   1      32.355  16.780  25.198  1.00  0.00     0.007 C 
BRANCH  18  19
ATOM     19  C   UNL A   1      33.234  15.530  25.166  1.00  0.00    -0.003 C 
ATOM     20  C   UNL A   1      34.727  15.836  25.279  1.00  0.00     0.004 C 
ENDBRANCH  18  19
ENDBRANCH  15  18
ENDBRANCH   8  14
ENDBRANCH   4   7
ENDBRANCH   2   3
ENDBRANCH   1   2
BRANCH   1  21
ATOM     21  C   UNL A   1      39.015  21.072  25.429  1.00  0.00     0.023 C 
BRANCH  21  22
ATOM     22  C   UNL A   1      39.411  19.915  26.340  1.00  0.00     0.116 C 
BRANCH  22  23
ATOM     23  N   UNL A   1      40.607  19.217  25.892  1.00  0.00    -0.352 N 
ATOM     24  C   UNL A   1      41.903  19.663  25.880  1.00  0.00     0.251 C 
ATOM     25  H   UNL A   1      40.466  18.304  25.553  1.00  0.00     0.163 HD
ATOM     26  O   UNL A   1      42.787  18.987  25.362  1.00  0.00    -0.269 OA
BRANCH  24  27
ATOM     27  C   UNL A   1      42.221  20.980  26.461  1.00  0.00     0.039 A 
ATOM     28  C   UNL A   1      42.586  22.021  25.604  1.00  0.00     0.014 A 
ATOM     29  C   UNL A   1      42.147  21.191  27.841  1.00  0.00     0.014 A 
ATOM     30  C   UNL A   1      42.832  23.289  26.129  1.00  0.00     0.010 A 
ATOM     31  C   UNL A   1      42.323  22.471  28.353  1.00  0.00     0.010 A 
ATOM     32  C   UNL A   1      42.678  23.529  27.505  1.00  0.00    -0.014 A 
BRANCH  32  33
ATOM     33  C   UNL A   1      42.916  24.876  28.076  1.00  0.00     0.031 A 
ATOM     34  C   UNL A   1      44.303  25.278  28.492  1.00  0.00     0.074 A 
ATOM     35  C   UNL A   1      41.880  25.716  28.261  1.00  0.00     0.049 A 
ATOM     36  N   UNL A   1      44.706  26.388  29.055  1.00  0.00    -0.248 NA
ATOM     37  C   UNL A   1      45.375  24.293  28.270  1.00  0.00     0.031 C 
ATOM     38  C   UNL A   1      40.483  25.422  27.935  1.00  0.00     0.029 A 
ATOM     39  N   UNL A   1      41.842  26.990  28.768  1.00  0.00    -0.354 N 
ATOM     40  C   UNL A   1      46.070  26.229  29.264  1.00  0.00     0.074 A 
ATOM     41  C   UNL A   1      46.416  24.897  28.823  1.00  0.00     0.031 C 
ATOM     42  C   UNL A   1      39.731  26.498  28.219  1.00  0.00     0.029 A 
ATOM     43  C   UNL A   1      40.584  27.542  28.778  1.00  0.00     0.049 A 
ATOM     44  H   UNL A   1      42.641  27.464  29.095  1.00  0.00     0.167 HD
ATOM     45  C   UNL A   1      46.958  27.125  29.752  1.00  0.00     0.037 A 
ATOM     46  C   UNL A   1      40.167  28.755  29.189  1.00  0.00     0.037 A 
ATOM     47  C   UNL A   1      46.616  28.461  30.157  1.00  0.00     0.049 A 
ATOM     48  C   UNL A   1      41.175  29.735  29.724  1.00  0.00     0.074 A 
ATOM     49  C   UNL A   1      47.452  29.460  30.622  1.00  0.00     0.029 A 
ATOM     50  N   UNL A   1      45.333  28.987  30.139  1.00  0.00    -0.354 N 
ATOM     51  N   UNL A   1      42.470  29.589  29.872  1.00  0.00    -0.248 NA
ATOM     52  C   UNL A   1      40.667  31.050  30.141  1.00  0.00     0.031 C 
ATOM     53  C   UNL A   1      46.670  30.579  30.920  1.00  0.00     0.029 A 
ATOM     54  C   UNL A   1      45.353  30.293  30.595  1.00  0.00     0.049 A 
ATOM     55  H   UNL A   1      44.527  28.502  29.845  1.00  0.00     0.167 HD
ATOM     56  C   UNL A   1      42.935  30.799  30.371  1.00  0.00     0.074 A 
ATOM     57  C   UNL A   1      41.786  31.671  30.493  1.00  0.00     0.031 C 
ATOM     58  C   UNL A   1      44.202  31.153  30.694  1.00  0.00     0.037 A 
BRANCH  45  59
ATOM     59  C   UNL A   1      48.393  26.698  29.856  1.00  0.00     0.057 A 
ATOM     60  C   UNL A   1      49.283  26.915  28.796  1.00  0.00     0.134 A 
ATOM     61  C   UNL A   1      48.880  26.021  30.981  1.00  0.00     0.134 A 
ATOM     62  F   UNL A   1      48.882  27.553  27.687  1.00  0.00    -0.206 F 
ATOM     63  C   UNL A   1      50.604  26.465  28.850  1.00  0.00     0.040 A 
ATOM     64  C   UNL A   1      50.205  25.590  31.058  1.00  0.00     0.040 A 
ATOM     65  F   UNL A   1      48.082  25.793  32.035  1.00  0.00    -0.206 F 
ATOM     66  C   UNL A   1      51.069  25.803  29.985  1.00  0.00     0.006 A 
ENDBRANCH  45  59
BRANCH  46  67
ATOM     67  C   UNL A   1      38.736  29.122  29.061  1.00  0.00     0.057 A 
ATOM     68  C   UNL A   1      38.202  29.592  27.855  1.00  0.00     0.134 A 
ATOM     69  C   UNL A   1      37.870  29.032  30.157  1.00  0.00     0.134 A 
ATOM     70  F   UNL A   1      38.982  29.710  26.770  1.00  0.00    -0.206 F 
ATOM     71  C   UNL A   1      36.865  29.975  27.747  1.00  0.00     0.040 A 
ATOM     72  C   UNL A   1      36.524  29.390  30.058  1.00  0.00     0.040 A 
ATOM     73  F   UNL A   1      38.319  28.574  31.335  1.00  0.00    -0.206 F 
ATOM     74  C   UNL A   1      36.021  29.870  28.851  1.00  0.00     0.006 A 
ENDBRANCH  46  67
BRANCH  58  75
ATOM     75  C   UNL A   1      44.432  32.554  31.179  1.00  0.00     0.057 A 
ATOM     76  C   UNL A   1      44.738  33.577  30.272  1.00  0.00     0.134 A 
ATOM     77  C   UNL A   1      44.440  32.871  32.542  1.00  0.00     0.134 A 
ATOM     78  F   UNL A   1      44.757  33.334  28.952  1.00  0.00    -0.206 F 
ATOM     79  C   UNL A   1      45.061  34.863  30.705  1.00  0.00     0.040 A 
ATOM     80  C   UNL A   1      44.738  34.160  32.986  1.00  0.00     0.040 A 
ATOM     81  F   UNL A   1      44.147  31.937  33.459  1.00  0.00    -0.206 F 
ATOM     82  C   UNL A   1      45.060  35.158  32.067  1.00  0.00     0.006 A 
ENDBRANCH  58  75
ENDBRANCH  32  33
ENDBRANCH  24  27
ENDBRANCH  22  23
ENDBRANCH  21  22
ENDBRANCH   1  21
TORSDOF 14
ENDMDL
MODEL 2
REMARK VINA RESULT:     -10.8      2.560      7.330
REMARK SMILES CCCC1CN(c2cc(C(=O)NCCCCNC(=O)c3ccc(-c4c5nc(c(-c6c(F)cccc6F)c6ccc([nH]6)c(-c6c(F)cccc6F)c6nc(c(-c7c(F)cccc7F)c7ccc4[nH]7)C=C6)C=C5)cc3)ccc2F)C1
REMARK SMILES IDX 14 1 13 2 12 3 10 4 11 5 9 7 7 8 8 9 76 10 75 11 77 12 74 13
REMARK SMILES IDX 6 14 4 15 5 16 78 17 3 18 2 19 1 20 15 21 16 22 17 23 18 24
REMARK SMILES IDX 19 26 20 27 21 28 73 29 22 30 72 31 23 32 24 33 25 34 66 35
REMARK SMILES IDX 26 36 71 37 65 38 67 39 27 40 70 41 64 42 63 43 28 45 54 46
REMARK SMILES IDX 37 47 53 48 38 49 41 50 52 51 68 52 39 53 40 54 51 56 69 57
REMARK SMILES IDX 42 58 29 59 30 60 35 61 31 62 32 63 34 64 36 65 33 66 55 67
REMARK SMILES IDX 56 68 61 69 57 70 58 71 60 72 62 73 59 74 43 75 44 76 49 77
REMARK SMILES IDX 45 78 46 79 48 80 50 81 47 82
REMARK H PARENT 12 6 17 25 67 44 41 55
REMARK Flexibility Score: inf
ROOT
ATOM      1  C   UNL A   1      31.608  27.601  26.689  1.00  0.00     0.023 C 
ENDROOT
BRANCH   1   2
ATOM      2  C   UNL A   1      30.886  26.588  25.800  1.00  0.00     0.116 C 
BRANCH   2   3
ATOM      3  N   UNL A   1      30.522  25.426  26.576  1.00  0.00    -0.352 N 
ATOM      4  C   UNL A   1      31.083  24.187  26.715  1.00  0.00     0.251 C 
ATOM      5  O   UNL A   1      30.448  23.379  27.398  1.00  0.00    -0.269 OA
ATOM      6  H   UNL A   1      29.707  25.553  27.114  1.00  0.00     0.163 HD
BRANCH   4   7
ATOM      7  C   UNL A   1      32.405  23.779  26.151  1.00  0.00     0.042 A 
ATOM      8  C   UNL A   1      33.600  21.975  24.970  1.00  0.00     0.074 A 
ATOM      9  C   UNL A   1      32.427  22.529  25.511  1.00  0.00     0.042 A 
ATOM     10  C   UNL A   1      34.787  22.689  25.117  1.00  0.00     0.146 A 
ATOM     11  C   UNL A   1      34.786  23.956  25.695  1.00  0.00     0.042 A 
ATOM     12  F   UNL A   1      35.942  22.215  24.628  1.00  0.00    -0.205 F 
ATOM     13  C   UNL A   1      33.594  24.512  26.180  1.00  0.00     0.017 A 
BRANCH   8  14
ATOM     14  N   UNL A   1      33.484  20.774  24.257  1.00  0.00    -0.368 N 
ATOM     15  C   UNL A   1      32.901  18.801  24.065  1.00  0.00     0.028 C 
ATOM     16  C   UNL A   1      34.111  19.547  24.640  1.00  0.00     0.122 C 
ATOM     17  C   UNL A   1      32.421  20.164  23.533  1.00  0.00     0.122 C 
BRANCH  15  18
ATOM     18  C   UNL A   1      33.065  17.613  23.119  1.00  0.00     0.007 C 
BRANCH  18  19
ATOM     19  C   UNL A   1      33.754  16.385  23.716  1.00  0.00    -0.003 C 
ATOM     20  C   UNL A   1      33.056  15.843  24.961  1.00  0.00     0.004 C 
ENDBRANCH  18  19
ENDBRANCH  15  18
ENDBRANCH   8  14
ENDBRANCH   4   7
ENDBRANCH   2   3
ENDBRANCH   1   2
BRANCH   1  21
ATOM     21  C   UNL A   1      32.890  28.164  26.063  1.00  0.00     0.023 C 
BRANCH  21  22
ATOM     22  C   UNL A   1      33.980  28.533  27.064  1.00  0.00     0.116 C 
BRANCH  22  23
ATOM     23  N   UNL A   1      33.810  29.862  27.631  1.00  0.00    -0.352 N 
ATOM     24  C   UNL A   1      34.715  30.614  28.334  1.00  0.00     0.251 C 
ATOM     25  H   UNL A   1      32.928  30.275  27.491  1.00  0.00     0.163 HD
ATOM     26  O   UNL A   1      34.375  31.678  28.843  1.00  0.00    -0.269 OA
BRANCH  24  27
ATOM     27  C   UNL A   1      36.092  30.116  28.506  1.00  0.00     0.039 A 
ATOM     28  C   UNL A   1      36.989  30.239  27.442  1.00  0.00     0.014 A 
ATOM     29  C   UNL A   1      36.499  29.542  29.714  1.00  0.00     0.014 A 
ATOM     30  C   UNL A   1      38.310  29.829  27.606  1.00  0.00     0.010 A 
ATOM     31  C   UNL A   1      37.834  29.200  29.898  1.00  0.00     0.010 A 
ATOM     32  C   UNL A   1      38.749  29.329  28.844  1.00  0.00    -0.014 A 
BRANCH  32  33
ATOM     33  C   UNL A   1      40.156  28.906  29.042  1.00  0.00     0.031 A 
ATOM     34  C   UNL A   1      41.137  29.847  29.681  1.00  0.00     0.074 A 
ATOM     35  C   UNL A   1      40.557  27.696  28.608  1.00  0.00     0.049 A 
ATOM     36  N   UNL A   1      42.418  29.683  29.896  1.00  0.00    -0.248 NA
ATOM     37  C   UNL A   1      40.619  31.156  30.112  1.00  0.00     0.031 C 
ATOM     38  C   UNL A   1      39.706  26.713  27.936  1.00  0.00     0.029 A 
ATOM     39  N   UNL A   1      41.785  27.088  28.667  1.00  0.00    -0.354 N 
ATOM     40  C   UNL A   1      42.856  30.868  30.474  1.00  0.00     0.074 A 
ATOM     41  C   UNL A   1      41.722  31.762  30.523  1.00  0.00     0.031 C 
ATOM     42  C   UNL A   1      40.429  25.611  27.676  1.00  0.00     0.029 A 
ATOM     43  C   UNL A   1      41.800  25.823  28.130  1.00  0.00     0.049 A 
ATOM     44  H   UNL A   1      42.581  27.516  29.058  1.00  0.00     0.167 HD
ATOM     45  C   UNL A   1      44.087  31.170  30.948  1.00  0.00     0.037 A 
ATOM     46  C   UNL A   1      42.806  24.934  28.020  1.00  0.00     0.037 A 
ATOM     47  C   UNL A   1      45.202  30.263  30.929  1.00  0.00     0.049 A 
ATOM     48  C   UNL A   1      44.164  25.292  28.559  1.00  0.00     0.074 A 
ATOM     49  C   UNL A   1      46.478  30.459  31.427  1.00  0.00     0.029 A 
ATOM     50  N   UNL A   1      45.173  28.987  30.389  1.00  0.00    -0.354 N 
ATOM     51  N   UNL A   1      44.553  26.398  29.145  1.00  0.00    -0.248 NA
ATOM     52  C   UNL A   1      45.219  24.278  28.427  1.00  0.00     0.031 C 
ATOM     53  C   UNL A   1      47.232  29.314  31.155  1.00  0.00     0.029 A 
ATOM     54  C   UNL A   1      46.412  28.387  30.531  1.00  0.00     0.049 A 
ATOM     55  H   UNL A   1      44.387  28.569  29.966  1.00  0.00     0.167 HD
ATOM     56  C   UNL A   1      45.887  26.202  29.479  1.00  0.00     0.074 A 
ATOM     57  C   UNL A   1      46.239  24.870  29.036  1.00  0.00     0.031 C 
ATOM     58  C   UNL A   1      46.740  27.052  30.100  1.00  0.00     0.037 A 
BRANCH  45  59
ATOM     59  C   UNL A   1      44.287  32.530  31.548  1.00  0.00     0.057 A 
ATOM     60  C   UNL A   1      44.022  32.761  32.904  1.00  0.00     0.134 A 
ATOM     61  C   UNL A   1      44.689  33.625  30.773  1.00  0.00     0.134 A 
ATOM     62  F   UNL A   1      43.629  31.758  33.703  1.00  0.00    -0.206 F 
ATOM     63  C   UNL A   1      44.140  34.034  33.464  1.00  0.00     0.040 A 
ATOM     64  C   UNL A   1      44.836  34.897  31.325  1.00  0.00     0.040 A 
ATOM     65  F   UNL A   1      44.970  33.468  29.470  1.00  0.00    -0.206 F 
ATOM     66  C   UNL A   1      44.551  35.107  32.674  1.00  0.00     0.006 A 
ENDBRANCH  45  59
BRANCH  46  67
ATOM     67  C   UNL A   1      42.548  23.603  27.418  1.00  0.00     0.057 A 
ATOM     68  C   UNL A   1      42.614  23.396  26.035  1.00  0.00     0.134 A 
ATOM     69  C   UNL A   1      42.203  22.508  28.217  1.00  0.00     0.134 A 
ATOM     70  F   UNL A   1      42.931  24.409  25.213  1.00  0.00    -0.206 F 
ATOM     71  C   UNL A   1      42.332  22.153  25.467  1.00  0.00     0.040 A 
ATOM     72  C   UNL A   1      41.940  21.253  27.666  1.00  0.00     0.040 A 
ATOM     73  F   UNL A   1      42.138  22.640  29.551  1.00  0.00    -0.206 F 
ATOM     74  C   UNL A   1      41.997  21.075  26.285  1.00  0.00     0.006 A 
ENDBRANCH  46  67
BRANCH  58  75
ATOM     75  C   UNL A   1      48.132  26.565  30.376  1.00  0.00     0.057 A 
ATOM     76  C   UNL A   1      49.145  26.737  29.422  1.00  0.00     0.134 A 
ATOM     77  C   UNL A   1      48.448  25.849  31.536  1.00  0.00     0.134 A 
ATOM     78  F   UNL A   1      48.903  27.403  28.284  1.00  0.00    -0.206 F 
ATOM     79  C   UNL A   1      50.419  26.199  29.608  1.00  0.00     0.040 A 
ATOM     80  C   UNL A   1      49.725  25.328  31.743  1.00  0.00     0.040 A 
ATOM     81  F   UNL A   1      47.523  25.658  32.490  1.00  0.00    -0.206 F 
ATOM     82  C   UNL A   1      50.712  25.493  30.772  1.00  0.00     0.006 A 
ENDBRANCH  58  75
ENDBRANCH  32  33
ENDBRANCH  24  27
ENDBRANCH  22  23
ENDBRANCH  21  22
ENDBRANCH   1  21
TORSDOF 14
ENDMDL
MODEL 3
REMARK VINA RESULT:     -10.8      4.662      9.192
REMARK SMILES CCCC1CN(c2cc(C(=O)NCCCCNC(=O)c3ccc(-c4c5nc(c(-c6c(F)cccc6F)c6ccc([nH]6)c(-c6c(F)cccc6F)c6nc(c(-c7c(F)cccc7F)c7ccc4[nH]7)C=C6)C=C5)cc3)ccc2F)C1
REMARK SMILES IDX 14 1 13 2 12 3 10 4 11 5 9 7 7 8 8 9 76 10 75 11 77 12 74 13
REMARK SMILES IDX 6 14 4 15 5 16 78 17 3 18 2 19 1 20 15 21 16 22 17 23 18 24
REMARK SMILES IDX 19 26 20 27 21 28 73 29 22 30 72 31 23 32 24 33 25 34 66 35
REMARK SMILES IDX 26 36 71 37 65 38 67 39 27 40 70 41 64 42 63 43 28 45 54 46
REMARK SMILES IDX 37 47 53 48 38 49 41 50 52 51 68 52 39 53 40 54 51 56 69 57
REMARK SMILES IDX 42 58 29 59 30 60 35 61 31 62 32 63 34 64 36 65 33 66 55 67
REMARK SMILES IDX 56 68 61 69 57 70 58 71 60 72 62 73 59 74 43 75 44 76 49 77
REMARK SMILES IDX 45 78 46 79 48 80 50 81 47 82
REMARK H PARENT 12 6 17 25 67 44 41 55
REMARK Flexibility Score: inf
ROOT
ATOM      1  C   UNL A   1      31.408  30.477  25.776  1.00  0.00     0.023 C 
ENDROOT
BRANCH   1   2
ATOM      2  C   UNL A   1      32.792  29.850  25.943  1.00  0.00     0.116 C 
BRANCH   2   3
ATOM      3  N   UNL A   1      33.432  29.724  24.655  1.00  0.00    -0.352 N 
ATOM      4  C   UNL A   1      33.412  28.747  23.698  1.00  0.00     0.251 C 
ATOM      5  O   UNL A   1      34.166  28.915  22.737  1.00  0.00    -0.269 OA
ATOM      6  H   UNL A   1      33.994  30.497  24.418  1.00  0.00     0.163 HD
BRANCH   4   7
ATOM      7  C   UNL A   1      32.519  27.549  23.718  1.00  0.00     0.042 A 
ATOM      8  C   UNL A   1      32.485  25.089  23.863  1.00  0.00     0.074 A 
ATOM      9  C   UNL A   1      33.171  26.314  23.872  1.00  0.00     0.042 A 
ATOM     10  C   UNL A   1      31.108  25.113  23.652  1.00  0.00     0.146 A 
ATOM     11  C   UNL A   1      30.426  26.323  23.555  1.00  0.00     0.042 A 
ATOM     12  F   UNL A   1      30.393  23.979  23.627  1.00  0.00    -0.205 F 
ATOM     13  C   UNL A   1      31.126  27.537  23.621  1.00  0.00     0.017 A 
BRANCH   8  14
ATOM     14  N   UNL A   1      33.221  23.928  24.135  1.00  0.00    -0.368 N 
ATOM     15  C   UNL A   1      33.407  21.884  24.375  1.00  0.00     0.028 C 
ATOM     16  C   UNL A   1      32.984  23.067  25.252  1.00  0.00     0.122 C 
ATOM     17  C   UNL A   1      33.807  22.924  23.312  1.00  0.00     0.122 C 
BRANCH  15  18
ATOM     18  C   UNL A   1      34.414  20.843  24.858  1.00  0.00     0.007 C 
BRANCH  18  19
ATOM     19  C   UNL A   1      34.031  19.385  24.600  1.00  0.00    -0.003 C 
ATOM     20  C   UNL A   1      32.545  19.191  24.307  1.00  0.00     0.004 C 
ENDBRANCH  18  19
ENDBRANCH  15  18
ENDBRANCH   8  14
ENDBRANCH   4   7
ENDBRANCH   2   3
ENDBRANCH   1   2
BRANCH   1  21
ATOM     21  C   UNL A   1      31.248  31.817  26.505  1.00  0.00     0.023 C 
BRANCH  21  22
ATOM     22  C   UNL A   1      32.555  32.448  26.973  1.00  0.00     0.116 C 
BRANCH  22  23
ATOM     23  N   UNL A   1      32.400  33.826  27.413  1.00  0.00    -0.352 N 
ATOM     24  C   UNL A   1      33.120  34.509  28.358  1.00  0.00     0.251 C 
ATOM     25  H   UNL A   1      31.683  34.336  26.972  1.00  0.00     0.163 HD
ATOM     26  O   UNL A   1      32.788  35.641  28.694  1.00  0.00    -0.269 OA
BRANCH  24  27
ATOM     27  C   UNL A   1      34.277  33.855  28.999  1.00  0.00     0.039 A 
ATOM     28  C   UNL A   1      34.047  32.786  29.868  1.00  0.00     0.014 A 
ATOM     29  C   UNL A   1      35.580  34.285  28.732  1.00  0.00     0.014 A 
ATOM     30  C   UNL A   1      35.130  32.117  30.436  1.00  0.00     0.010 A 
ATOM     31  C   UNL A   1      36.659  33.572  29.243  1.00  0.00     0.010 A 
ATOM     32  C   UNL A   1      36.444  32.490  30.108  1.00  0.00    -0.014 A 
BRANCH  32  33
ATOM     33  C   UNL A   1      37.608  31.776  30.687  1.00  0.00     0.031 A 
ATOM     34  C   UNL A   1      38.044  32.075  32.094  1.00  0.00     0.074 A 
ATOM     35  C   UNL A   1      38.294  30.896  29.934  1.00  0.00     0.049 A 
ATOM     36  N   UNL A   1      39.062  31.596  32.761  1.00  0.00    -0.248 NA
ATOM     37  C   UNL A   1      37.248  33.063  32.841  1.00  0.00     0.031 C 
ATOM     38  C   UNL A   1      37.991  30.554  28.544  1.00  0.00     0.029 A 
ATOM     39  N   UNL A   1      39.390  30.127  30.235  1.00  0.00    -0.354 N 
ATOM     40  C   UNL A   1      39.034  32.230  33.997  1.00  0.00     0.074 A 
ATOM     41  C   UNL A   1      37.936  33.170  33.967  1.00  0.00     0.031 C 
ATOM     42  C   UNL A   1      38.858  29.620  28.122  1.00  0.00     0.029 A 
ATOM     43  C   UNL A   1      39.798  29.322  29.199  1.00  0.00     0.049 A 
ATOM     44  H   UNL A   1      39.841  30.150  31.110  1.00  0.00     0.167 HD
ATOM     45  C   UNL A   1      39.834  32.025  35.068  1.00  0.00     0.037 A 
ATOM     46  C   UNL A   1      40.815  28.441  29.128  1.00  0.00     0.037 A 
ATOM     47  C   UNL A   1      40.902  31.063  35.105  1.00  0.00     0.049 A 
ATOM     48  C   UNL A   1      41.686  28.228  30.334  1.00  0.00     0.074 A 
ATOM     49  C   UNL A   1      41.739  30.748  36.159  1.00  0.00     0.029 A 
ATOM     50  N   UNL A   1      41.275  30.258  34.040  1.00  0.00    -0.354 N 
ATOM     51  N   UNL A   1      41.620  28.800  31.512  1.00  0.00    -0.248 NA
ATOM     52  C   UNL A   1      42.769  27.242  30.206  1.00  0.00     0.031 C 
ATOM     53  C   UNL A   1      42.644  29.777  35.721  1.00  0.00     0.029 A 
ATOM     54  C   UNL A   1      42.338  29.453  34.409  1.00  0.00     0.049 A 
ATOM     55  H   UNL A   1      40.847  30.258  33.152  1.00  0.00     0.167 HD
ATOM     56  C   UNL A   1      42.629  28.224  32.273  1.00  0.00     0.074 A 
ATOM     57  C   UNL A   1      43.289  27.253  31.427  1.00  0.00     0.031 C 
ATOM     58  C   UNL A   1      42.973  28.478  33.559  1.00  0.00     0.037 A 
BRANCH  45  59
ATOM     59  C   UNL A   1      39.570  32.840  36.300  1.00  0.00     0.057 A 
ATOM     60  C   UNL A   1      38.626  32.423  37.247  1.00  0.00     0.134 A 
ATOM     61  C   UNL A   1      40.209  34.066  36.521  1.00  0.00     0.134 A 
ATOM     62  F   UNL A   1      37.974  31.261  37.095  1.00  0.00    -0.206 F 
ATOM     63  C   UNL A   1      38.321  33.201  38.365  1.00  0.00     0.040 A 
ATOM     64  C   UNL A   1      39.933  34.841  37.648  1.00  0.00     0.040 A 
ATOM     65  F   UNL A   1      41.133  34.517  35.659  1.00  0.00    -0.206 F 
ATOM     66  C   UNL A   1      38.978  34.413  38.570  1.00  0.00     0.006 A 
ENDBRANCH  45  59
BRANCH  46  67
ATOM     67  C   UNL A   1      41.026  27.662  27.883  1.00  0.00     0.057 A 
ATOM     68  C   UNL A   1      41.826  28.144  26.841  1.00  0.00     0.134 A 
ATOM     69  C   UNL A   1      40.408  26.420  27.699  1.00  0.00     0.134 A 
ATOM     70  F   UNL A   1      42.439  29.333  26.952  1.00  0.00    -0.206 F 
ATOM     71  C   UNL A   1      41.991  27.428  25.655  1.00  0.00     0.040 A 
ATOM     72  C   UNL A   1      40.582  25.682  26.528  1.00  0.00     0.040 A 
ATOM     73  F   UNL A   1      39.641  25.898  28.669  1.00  0.00    -0.206 F 
ATOM     74  C   UNL A   1      41.371  26.190  25.498  1.00  0.00     0.006 A 
ENDBRANCH  46  67
BRANCH  58  75
ATOM     75  C   UNL A   1      44.092  27.674  34.153  1.00  0.00     0.057 A 
ATOM     76  C   UNL A   1      45.414  28.129  34.068  1.00  0.00     0.134 A 
ATOM     77  C   UNL A   1      43.874  26.415  34.723  1.00  0.00     0.134 A 
ATOM     78  F   UNL A   1      45.690  29.323  33.521  1.00  0.00    -0.206 F 
ATOM     79  C   UNL A   1      46.482  27.351  34.516  1.00  0.00     0.040 A 
ATOM     80  C   UNL A   1      44.932  25.639  35.197  1.00  0.00     0.040 A 
ATOM     81  F   UNL A   1      42.629  25.928  34.840  1.00  0.00    -0.206 F 
ATOM     82  C   UNL A   1      46.242  26.103  35.084  1.00  0.00     0.006 A 
ENDBRANCH  58  75
ENDBRANCH  32  33
ENDBRANCH  24  27
ENDBRANCH  22  23
ENDBRANCH  21  22
ENDBRANCH   1  21
TORSDOF 14
ENDMDL
