MODEL 1
REMARK VINA RESULT:     -10.7      0.000      0.000
REMARK SMILES CC(C)[C@H](NC(=O)OCc1ccccc1)C(=O)NCC(=O)NCCCCNC(=O)c1ccc(-c2c3nc(c(-c4c(F)cccc4F)c4ccc([nH]4)c(-c4c(F)cccc4F)c4nc(c(-c5c(F)cccc5F)c5ccc2[nH]5)C=C4)C=C3)cc1
REMARK SMILES IDX 20 1 21 2 22 3 19 5 18 6 16 7 17 8 4 10 2 11 1 12 3 13 5 14
REMARK SMILES IDX 6 15 7 17 8 18 9 19 10 20 11 21 15 22 12 23 14 24 13 25
REMARK SMILES IDX 23 26 24 27 25 28 26 29 27 30 28 31 29 33 30 34 31 35 83 36
REMARK SMILES IDX 32 37 82 38 33 39 34 40 35 41 76 42 36 43 81 44 75 45 77 46
REMARK SMILES IDX 37 47 80 48 74 49 73 50 38 52 64 53 47 54 63 55 48 56 51 57
REMARK SMILES IDX 62 58 78 59 49 60 50 61 61 63 79 64 52 65 39 66 40 67 45 68
REMARK SMILES IDX 41 69 42 70 44 71 46 72 43 73 65 74 66 75 71 76 67 77 68 78
REMARK SMILES IDX 70 79 72 80 69 81 53 82 54 83 59 84 55 85 56 86 58 87 60 88
REMARK SMILES IDX 57 89
REMARK H PARENT 22 4 18 9 5 16 27 32 77 51 51 62
REMARK Flexibility Score: inf
ROOT
ATOM      1  C   UNL A   1      34.658  22.448  26.669  1.00  0.00     0.239 C 
ATOM      2  O   UNL A   1      34.396  22.487  27.873  1.00  0.00    -0.273 OA
ATOM      3  N   UNL A   1      35.006  21.248  26.111  1.00  0.00    -0.355 N 
ATOM      4  H   UNL A   1      34.920  20.470  26.708  1.00  0.00     0.163 HD
ENDROOT
BRANCH   1   5
ATOM      5  C   UNL A   1      34.613  23.719  25.820  1.00  0.00     0.216 C 
BRANCH   5   6
ATOM      6  N   UNL A   1      33.552  24.653  26.118  1.00  0.00    -0.345 N 
ATOM      7  C   UNL A   1      32.367  24.883  25.497  1.00  0.00     0.243 C 
ATOM      8  O   UNL A   1      31.542  25.566  26.119  1.00  0.00    -0.273 OA
ATOM      9  H   UNL A   1      33.717  25.218  26.907  1.00  0.00     0.164 HD
BRANCH   7  10
ATOM     10  C   UNL A   1      32.009  24.389  24.064  1.00  0.00     0.177 C 
BRANCH  10  11
ATOM     11  C   UNL A   1      31.544  22.894  23.922  1.00  0.00     0.015 C 
ATOM     12  C   UNL A   1      32.339  21.940  23.012  1.00  0.00     0.010 C 
ATOM     13  C   UNL A   1      31.261  22.241  25.280  1.00  0.00     0.010 C 
ENDBRANCH  10  11
BRANCH  10  14
ATOM     14  N   UNL A   1      32.923  24.844  23.012  1.00  0.00    -0.309 N 
ATOM     15  C   UNL A   1      32.672  25.846  22.101  1.00  0.00     0.408 C 
ATOM     16  H   UNL A   1      33.797  24.393  22.953  1.00  0.00     0.167 HD
ATOM     17  O   UNL A   1      33.278  25.854  21.025  1.00  0.00    -0.225 OA
BRANCH  15  18
ATOM     18  O   UNL A   1      31.885  26.846  22.556  1.00  0.00    -0.445 OA
BRANCH  18  19
ATOM     19  C   UNL A   1      32.473  28.157  22.777  1.00  0.00     0.270 C 
BRANCH  19  20
ATOM     20  C   UNL A   1      32.673  28.457  24.259  1.00  0.00    -0.011 A 
ATOM     21  C   UNL A   1      31.647  29.000  25.041  1.00  0.00     0.007 A 
ATOM     22  C   UNL A   1      33.894  28.173  24.895  1.00  0.00     0.007 A 
ATOM     23  C   UNL A   1      31.778  29.115  26.429  1.00  0.00     0.000 A 
ATOM     24  C   UNL A   1      34.026  28.283  26.288  1.00  0.00     0.000 A 
ATOM     25  C   UNL A   1      32.955  28.726  27.059  1.00  0.00     0.000 A 
ENDBRANCH  19  20
ENDBRANCH  18  19
ENDBRANCH  15  18
ENDBRANCH  10  14
ENDBRANCH   7  10
ENDBRANCH   5   6
ENDBRANCH   1   5
BRANCH   3  26
ATOM     26  C   UNL A   1      35.483  20.943  24.770  1.00  0.00     0.116 C 
BRANCH  26  27
ATOM     27  C   UNL A   1      36.980  21.161  24.650  1.00  0.00     0.023 C 
BRANCH  27  28
ATOM     28  C   UNL A   1      37.843  19.964  25.001  1.00  0.00     0.023 C 
BRANCH  28  29
ATOM     29  C   UNL A   1      38.995  20.286  25.929  1.00  0.00     0.116 C 
BRANCH  29  30
ATOM     30  N   UNL A   1      40.110  19.341  25.834  1.00  0.00    -0.352 N 
ATOM     31  C   UNL A   1      41.456  19.497  26.099  1.00  0.00     0.251 C 
ATOM     32  H   UNL A   1      39.856  18.439  25.530  1.00  0.00     0.163 HD
ATOM     33  O   UNL A   1      42.230  18.560  25.914  1.00  0.00    -0.269 OA
BRANCH  31  34
ATOM     34  C   UNL A   1      42.002  20.806  26.536  1.00  0.00     0.039 A 
ATOM     35  C   UNL A   1      42.292  21.785  25.579  1.00  0.00     0.014 A 
ATOM     36  C   UNL A   1      42.176  21.104  27.882  1.00  0.00     0.014 A 
ATOM     37  C   UNL A   1      42.643  23.078  25.987  1.00  0.00     0.010 A 
ATOM     38  C   UNL A   1      42.331  22.422  28.283  1.00  0.00     0.010 A 
ATOM     39  C   UNL A   1      42.600  23.426  27.345  1.00  0.00    -0.014 A 
BRANCH  39  40
ATOM     40  C   UNL A   1      42.872  24.807  27.832  1.00  0.00     0.031 A 
ATOM     41  C   UNL A   1      44.290  25.219  28.152  1.00  0.00     0.074 A 
ATOM     42  C   UNL A   1      41.854  25.656  28.078  1.00  0.00     0.049 A 
ATOM     43  N   UNL A   1      44.729  26.315  28.718  1.00  0.00    -0.248 NA
ATOM     44  C   UNL A   1      45.354  24.245  27.848  1.00  0.00     0.031 C 
ATOM     45  C   UNL A   1      40.432  25.363  27.886  1.00  0.00     0.029 A 
ATOM     46  N   UNL A   1      41.861  26.943  28.556  1.00  0.00    -0.354 N 
ATOM     47  C   UNL A   1      46.100  26.136  28.872  1.00  0.00     0.074 A 
ATOM     48  C   UNL A   1      46.408  24.800  28.423  1.00  0.00     0.031 C 
ATOM     49  C   UNL A   1      39.709  26.451  28.197  1.00  0.00     0.029 A 
ATOM     50  C   UNL A   1      40.609  27.502  28.658  1.00  0.00     0.049 A 
ATOM     51  H   UNL A   1      42.685  27.422  28.802  1.00  0.00     0.167 HD
ATOM     52  C   UNL A   1      47.030  27.018  29.306  1.00  0.00     0.037 A 
ATOM     53  C   UNL A   1      40.230  28.724  29.079  1.00  0.00     0.037 A 
ATOM     54  C   UNL A   1      46.731  28.372  29.686  1.00  0.00     0.049 A 
ATOM     55  C   UNL A   1      41.284  29.701  29.525  1.00  0.00     0.074 A 
ATOM     56  C   UNL A   1      47.606  29.376  30.058  1.00  0.00     0.029 A 
ATOM     57  N   UNL A   1      45.454  28.912  29.729  1.00  0.00    -0.354 N 
ATOM     58  N   UNL A   1      42.584  29.541  29.595  1.00  0.00    -0.248 NA
ATOM     59  C   UNL A   1      40.819  31.030  29.945  1.00  0.00     0.031 C 
ATOM     60  C   UNL A   1      46.854  30.513  30.371  1.00  0.00     0.029 A 
ATOM     61  C   UNL A   1      45.516  30.233  30.140  1.00  0.00     0.049 A 
ATOM     62  H   UNL A   1      44.627  28.429  29.501  1.00  0.00     0.167 HD
ATOM     63  C   UNL A   1      43.093  30.756  30.035  1.00  0.00     0.074 A 
ATOM     64  C   UNL A   1      41.964  31.648  30.199  1.00  0.00     0.031 C 
ATOM     65  C   UNL A   1      44.380  31.104  30.284  1.00  0.00     0.037 A 
BRANCH  52  66
ATOM     66  C   UNL A   1      48.458  26.554  29.365  1.00  0.00     0.057 A 
ATOM     67  C   UNL A   1      49.339  26.722  28.288  1.00  0.00     0.134 A 
ATOM     68  C   UNL A   1      48.966  25.950  30.523  1.00  0.00     0.134 A 
ATOM     69  F   UNL A   1      48.915  27.278  27.143  1.00  0.00    -0.206 F 
ATOM     70  C   UNL A   1      50.661  26.278  28.347  1.00  0.00     0.040 A 
ATOM     71  C   UNL A   1      50.296  25.533  30.606  1.00  0.00     0.040 A 
ATOM     72  F   UNL A   1      48.181  25.761  31.594  1.00  0.00    -0.206 F 
ATOM     73  C   UNL A   1      51.145  25.690  29.513  1.00  0.00     0.006 A 
ENDBRANCH  52  66
BRANCH  53  74
ATOM     74  C   UNL A   1      38.794  29.110  29.069  1.00  0.00     0.057 A 
ATOM     75  C   UNL A   1      38.012  29.008  30.228  1.00  0.00     0.134 A 
ATOM     76  C   UNL A   1      38.164  29.573  27.908  1.00  0.00     0.134 A 
ATOM     77  F   UNL A   1      38.552  28.554  31.368  1.00  0.00    -0.206 F 
ATOM     78  C   UNL A   1      36.654  29.328  30.226  1.00  0.00     0.040 A 
ATOM     79  C   UNL A   1      36.812  29.925  27.900  1.00  0.00     0.040 A 
ATOM     80  F   UNL A   1      38.857  29.703  26.767  1.00  0.00    -0.206 F 
ATOM     81  C   UNL A   1      36.050  29.793  29.059  1.00  0.00     0.006 A 
ENDBRANCH  53  74
BRANCH  65  82
ATOM     82  C   UNL A   1      44.638  32.517  30.718  1.00  0.00     0.057 A 
ATOM     83  C   UNL A   1      44.868  33.546  29.796  1.00  0.00     0.134 A 
ATOM     84  C   UNL A   1      44.611  32.859  32.077  1.00  0.00     0.134 A 
ATOM     85  F   UNL A   1      44.915  33.283  28.481  1.00  0.00    -0.206 F 
ATOM     86  C   UNL A   1      45.089  34.859  30.212  1.00  0.00     0.040 A 
ATOM     87  C   UNL A   1      44.801  34.173  32.503  1.00  0.00     0.040 A 
ATOM     88  F   UNL A   1      44.383  31.922  33.010  1.00  0.00    -0.206 F 
ATOM     89  C   UNL A   1      45.048  35.177  31.569  1.00  0.00     0.006 A 
ENDBRANCH  65  82
ENDBRANCH  39  40
ENDBRANCH  31  34
ENDBRANCH  29  30
ENDBRANCH  28  29
ENDBRANCH  27  28
ENDBRANCH  26  27
ENDBRANCH   3  26
TORSDOF 18
ENDMDL
MODEL 2
REMARK VINA RESULT:     -10.6      5.431     10.177
REMARK SMILES CC(C)[C@H](NC(=O)OCc1ccccc1)C(=O)NCC(=O)NCCCCNC(=O)c1ccc(-c2c3nc(c(-c4c(F)cccc4F)c4ccc([nH]4)c(-c4c(F)cccc4F)c4nc(c(-c5c(F)cccc5F)c5ccc2[nH]5)C=C4)C=C3)cc1
REMARK SMILES IDX 20 1 21 2 22 3 19 5 18 6 16 7 17 8 4 10 2 11 1 12 3 13 5 14
REMARK SMILES IDX 6 15 7 17 8 18 9 19 10 20 11 21 15 22 12 23 14 24 13 25
REMARK SMILES IDX 23 26 24 27 25 28 26 29 27 30 28 31 29 33 30 34 31 35 83 36
REMARK SMILES IDX 32 37 82 38 33 39 34 40 35 41 76 42 36 43 81 44 75 45 77 46
REMARK SMILES IDX 37 47 80 48 74 49 73 50 38 52 64 53 47 54 63 55 48 56 51 57
REMARK SMILES IDX 62 58 78 59 49 60 50 61 61 63 79 64 52 65 39 66 40 67 45 68
REMARK SMILES IDX 41 69 42 70 44 71 46 72 43 73 65 74 66 75 71 76 67 77 68 78
REMARK SMILES IDX 70 79 72 80 69 81 53 82 54 83 59 84 55 85 56 86 58 87 60 88
REMARK SMILES IDX 57 89
REMARK H PARENT 22 4 18 9 5 16 27 32 77 51 51 62
REMARK Flexibility Score: inf
ROOT
ATOM      1  C   UNL A   1      35.158  29.991  27.656  1.00  0.00     0.239 C 
ATOM      2  O   UNL A   1      36.176  29.359  27.946  1.00  0.00    -0.273 OA
ATOM      3  N   UNL A   1      35.045  31.286  28.084  1.00  0.00    -0.355 N 
ATOM      4  H   UNL A   1      35.850  31.654  28.515  1.00  0.00     0.163 HD
ENDROOT
BRANCH   1   5
ATOM      5  C   UNL A   1      34.036  29.334  26.850  1.00  0.00     0.216 C 
BRANCH   5   6
ATOM      6  N   UNL A   1      32.841  28.983  27.583  1.00  0.00    -0.345 N 
ATOM      7  C   UNL A   1      31.828  28.131  27.279  1.00  0.00     0.243 C 
ATOM      8  O   UNL A   1      31.061  27.835  28.206  1.00  0.00    -0.273 OA
ATOM      9  H   UNL A   1      32.746  29.438  28.450  1.00  0.00     0.164 HD
BRANCH   7  10
ATOM     10  C   UNL A   1      31.553  27.555  25.859  1.00  0.00     0.177 C 
BRANCH  10  11
ATOM     11  C   UNL A   1      30.550  26.348  25.763  1.00  0.00     0.015 C 
ATOM     12  C   UNL A   1      29.633  26.225  24.533  1.00  0.00     0.010 C 
ATOM     13  C   UNL A   1      31.221  25.006  26.077  1.00  0.00     0.010 C 
ENDBRANCH  10  11
BRANCH  10  14
ATOM     14  N   UNL A   1      32.739  27.429  25.007  1.00  0.00    -0.309 N 
ATOM     15  C   UNL A   1      32.837  27.833  23.693  1.00  0.00     0.408 C 
ATOM     16  H   UNL A   1      33.538  27.020  25.411  1.00  0.00     0.167 HD
ATOM     17  O   UNL A   1      33.676  27.305  22.957  1.00  0.00    -0.225 OA
BRANCH  15  18
ATOM     18  O   UNL A   1      32.096  28.917  23.374  1.00  0.00    -0.445 OA
BRANCH  18  19
ATOM     19  C   UNL A   1      31.027  28.774  22.399  1.00  0.00     0.270 C 
BRANCH  19  20
ATOM     20  C   UNL A   1      29.943  29.834  22.573  1.00  0.00    -0.011 A 
ATOM     21  C   UNL A   1      29.078  30.174  21.526  1.00  0.00     0.007 A 
ATOM     22  C   UNL A   1      29.761  30.487  23.804  1.00  0.00     0.007 A 
ATOM     23  C   UNL A   1      27.983  31.019  21.737  1.00  0.00     0.000 A 
ATOM     24  C   UNL A   1      28.661  31.331  24.019  1.00  0.00     0.000 A 
ATOM     25  C   UNL A   1      27.753  31.572  22.992  1.00  0.00     0.000 A 
ENDBRANCH  19  20
ENDBRANCH  18  19
ENDBRANCH  15  18
ENDBRANCH  10  14
ENDBRANCH   7  10
ENDBRANCH   5   6
ENDBRANCH   1   5
BRANCH   3  26
ATOM     26  C   UNL A   1      33.919  32.204  27.998  1.00  0.00     0.116 C 
BRANCH  26  27
ATOM     27  C   UNL A   1      34.155  33.451  28.828  1.00  0.00     0.023 C 
BRANCH  27  28
ATOM     28  C   UNL A   1      33.165  34.579  28.609  1.00  0.00     0.023 C 
BRANCH  28  29
ATOM     29  C   UNL A   1      33.487  35.841  29.380  1.00  0.00     0.116 C 
BRANCH  29  30
ATOM     30  N   UNL A   1      32.528  36.142  30.445  1.00  0.00    -0.352 N 
ATOM     31  C   UNL A   1      32.566  35.881  31.800  1.00  0.00     0.251 C 
ATOM     32  H   UNL A   1      31.717  36.611  30.143  1.00  0.00     0.163 HD
ATOM     33  O   UNL A   1      31.617  36.200  32.513  1.00  0.00    -0.269 OA
BRANCH  31  34
ATOM     34  C   UNL A   1      33.709  35.153  32.407  1.00  0.00     0.039 A 
ATOM     35  C   UNL A   1      33.532  33.834  32.839  1.00  0.00     0.014 A 
ATOM     36  C   UNL A   1      34.968  35.731  32.500  1.00  0.00     0.014 A 
ATOM     37  C   UNL A   1      34.638  33.080  33.252  1.00  0.00     0.010 A 
ATOM     38  C   UNL A   1      36.080  34.934  32.721  1.00  0.00     0.010 A 
ATOM     39  C   UNL A   1      35.934  33.603  33.132  1.00  0.00    -0.014 A 
BRANCH  39  40
ATOM     40  C   UNL A   1      37.154  32.818  33.467  1.00  0.00     0.031 A 
ATOM     41  C   UNL A   1      37.886  33.093  34.760  1.00  0.00     0.074 A 
ATOM     42  C   UNL A   1      37.660  31.935  32.583  1.00  0.00     0.049 A 
ATOM     43  N   UNL A   1      39.037  32.630  35.177  1.00  0.00    -0.248 NA
ATOM     44  C   UNL A   1      37.269  34.063  35.684  1.00  0.00     0.031 C 
ATOM     45  C   UNL A   1      37.099  31.627  31.266  1.00  0.00     0.029 A 
ATOM     46  N   UNL A   1      38.775  31.137  32.657  1.00  0.00    -0.354 N 
ATOM     47  C   UNL A   1      39.293  33.284  36.379  1.00  0.00     0.074 A 
ATOM     48  C   UNL A   1      38.226  34.235  36.581  1.00  0.00     0.031 C 
ATOM     49  C   UNL A   1      37.842  30.676  30.678  1.00  0.00     0.029 A 
ATOM     50  C   UNL A   1      38.962  30.342  31.551  1.00  0.00     0.049 A 
ATOM     51  H   UNL A   1      39.384  31.134  33.431  1.00  0.00     0.167 HD
ATOM     52  C   UNL A   1      40.300  33.082  37.259  1.00  0.00     0.037 A 
ATOM     53  C   UNL A   1      39.928  29.448  31.272  1.00  0.00     0.037 A 
ATOM     54  C   UNL A   1      41.321  32.085  37.091  1.00  0.00     0.049 A 
ATOM     55  C   UNL A   1      41.020  29.215  32.281  1.00  0.00     0.074 A 
ATOM     56  C   UNL A   1      42.338  31.737  37.961  1.00  0.00     0.029 A 
ATOM     57  N   UNL A   1      41.446  31.268  35.977  1.00  0.00    -0.354 N 
ATOM     58  N   UNL A   1      41.207  29.788  33.446  1.00  0.00    -0.248 NA
ATOM     59  C   UNL A   1      42.032  28.206  31.940  1.00  0.00     0.031 C 
ATOM     60  C   UNL A   1      43.106  30.738  37.353  1.00  0.00     0.029 A 
ATOM     61  C   UNL A   1      42.535  30.428  36.130  1.00  0.00     0.049 A 
ATOM     62  H   UNL A   1      40.848  31.284  35.194  1.00  0.00     0.167 HD
ATOM     63  C   UNL A   1      42.336  29.188  33.989  1.00  0.00     0.074 A 
ATOM     64  C   UNL A   1      42.781  28.195  33.034  1.00  0.00     0.031 C 
ATOM     65  C   UNL A   1      42.952  29.438  35.171  1.00  0.00     0.037 A 
BRANCH  52  66
ATOM     66  C   UNL A   1      40.327  33.937  38.495  1.00  0.00     0.057 A 
ATOM     67  C   UNL A   1      41.053  35.134  38.555  1.00  0.00     0.134 A 
ATOM     68  C   UNL A   1      39.597  33.570  39.634  1.00  0.00     0.134 A 
ATOM     69  F   UNL A   1      41.787  35.538  37.507  1.00  0.00    -0.206 F 
ATOM     70  C   UNL A   1      41.081  35.917  39.711  1.00  0.00     0.040 A 
ATOM     71  C   UNL A   1      39.590  34.363  40.784  1.00  0.00     0.040 A 
ATOM     72  F   UNL A   1      38.875  32.439  39.646  1.00  0.00    -0.206 F 
ATOM     73  C   UNL A   1      40.340  35.535  40.827  1.00  0.00     0.006 A 
ENDBRANCH  52  66
BRANCH  53  74
ATOM     74  C   UNL A   1      39.895  28.678  30.000  1.00  0.00     0.057 A 
ATOM     75  C   UNL A   1      39.193  27.470  29.906  1.00  0.00     0.134 A 
ATOM     76  C   UNL A   1      40.570  29.120  28.855  1.00  0.00     0.134 A 
ATOM     77  F   UNL A   1      38.541  26.984  30.972  1.00  0.00    -0.206 F 
ATOM     78  C   UNL A   1      39.185  26.716  28.731  1.00  0.00     0.040 A 
ATOM     79  C   UNL A   1      40.546  28.389  27.665  1.00  0.00     0.040 A 
ATOM     80  F   UNL A   1      41.253  30.273  28.874  1.00  0.00    -0.206 F 
ATOM     81  C   UNL A   1      39.860  27.178  27.604  1.00  0.00     0.006 A 
ENDBRANCH  53  74
BRANCH  65  82
ATOM     82  C   UNL A   1      44.145  28.596  35.515  1.00  0.00     0.057 A 
ATOM     83  C   UNL A   1      44.024  27.387  36.211  1.00  0.00     0.134 A 
ATOM     84  C   UNL A   1      45.428  28.982  35.104  1.00  0.00     0.134 A 
ATOM     85  F   UNL A   1      42.824  26.966  36.640  1.00  0.00    -0.206 F 
ATOM     86  C   UNL A   1      45.140  26.604  36.509  1.00  0.00     0.040 A 
ATOM     87  C   UNL A   1      46.547  28.194  35.370  1.00  0.00     0.040 A 
ATOM     88  F   UNL A   1      45.611  30.123  34.423  1.00  0.00    -0.206 F 
ATOM     89  C   UNL A   1      46.405  27.003  36.081  1.00  0.00     0.006 A 
ENDBRANCH  65  82
ENDBRANCH  39  40
ENDBRANCH  31  34
ENDBRANCH  29  30
ENDBRANCH  28  29
ENDBRANCH  27  28
ENDBRANCH  26  27
ENDBRANCH   3  26
TORSDOF 18
ENDMDL
MODEL 3
REMARK VINA RESULT:     -10.6      3.097      4.778
REMARK SMILES CC(C)[C@H](NC(=O)OCc1ccccc1)C(=O)NCC(=O)NCCCCNC(=O)c1ccc(-c2c3nc(c(-c4c(F)cccc4F)c4ccc([nH]4)c(-c4c(F)cccc4F)c4nc(c(-c5c(F)cccc5F)c5ccc2[nH]5)C=C4)C=C3)cc1
REMARK SMILES IDX 20 1 21 2 22 3 19 5 18 6 16 7 17 8 4 10 2 11 1 12 3 13 5 14
REMARK SMILES IDX 6 15 7 17 8 18 9 19 10 20 11 21 15 22 12 23 14 24 13 25
REMARK SMILES IDX 23 26 24 27 25 28 26 29 27 30 28 31 29 33 30 34 31 35 83 36
REMARK SMILES IDX 32 37 82 38 33 39 34 40 35 41 76 42 36 43 81 44 75 45 77 46
REMARK SMILES IDX 37 47 80 48 74 49 73 50 38 52 64 53 47 54 63 55 48 56 51 57
REMARK SMILES IDX 62 58 78 59 49 60 50 61 61 63 79 64 52 65 39 66 40 67 45 68
REMARK SMILES IDX 41 69 42 70 44 71 46 72 43 73 65 74 66 75 71 76 67 77 68 78
REMARK SMILES IDX 70 79 72 80 69 81 53 82 54 83 59 84 55 85 56 86 58 87 60 88
REMARK SMILES IDX 57 89
REMARK H PARENT 22 4 18 9 5 16 27 32 77 51 51 62
REMARK Flexibility Score: inf
ROOT
ATOM      1  C   UNL A   1      38.908  24.036  26.546  1.00  0.00     0.239 C 
ATOM      2  O   UNL A   1      39.114  25.204  26.885  1.00  0.00    -0.273 OA
ATOM      3  N   UNL A   1      39.946  23.146  26.591  1.00  0.00    -0.355 N 
ATOM      4  H   UNL A   1      40.773  23.491  26.998  1.00  0.00     0.163 HD
ENDROOT
BRANCH   1   5
ATOM      5  C   UNL A   1      37.524  23.597  26.066  1.00  0.00     0.216 C 
BRANCH   5   6
ATOM      6  N   UNL A   1      37.394  23.310  24.656  1.00  0.00    -0.345 N 
ATOM      7  C   UNL A   1      36.299  23.056  23.895  1.00  0.00     0.243 C 
ATOM      8  O   UNL A   1      36.460  23.096  22.667  1.00  0.00    -0.273 OA
ATOM      9  H   UNL A   1      38.246  23.298  24.163  1.00  0.00     0.164 HD
BRANCH   7  10
ATOM     10  C   UNL A   1      34.897  22.681  24.460  1.00  0.00     0.177 C 
BRANCH  10  11
ATOM     11  C   UNL A   1      34.781  21.312  25.224  1.00  0.00     0.015 C 
ATOM     12  C   UNL A   1      35.857  20.233  25.004  1.00  0.00     0.010 C 
ATOM     13  C   UNL A   1      34.498  21.501  26.719  1.00  0.00     0.010 C 
ENDBRANCH  10  11
BRANCH  10  14
ATOM     14  N   UNL A   1      33.776  22.975  23.563  1.00  0.00    -0.309 N 
ATOM     15  C   UNL A   1      32.928  22.046  22.999  1.00  0.00     0.408 C 
ATOM     16  H   UNL A   1      33.614  23.921  23.344  1.00  0.00     0.167 HD
ATOM     17  O   UNL A   1      32.330  22.325  21.956  1.00  0.00    -0.225 OA
BRANCH  15  18
ATOM     18  O   UNL A   1      32.698  20.951  23.757  1.00  0.00    -0.445 OA
BRANCH  18  19
ATOM     19  C   UNL A   1      32.258  19.727  23.107  1.00  0.00     0.270 C 
BRANCH  19  20
ATOM     20  C   UNL A   1      32.819  18.481  23.783  1.00  0.00    -0.011 A 
ATOM     21  C   UNL A   1      32.583  18.213  25.137  1.00  0.00     0.007 A 
ATOM     22  C   UNL A   1      33.574  17.542  23.057  1.00  0.00     0.007 A 
ATOM     23  C   UNL A   1      32.955  16.992  25.710  1.00  0.00     0.000 A 
ATOM     24  C   UNL A   1      33.943  16.315  23.629  1.00  0.00     0.000 A 
ATOM     25  C   UNL A   1      33.605  16.027  24.948  1.00  0.00     0.000 A 
ENDBRANCH  19  20
ENDBRANCH  18  19
ENDBRANCH  15  18
ENDBRANCH  10  14
ENDBRANCH   7  10
ENDBRANCH   5   6
ENDBRANCH   1   5
BRANCH   3  26
ATOM     26  C   UNL A   1      40.015  21.766  26.133  1.00  0.00     0.116 C 
BRANCH  26  27
ATOM     27  C   UNL A   1      41.437  21.240  26.169  1.00  0.00     0.023 C 
BRANCH  27  28
ATOM     28  C   UNL A   1      41.585  19.742  25.981  1.00  0.00     0.023 C 
BRANCH  28  29
ATOM     29  C   UNL A   1      42.974  19.218  26.274  1.00  0.00     0.116 C 
BRANCH  29  30
ATOM     30  N   UNL A   1      43.715  18.810  25.078  1.00  0.00    -0.352 N 
ATOM     31  C   UNL A   1      44.630  19.493  24.301  1.00  0.00     0.251 C 
ATOM     32  H   UNL A   1      43.527  17.892  24.775  1.00  0.00     0.163 HD
ATOM     33  O   UNL A   1      45.109  18.956  23.305  1.00  0.00    -0.269 OA
BRANCH  31  34
ATOM     34  C   UNL A   1      44.995  20.898  24.608  1.00  0.00     0.039 A 
ATOM     35  C   UNL A   1      44.566  21.922  23.755  1.00  0.00     0.014 A 
ATOM     36  C   UNL A   1      45.703  21.228  25.757  1.00  0.00     0.014 A 
ATOM     37  C   UNL A   1      44.754  23.261  24.122  1.00  0.00     0.010 A 
ATOM     38  C   UNL A   1      45.716  22.538  26.208  1.00  0.00     0.010 A 
ATOM     39  C   UNL A   1      45.272  23.581  25.385  1.00  0.00    -0.014 A 
BRANCH  39  40
ATOM     40  C   UNL A   1      45.410  24.983  25.868  1.00  0.00     0.031 A 
ATOM     41  C   UNL A   1      46.759  25.661  25.816  1.00  0.00     0.074 A 
ATOM     42  C   UNL A   1      44.362  25.614  26.436  1.00  0.00     0.049 A 
ATOM     43  N   UNL A   1      47.128  26.814  26.312  1.00  0.00    -0.248 NA
ATOM     44  C   UNL A   1      47.857  24.916  25.172  1.00  0.00     0.031 C 
ATOM     45  C   UNL A   1      43.022  25.051  26.620  1.00  0.00     0.029 A 
ATOM     46  N   UNL A   1      44.264  26.873  26.976  1.00  0.00    -0.354 N 
ATOM     47  C   UNL A   1      48.497  26.905  26.075  1.00  0.00     0.074 A 
ATOM     48  C   UNL A   1      48.908  25.660  25.474  1.00  0.00     0.031 C 
ATOM     49  C   UNL A   1      42.228  25.974  27.185  1.00  0.00     0.029 A 
ATOM     50  C   UNL A   1      43.010  27.175  27.451  1.00  0.00     0.049 A 
ATOM     51  H   UNL A   1      45.022  27.500  27.019  1.00  0.00     0.167 HD
ATOM     52  C   UNL A   1      49.331  27.947  26.296  1.00  0.00     0.037 A 
ATOM     53  C   UNL A   1      42.546  28.295  28.037  1.00  0.00     0.037 A 
ATOM     54  C   UNL A   1      48.906  29.213  26.829  1.00  0.00     0.049 A 
ATOM     55  C   UNL A   1      43.483  29.454  28.242  1.00  0.00     0.074 A 
ATOM     56  C   UNL A   1      49.649  30.364  27.013  1.00  0.00     0.029 A 
ATOM     57  N   UNL A   1      47.615  29.493  27.253  1.00  0.00    -0.354 N 
ATOM     58  N   UNL A   1      44.757  29.551  27.945  1.00  0.00    -0.248 NA
ATOM     59  C   UNL A   1      42.917  30.662  28.858  1.00  0.00     0.031 C 
ATOM     60  C   UNL A   1      48.818  31.329  27.592  1.00  0.00     0.029 A 
ATOM     61  C   UNL A   1      47.545  30.795  27.716  1.00  0.00     0.049 A 
ATOM     62  H   UNL A   1      46.862  28.859  27.228  1.00  0.00     0.167 HD
ATOM     63  C   UNL A   1      45.135  30.837  28.308  1.00  0.00     0.074 A 
ATOM     64  C   UNL A   1      43.952  31.489  28.831  1.00  0.00     0.031 C 
ATOM     65  C   UNL A   1      46.354  31.427  28.220  1.00  0.00     0.037 A 
BRANCH  52  66
ATOM     66  C   UNL A   1      50.779  27.770  25.934  1.00  0.00     0.057 A 
ATOM     67  C   UNL A   1      51.245  27.953  24.625  1.00  0.00     0.134 A 
ATOM     68  C   UNL A   1      51.724  27.433  26.912  1.00  0.00     0.134 A 
ATOM     69  F   UNL A   1      50.393  28.260  23.636  1.00  0.00    -0.206 F 
ATOM     70  C   UNL A   1      52.590  27.776  24.295  1.00  0.00     0.040 A 
ATOM     71  C   UNL A   1      53.078  27.287  26.600  1.00  0.00     0.040 A 
ATOM     72  F   UNL A   1      51.350  27.247  28.187  1.00  0.00    -0.206 F 
ATOM     73  C   UNL A   1      53.512  27.451  25.287  1.00  0.00     0.006 A 
ENDBRANCH  52  66
BRANCH  53  74
ATOM     74  C   UNL A   1      41.118  28.393  28.444  1.00  0.00     0.057 A 
ATOM     75  C   UNL A   1      40.714  28.056  29.742  1.00  0.00     0.134 A 
ATOM     76  C   UNL A   1      40.125  28.809  27.549  1.00  0.00     0.134 A 
ATOM     77  F   UNL A   1      41.615  27.634  30.641  1.00  0.00    -0.206 F 
ATOM     78  C   UNL A   1      39.373  28.105  30.128  1.00  0.00     0.040 A 
ATOM     79  C   UNL A   1      38.784  28.890  27.931  1.00  0.00     0.040 A 
ATOM     80  F   UNL A   1      40.446  29.155  26.294  1.00  0.00    -0.206 F 
ATOM     81  C   UNL A   1      38.404  28.528  29.221  1.00  0.00     0.006 A 
ENDBRANCH  53  74
BRANCH  65  82
ATOM     82  C   UNL A   1      46.457  32.858  28.658  1.00  0.00     0.057 A 
ATOM     83  C   UNL A   1      46.201  33.921  27.783  1.00  0.00     0.134 A 
ATOM     84  C   UNL A   1      46.774  33.173  29.986  1.00  0.00     0.134 A 
ATOM     85  F   UNL A   1      45.902  33.687  26.496  1.00  0.00    -0.206 F 
ATOM     86  C   UNL A   1      46.284  35.248  28.207  1.00  0.00     0.040 A 
ATOM     87  C   UNL A   1      46.830  34.494  30.429  1.00  0.00     0.040 A 
ATOM     88  F   UNL A   1      47.018  32.200  30.877  1.00  0.00    -0.206 F 
ATOM     89  C   UNL A   1      46.592  35.537  29.536  1.00  0.00     0.006 A 
ENDBRANCH  65  82
ENDBRANCH  39  40
ENDBRANCH  31  34
ENDBRANCH  29  30
ENDBRANCH  28  29
ENDBRANCH  27  28
ENDBRANCH  26  27
ENDBRANCH   3  26
TORSDOF 18
ENDMDL
