MODEL 1
REMARK VINA RESULT:     -12.2      0.000      0.000
REMARK SMILES O=C(NCCCCNC(=O)c1cc(Br)ccc1OC(=O)c1ccc(F)cc1)c1ccc(-c2c3nc(c(-c4c(F)cccc4F)c4ccc([nH]4)c(-c4c(F)cccc4F)c4nc(c(-c5c(F)cccc5F)c5ccc2[nH]5)C=C4)C=C3)cc1
REMARK SMILES IDX 6 1 5 2 4 3 3 4 1 5 2 6 28 8 29 9 81 10 30 11 80 12 31 13
REMARK SMILES IDX 32 14 33 15 74 16 34 17 79 18 73 19 75 20 35 21 78 22 72 23
REMARK SMILES IDX 71 24 36 26 62 27 45 28 61 29 46 30 49 31 60 32 76 33 47 34
REMARK SMILES IDX 48 35 59 37 77 38 50 39 37 40 38 41 43 42 39 43 40 44 42 45
REMARK SMILES IDX 44 46 41 47 63 48 64 49 69 50 65 51 66 52 68 53 70 54 67 55
REMARK SMILES IDX 51 56 52 57 57 58 53 59 54 60 56 61 58 62 55 63 7 64 8 65
REMARK SMILES IDX 9 66 10 68 11 69 12 70 17 71 13 72 16 73 14 74 15 75 18 76
REMARK SMILES IDX 19 77 20 78 21 79 22 80 27 81 23 82 26 83 24 84 25 85
REMARK H PARENT 3 7 75 25 49 36 8 67
REMARK Flexibility Score: inf
ROOT
ATOM      1  C   UNL A   1      31.533  30.485  26.373  1.00  0.00     0.023 C 
ENDROOT
BRANCH   1   2
ATOM      2  C   UNL A   1      31.424  31.987  26.623  1.00  0.00     0.023 C 
BRANCH   2   3
ATOM      3  C   UNL A   1      32.698  32.670  27.105  1.00  0.00     0.116 C 
BRANCH   3   4
ATOM      4  N   UNL A   1      32.468  34.001  27.642  1.00  0.00    -0.352 N 
ATOM      5  O   UNL A   1      32.711  35.762  29.025  1.00  0.00    -0.269 OA
ATOM      6  C   UNL A   1      33.135  34.680  28.633  1.00  0.00     0.251 C 
ATOM      7  H   UNL A   1      31.719  34.492  27.233  1.00  0.00     0.163 HD
BRANCH   6   8
ATOM      8  C   UNL A   1      34.343  34.097  29.254  1.00  0.00     0.039 A 
ATOM      9  C   UNL A   1      35.626  34.510  28.884  1.00  0.00     0.014 A 
ATOM     10  C   UNL A   1      34.181  33.123  30.245  1.00  0.00     0.014 A 
ATOM     11  C   UNL A   1      36.742  33.858  29.403  1.00  0.00     0.010 A 
ATOM     12  C   UNL A   1      35.302  32.519  30.816  1.00  0.00     0.010 A 
ATOM     13  C   UNL A   1      36.590  32.860  30.377  1.00  0.00    -0.014 A 
BRANCH  13  14
ATOM     14  C   UNL A   1      37.778  32.196  30.965  1.00  0.00     0.031 A 
ATOM     15  C   UNL A   1      38.498  31.110  30.219  1.00  0.00     0.074 A 
ATOM     16  C   UNL A   1      38.195  32.562  32.191  1.00  0.00     0.049 A 
ATOM     17  N   UNL A   1      39.495  30.360  30.614  1.00  0.00    -0.248 NA
ATOM     18  C   UNL A   1      38.033  30.822  28.854  1.00  0.00     0.031 C 
ATOM     19  C   UNL A   1      37.585  33.610  33.009  1.00  0.00     0.029 A 
ATOM     20  N   UNL A   1      39.223  32.088  32.966  1.00  0.00    -0.354 N 
ATOM     21  C   UNL A   1      39.761  29.495  29.560  1.00  0.00     0.074 A 
ATOM     22  C   UNL A   1      38.810  29.802  28.512  1.00  0.00     0.031 C 
ATOM     23  C   UNL A   1      38.258  33.713  34.164  1.00  0.00     0.029 A 
ATOM     24  C   UNL A   1      39.308  32.699  34.193  1.00  0.00     0.049 A 
ATOM     25  H   UNL A   1      39.840  31.380  32.671  1.00  0.00     0.167 HD
ATOM     26  C   UNL A   1      40.714  28.538  29.475  1.00  0.00     0.037 A 
ATOM     27  C   UNL A   1      40.118  32.454  35.238  1.00  0.00     0.037 A 
ATOM     28  C   UNL A   1      41.671  28.253  30.512  1.00  0.00     0.049 A 
ATOM     29  C   UNL A   1      41.138  31.358  35.142  1.00  0.00     0.074 A 
ATOM     30  C   UNL A   1      42.708  27.336  30.497  1.00  0.00     0.029 A 
ATOM     31  N   UNL A   1      41.704  28.876  31.751  1.00  0.00    -0.354 N 
ATOM     32  N   UNL A   1      41.392  30.561  34.133  1.00  0.00    -0.248 NA
ATOM     33  C   UNL A   1      41.973  31.117  36.325  1.00  0.00     0.031 C 
ATOM     34  C   UNL A   1      43.339  27.371  31.745  1.00  0.00     0.029 A 
ATOM     35  C   UNL A   1      42.725  28.342  32.520  1.00  0.00     0.049 A 
ATOM     36  H   UNL A   1      41.093  29.591  32.041  1.00  0.00     0.167 HD
ATOM     37  C   UNL A   1      42.425  29.735  34.551  1.00  0.00     0.074 A 
ATOM     38  C   UNL A   1      42.754  30.129  35.906  1.00  0.00     0.031 C 
ATOM     39  C   UNL A   1      43.045  28.744  33.867  1.00  0.00     0.037 A 
BRANCH  26  40
ATOM     40  C   UNL A   1      40.763  27.708  28.226  1.00  0.00     0.057 A 
ATOM     41  C   UNL A   1      40.091  26.481  28.161  1.00  0.00     0.134 A 
ATOM     42  C   UNL A   1      41.517  28.093  27.110  1.00  0.00     0.134 A 
ATOM     43  F   UNL A   1      39.357  26.050  29.198  1.00  0.00    -0.206 F 
ATOM     44  C   UNL A   1      40.171  25.663  27.032  1.00  0.00     0.040 A 
ATOM     45  C   UNL A   1      41.586  27.294  25.967  1.00  0.00     0.040 A 
ATOM     46  F   UNL A   1      42.178  29.260  27.104  1.00  0.00    -0.206 F 
ATOM     47  C   UNL A   1      40.917  26.071  25.929  1.00  0.00     0.006 A 
ENDBRANCH  26  40
BRANCH  27  48
ATOM     48  C   UNL A   1      39.977  33.278  36.462  1.00  0.00     0.057 A 
ATOM     49  C   UNL A   1      39.036  32.958  37.450  1.00  0.00     0.134 A 
ATOM     50  C   UNL A   1      40.718  34.452  36.627  1.00  0.00     0.134 A 
ATOM     51  F   UNL A   1      38.290  31.850  37.338  1.00  0.00    -0.206 F 
ATOM     52  C   UNL A   1      38.815  33.795  38.544  1.00  0.00     0.040 A 
ATOM     53  C   UNL A   1      40.520  35.288  37.728  1.00  0.00     0.040 A 
ATOM     54  F   UNL A   1      41.640  34.802  35.720  1.00  0.00    -0.206 F 
ATOM     55  C   UNL A   1      39.557  34.965  38.683  1.00  0.00     0.006 A 
ENDBRANCH  27  48
BRANCH  39  56
ATOM     56  C   UNL A   1      44.161  28.016  34.551  1.00  0.00     0.057 A 
ATOM     57  C   UNL A   1      45.480  28.477  34.447  1.00  0.00     0.134 A 
ATOM     58  C   UNL A   1      43.946  26.805  35.218  1.00  0.00     0.134 A 
ATOM     59  F   UNL A   1      45.750  29.627  33.811  1.00  0.00    -0.206 F 
ATOM     60  C   UNL A   1      46.549  27.745  34.963  1.00  0.00     0.040 A 
ATOM     61  C   UNL A   1      45.007  26.074  35.755  1.00  0.00     0.040 A 
ATOM     62  F   UNL A   1      42.705  26.317  35.360  1.00  0.00    -0.206 F 
ATOM     63  C   UNL A   1      46.314  26.538  35.617  1.00  0.00     0.006 A 
ENDBRANCH  39  56
ENDBRANCH  13  14
ENDBRANCH   6   8
ENDBRANCH   3   4
ENDBRANCH   2   3
ENDBRANCH   1   2
BRANCH   1  64
ATOM     64  C   UNL A   1      32.948  29.941  26.205  1.00  0.00     0.116 C 
BRANCH  64  65
ATOM     65  N   UNL A   1      33.343  29.763  24.814  1.00  0.00    -0.352 N 
ATOM     66  C   UNL A   1      33.246  28.642  24.025  1.00  0.00     0.255 C 
ATOM     67  H   UNL A   1      33.733  30.556  24.380  1.00  0.00     0.163 HD
ATOM     68  O   UNL A   1      33.714  28.635  22.891  1.00  0.00    -0.269 OA
BRANCH  66  69
ATOM     69  C   UNL A   1      32.582  27.437  24.558  1.00  0.00     0.083 A 
ATOM     70  C   UNL A   1      33.365  26.423  25.126  1.00  0.00     0.033 A 
ATOM     71  C   UNL A   1      31.191  27.297  24.521  1.00  0.00     0.144 A 
ATOM     72  C   UNL A   1      32.757  25.250  25.572  1.00  0.00     0.019 A 
ATOM     73  C   UNL A   1      30.585  26.129  24.989  1.00  0.00     0.049 A 
ATOM     74  Br  UNL A   1      33.824  23.859  26.276  1.00  0.00    -0.051 Br
ATOM     75  C   UNL A   1      31.375  25.094  25.494  1.00  0.00     0.019 A 
BRANCH  71  76
ATOM     76  O   UNL A   1      30.323  28.333  24.142  1.00  0.00    -0.422 OA
BRANCH  76  77
ATOM     77  C   UNL A   1      30.134  28.536  22.789  1.00  0.00     0.343 C 
ATOM     78  O   UNL A   1      30.403  27.757  21.884  1.00  0.00    -0.246 OA
BRANCH  77  79
ATOM     79  C   UNL A   1      29.519  29.877  22.577  1.00  0.00     0.060 A 
ATOM     80  C   UNL A   1      29.344  30.793  23.629  1.00  0.00     0.019 A 
ATOM     81  C   UNL A   1      29.077  30.214  21.289  1.00  0.00     0.019 A 
ATOM     82  C   UNL A   1      28.730  32.025  23.391  1.00  0.00     0.040 A 
ATOM     83  C   UNL A   1      28.469  31.450  21.055  1.00  0.00     0.040 A 
ATOM     84  C   UNL A   1      28.298  32.342  22.108  1.00  0.00     0.123 A 
ATOM     85  F   UNL A   1      27.705  33.521  21.886  1.00  0.00    -0.207 F 
ENDBRANCH  77  79
ENDBRANCH  76  77
ENDBRANCH  71  76
ENDBRANCH  66  69
ENDBRANCH  64  65
ENDBRANCH   1  64
TORSDOF 14
ENDMDL
MODEL 2
REMARK VINA RESULT:     -12.1      0.691      1.577
REMARK SMILES O=C(NCCCCNC(=O)c1cc(Br)ccc1OC(=O)c1ccc(F)cc1)c1ccc(-c2c3nc(c(-c4c(F)cccc4F)c4ccc([nH]4)c(-c4c(F)cccc4F)c4nc(c(-c5c(F)cccc5F)c5ccc2[nH]5)C=C4)C=C3)cc1
REMARK SMILES IDX 6 1 5 2 4 3 3 4 1 5 2 6 28 8 29 9 81 10 30 11 80 12 31 13
REMARK SMILES IDX 32 14 33 15 74 16 34 17 79 18 73 19 75 20 35 21 78 22 72 23
REMARK SMILES IDX 71 24 36 26 62 27 45 28 61 29 46 30 49 31 60 32 76 33 47 34
REMARK SMILES IDX 48 35 59 37 77 38 50 39 37 40 38 41 43 42 39 43 40 44 42 45
REMARK SMILES IDX 44 46 41 47 63 48 64 49 69 50 65 51 66 52 68 53 70 54 67 55
REMARK SMILES IDX 51 56 52 57 57 58 53 59 54 60 56 61 58 62 55 63 7 64 8 65
REMARK SMILES IDX 9 66 10 68 11 69 12 70 17 71 13 72 16 73 14 74 15 75 18 76
REMARK SMILES IDX 19 77 20 78 21 79 22 80 27 81 23 82 26 83 24 84 25 85
REMARK H PARENT 3 7 75 25 49 36 8 67
REMARK Flexibility Score: inf
ROOT
ATOM      1  C   UNL A   1      31.468  30.601  26.579  1.00  0.00     0.023 C 
ENDROOT
BRANCH   1   2
ATOM      2  C   UNL A   1      31.411  32.127  26.589  1.00  0.00     0.023 C 
BRANCH   2   3
ATOM      3  C   UNL A   1      32.647  32.829  27.141  1.00  0.00     0.116 C 
BRANCH   3   4
ATOM      4  N   UNL A   1      32.374  34.171  27.629  1.00  0.00    -0.352 N 
ATOM      5  O   UNL A   1      32.562  35.988  28.945  1.00  0.00    -0.269 OA
ATOM      6  C   UNL A   1      33.020  34.907  28.592  1.00  0.00     0.251 C 
ATOM      7  H   UNL A   1      31.608  34.621  27.205  1.00  0.00     0.163 HD
BRANCH   6   8
ATOM      8  C   UNL A   1      34.248  34.387  29.230  1.00  0.00     0.039 A 
ATOM      9  C   UNL A   1      35.507  34.576  28.652  1.00  0.00     0.014 A 
ATOM     10  C   UNL A   1      34.132  33.709  30.447  1.00  0.00     0.014 A 
ATOM     11  C   UNL A   1      36.628  33.973  29.218  1.00  0.00     0.010 A 
ATOM     12  C   UNL A   1      35.267  33.164  31.051  1.00  0.00     0.010 A 
ATOM     13  C   UNL A   1      36.519  33.266  30.424  1.00  0.00    -0.014 A 
BRANCH  13  14
ATOM     14  C   UNL A   1      37.718  32.662  31.053  1.00  0.00     0.031 A 
ATOM     15  C   UNL A   1      38.387  31.466  30.438  1.00  0.00     0.074 A 
ATOM     16  C   UNL A   1      38.192  33.184  32.199  1.00  0.00     0.049 A 
ATOM     17  N   UNL A   1      39.386  30.754  30.894  1.00  0.00    -0.248 NA
ATOM     18  C   UNL A   1      37.860  31.003  29.145  1.00  0.00     0.031 C 
ATOM     19  C   UNL A   1      37.635  34.349  32.886  1.00  0.00     0.029 A 
ATOM     20  N   UNL A   1      39.243  32.798  32.992  1.00  0.00    -0.354 N 
ATOM     21  C   UNL A   1      39.592  29.746  29.962  1.00  0.00     0.074 A 
ATOM     22  C   UNL A   1      38.604  29.928  28.919  1.00  0.00     0.031 C 
ATOM     23  C   UNL A   1      38.358  34.594  33.988  1.00  0.00     0.029 A 
ATOM     24  C   UNL A   1      39.390  33.570  34.118  1.00  0.00     0.049 A 
ATOM     25  H   UNL A   1      39.834  32.041  32.775  1.00  0.00     0.167 HD
ATOM     26  C   UNL A   1      40.523  28.764  29.975  1.00  0.00     0.037 A 
ATOM     27  C   UNL A   1      40.238  33.453  35.155  1.00  0.00     0.037 A 
ATOM     28  C   UNL A   1      41.517  28.603  31.004  1.00  0.00     0.049 A 
ATOM     29  C   UNL A   1      41.232  32.330  35.173  1.00  0.00     0.074 A 
ATOM     30  C   UNL A   1      42.536  27.668  31.076  1.00  0.00     0.029 A 
ATOM     31  N   UNL A   1      41.612  29.390  32.141  1.00  0.00    -0.354 N 
ATOM     32  N   UNL A   1      41.430  31.396  34.276  1.00  0.00    -0.248 NA
ATOM     33  C   UNL A   1      42.112  32.235  36.346  1.00  0.00     0.031 C 
ATOM     34  C   UNL A   1      43.218  27.860  32.281  1.00  0.00     0.029 A 
ATOM     35  C   UNL A   1      42.654  28.944  32.937  1.00  0.00     0.049 A 
ATOM     36  H   UNL A   1      41.027  30.152  32.353  1.00  0.00     0.167 HD
ATOM     37  C   UNL A   1      42.464  30.611  34.765  1.00  0.00     0.074 A 
ATOM     38  C   UNL A   1      42.856  31.180  36.038  1.00  0.00     0.031 C 
ATOM     39  C   UNL A   1      43.037  29.520  34.202  1.00  0.00     0.037 A 
BRANCH  26  40
ATOM     40  C   UNL A   1      40.505  27.769  28.852  1.00  0.00     0.057 A 
ATOM     41  C   UNL A   1      41.277  27.981  27.702  1.00  0.00     0.134 A 
ATOM     42  C   UNL A   1      39.687  26.633  28.880  1.00  0.00     0.134 A 
ATOM     43  F   UNL A   1      42.077  29.054  27.607  1.00  0.00    -0.206 F 
ATOM     44  C   UNL A   1      41.232  27.102  26.619  1.00  0.00     0.040 A 
ATOM     45  C   UNL A   1      39.650  25.735  27.812  1.00  0.00     0.040 A 
ATOM     46  F   UNL A   1      38.929  26.367  29.955  1.00  0.00    -0.206 F 
ATOM     47  C   UNL A   1      40.420  25.972  26.674  1.00  0.00     0.006 A 
ENDBRANCH  26  40
BRANCH  27  48
ATOM     48  C   UNL A   1      40.162  34.441  36.256  1.00  0.00     0.057 A 
ATOM     49  C   UNL A   1      40.909  35.626  36.223  1.00  0.00     0.134 A 
ATOM     50  C   UNL A   1      39.408  34.182  37.405  1.00  0.00     0.134 A 
ATOM     51  F   UNL A   1      41.658  35.923  35.152  1.00  0.00    -0.206 F 
ATOM     52  C   UNL A   1      40.935  36.503  37.308  1.00  0.00     0.040 A 
ATOM     53  C   UNL A   1      39.409  35.060  38.490  1.00  0.00     0.040 A 
ATOM     54  F   UNL A   1      38.665  33.070  37.487  1.00  0.00    -0.206 F 
ATOM     55  C   UNL A   1      40.185  36.218  38.447  1.00  0.00     0.006 A 
ENDBRANCH  27  48
BRANCH  39  56
ATOM     56  C   UNL A   1      44.167  28.868  34.937  1.00  0.00     0.057 A 
ATOM     57  C   UNL A   1      45.494  29.227  34.665  1.00  0.00     0.134 A 
ATOM     58  C   UNL A   1      43.949  27.813  35.831  1.00  0.00     0.134 A 
ATOM     59  F   UNL A   1      45.767  30.223  33.810  1.00  0.00    -0.206 F 
ATOM     60  C   UNL A   1      46.565  28.542  35.239  1.00  0.00     0.040 A 
ATOM     61  C   UNL A   1      45.013  27.134  36.426  1.00  0.00     0.040 A 
ATOM     62  F   UNL A   1      42.701  27.431  36.140  1.00  0.00    -0.206 F 
ATOM     63  C   UNL A   1      46.326  27.490  36.121  1.00  0.00     0.006 A 
ENDBRANCH  39  56
ENDBRANCH  13  14
ENDBRANCH   6   8
ENDBRANCH   3   4
ENDBRANCH   2   3
ENDBRANCH   1   2
BRANCH   1  64
ATOM     64  C   UNL A   1      32.858  29.989  26.434  1.00  0.00     0.116 C 
BRANCH  64  65
ATOM     65  N   UNL A   1      33.317  29.905  25.054  1.00  0.00    -0.352 N 
ATOM     66  C   UNL A   1      33.295  28.827  24.201  1.00  0.00     0.255 C 
ATOM     67  H   UNL A   1      33.696  30.734  24.683  1.00  0.00     0.163 HD
ATOM     68  O   UNL A   1      33.809  28.902  23.089  1.00  0.00    -0.269 OA
BRANCH  66  69
ATOM     69  C   UNL A   1      32.653  27.573  24.636  1.00  0.00     0.083 A 
ATOM     70  C   UNL A   1      33.446  26.559  25.191  1.00  0.00     0.033 A 
ATOM     71  C   UNL A   1      31.272  27.384  24.520  1.00  0.00     0.144 A 
ATOM     72  C   UNL A   1      32.863  25.343  25.544  1.00  0.00     0.019 A 
ATOM     73  C   UNL A   1      30.690  26.171  24.896  1.00  0.00     0.049 A 
ATOM     74  Br  UNL A   1      33.948  23.956  26.230  1.00  0.00    -0.051 Br
ATOM     75  C   UNL A   1      31.493  25.140  25.387  1.00  0.00     0.019 A 
BRANCH  71  76
ATOM     76  O   UNL A   1      30.384  28.406  24.150  1.00  0.00    -0.422 OA
BRANCH  76  77
ATOM     77  C   UNL A   1      30.127  28.564  22.802  1.00  0.00     0.343 C 
ATOM     78  O   UNL A   1      30.370  27.764  21.909  1.00  0.00    -0.246 OA
BRANCH  77  79
ATOM     79  C   UNL A   1      29.476  29.886  22.581  1.00  0.00     0.060 A 
ATOM     80  C   UNL A   1      29.012  30.287  21.315  1.00  0.00     0.019 A 
ATOM     81  C   UNL A   1      29.355  30.762  23.669  1.00  0.00     0.019 A 
ATOM     82  C   UNL A   1      28.441  31.551  21.147  1.00  0.00     0.040 A 
ATOM     83  C   UNL A   1      28.777  32.023  23.496  1.00  0.00     0.040 A 
ATOM     84  C   UNL A   1      28.329  32.407  22.237  1.00  0.00     0.123 A 
ATOM     85  F   UNL A   1      27.786  33.619  22.069  1.00  0.00    -0.207 F 
ENDBRANCH  77  79
ENDBRANCH  76  77
ENDBRANCH  71  76
ENDBRANCH  66  69
ENDBRANCH  64  65
ENDBRANCH   1  64
TORSDOF 14
ENDMDL
MODEL 3
REMARK VINA RESULT:     -12.1      5.597     10.363
REMARK SMILES O=C(NCCCCNC(=O)c1cc(Br)ccc1OC(=O)c1ccc(F)cc1)c1ccc(-c2c3nc(c(-c4c(F)cccc4F)c4ccc([nH]4)c(-c4c(F)cccc4F)c4nc(c(-c5c(F)cccc5F)c5ccc2[nH]5)C=C4)C=C3)cc1
REMARK SMILES IDX 6 1 5 2 4 3 3 4 1 5 2 6 28 8 29 9 81 10 30 11 80 12 31 13
REMARK SMILES IDX 32 14 33 15 74 16 34 17 79 18 73 19 75 20 35 21 78 22 72 23
REMARK SMILES IDX 71 24 36 26 62 27 45 28 61 29 46 30 49 31 60 32 76 33 47 34
REMARK SMILES IDX 48 35 59 37 77 38 50 39 37 40 38 41 43 42 39 43 40 44 42 45
REMARK SMILES IDX 44 46 41 47 63 48 64 49 69 50 65 51 66 52 68 53 70 54 67 55
REMARK SMILES IDX 51 56 52 57 57 58 53 59 54 60 56 61 58 62 55 63 7 64 8 65
REMARK SMILES IDX 9 66 10 68 11 69 12 70 17 71 13 72 16 73 14 74 15 75 18 76
REMARK SMILES IDX 19 77 20 78 21 79 22 80 27 81 23 82 26 83 24 84 25 85
REMARK H PARENT 3 7 75 25 49 36 8 67
REMARK Flexibility Score: inf
ROOT
ATOM      1  C   UNL A   1      36.100  20.256  25.001  1.00  0.00     0.023 C 
ENDROOT
BRANCH   1   2
ATOM      2  C   UNL A   1      37.560  20.001  24.633  1.00  0.00     0.023 C 
BRANCH   2   3
ATOM      3  C   UNL A   1      38.572  20.234  25.749  1.00  0.00     0.116 C 
BRANCH   3   4
ATOM      4  N   UNL A   1      39.657  19.267  25.751  1.00  0.00    -0.352 N 
ATOM      5  O   UNL A   1      41.772  18.508  25.898  1.00  0.00    -0.269 OA
ATOM      6  C   UNL A   1      40.982  19.431  26.072  1.00  0.00     0.251 C 
ATOM      7  H   UNL A   1      39.403  18.356  25.480  1.00  0.00     0.163 HD
BRANCH   6   8
ATOM      8  C   UNL A   1      41.471  20.725  26.594  1.00  0.00     0.039 A 
ATOM      9  C   UNL A   1      41.538  20.979  27.967  1.00  0.00     0.014 A 
ATOM     10  C   UNL A   1      41.886  21.699  25.681  1.00  0.00     0.014 A 
ATOM     11  C   UNL A   1      41.890  22.248  28.421  1.00  0.00     0.010 A 
ATOM     12  C   UNL A   1      42.307  22.948  26.140  1.00  0.00     0.010 A 
ATOM     13  C   UNL A   1      42.282  23.242  27.512  1.00  0.00    -0.014 A 
BRANCH  13  14
ATOM     14  C   UNL A   1      42.702  24.580  27.996  1.00  0.00     0.031 A 
ATOM     15  C   UNL A   1      41.683  25.641  28.295  1.00  0.00     0.074 A 
ATOM     16  C   UNL A   1      44.013  24.843  28.142  1.00  0.00     0.049 A 
ATOM     17  N   UNL A   1      41.871  26.890  28.639  1.00  0.00    -0.248 NA
ATOM     18  C   UNL A   1      40.269  25.253  28.188  1.00  0.00     0.031 C 
ATOM     19  C   UNL A   1      45.096  23.890  27.893  1.00  0.00     0.029 A 
ATOM     20  N   UNL A   1      44.659  25.990  28.529  1.00  0.00    -0.354 N 
ATOM     21  C   UNL A   1      40.604  27.445  28.763  1.00  0.00     0.074 A 
ATOM     22  C   UNL A   1      39.653  26.400  28.444  1.00  0.00     0.031 C 
ATOM     23  C   UNL A   1      46.270  24.485  28.148  1.00  0.00     0.029 A 
ATOM     24  C   UNL A   1      46.027  25.876  28.519  1.00  0.00     0.049 A 
ATOM     25  H   UNL A   1      44.187  26.814  28.788  1.00  0.00     0.167 HD
ATOM     26  C   UNL A   1      40.267  28.707  29.117  1.00  0.00     0.037 A 
ATOM     27  C   UNL A   1      46.983  26.792  28.753  1.00  0.00     0.037 A 
ATOM     28  C   UNL A   1      41.218  29.734  29.455  1.00  0.00     0.049 A 
ATOM     29  C   UNL A   1      46.591  28.198  29.098  1.00  0.00     0.074 A 
ATOM     30  C   UNL A   1      40.970  31.030  29.876  1.00  0.00     0.029 A 
ATOM     31  N   UNL A   1      42.595  29.585  29.405  1.00  0.00    -0.354 N 
ATOM     32  N   UNL A   1      45.389  28.704  29.232  1.00  0.00    -0.248 NA
ATOM     33  C   UNL A   1      47.678  29.162  29.313  1.00  0.00     0.031 C 
ATOM     34  C   UNL A   1      42.199  31.679  30.035  1.00  0.00     0.029 A 
ATOM     35  C   UNL A   1      43.212  30.774  29.758  1.00  0.00     0.049 A 
ATOM     36  H   UNL A   1      43.066  28.757  29.155  1.00  0.00     0.167 HD
ATOM     37  C   UNL A   1      45.573  30.039  29.561  1.00  0.00     0.074 A 
ATOM     38  C   UNL A   1      47.003  30.265  29.611  1.00  0.00     0.031 C 
ATOM     39  C   UNL A   1      44.637  30.987  29.805  1.00  0.00     0.037 A 
BRANCH  26  40
ATOM     40  C   UNL A   1      38.810  29.063  29.139  1.00  0.00     0.057 A 
ATOM     41  C   UNL A   1      38.184  29.570  27.993  1.00  0.00     0.134 A 
ATOM     42  C   UNL A   1      38.039  28.958  30.304  1.00  0.00     0.134 A 
ATOM     43  F   UNL A   1      38.868  29.703  26.846  1.00  0.00    -0.206 F 
ATOM     44  C   UNL A   1      36.845  29.964  28.005  1.00  0.00     0.040 A 
ATOM     45  C   UNL A   1      36.693  29.328  30.322  1.00  0.00     0.040 A 
ATOM     46  F   UNL A   1      38.575  28.472  31.433  1.00  0.00    -0.206 F 
ATOM     47  C   UNL A   1      36.095  29.839  29.171  1.00  0.00     0.006 A 
ENDBRANCH  26  40
BRANCH  27  48
ATOM     48  C   UNL A   1      48.405  26.383  28.660  1.00  0.00     0.057 A 
ATOM     49  C   UNL A   1      49.096  25.896  29.777  1.00  0.00     0.134 A 
ATOM     50  C   UNL A   1      49.125  26.552  27.474  1.00  0.00     0.134 A 
ATOM     51  F   UNL A   1      48.459  25.723  30.944  1.00  0.00    -0.206 F 
ATOM     52  C   UNL A   1      50.463  25.622  29.726  1.00  0.00     0.040 A 
ATOM     53  C   UNL A   1      50.489  26.264  27.403  1.00  0.00     0.040 A 
ATOM     54  F   UNL A   1      48.512  27.003  26.371  1.00  0.00    -0.206 F 
ATOM     55  C   UNL A   1      51.163  25.809  28.537  1.00  0.00     0.006 A 
ENDBRANCH  27  48
BRANCH  39  56
ATOM     56  C   UNL A   1      45.112  32.360  30.170  1.00  0.00     0.057 A 
ATOM     57  C   UNL A   1      45.312  32.710  31.512  1.00  0.00     0.134 A 
ATOM     58  C   UNL A   1      45.265  33.363  29.206  1.00  0.00     0.134 A 
ATOM     59  F   UNL A   1      45.171  31.795  32.482  1.00  0.00    -0.206 F 
ATOM     60  C   UNL A   1      45.626  34.018  31.883  1.00  0.00     0.040 A 
ATOM     61  C   UNL A   1      45.597  34.670  29.565  1.00  0.00     0.040 A 
ATOM     62  F   UNL A   1      45.097  33.086  27.904  1.00  0.00    -0.206 F 
ATOM     63  C   UNL A   1      45.766  35.003  30.908  1.00  0.00     0.006 A 
ENDBRANCH  39  56
ENDBRANCH  13  14
ENDBRANCH   6   8
ENDBRANCH   3   4
ENDBRANCH   2   3
ENDBRANCH   1   2
BRANCH   1  64
ATOM     64  C   UNL A   1      35.813  21.581  25.699  1.00  0.00     0.116 C 
BRANCH  64  65
ATOM     65  N   UNL A   1      34.938  21.453  26.856  1.00  0.00    -0.352 N 
ATOM     66  C   UNL A   1      33.773  22.125  27.138  1.00  0.00     0.255 C 
ATOM     67  H   UNL A   1      35.222  20.794  27.531  1.00  0.00     0.163 HD
ATOM     68  O   UNL A   1      33.201  21.960  28.211  1.00  0.00    -0.269 OA
BRANCH  66  69
ATOM     69  C   UNL A   1      33.216  23.057  26.139  1.00  0.00     0.083 A 
ATOM     70  C   UNL A   1      33.660  24.386  26.126  1.00  0.00     0.033 A 
ATOM     71  C   UNL A   1      32.269  22.635  25.199  1.00  0.00     0.144 A 
ATOM     72  C   UNL A   1      33.093  25.293  25.232  1.00  0.00     0.019 A 
ATOM     73  C   UNL A   1      31.720  23.544  24.292  1.00  0.00     0.049 A 
ATOM     74  Br  UNL A   1      33.647  27.100  25.264  1.00  0.00    -0.051 Br
ATOM     75  C   UNL A   1      32.118  24.882  24.326  1.00  0.00     0.019 A 
BRANCH  71  76
ATOM     76  O   UNL A   1      31.907  21.291  25.022  1.00  0.00    -0.422 OA
BRANCH  76  77
ATOM     77  C   UNL A   1      32.360  20.659  23.880  1.00  0.00     0.343 C 
ATOM     78  O   UNL A   1      32.529  21.165  22.778  1.00  0.00    -0.246 OA
BRANCH  77  79
ATOM     79  C   UNL A   1      32.639  19.229  24.190  1.00  0.00     0.060 A 
ATOM     80  C   UNL A   1      32.599  18.727  25.503  1.00  0.00     0.019 A 
ATOM     81  C   UNL A   1      32.980  18.370  23.134  1.00  0.00     0.019 A 
ATOM     82  C   UNL A   1      32.903  17.387  25.751  1.00  0.00     0.040 A 
ATOM     83  C   UNL A   1      33.278  17.029  23.387  1.00  0.00     0.040 A 
ATOM     84  C   UNL A   1      33.240  16.550  24.693  1.00  0.00     0.123 A 
ATOM     85  F   UNL A   1      33.537  15.268  24.936  1.00  0.00    -0.207 F 
ENDBRANCH  77  79
ENDBRANCH  76  77
ENDBRANCH  71  76
ENDBRANCH  66  69
ENDBRANCH  64  65
ENDBRANCH   1  64
TORSDOF 14
ENDMDL
