MODEL 1
REMARK VINA RESULT:     -11.8      0.000      0.000
REMARK SMILES O=C(NCCCCNC(=O)c1ccccc1-c1ccc(/C=C2\C(=O)N(c3cccc(Br)c3)C(=O)N=C2O)o1)c1ccc(-c2c3nc(c(-c4c(F)cccc4F)c4ccc([nH]4)c(-c4c(F)cccc4F)c4nc(c(-c5c(F)cccc5F)c5ccc2[nH]5)C=C4)C=C3)cc1
REMARK SMILES IDX 6 1 5 2 4 3 3 4 1 5 2 6 39 8 40 9 92 10 41 11 91 12 42 13
REMARK SMILES IDX 43 14 44 15 85 16 45 17 90 18 84 19 86 20 46 21 89 22 83 23
REMARK SMILES IDX 82 24 47 26 73 27 56 28 72 29 57 30 60 31 71 32 87 33 58 34
REMARK SMILES IDX 59 35 70 37 88 38 61 39 48 40 49 41 54 42 50 43 51 44 53 45
REMARK SMILES IDX 55 46 52 47 74 48 75 49 80 50 76 51 77 52 79 53 81 54 78 55
REMARK SMILES IDX 62 56 63 57 68 58 64 59 65 60 67 61 69 62 66 63 7 64 8 65
REMARK SMILES IDX 9 66 10 68 11 69 12 70 16 71 13 72 15 73 14 74 17 75 18 76
REMARK SMILES IDX 38 77 19 78 20 79 21 80 22 81 23 82 36 83 24 84 25 85 35 86
REMARK SMILES IDX 33 87 34 88 37 89 26 91 27 92 32 93 28 94 30 95 29 96 31 97
REMARK H PARENT 3 7 86 25 60 36 8 67 37 90
REMARK Flexibility Score: inf
ROOT
ATOM      1  C   UNL A   1      43.435  23.085  25.719  1.00  0.00     0.023 C 
ENDROOT
BRANCH   1   2
ATOM      2  C   UNL A   1      43.293  24.517  25.208  1.00  0.00     0.023 C 
BRANCH   2   3
ATOM      3  C   UNL A   1      44.593  25.298  25.058  1.00  0.00     0.116 C 
BRANCH   3   4
ATOM      4  N   UNL A   1      45.735  24.636  25.672  1.00  0.00    -0.352 N 
ATOM      5  O   UNL A   1      47.284  24.211  27.262  1.00  0.00    -0.269 OA
ATOM      6  C   UNL A   1      46.240  24.774  26.944  1.00  0.00     0.251 C 
ATOM      7  H   UNL A   1      46.214  24.000  25.093  1.00  0.00     0.163 HD
BRANCH   6   8
ATOM      8  C   UNL A   1      45.523  25.623  27.925  1.00  0.00     0.039 A 
ATOM      9  C   UNL A   1      44.597  25.053  28.800  1.00  0.00     0.014 A 
ATOM     10  C   UNL A   1      45.771  26.999  27.968  1.00  0.00     0.014 A 
ATOM     11  C   UNL A   1      43.815  25.871  29.610  1.00  0.00     0.010 A 
ATOM     12  C   UNL A   1      45.049  27.810  28.853  1.00  0.00     0.010 A 
ATOM     13  C   UNL A   1      44.049  27.256  29.667  1.00  0.00    -0.014 A 
BRANCH  13  14
ATOM     14  C   UNL A   1      43.313  28.068  30.672  1.00  0.00     0.031 A 
ATOM     15  C   UNL A   1      41.975  28.685  30.373  1.00  0.00     0.074 A 
ATOM     16  C   UNL A   1      43.873  28.226  31.889  1.00  0.00     0.049 A 
ATOM     17  N   UNL A   1      41.213  29.408  31.156  1.00  0.00    -0.248 NA
ATOM     18  C   UNL A   1      41.419  28.472  29.029  1.00  0.00     0.031 C 
ATOM     19  C   UNL A   1      45.177  27.689  32.290  1.00  0.00     0.029 A 
ATOM     20  N   UNL A   1      43.421  28.866  33.015  1.00  0.00    -0.354 N 
ATOM     21  C   UNL A   1      40.099  29.751  30.399  1.00  0.00     0.074 A 
ATOM     22  C   UNL A   1      40.290  29.169  29.087  1.00  0.00     0.031 C 
ATOM     23  C   UNL A   1      45.401  27.989  33.577  1.00  0.00     0.029 A 
ATOM     24  C   UNL A   1      44.295  28.798  34.071  1.00  0.00     0.049 A 
ATOM     25  H   UNL A   1      42.554  29.331  33.060  1.00  0.00     0.167 HD
ATOM     26  C   UNL A   1      39.019  30.480  30.771  1.00  0.00     0.037 A 
ATOM     27  C   UNL A   1      44.235  29.350  35.297  1.00  0.00     0.037 A 
ATOM     28  C   UNL A   1      38.827  31.040  32.087  1.00  0.00     0.049 A 
ATOM     29  C   UNL A   1      43.039  30.179  35.664  1.00  0.00     0.074 A 
ATOM     30  C   UNL A   1      37.735  31.740  32.573  1.00  0.00     0.029 A 
ATOM     31  N   UNL A   1      39.749  30.974  33.121  1.00  0.00    -0.354 N 
ATOM     32  N   UNL A   1      41.968  30.440  34.954  1.00  0.00    -0.248 NA
ATOM     33  C   UNL A   1      43.045  30.795  36.996  1.00  0.00     0.031 C 
ATOM     34  C   UNL A   1      38.020  32.148  33.880  1.00  0.00     0.029 A 
ATOM     35  C   UNL A   1      39.267  31.655  34.228  1.00  0.00     0.049 A 
ATOM     36  H   UNL A   1      40.617  30.514  33.075  1.00  0.00     0.167 HD
ATOM     37  C   UNL A   1      41.169  31.240  35.759  1.00  0.00     0.074 A 
ATOM     38  C   UNL A   1      41.864  31.393  37.020  1.00  0.00     0.031 C 
ATOM     39  C   UNL A   1      39.970  31.803  35.476  1.00  0.00     0.037 A 
BRANCH  26  40
ATOM     40  C   UNL A   1      37.949  30.740  29.750  1.00  0.00     0.057 A 
ATOM     41  C   UNL A   1      36.952  29.800  29.463  1.00  0.00     0.134 A 
ATOM     42  C   UNL A   1      37.853  31.993  29.127  1.00  0.00     0.134 A 
ATOM     43  F   UNL A   1      36.987  28.581  30.022  1.00  0.00    -0.206 F 
ATOM     44  C   UNL A   1      35.901  30.094  28.590  1.00  0.00     0.040 A 
ATOM     45  C   UNL A   1      36.796  32.306  28.270  1.00  0.00     0.040 A 
ATOM     46  F   UNL A   1      38.769  32.944  29.366  1.00  0.00    -0.206 F 
ATOM     47  C   UNL A   1      35.815  31.354  28.000  1.00  0.00     0.006 A 
ENDBRANCH  26  40
BRANCH  27  48
ATOM     48  C   UNL A   1      45.359  29.173  36.251  1.00  0.00     0.057 A 
ATOM     49  C   UNL A   1      45.411  28.080  37.122  1.00  0.00     0.134 A 
ATOM     50  C   UNL A   1      46.399  30.108  36.328  1.00  0.00     0.134 A 
ATOM     51  F   UNL A   1      44.436  27.159  37.110  1.00  0.00    -0.206 F 
ATOM     52  C   UNL A   1      46.439  27.938  38.055  1.00  0.00     0.040 A 
ATOM     53  C   UNL A   1      47.451  29.961  37.231  1.00  0.00     0.040 A 
ATOM     54  F   UNL A   1      46.414  31.174  35.513  1.00  0.00    -0.206 F 
ATOM     55  C   UNL A   1      47.466  28.879  38.107  1.00  0.00     0.006 A 
ENDBRANCH  27  48
BRANCH  39  56
ATOM     56  C   UNL A   1      39.332  32.621  36.559  1.00  0.00     0.057 A 
ATOM     57  C   UNL A   1      38.299  32.112  37.356  1.00  0.00     0.134 A 
ATOM     58  C   UNL A   1      39.767  33.926  36.819  1.00  0.00     0.134 A 
ATOM     59  F   UNL A   1      37.825  30.874  37.145  1.00  0.00    -0.206 F 
ATOM     60  C   UNL A   1      37.702  32.882  38.355  1.00  0.00     0.040 A 
ATOM     61  C   UNL A   1      39.197  34.696  37.835  1.00  0.00     0.040 A 
ATOM     62  F   UNL A   1      40.757  34.473  36.098  1.00  0.00    -0.206 F 
ATOM     63  C   UNL A   1      38.156  34.176  38.601  1.00  0.00     0.006 A 
ENDBRANCH  39  56
ENDBRANCH  13  14
ENDBRANCH   6   8
ENDBRANCH   3   4
ENDBRANCH   2   3
ENDBRANCH   1   2
BRANCH   1  64
ATOM     64  C   UNL A   1      42.320  22.136  25.303  1.00  0.00     0.116 C 
BRANCH  64  65
ATOM     65  N   UNL A   1      41.845  21.264  26.361  1.00  0.00    -0.352 N 
ATOM     66  C   UNL A   1      40.795  21.492  27.219  1.00  0.00     0.252 C 
ATOM     67  H   UNL A   1      42.328  20.414  26.478  1.00  0.00     0.163 HD
ATOM     68  O   UNL A   1      40.444  20.627  28.017  1.00  0.00    -0.269 OA
BRANCH  66  69
ATOM     69  C   UNL A   1      40.127  22.810  27.233  1.00  0.00     0.050 A 
ATOM     70  C   UNL A   1      40.829  23.843  27.874  1.00  0.00     0.014 A 
ATOM     71  C   UNL A   1      38.881  23.056  26.624  1.00  0.00     0.030 A 
ATOM     72  C   UNL A   1      40.317  25.138  27.879  1.00  0.00     0.001 A 
ATOM     73  C   UNL A   1      38.389  24.370  26.630  1.00  0.00     0.013 A 
ATOM     74  C   UNL A   1      39.101  25.402  27.250  1.00  0.00     0.001 A 
BRANCH  71  75
ATOM     75  C   UNL A   1      38.122  22.008  25.958  1.00  0.00     0.135 A 
ATOM     76  C   UNL A   1      38.380  21.125  24.936  1.00  0.00     0.051 A 
ATOM     77  O   UNL A   1      36.811  21.916  26.322  1.00  0.00    -0.457 OA
ATOM     78  C   UNL A   1      37.138  20.518  24.623  1.00  0.00     0.051 A 
ATOM     79  C   UNL A   1      36.164  21.075  25.446  1.00  0.00     0.128 A 
BRANCH  79  80
ATOM     80  C   UNL A   1      34.760  20.842  25.425  1.00  0.00     0.066 C 
ATOM     81  C   UNL A   1      33.834  21.639  24.857  1.00  0.00     0.106 C 
ATOM     82  C   UNL A   1      34.055  22.884  24.081  1.00  0.00     0.272 C 
ATOM     83  C   UNL A   1      32.423  21.301  24.977  1.00  0.00     0.228 C 
ATOM     84  O   UNL A   1      35.051  22.995  23.371  1.00  0.00    -0.268 OA
ATOM     85  N   UNL A   1      33.014  23.808  24.180  1.00  0.00    -0.226 N 
ATOM     86  N   UNL A   1      31.443  22.096  24.823  1.00  0.00    -0.156 NA
ATOM     87  C   UNL A   1      31.705  23.425  24.558  1.00  0.00     0.358 C 
ATOM     88  O   UNL A   1      30.773  24.214  24.608  1.00  0.00    -0.245 OA
BRANCH  83  89
ATOM     89  O   UNL A   1      32.155  20.015  25.235  1.00  0.00    -0.493 OA
ATOM     90  H   UNL A   1      31.643  19.784  25.985  1.00  0.00     0.295 HD
ENDBRANCH  83  89
BRANCH  85  91
ATOM     91  C   UNL A   1      33.257  25.186  23.806  1.00  0.00     0.055 A 
ATOM     92  C   UNL A   1      33.262  25.566  22.452  1.00  0.00     0.027 A 
ATOM     93  C   UNL A   1      33.449  26.194  24.765  1.00  0.00     0.042 A 
ATOM     94  C   UNL A   1      33.436  26.903  22.071  1.00  0.00     0.003 A 
ATOM     95  C   UNL A   1      33.630  27.526  24.381  1.00  0.00     0.020 A 
ATOM     96  C   UNL A   1      33.618  27.886  23.038  1.00  0.00     0.016 A 
ATOM     97  Br  UNL A   1      33.898  28.851  25.703  1.00  0.00    -0.051 Br
ENDBRANCH  85  91
ENDBRANCH  79  80
ENDBRANCH  71  75
ENDBRANCH  66  69
ENDBRANCH  64  65
ENDBRANCH   1  64
TORSDOF 15
ENDMDL
MODEL 2
REMARK VINA RESULT:     -11.8      2.344      4.576
REMARK SMILES O=C(NCCCCNC(=O)c1ccccc1-c1ccc(/C=C2\C(=O)N(c3cccc(Br)c3)C(=O)N=C2O)o1)c1ccc(-c2c3nc(c(-c4c(F)cccc4F)c4ccc([nH]4)c(-c4c(F)cccc4F)c4nc(c(-c5c(F)cccc5F)c5ccc2[nH]5)C=C4)C=C3)cc1
REMARK SMILES IDX 6 1 5 2 4 3 3 4 1 5 2 6 39 8 40 9 92 10 41 11 91 12 42 13
REMARK SMILES IDX 43 14 44 15 85 16 45 17 90 18 84 19 86 20 46 21 89 22 83 23
REMARK SMILES IDX 82 24 47 26 73 27 56 28 72 29 57 30 60 31 71 32 87 33 58 34
REMARK SMILES IDX 59 35 70 37 88 38 61 39 48 40 49 41 54 42 50 43 51 44 53 45
REMARK SMILES IDX 55 46 52 47 74 48 75 49 80 50 76 51 77 52 79 53 81 54 78 55
REMARK SMILES IDX 62 56 63 57 68 58 64 59 65 60 67 61 69 62 66 63 7 64 8 65
REMARK SMILES IDX 9 66 10 68 11 69 12 70 16 71 13 72 15 73 14 74 17 75 18 76
REMARK SMILES IDX 38 77 19 78 20 79 21 80 22 81 23 82 36 83 24 84 25 85 35 86
REMARK SMILES IDX 33 87 34 88 37 89 26 91 27 92 32 93 28 94 30 95 29 96 31 97
REMARK H PARENT 3 7 86 25 60 36 8 67 37 90
REMARK Flexibility Score: inf
ROOT
ATOM      1  C   UNL A   1      37.710  21.953  25.057  1.00  0.00     0.023 C 
ENDROOT
BRANCH   1   2
ATOM      2  C   UNL A   1      37.360  23.355  25.549  1.00  0.00     0.023 C 
BRANCH   2   3
ATOM      3  C   UNL A   1      38.357  23.986  26.511  1.00  0.00     0.116 C 
BRANCH   3   4
ATOM      4  N   UNL A   1      39.742  23.830  26.088  1.00  0.00    -0.352 N 
ATOM      5  O   UNL A   1      41.934  24.352  25.916  1.00  0.00    -0.269 OA
ATOM      6  C   UNL A   1      40.851  24.557  26.457  1.00  0.00     0.251 C 
ATOM      7  H   UNL A   1      39.907  23.102  25.447  1.00  0.00     0.163 HD
BRANCH   6   8
ATOM      8  C   UNL A   1      40.725  25.601  27.500  1.00  0.00     0.039 A 
ATOM      9  C   UNL A   1      39.788  25.459  28.525  1.00  0.00     0.014 A 
ATOM     10  C   UNL A   1      41.541  26.736  27.453  1.00  0.00     0.014 A 
ATOM     11  C   UNL A   1      39.565  26.508  29.411  1.00  0.00     0.010 A 
ATOM     12  C   UNL A   1      41.379  27.751  28.403  1.00  0.00     0.010 A 
ATOM     13  C   UNL A   1      40.375  27.656  29.378  1.00  0.00    -0.014 A 
BRANCH  13  14
ATOM     14  C   UNL A   1      40.220  28.675  30.451  1.00  0.00     0.031 A 
ATOM     15  C   UNL A   1      39.196  29.773  30.365  1.00  0.00     0.074 A 
ATOM     16  C   UNL A   1      41.019  28.580  31.533  1.00  0.00     0.049 A 
ATOM     17  N   UNL A   1      38.940  30.724  31.228  1.00  0.00    -0.248 NA
ATOM     18  C   UNL A   1      38.354  29.817  29.160  1.00  0.00     0.031 C 
ATOM     19  C   UNL A   1      42.063  27.568  31.721  1.00  0.00     0.029 A 
ATOM     20  N   UNL A   1      41.076  29.328  32.682  1.00  0.00    -0.354 N 
ATOM     21  C   UNL A   1      37.923  31.489  30.669  1.00  0.00     0.074 A 
ATOM     22  C   UNL A   1      37.618  30.901  29.382  1.00  0.00     0.031 C 
ATOM     23  C   UNL A   1      42.628  27.734  32.924  1.00  0.00     0.029 A 
ATOM     24  C   UNL A   1      42.040  28.904  33.563  1.00  0.00     0.049 A 
ATOM     25  H   UNL A   1      40.483  30.095  32.856  1.00  0.00     0.167 HD
ATOM     26  C   UNL A   1      37.304  32.577  31.187  1.00  0.00     0.037 A 
ATOM     27  C   UNL A   1      42.435  29.415  34.743  1.00  0.00     0.037 A 
ATOM     28  C   UNL A   1      37.601  33.145  32.480  1.00  0.00     0.049 A 
ATOM     29  C   UNL A   1      41.749  30.641  35.272  1.00  0.00     0.074 A 
ATOM     30  C   UNL A   1      36.982  34.210  33.114  1.00  0.00     0.029 A 
ATOM     31  N   UNL A   1      38.605  32.706  33.330  1.00  0.00    -0.354 N 
ATOM     32  N   UNL A   1      40.749  31.313  34.755  1.00  0.00    -0.248 NA
ATOM     33  C   UNL A   1      42.250  31.183  36.541  1.00  0.00     0.031 C 
ATOM     34  C   UNL A   1      37.648  34.452  34.320  1.00  0.00     0.029 A 
ATOM     35  C   UNL A   1      38.647  33.503  34.464  1.00  0.00     0.049 A 
ATOM     36  H   UNL A   1      39.200  31.942  33.154  1.00  0.00     0.167 HD
ATOM     37  C   UNL A   1      40.494  32.349  35.643  1.00  0.00     0.074 A 
ATOM     38  C   UNL A   1      41.421  32.196  36.744  1.00  0.00     0.031 C 
ATOM     39  C   UNL A   1      39.577  33.342  35.551  1.00  0.00     0.037 A 
BRANCH  26  40
ATOM     40  C   UNL A   1      36.245  33.253  30.365  1.00  0.00     0.057 A 
ATOM     41  C   UNL A   1      36.560  34.043  29.254  1.00  0.00     0.134 A 
ATOM     42  C   UNL A   1      34.888  33.018  30.625  1.00  0.00     0.134 A 
ATOM     43  F   UNL A   1      37.840  34.310  28.950  1.00  0.00    -0.206 F 
ATOM     44  C   UNL A   1      35.564  34.579  28.432  1.00  0.00     0.040 A 
ATOM     45  C   UNL A   1      33.884  33.530  29.801  1.00  0.00     0.040 A 
ATOM     46  F   UNL A   1      34.516  32.260  31.669  1.00  0.00    -0.206 F 
ATOM     47  C   UNL A   1      34.222  34.314  28.699  1.00  0.00     0.006 A 
ENDBRANCH  26  40
BRANCH  27  48
ATOM     48  C   UNL A   1      43.563  28.795  35.485  1.00  0.00     0.057 A 
ATOM     49  C   UNL A   1      43.344  27.812  36.455  1.00  0.00     0.134 A 
ATOM     50  C   UNL A   1      44.887  29.190  35.254  1.00  0.00     0.134 A 
ATOM     51  F   UNL A   1      42.098  27.404  36.734  1.00  0.00    -0.206 F 
ATOM     52  C   UNL A   1      44.397  27.264  37.190  1.00  0.00     0.040 A 
ATOM     53  C   UNL A   1      45.952  28.627  35.955  1.00  0.00     0.040 A 
ATOM     54  F   UNL A   1      45.165  30.121  34.330  1.00  0.00    -0.206 F 
ATOM     55  C   UNL A   1      45.707  27.669  36.935  1.00  0.00     0.006 A 
ENDBRANCH  27  48
BRANCH  39  56
ATOM     56  C   UNL A   1      39.528  34.327  36.681  1.00  0.00     0.057 A 
ATOM     57  C   UNL A   1      38.839  34.052  37.869  1.00  0.00     0.134 A 
ATOM     58  C   UNL A   1      40.190  35.557  36.586  1.00  0.00     0.134 A 
ATOM     59  F   UNL A   1      38.169  32.898  38.014  1.00  0.00    -0.206 F 
ATOM     60  C   UNL A   1      38.787  34.977  38.912  1.00  0.00     0.040 A 
ATOM     61  C   UNL A   1      40.170  36.478  37.635  1.00  0.00     0.040 A 
ATOM     62  F   UNL A   1      40.875  35.882  35.480  1.00  0.00    -0.206 F 
ATOM     63  C   UNL A   1      39.460  36.191  38.799  1.00  0.00     0.006 A 
ENDBRANCH  39  56
ENDBRANCH  13  14
ENDBRANCH   6   8
ENDBRANCH   3   4
ENDBRANCH   2   3
ENDBRANCH   1   2
BRANCH   1  64
ATOM     64  C   UNL A   1      36.528  21.003  24.913  1.00  0.00     0.116 C 
BRANCH  64  65
ATOM     65  N   UNL A   1      35.512  21.146  25.938  1.00  0.00    -0.352 N 
ATOM     66  C   UNL A   1      34.341  20.434  26.055  1.00  0.00     0.252 C 
ATOM     67  H   UNL A   1      35.678  21.829  26.627  1.00  0.00     0.163 HD
ATOM     68  O   UNL A   1      33.606  20.599  27.025  1.00  0.00    -0.269 OA
BRANCH  66  69
ATOM     69  C   UNL A   1      33.925  19.516  24.973  1.00  0.00     0.050 A 
ATOM     70  C   UNL A   1      34.495  18.234  25.008  1.00  0.00     0.014 A 
ATOM     71  C   UNL A   1      32.993  19.864  23.977  1.00  0.00     0.030 A 
ATOM     72  C   UNL A   1      34.112  17.274  24.076  1.00  0.00     0.001 A 
ATOM     73  C   UNL A   1      32.612  18.878  23.054  1.00  0.00     0.013 A 
ATOM     74  C   UNL A   1      33.165  17.593  23.104  1.00  0.00     0.001 A 
BRANCH  71  75
ATOM     75  C   UNL A   1      32.388  21.186  23.905  1.00  0.00     0.135 A 
ATOM     76  C   UNL A   1      31.244  21.756  24.412  1.00  0.00     0.051 A 
ATOM     77  O   UNL A   1      33.004  22.065  23.064  1.00  0.00    -0.457 OA
ATOM     78  C   UNL A   1      31.131  23.023  23.786  1.00  0.00     0.051 A 
ATOM     79  C   UNL A   1      32.194  23.165  22.900  1.00  0.00     0.128 A 
BRANCH  79  80
ATOM     80  C   UNL A   1      32.439  24.230  21.988  1.00  0.00     0.066 C 
ATOM     81  C   UNL A   1      32.813  25.482  22.316  1.00  0.00     0.106 C 
ATOM     82  C   UNL A   1      33.114  26.019  23.667  1.00  0.00     0.272 C 
ATOM     83  C   UNL A   1      32.960  26.486  21.273  1.00  0.00     0.228 C 
ATOM     84  O   UNL A   1      33.638  25.298  24.510  1.00  0.00    -0.268 OA
ATOM     85  N   UNL A   1      32.831  27.378  23.814  1.00  0.00    -0.226 N 
ATOM     86  N   UNL A   1      32.951  27.747  21.434  1.00  0.00    -0.156 NA
ATOM     87  C   UNL A   1      32.740  28.250  22.702  1.00  0.00     0.358 C 
ATOM     88  O   UNL A   1      32.536  29.449  22.816  1.00  0.00    -0.245 OA
BRANCH  83  89
ATOM     89  O   UNL A   1      33.164  26.012  20.037  1.00  0.00    -0.493 OA
ATOM     90  H   UNL A   1      32.656  25.291  19.721  1.00  0.00     0.295 HD
ENDBRANCH  83  89
BRANCH  85  91
ATOM     91  C   UNL A   1      32.708  27.932  25.146  1.00  0.00     0.055 A 
ATOM     92  C   UNL A   1      31.630  27.568  25.973  1.00  0.00     0.027 A 
ATOM     93  C   UNL A   1      33.670  28.806  25.679  1.00  0.00     0.042 A 
ATOM     94  C   UNL A   1      31.525  28.045  27.285  1.00  0.00     0.003 A 
ATOM     95  C   UNL A   1      33.557  29.287  26.987  1.00  0.00     0.020 A 
ATOM     96  C   UNL A   1      32.492  28.905  27.795  1.00  0.00     0.016 A 
ATOM     97  Br  UNL A   1      34.867  30.473  27.662  1.00  0.00    -0.051 Br
ENDBRANCH  85  91
ENDBRANCH  79  80
ENDBRANCH  71  75
ENDBRANCH  66  69
ENDBRANCH  64  65
ENDBRANCH   1  64
TORSDOF 15
ENDMDL
MODEL 3
REMARK VINA RESULT:     -11.7      3.906      7.595
REMARK SMILES O=C(NCCCCNC(=O)c1ccccc1-c1ccc(/C=C2\C(=O)N(c3cccc(Br)c3)C(=O)N=C2O)o1)c1ccc(-c2c3nc(c(-c4c(F)cccc4F)c4ccc([nH]4)c(-c4c(F)cccc4F)c4nc(c(-c5c(F)cccc5F)c5ccc2[nH]5)C=C4)C=C3)cc1
REMARK SMILES IDX 6 1 5 2 4 3 3 4 1 5 2 6 39 8 40 9 92 10 41 11 91 12 42 13
REMARK SMILES IDX 43 14 44 15 85 16 45 17 90 18 84 19 86 20 46 21 89 22 83 23
REMARK SMILES IDX 82 24 47 26 73 27 56 28 72 29 57 30 60 31 71 32 87 33 58 34
REMARK SMILES IDX 59 35 70 37 88 38 61 39 48 40 49 41 54 42 50 43 51 44 53 45
REMARK SMILES IDX 55 46 52 47 74 48 75 49 80 50 76 51 77 52 79 53 81 54 78 55
REMARK SMILES IDX 62 56 63 57 68 58 64 59 65 60 67 61 69 62 66 63 7 64 8 65
REMARK SMILES IDX 9 66 10 68 11 69 12 70 16 71 13 72 15 73 14 74 17 75 18 76
REMARK SMILES IDX 38 77 19 78 20 79 21 80 22 81 23 82 36 83 24 84 25 85 35 86
REMARK SMILES IDX 33 87 34 88 37 89 26 91 27 92 32 93 28 94 30 95 29 96 31 97
REMARK H PARENT 3 7 86 25 60 36 8 67 37 90
REMARK Flexibility Score: inf
ROOT
ATOM      1  C   UNL A   1      37.165  21.915  24.213  1.00  0.00     0.023 C 
ENDROOT
BRANCH   1   2
ATOM      2  C   UNL A   1      36.941  23.157  25.071  1.00  0.00     0.023 C 
BRANCH   2   3
ATOM      3  C   UNL A   1      38.000  23.429  26.132  1.00  0.00     0.116 C 
BRANCH   3   4
ATOM      4  N   UNL A   1      39.170  22.571  26.008  1.00  0.00    -0.352 N 
ATOM      5  O   UNL A   1      41.368  22.047  25.971  1.00  0.00    -0.269 OA
ATOM      6  C   UNL A   1      40.495  22.871  26.227  1.00  0.00     0.251 C 
ATOM      7  H   UNL A   1      38.986  21.646  25.728  1.00  0.00     0.163 HD
BRANCH   6   8
ATOM      8  C   UNL A   1      40.862  24.205  26.757  1.00  0.00     0.039 A 
ATOM      9  C   UNL A   1      41.251  24.347  28.091  1.00  0.00     0.014 A 
ATOM     10  C   UNL A   1      40.812  25.325  25.922  1.00  0.00     0.014 A 
ATOM     11  C   UNL A   1      41.445  25.617  28.625  1.00  0.00     0.010 A 
ATOM     12  C   UNL A   1      41.100  26.595  26.439  1.00  0.00     0.010 A 
ATOM     13  C   UNL A   1      41.398  26.754  27.801  1.00  0.00    -0.014 A 
BRANCH  13  14
ATOM     14  C   UNL A   1      41.783  28.072  28.373  1.00  0.00     0.031 A 
ATOM     15  C   UNL A   1      43.209  28.549  28.385  1.00  0.00     0.074 A 
ATOM     16  C   UNL A   1      40.805  28.855  28.872  1.00  0.00     0.049 A 
ATOM     17  N   UNL A   1      43.691  29.679  28.840  1.00  0.00    -0.248 NA
ATOM     18  C   UNL A   1      44.226  27.650  27.822  1.00  0.00     0.031 C 
ATOM     19  C   UNL A   1      39.386  28.491  28.931  1.00  0.00     0.029 A 
ATOM     20  N   UNL A   1      40.843  30.116  29.409  1.00  0.00    -0.354 N 
ATOM     21  C   UNL A   1      45.064  29.623  28.635  1.00  0.00     0.074 A 
ATOM     22  C   UNL A   1      45.343  28.338  28.029  1.00  0.00     0.031 C 
ATOM     23  C   UNL A   1      38.688  29.517  29.438  1.00  0.00     0.029 A 
ATOM     24  C   UNL A   1      39.613  30.580  29.806  1.00  0.00     0.049 A 
ATOM     25  H   UNL A   1      41.673  30.637  29.503  1.00  0.00     0.167 HD
ATOM     26  C   UNL A   1      46.000  30.559  28.926  1.00  0.00     0.037 A 
ATOM     27  C   UNL A   1      39.264  31.722  30.426  1.00  0.00     0.037 A 
ATOM     28  C   UNL A   1      45.710  31.845  29.512  1.00  0.00     0.049 A 
ATOM     29  C   UNL A   1      40.330  32.723  30.761  1.00  0.00     0.074 A 
ATOM     30  C   UNL A   1      46.586  32.883  29.784  1.00  0.00     0.029 A 
ATOM     31  N   UNL A   1      44.456  32.266  29.926  1.00  0.00    -0.354 N 
ATOM     32  N   UNL A   1      41.615  32.676  30.505  1.00  0.00    -0.248 NA
ATOM     33  C   UNL A   1      39.901  33.930  31.478  1.00  0.00     0.031 C 
ATOM     34  C   UNL A   1      45.874  33.908  30.416  1.00  0.00     0.029 A 
ATOM     35  C   UNL A   1      44.542  33.531  30.488  1.00  0.00     0.049 A 
ATOM     36  H   UNL A   1      43.626  31.744  29.837  1.00  0.00     0.167 HD
ATOM     37  C   UNL A   1      42.145  33.852  31.018  1.00  0.00     0.074 A 
ATOM     38  C   UNL A   1      41.038  34.604  31.570  1.00  0.00     0.031 C 
ATOM     39  C   UNL A   1      43.434  34.268  31.036  1.00  0.00     0.037 A 
BRANCH  26  40
ATOM     40  C   UNL A   1      47.438  30.244  28.634  1.00  0.00     0.057 A 
ATOM     41  C   UNL A   1      48.056  30.633  27.439  1.00  0.00     0.134 A 
ATOM     42  C   UNL A   1      48.244  29.640  29.609  1.00  0.00     0.134 A 
ATOM     43  F   UNL A   1      47.342  31.214  26.463  1.00  0.00    -0.206 F 
ATOM     44  C   UNL A   1      49.422  30.430  27.223  1.00  0.00     0.040 A 
ATOM     45  C   UNL A   1      49.613  29.450  29.414  1.00  0.00     0.040 A 
ATOM     46  F   UNL A   1      47.718  29.252  30.782  1.00  0.00    -0.206 F 
ATOM     47  C   UNL A   1      50.206  29.846  28.217  1.00  0.00     0.006 A 
ENDBRANCH  26  40
BRANCH  27  48
ATOM     48  C   UNL A   1      37.849  31.961  30.807  1.00  0.00     0.057 A 
ATOM     49  C   UNL A   1      37.328  31.485  32.015  1.00  0.00     0.134 A 
ATOM     50  C   UNL A   1      36.977  32.655  29.959  1.00  0.00     0.134 A 
ATOM     51  F   UNL A   1      38.108  30.798  32.863  1.00  0.00    -0.206 F 
ATOM     52  C   UNL A   1      35.986  31.664  32.353  1.00  0.00     0.040 A 
ATOM     53  C   UNL A   1      35.642  32.872  30.298  1.00  0.00     0.040 A 
ATOM     54  F   UNL A   1      37.415  33.146  28.790  1.00  0.00    -0.206 F 
ATOM     55  C   UNL A   1      35.140  32.365  31.494  1.00  0.00     0.006 A 
ENDBRANCH  27  48
BRANCH  39  56
ATOM     56  C   UNL A   1      43.707  35.604  31.660  1.00  0.00     0.057 A 
ATOM     57  C   UNL A   1      43.900  35.748  33.039  1.00  0.00     0.134 A 
ATOM     58  C   UNL A   1      43.794  36.757  30.870  1.00  0.00     0.134 A 
ATOM     59  F   UNL A   1      43.811  34.685  33.853  1.00  0.00    -0.206 F 
ATOM     60  C   UNL A   1      44.143  36.996  33.615  1.00  0.00     0.040 A 
ATOM     61  C   UNL A   1      44.066  38.006  31.431  1.00  0.00     0.040 A 
ATOM     62  F   UNL A   1      43.627  36.689  29.541  1.00  0.00    -0.206 F 
ATOM     63  C   UNL A   1      44.233  38.129  32.809  1.00  0.00     0.006 A 
ENDBRANCH  39  56
ENDBRANCH  13  14
ENDBRANCH   6   8
ENDBRANCH   3   4
ENDBRANCH   2   3
ENDBRANCH   1   2
BRANCH   1  64
ATOM     64  C   UNL A   1      36.525  20.638  24.741  1.00  0.00     0.116 C 
BRANCH  64  65
ATOM     65  N   UNL A   1      35.547  20.845  25.792  1.00  0.00    -0.352 N 
ATOM     66  C   UNL A   1      34.322  20.232  25.922  1.00  0.00     0.252 C 
ATOM     67  H   UNL A   1      35.786  21.495  26.491  1.00  0.00     0.163 HD
ATOM     68  O   UNL A   1      33.625  20.437  26.912  1.00  0.00    -0.269 OA
BRANCH  66  69
ATOM     69  C   UNL A   1      33.806  19.377  24.833  1.00  0.00     0.050 A 
ATOM     70  C   UNL A   1      34.289  18.059  24.810  1.00  0.00     0.014 A 
ATOM     71  C   UNL A   1      32.863  19.815  23.883  1.00  0.00     0.030 A 
ATOM     72  C   UNL A   1      33.809  17.156  23.867  1.00  0.00     0.001 A 
ATOM     73  C   UNL A   1      32.383  18.885  22.949  1.00  0.00     0.013 A 
ATOM     74  C   UNL A   1      32.850  17.566  22.942  1.00  0.00     0.001 A 
BRANCH  71  75
ATOM     75  C   UNL A   1      32.346  21.176  23.872  1.00  0.00     0.135 A 
ATOM     76  C   UNL A   1      31.284  21.813  24.468  1.00  0.00     0.051 A 
ATOM     77  O   UNL A   1      32.957  22.025  22.998  1.00  0.00    -0.457 OA
ATOM     78  C   UNL A   1      31.211  23.095  23.868  1.00  0.00     0.051 A 
ATOM     79  C   UNL A   1      32.214  23.180  22.907  1.00  0.00     0.128 A 
BRANCH  79  80
ATOM     80  C   UNL A   1      32.464  24.241  21.991  1.00  0.00     0.066 C 
ATOM     81  C   UNL A   1      32.891  25.478  22.312  1.00  0.00     0.106 C 
ATOM     82  C   UNL A   1      33.257  25.997  23.653  1.00  0.00     0.272 C 
ATOM     83  C   UNL A   1      33.036  26.482  21.268  1.00  0.00     0.228 C 
ATOM     84  O   UNL A   1      33.785  25.254  24.475  1.00  0.00    -0.268 OA
ATOM     85  N   UNL A   1      33.026  27.364  23.816  1.00  0.00    -0.226 N 
ATOM     86  N   UNL A   1      33.076  27.741  21.435  1.00  0.00    -0.156 NA
ATOM     87  C   UNL A   1      32.926  28.244  22.712  1.00  0.00     0.358 C 
ATOM     88  O   UNL A   1      32.768  29.449  22.838  1.00  0.00    -0.245 OA
BRANCH  83  89
ATOM     89  O   UNL A   1      33.181  26.008  20.024  1.00  0.00    -0.493 OA
ATOM     90  H   UNL A   1      32.629  25.315  19.718  1.00  0.00     0.295 HD
ENDBRANCH  83  89
BRANCH  85  91
ATOM     91  C   UNL A   1      32.968  27.914  25.154  1.00  0.00     0.055 A 
ATOM     92  C   UNL A   1      31.800  27.788  25.927  1.00  0.00     0.027 A 
ATOM     93  C   UNL A   1      34.074  28.546  25.746  1.00  0.00     0.042 A 
ATOM     94  C   UNL A   1      31.743  28.261  27.244  1.00  0.00     0.003 A 
ATOM     95  C   UNL A   1      34.011  29.023  27.058  1.00  0.00     0.020 A 
ATOM     96  C   UNL A   1      32.853  28.878  27.813  1.00  0.00     0.016 A 
ATOM     97  Br  UNL A   1      35.519  29.880  27.814  1.00  0.00    -0.051 Br
ENDBRANCH  85  91
ENDBRANCH  79  80
ENDBRANCH  71  75
ENDBRANCH  66  69
ENDBRANCH  64  65
ENDBRANCH   1  64
TORSDOF 15
ENDMDL
