MODEL 1
REMARK VINA RESULT:     -11.7      0.000      0.000
REMARK SMILES CN(C(=O)N1CCC(C(=O)NCCCCNC(=O)c2ccc(-c3c4nc(c(-c5c(F)cccc5F)c5ccc([nH]5)c(-c5c(F)cccc5F)c5nc(c(-c6c(F)cccc6F)c6ccc3[nH]6)C=C5)C=C4)cc2)CC1)[C@H]1CCSC1
REMARK SMILES IDX 13 1 12 2 11 3 9 4 10 5 8 7 3 8 4 9 5 10 6 11 74 12 7 13
REMARK SMILES IDX 73 14 2 15 1 16 75 17 76 18 79 19 77 20 78 21 14 22 15 23
REMARK SMILES IDX 16 24 17 25 18 27 19 28 20 29 72 30 21 31 71 32 22 33 23 34
REMARK SMILES IDX 24 35 65 36 25 37 70 38 64 39 66 40 26 41 69 42 63 43 62 44
REMARK SMILES IDX 27 46 53 47 36 48 52 49 37 50 40 51 51 52 67 53 38 54 39 55
REMARK SMILES IDX 50 57 68 58 41 59 28 60 29 61 34 62 30 63 31 64 33 65 35 66
REMARK SMILES IDX 32 67 54 68 55 69 60 70 56 71 57 72 59 73 61 74 58 75 42 76
REMARK SMILES IDX 43 77 48 78 44 79 45 80 47 81 49 82 46 83
REMARK H PARENT 11 6 16 26 66 45 40 56
REMARK Flexibility Score: inf
ROOT
ATOM      1  C   UNL A   1      31.578  30.366  26.126  1.00  0.00     0.023 C 
ENDROOT
BRANCH   1   2
ATOM      2  C   UNL A   1      33.016  29.859  26.079  1.00  0.00     0.116 C 
BRANCH   2   3
ATOM      3  N   UNL A   1      33.525  29.796  24.719  1.00  0.00    -0.356 N 
ATOM      4  C   UNL A   1      33.425  28.818  23.777  1.00  0.00     0.223 C 
ATOM      5  O   UNL A   1      33.969  29.009  22.687  1.00  0.00    -0.275 OA
ATOM      6  H   UNL A   1      34.023  30.594  24.429  1.00  0.00     0.163 HD
BRANCH   4   7
ATOM      7  C   UNL A   1      32.651  27.533  24.036  1.00  0.00     0.082 C 
ATOM      8  C   UNL A   1      33.058  23.884  22.620  1.00  0.00     0.320 C 
ATOM      9  O   UNL A   1      33.371  24.294  21.505  1.00  0.00    -0.248 OA
ATOM     10  N   UNL A   1      32.380  24.720  23.490  1.00  0.00    -0.325 N 
ATOM     11  C   UNL A   1      31.385  25.630  22.945  1.00  0.00     0.122 C 
ATOM     12  C   UNL A   1      32.918  25.100  24.789  1.00  0.00     0.122 C 
ATOM     13  C   UNL A   1      31.940  27.033  22.770  1.00  0.00     0.035 C 
ATOM     14  C   UNL A   1      33.531  26.495  24.754  1.00  0.00     0.035 C 
BRANCH   8  15
ATOM     15  N   UNL A   1      33.266  22.575  23.043  1.00  0.00    -0.324 N 
ATOM     16  C   UNL A   1      32.250  21.529  22.958  1.00  0.00     0.149 C 
BRANCH  15  17
ATOM     17  C   UNL A   1      34.553  22.135  23.621  1.00  0.00     0.097 C 
ATOM     18  C   UNL A   1      35.760  23.073  23.502  1.00  0.00     0.037 C 
ATOM     19  C   UNL A   1      34.472  21.758  25.099  1.00  0.00     0.094 C 
ATOM     20  C   UNL A   1      36.923  22.329  24.142  1.00  0.00     0.072 C 
ATOM     21  S   UNL A   1      36.207  21.521  25.607  1.00  0.00    -0.160 SA
ENDBRANCH  15  17
ENDBRANCH   8  15
ENDBRANCH   4   7
ENDBRANCH   2   3
ENDBRANCH   1   2
BRANCH   1  22
ATOM     22  C   UNL A   1      31.436  31.839  26.506  1.00  0.00     0.023 C 
BRANCH  22  23
ATOM     23  C   UNL A   1      32.645  32.445  27.207  1.00  0.00     0.116 C 
BRANCH  23  24
ATOM     24  N   UNL A   1      32.461  33.844  27.565  1.00  0.00    -0.352 N 
ATOM     25  C   UNL A   1      33.150  34.596  28.485  1.00  0.00     0.251 C 
ATOM     26  H   UNL A   1      31.744  34.315  27.083  1.00  0.00     0.163 HD
ATOM     27  O   UNL A   1      32.792  35.739  28.752  1.00  0.00    -0.269 OA
BRANCH  25  28
ATOM     28  C   UNL A   1      34.309  34.003  29.183  1.00  0.00     0.039 A 
ATOM     29  C   UNL A   1      34.080  33.145  30.260  1.00  0.00     0.014 A 
ATOM     30  C   UNL A   1      35.612  34.264  28.751  1.00  0.00     0.014 A 
ATOM     31  C   UNL A   1      35.156  32.489  30.859  1.00  0.00     0.010 A 
ATOM     32  C   UNL A   1      36.674  33.551  29.296  1.00  0.00     0.010 A 
ATOM     33  C   UNL A   1      36.456  32.656  30.355  1.00  0.00    -0.014 A 
BRANCH  33  34
ATOM     34  C   UNL A   1      37.604  31.902  30.919  1.00  0.00     0.031 A 
ATOM     35  C   UNL A   1      38.105  32.218  32.299  1.00  0.00     0.074 A 
ATOM     36  C   UNL A   1      38.233  30.982  30.164  1.00  0.00     0.049 A 
ATOM     37  N   UNL A   1      39.133  31.720  32.940  1.00  0.00    -0.248 NA
ATOM     38  C   UNL A   1      37.373  33.251  33.049  1.00  0.00     0.031 C 
ATOM     39  C   UNL A   1      37.870  30.617  28.793  1.00  0.00     0.029 A 
ATOM     40  N   UNL A   1      39.319  30.190  30.441  1.00  0.00    -0.354 N 
ATOM     41  C   UNL A   1      39.177  32.387  34.157  1.00  0.00     0.074 A 
ATOM     42  C   UNL A   1      38.111  33.365  34.143  1.00  0.00     0.031 C 
ATOM     43  C   UNL A   1      38.697  29.651  28.361  1.00  0.00     0.029 A 
ATOM     44  C   UNL A   1      39.673  29.358  29.407  1.00  0.00     0.049 A 
ATOM     45  H   UNL A   1      39.799  30.216  31.300  1.00  0.00     0.167 HD
ATOM     46  C   UNL A   1      40.013  32.186  35.203  1.00  0.00     0.037 A 
ATOM     47  C   UNL A   1      40.673  28.462  29.312  1.00  0.00     0.037 A 
ATOM     48  C   UNL A   1      41.058  31.197  35.224  1.00  0.00     0.049 A 
ATOM     49  C   UNL A   1      41.600  28.270  30.480  1.00  0.00     0.074 A 
ATOM     50  C   UNL A   1      41.922  30.876  36.256  1.00  0.00     0.029 A 
ATOM     51  N   UNL A   1      41.383  30.370  34.158  1.00  0.00    -0.354 N 
ATOM     52  N   UNL A   1      41.590  28.861  31.651  1.00  0.00    -0.248 NA
ATOM     53  C   UNL A   1      42.677  27.285  30.313  1.00  0.00     0.031 C 
ATOM     54  C   UNL A   1      42.798  29.884  35.801  1.00  0.00     0.029 A 
ATOM     55  C   UNL A   1      42.448  29.554  34.500  1.00  0.00     0.049 A 
ATOM     56  H   UNL A   1      40.923  30.364  33.287  1.00  0.00     0.167 HD
ATOM     57  C   UNL A   1      42.635  28.297  32.371  1.00  0.00     0.074 A 
ATOM     58  C   UNL A   1      43.253  27.311  31.508  1.00  0.00     0.031 C 
ATOM     59  C   UNL A   1      43.046  28.571  33.633  1.00  0.00     0.037 A 
BRANCH  46  60
ATOM     60  C   UNL A   1      39.824  33.057  36.411  1.00  0.00     0.057 A 
ATOM     61  C   UNL A   1      38.911  32.730  37.423  1.00  0.00     0.134 A 
ATOM     62  C   UNL A   1      40.573  34.229  36.574  1.00  0.00     0.134 A 
ATOM     63  F   UNL A   1      38.153  31.628  37.324  1.00  0.00    -0.206 F 
ATOM     64  C   UNL A   1      38.725  33.552  38.534  1.00  0.00     0.040 A 
ATOM     65  C   UNL A   1      40.416  35.046  37.696  1.00  0.00     0.040 A 
ATOM     66  F   UNL A   1      41.469  34.600  35.647  1.00  0.00    -0.206 F 
ATOM     67  C   UNL A   1      39.484  34.713  38.676  1.00  0.00     0.006 A 
ENDBRANCH  46  60
BRANCH  47  68
ATOM     68  C   UNL A   1      40.832  27.650  28.079  1.00  0.00     0.057 A 
ATOM     69  C   UNL A   1      41.588  28.125  27.001  1.00  0.00     0.134 A 
ATOM     70  C   UNL A   1      40.231  26.393  27.943  1.00  0.00     0.134 A 
ATOM     71  F   UNL A   1      42.172  29.331  27.065  1.00  0.00    -0.206 F 
ATOM     72  C   UNL A   1      41.726  27.388  25.824  1.00  0.00     0.040 A 
ATOM     73  C   UNL A   1      40.380  25.635  26.780  1.00  0.00     0.040 A 
ATOM     74  F   UNL A   1      39.498  25.881  28.943  1.00  0.00    -0.206 F 
ATOM     75  C   UNL A   1      41.124  26.136  25.713  1.00  0.00     0.006 A 
ENDBRANCH  47  68
BRANCH  59  76
ATOM     76  C   UNL A   1      44.192  27.765  34.171  1.00  0.00     0.057 A 
ATOM     77  C   UNL A   1      45.515  28.220  34.102  1.00  0.00     0.134 A 
ATOM     78  C   UNL A   1      43.963  26.534  34.798  1.00  0.00     0.134 A 
ATOM     79  F   UNL A   1      45.802  29.385  33.501  1.00  0.00    -0.206 F 
ATOM     80  C   UNL A   1      46.571  27.468  34.618  1.00  0.00     0.040 A 
ATOM     81  C   UNL A   1      45.007  25.786  35.342  1.00  0.00     0.040 A 
ATOM     82  F   UNL A   1      42.719  26.044  34.904  1.00  0.00    -0.206 F 
ATOM     83  C   UNL A   1      46.317  26.250  35.247  1.00  0.00     0.006 A 
ENDBRANCH  59  76
ENDBRANCH  33  34
ENDBRANCH  25  28
ENDBRANCH  23  24
ENDBRANCH  22  23
ENDBRANCH   1  22
TORSDOF 13
ENDMDL
MODEL 2
REMARK VINA RESULT:     -11.6      4.934     10.025
REMARK SMILES CN(C(=O)N1CCC(C(=O)NCCCCNC(=O)c2ccc(-c3c4nc(c(-c5c(F)cccc5F)c5ccc([nH]5)c(-c5c(F)cccc5F)c5nc(c(-c6c(F)cccc6F)c6ccc3[nH]6)C=C5)C=C4)cc2)CC1)[C@H]1CCSC1
REMARK SMILES IDX 13 1 12 2 11 3 9 4 10 5 8 7 3 8 4 9 5 10 6 11 74 12 7 13
REMARK SMILES IDX 73 14 2 15 1 16 75 17 76 18 79 19 77 20 78 21 14 22 15 23
REMARK SMILES IDX 16 24 17 25 18 27 19 28 20 29 72 30 21 31 71 32 22 33 23 34
REMARK SMILES IDX 24 35 65 36 25 37 70 38 64 39 66 40 26 41 69 42 63 43 62 44
REMARK SMILES IDX 27 46 53 47 36 48 52 49 37 50 40 51 51 52 67 53 38 54 39 55
REMARK SMILES IDX 50 57 68 58 41 59 28 60 29 61 34 62 30 63 31 64 33 65 35 66
REMARK SMILES IDX 32 67 54 68 55 69 60 70 56 71 57 72 59 73 61 74 58 75 42 76
REMARK SMILES IDX 43 77 48 78 44 79 45 80 47 81 49 82 46 83
REMARK H PARENT 11 6 16 26 66 45 40 56
REMARK Flexibility Score: inf
ROOT
ATOM      1  C   UNL A   1      37.031  20.970  24.458  1.00  0.00     0.023 C 
ENDROOT
BRANCH   1   2
ATOM      2  C   UNL A   1      36.840  22.108  25.456  1.00  0.00     0.116 C 
BRANCH   2   3
ATOM      3  N   UNL A   1      35.901  21.754  26.507  1.00  0.00    -0.356 N 
ATOM      4  C   UNL A   1      34.556  21.948  26.599  1.00  0.00     0.223 C 
ATOM      5  O   UNL A   1      33.987  21.561  27.623  1.00  0.00    -0.275 OA
ATOM      6  H   UNL A   1      36.302  21.297  27.281  1.00  0.00     0.163 HD
BRANCH   4   7
ATOM      7  C   UNL A   1      33.762  22.597  25.475  1.00  0.00     0.082 C 
ATOM      8  C   UNL A   1      30.775  25.159  25.502  1.00  0.00     0.320 C 
ATOM      9  O   UNL A   1      30.274  24.647  26.501  1.00  0.00    -0.248 OA
ATOM     10  N   UNL A   1      31.670  24.431  24.737  1.00  0.00    -0.325 N 
ATOM     11  C   UNL A   1      31.436  23.007  24.560  1.00  0.00     0.122 C 
ATOM     12  C   UNL A   1      33.045  24.863  24.520  1.00  0.00     0.122 C 
ATOM     13  C   UNL A   1      32.286  22.174  25.504  1.00  0.00     0.035 C 
ATOM     14  C   UNL A   1      34.014  24.114  25.428  1.00  0.00     0.035 C 
BRANCH   8  15
ATOM     15  N   UNL A   1      30.423  26.419  25.028  1.00  0.00    -0.324 N 
ATOM     16  C   UNL A   1      29.457  26.636  23.954  1.00  0.00     0.149 C 
BRANCH  15  17
ATOM     17  C   UNL A   1      31.013  27.655  25.583  1.00  0.00     0.097 C 
ATOM     18  C   UNL A   1      31.791  27.560  26.901  1.00  0.00     0.037 C 
ATOM     19  C   UNL A   1      31.937  28.391  24.614  1.00  0.00     0.094 C 
ATOM     20  C   UNL A   1      32.225  28.982  27.225  1.00  0.00     0.072 C 
ATOM     21  S   UNL A   1      32.715  29.694  25.624  1.00  0.00    -0.160 SA
ENDBRANCH  15  17
ENDBRANCH   8  15
ENDBRANCH   4   7
ENDBRANCH   2   3
ENDBRANCH   1   2
BRANCH   1  22
ATOM     22  C   UNL A   1      37.840  19.788  24.988  1.00  0.00     0.023 C 
BRANCH  22  23
ATOM     23  C   UNL A   1      39.057  20.162  25.826  1.00  0.00     0.116 C 
BRANCH  23  24
ATOM     24  N   UNL A   1      40.076  19.123  25.854  1.00  0.00    -0.352 N 
ATOM     25  C   UNL A   1      41.428  19.248  26.064  1.00  0.00     0.251 C 
ATOM     26  H   UNL A   1      39.753  18.207  25.701  1.00  0.00     0.163 HD
ATOM     27  O   UNL A   1      42.172  18.280  25.942  1.00  0.00    -0.269 OA
BRANCH  25  28
ATOM     28  C   UNL A   1      41.989  20.572  26.404  1.00  0.00     0.039 A 
ATOM     29  C   UNL A   1      42.345  21.439  25.370  1.00  0.00     0.014 A 
ATOM     30  C   UNL A   1      42.127  20.966  27.738  1.00  0.00     0.014 A 
ATOM     31  C   UNL A   1      42.770  22.733  25.672  1.00  0.00     0.010 A 
ATOM     32  C   UNL A   1      42.475  22.279  28.034  1.00  0.00     0.010 A 
ATOM     33  C   UNL A   1      42.799  23.176  27.004  1.00  0.00    -0.014 A 
BRANCH  33  34
ATOM     34  C   UNL A   1      43.164  24.574  27.343  1.00  0.00     0.031 A 
ATOM     35  C   UNL A   1      44.603  25.005  27.312  1.00  0.00     0.074 A 
ATOM     36  C   UNL A   1      42.208  25.435  27.741  1.00  0.00     0.049 A 
ATOM     37  N   UNL A   1      45.129  26.158  27.638  1.00  0.00    -0.248 NA
ATOM     38  C   UNL A   1      45.586  23.996  26.885  1.00  0.00     0.031 C 
ATOM     39  C   UNL A   1      40.782  25.125  27.855  1.00  0.00     0.029 A 
ATOM     40  N   UNL A   1      42.295  26.748  28.132  1.00  0.00    -0.354 N 
ATOM     41  C   UNL A   1      46.499  26.009  27.470  1.00  0.00     0.074 A 
ATOM     42  C   UNL A   1      46.729  24.638  27.069  1.00  0.00     0.031 C 
ATOM     43  C   UNL A   1      40.124  26.225  28.257  1.00  0.00     0.029 A 
ATOM     44  C   UNL A   1      41.085  27.304  28.468  1.00  0.00     0.049 A 
ATOM     45  H   UNL A   1      43.145  27.243  28.170  1.00  0.00     0.167 HD
ATOM     46  C   UNL A   1      47.475  26.937  27.610  1.00  0.00     0.037 A 
ATOM     47  C   UNL A   1      40.785  28.543  28.898  1.00  0.00     0.037 A 
ATOM     48  C   UNL A   1      47.241  28.305  27.987  1.00  0.00     0.049 A 
ATOM     49  C   UNL A   1      41.889  29.551  29.065  1.00  0.00     0.074 A 
ATOM     50  C   UNL A   1      48.156  29.338  28.101  1.00  0.00     0.029 A 
ATOM     51  N   UNL A   1      46.001  28.832  28.314  1.00  0.00    -0.354 N 
ATOM     52  N   UNL A   1      43.174  29.415  28.837  1.00  0.00    -0.248 NA
ATOM     53  C   UNL A   1      41.500  30.883  29.546  1.00  0.00     0.031 C 
ATOM     54  C   UNL A   1      47.475  30.479  28.539  1.00  0.00     0.029 A 
ATOM     55  C   UNL A   1      46.129  30.169  28.652  1.00  0.00     0.049 A 
ATOM     56  H   UNL A   1      45.153  28.330  28.306  1.00  0.00     0.167 HD
ATOM     57  C   UNL A   1      43.741  30.652  29.116  1.00  0.00     0.074 A 
ATOM     58  C   UNL A   1      42.659  31.527  29.520  1.00  0.00     0.031 C 
ATOM     59  C   UNL A   1      45.040  31.029  29.044  1.00  0.00     0.037 A 
BRANCH  46  60
ATOM     60  C   UNL A   1      48.887  26.494  27.352  1.00  0.00     0.057 A 
ATOM     61  C   UNL A   1      49.712  26.018  28.381  1.00  0.00     0.134 A 
ATOM     62  C   UNL A   1      49.424  26.530  26.060  1.00  0.00     0.134 A 
ATOM     63  F   UNL A   1      49.264  25.969  29.644  1.00  0.00    -0.206 F 
ATOM     64  C   UNL A   1      51.028  25.625  28.139  1.00  0.00     0.040 A 
ATOM     65  C   UNL A   1      50.731  26.113  25.801  1.00  0.00     0.040 A 
ATOM     66  F   UNL A   1      48.688  26.969  25.027  1.00  0.00    -0.206 F 
ATOM     67  C   UNL A   1      51.540  25.667  26.843  1.00  0.00     0.006 A 
ENDBRANCH  46  60
BRANCH  47  68
ATOM     68  C   UNL A   1      39.373  28.917  29.169  1.00  0.00     0.057 A 
ATOM     69  C   UNL A   1      38.574  29.475  28.165  1.00  0.00     0.134 A 
ATOM     70  C   UNL A   1      38.794  28.735  30.430  1.00  0.00     0.134 A 
ATOM     71  F   UNL A   1      39.080  29.692  26.941  1.00  0.00    -0.206 F 
ATOM     72  C   UNL A   1      37.255  29.858  28.408  1.00  0.00     0.040 A 
ATOM     73  C   UNL A   1      37.467  29.091  30.681  1.00  0.00     0.040 A 
ATOM     74  F   UNL A   1      39.505  28.200  31.432  1.00  0.00    -0.206 F 
ATOM     75  C   UNL A   1      36.695  29.661  29.669  1.00  0.00     0.006 A 
ENDBRANCH  47  68
BRANCH  59  76
ATOM     76  C   UNL A   1      45.359  32.459  29.368  1.00  0.00     0.057 A 
ATOM     77  C   UNL A   1      45.296  33.470  28.400  1.00  0.00     0.134 A 
ATOM     78  C   UNL A   1      45.697  32.835  30.674  1.00  0.00     0.134 A 
ATOM     79  F   UNL A   1      44.992  33.174  27.127  1.00  0.00    -0.206 F 
ATOM     80  C   UNL A   1      45.581  34.799  28.715  1.00  0.00     0.040 A 
ATOM     81  C   UNL A   1      45.957  34.164  31.008  1.00  0.00     0.040 A 
ATOM     82  F   UNL A   1      45.767  31.917  31.650  1.00  0.00    -0.206 F 
ATOM     83  C   UNL A   1      45.906  35.150  30.025  1.00  0.00     0.006 A 
ENDBRANCH  59  76
ENDBRANCH  33  34
ENDBRANCH  25  28
ENDBRANCH  23  24
ENDBRANCH  22  23
ENDBRANCH   1  22
TORSDOF 13
ENDMDL
MODEL 3
REMARK VINA RESULT:     -11.6      0.785      1.490
REMARK SMILES CN(C(=O)N1CCC(C(=O)NCCCCNC(=O)c2ccc(-c3c4nc(c(-c5c(F)cccc5F)c5ccc([nH]5)c(-c5c(F)cccc5F)c5nc(c(-c6c(F)cccc6F)c6ccc3[nH]6)C=C5)C=C4)cc2)CC1)[C@H]1CCSC1
REMARK SMILES IDX 13 1 12 2 11 3 9 4 10 5 8 7 3 8 4 9 5 10 6 11 74 12 7 13
REMARK SMILES IDX 73 14 2 15 1 16 75 17 76 18 79 19 77 20 78 21 14 22 15 23
REMARK SMILES IDX 16 24 17 25 18 27 19 28 20 29 72 30 21 31 71 32 22 33 23 34
REMARK SMILES IDX 24 35 65 36 25 37 70 38 64 39 66 40 26 41 69 42 63 43 62 44
REMARK SMILES IDX 27 46 53 47 36 48 52 49 37 50 40 51 51 52 67 53 38 54 39 55
REMARK SMILES IDX 50 57 68 58 41 59 28 60 29 61 34 62 30 63 31 64 33 65 35 66
REMARK SMILES IDX 32 67 54 68 55 69 60 70 56 71 57 72 59 73 61 74 58 75 42 76
REMARK SMILES IDX 43 77 48 78 44 79 45 80 47 81 49 82 46 83
REMARK H PARENT 11 6 16 26 66 45 40 56
REMARK Flexibility Score: inf
ROOT
ATOM      1  C   UNL A   1      31.572  30.377  26.076  1.00  0.00     0.023 C 
ENDROOT
BRANCH   1   2
ATOM      2  C   UNL A   1      33.018  29.890  26.041  1.00  0.00     0.116 C 
BRANCH   2   3
ATOM      3  N   UNL A   1      33.494  29.704  24.680  1.00  0.00    -0.356 N 
ATOM      4  C   UNL A   1      33.553  28.587  23.905  1.00  0.00     0.223 C 
ATOM      5  O   UNL A   1      34.024  28.696  22.770  1.00  0.00    -0.275 OA
ATOM      6  H   UNL A   1      33.828  30.522  24.245  1.00  0.00     0.163 HD
BRANCH   4   7
ATOM      7  C   UNL A   1      33.038  27.241  24.398  1.00  0.00     0.082 C 
ATOM      8  C   UNL A   1      34.411  23.579  23.968  1.00  0.00     0.320 C 
ATOM      9  O   UNL A   1      34.793  23.799  22.821  1.00  0.00    -0.248 OA
ATOM     10  N   UNL A   1      33.451  24.396  24.537  1.00  0.00    -0.325 N 
ATOM     11  C   UNL A   1      32.378  24.900  23.695  1.00  0.00     0.122 C 
ATOM     12  C   UNL A   1      33.698  25.168  25.748  1.00  0.00     0.122 C 
ATOM     13  C   UNL A   1      32.644  26.322  23.233  1.00  0.00     0.035 C 
ATOM     14  C   UNL A   1      34.002  26.628  25.428  1.00  0.00     0.035 C 
BRANCH   8  15
ATOM     15  N   UNL A   1      34.826  22.482  24.717  1.00  0.00    -0.324 N 
ATOM     16  C   UNL A   1      36.075  22.448  25.474  1.00  0.00     0.149 C 
BRANCH  15  17
ATOM     17  C   UNL A   1      34.022  21.245  24.804  1.00  0.00     0.097 C 
ATOM     18  C   UNL A   1      32.903  21.034  23.777  1.00  0.00     0.037 C 
ATOM     19  C   UNL A   1      34.852  19.963  24.775  1.00  0.00     0.094 C 
ATOM     20  C   UNL A   1      32.244  19.716  24.154  1.00  0.00     0.072 C 
ATOM     21  S   UNL A   1      33.622  18.625  24.626  1.00  0.00    -0.160 SA
ENDBRANCH  15  17
ENDBRANCH   8  15
ENDBRANCH   4   7
ENDBRANCH   2   3
ENDBRANCH   1   2
BRANCH   1  22
ATOM     22  C   UNL A   1      31.403  31.833  26.505  1.00  0.00     0.023 C 
BRANCH  22  23
ATOM     23  C   UNL A   1      32.605  32.443  27.215  1.00  0.00     0.116 C 
BRANCH  23  24
ATOM     24  N   UNL A   1      32.415  33.841  27.570  1.00  0.00    -0.352 N 
ATOM     25  C   UNL A   1      33.103  34.599  28.487  1.00  0.00     0.251 C 
ATOM     26  H   UNL A   1      31.695  34.308  27.088  1.00  0.00     0.163 HD
ATOM     27  O   UNL A   1      32.741  35.741  28.751  1.00  0.00    -0.269 OA
BRANCH  25  28
ATOM     28  C   UNL A   1      34.266  34.013  29.184  1.00  0.00     0.039 A 
ATOM     29  C   UNL A   1      34.048  33.236  30.323  1.00  0.00     0.014 A 
ATOM     30  C   UNL A   1      35.561  34.200  28.691  1.00  0.00     0.014 A 
ATOM     31  C   UNL A   1      35.123  32.584  30.927  1.00  0.00     0.010 A 
ATOM     32  C   UNL A   1      36.617  33.487  29.247  1.00  0.00     0.010 A 
ATOM     33  C   UNL A   1      36.409  32.671  30.370  1.00  0.00    -0.014 A 
BRANCH  33  34
ATOM     34  C   UNL A   1      37.550  31.917  30.945  1.00  0.00     0.031 A 
ATOM     35  C   UNL A   1      38.033  32.225  32.334  1.00  0.00     0.074 A 
ATOM     36  C   UNL A   1      38.192  31.002  30.192  1.00  0.00     0.049 A 
ATOM     37  N   UNL A   1      39.053  31.725  32.985  1.00  0.00    -0.248 NA
ATOM     38  C   UNL A   1      37.289  33.253  33.079  1.00  0.00     0.031 C 
ATOM     39  C   UNL A   1      37.847  30.645  28.815  1.00  0.00     0.029 A 
ATOM     40  N   UNL A   1      39.275  30.211  30.480  1.00  0.00    -0.354 N 
ATOM     41  C   UNL A   1      39.080  32.385  34.206  1.00  0.00     0.074 A 
ATOM     42  C   UNL A   1      38.012  33.361  34.184  1.00  0.00     0.031 C 
ATOM     43  C   UNL A   1      38.682  29.683  28.388  1.00  0.00     0.029 A 
ATOM     44  C   UNL A   1      39.645  29.386  29.445  1.00  0.00     0.049 A 
ATOM     45  H   UNL A   1      39.744  30.233  31.345  1.00  0.00     0.167 HD
ATOM     46  C   UNL A   1      39.903  32.180  35.262  1.00  0.00     0.037 A 
ATOM     47  C   UNL A   1      40.648  28.493  29.358  1.00  0.00     0.037 A 
ATOM     48  C   UNL A   1      40.949  31.193  35.290  1.00  0.00     0.049 A 
ATOM     49  C   UNL A   1      41.560  28.296  30.537  1.00  0.00     0.074 A 
ATOM     50  C   UNL A   1      41.800  30.867  36.332  1.00  0.00     0.029 A 
ATOM     51  N   UNL A   1      41.289  30.373  34.225  1.00  0.00    -0.354 N 
ATOM     52  N   UNL A   1      41.533  28.880  31.711  1.00  0.00    -0.248 NA
ATOM     53  C   UNL A   1      42.641  27.314  30.379  1.00  0.00     0.031 C 
ATOM     54  C   UNL A   1      42.684  29.880  35.883  1.00  0.00     0.029 A 
ATOM     55  C   UNL A   1      42.352  29.558  34.576  1.00  0.00     0.049 A 
ATOM     56  H   UNL A   1      40.841  30.371  33.347  1.00  0.00     0.167 HD
ATOM     57  C   UNL A   1      42.570  28.314  32.441  1.00  0.00     0.074 A 
ATOM     58  C   UNL A   1      43.201  27.334  31.581  1.00  0.00     0.031 C 
ATOM     59  C   UNL A   1      42.964  28.581  33.710  1.00  0.00     0.037 A 
BRANCH  46  60
ATOM     60  C   UNL A   1      39.696  33.043  36.473  1.00  0.00     0.057 A 
ATOM     61  C   UNL A   1      40.419  34.229  36.667  1.00  0.00     0.134 A 
ATOM     62  C   UNL A   1      38.755  32.695  37.450  1.00  0.00     0.134 A 
ATOM     63  F   UNL A   1      41.344  34.614  35.776  1.00  0.00    -0.206 F 
ATOM     64  C   UNL A   1      40.237  35.017  37.803  1.00  0.00     0.040 A 
ATOM     65  C   UNL A   1      38.544  33.492  38.577  1.00  0.00     0.040 A 
ATOM     66  F   UNL A   1      38.025  31.576  37.325  1.00  0.00    -0.206 F 
ATOM     67  C   UNL A   1      39.292  34.652  38.760  1.00  0.00     0.006 A 
ENDBRANCH  46  60
BRANCH  47  68
ATOM     68  C   UNL A   1      40.824  27.689  28.123  1.00  0.00     0.057 A 
ATOM     69  C   UNL A   1      41.603  28.166  27.062  1.00  0.00     0.134 A 
ATOM     70  C   UNL A   1      40.219  26.436  27.967  1.00  0.00     0.134 A 
ATOM     71  F   UNL A   1      42.192  29.369  27.145  1.00  0.00    -0.206 F 
ATOM     72  C   UNL A   1      41.758  27.438  25.882  1.00  0.00     0.040 A 
ATOM     73  C   UNL A   1      40.385  25.685  26.801  1.00  0.00     0.040 A 
ATOM     74  F   UNL A   1      39.466  25.921  28.949  1.00  0.00    -0.206 F 
ATOM     75  C   UNL A   1      41.152  26.189  25.752  1.00  0.00     0.006 A 
ENDBRANCH  47  68
BRANCH  59  76
ATOM     76  C   UNL A   1      44.104  27.774  34.259  1.00  0.00     0.057 A 
ATOM     77  C   UNL A   1      45.426  28.234  34.213  1.00  0.00     0.134 A 
ATOM     78  C   UNL A   1      43.870  26.537  34.873  1.00  0.00     0.134 A 
ATOM     79  F   UNL A   1      45.719  29.404  33.626  1.00  0.00    -0.206 F 
ATOM     80  C   UNL A   1      46.478  27.481  34.738  1.00  0.00     0.040 A 
ATOM     81  C   UNL A   1      44.909  25.788  35.425  1.00  0.00     0.040 A 
ATOM     82  F   UNL A   1      42.626  26.043  34.956  1.00  0.00    -0.206 F 
ATOM     83  C   UNL A   1      46.218  26.257  35.353  1.00  0.00     0.006 A 
ENDBRANCH  59  76
ENDBRANCH  33  34
ENDBRANCH  25  28
ENDBRANCH  23  24
ENDBRANCH  22  23
ENDBRANCH   1  22
TORSDOF 13
ENDMDL
