MODEL 1
REMARK VINA RESULT:     -12.5      0.000      0.000
REMARK SMILES COc1ccc(N[C@]2(Br)C(=O)NC(=O)N[C@@H]2C(=O)NCCCCNC(=O)c2ccc(-c3c4nc(c(-c5c(F)cccc5F)c5ccc([nH]5)c(-c5c(F)cccc5F)c5nc(c(-c6c(F)cccc6F)c6ccc3[nH]6)C=C5)C=C4)cc2)cc1
REMARK SMILES IDX 21 1 20 2 19 3 17 4 18 5 16 7 8 8 10 9 9 10 11 11 12 12
REMARK SMILES IDX 15 13 13 14 14 17 7 18 6 20 3 21 4 22 82 23 5 24 81 25 2 26
REMARK SMILES IDX 1 27 22 28 23 29 24 30 25 31 26 33 27 34 28 35 80 36 29 37
REMARK SMILES IDX 79 38 30 39 31 40 32 41 73 42 33 43 78 44 72 45 74 46 34 47
REMARK SMILES IDX 77 48 71 49 70 50 35 52 61 53 44 54 60 55 45 56 48 57 59 58
REMARK SMILES IDX 75 59 46 60 47 61 58 63 76 64 49 65 36 66 37 67 42 68 38 69
REMARK SMILES IDX 39 70 41 71 43 72 40 73 62 74 63 75 68 76 64 77 65 78 67 79
REMARK SMILES IDX 69 80 66 81 50 82 51 83 56 84 52 85 53 86 55 87 57 88 54 89
REMARK H PARENT 19 6 12 15 15 16 7 19 24 32 74 51 48 62
REMARK Flexibility Score: inf
ROOT
ATOM      1  C   UNL A   1      33.388  28.648  25.278  1.00  0.00     0.023 C 
ENDROOT
BRANCH   1   2
ATOM      2  C   UNL A   1      32.864  27.397  25.989  1.00  0.00     0.116 C 
BRANCH   2   3
ATOM      3  N   UNL A   1      32.337  26.431  25.040  1.00  0.00    -0.354 N 
ATOM      4  C   UNL A   1      32.507  25.082  24.948  1.00  0.00     0.246 C 
ATOM      5  O   UNL A   1      32.480  24.626  23.799  1.00  0.00    -0.273 OA
ATOM      6  H   UNL A   1      31.759  26.817  24.343  1.00  0.00     0.163 HD
BRANCH   4   7
ATOM      7  C   UNL A   1      32.613  24.128  26.162  1.00  0.00     0.219 C 
ATOM      8  C   UNL A   1      33.074  22.701  25.779  1.00  0.00     0.202 C 
ATOM      9  C   UNL A   1      31.887  21.737  25.582  1.00  0.00     0.267 C 
ATOM     10  Br  UNL A   1      33.917  21.934  27.468  1.00  0.00    -0.048 Br
ATOM     11  O   UNL A   1      31.966  20.626  25.050  1.00  0.00    -0.271 OA
ATOM     12  N   UNL A   1      30.679  22.122  26.110  1.00  0.00    -0.275 N 
ATOM     13  N   UNL A   1      31.439  24.097  27.029  1.00  0.00    -0.322 N 
ATOM     14  C   UNL A   1      30.443  23.187  26.917  1.00  0.00     0.322 C 
ATOM     15  H   UNL A   1      29.901  21.566  25.877  1.00  0.00     0.174 HD
ATOM     16  H   UNL A   1      31.367  24.777  27.738  1.00  0.00     0.166 HD
ATOM     17  O   UNL A   1      29.388  23.325  27.523  1.00  0.00    -0.248 OA
BRANCH   8  18
ATOM     18  N   UNL A   1      34.148  22.563  24.802  1.00  0.00    -0.360 N 
ATOM     19  H   UNL A   1      33.873  22.635  23.859  1.00  0.00     0.162 HD
BRANCH  18  20
ATOM     20  C   UNL A   1      35.493  22.348  25.011  1.00  0.00     0.036 A 
ATOM     21  C   UNL A   1      38.203  21.721  25.518  1.00  0.00     0.119 A 
ATOM     22  C   UNL A   1      37.723  23.001  25.758  1.00  0.00     0.048 A 
ATOM     23  C   UNL A   1      37.341  20.738  25.049  1.00  0.00     0.048 A 
ATOM     24  C   UNL A   1      36.385  23.311  25.496  1.00  0.00     0.029 A 
ATOM     25  C   UNL A   1      36.001  21.056  24.799  1.00  0.00     0.029 A 
BRANCH  21  26
ATOM     26  O   UNL A   1      39.506  21.468  25.842  1.00  0.00    -0.497 OA
ATOM     27  C   UNL A   1      39.924  22.207  26.988  1.00  0.00     0.278 C 
ENDBRANCH  21  26
ENDBRANCH  18  20
ENDBRANCH   8  18
ENDBRANCH   4   7
ENDBRANCH   2   3
ENDBRANCH   1   2
BRANCH   1  28
ATOM     28  C   UNL A   1      32.474  29.869  25.339  1.00  0.00     0.023 C 
BRANCH  28  29
ATOM     29  C   UNL A   1      32.110  30.337  26.744  1.00  0.00     0.116 C 
BRANCH  29  30
ATOM     30  N   UNL A   1      31.929  31.776  26.839  1.00  0.00    -0.352 N 
ATOM     31  C   UNL A   1      32.743  32.718  27.433  1.00  0.00     0.251 C 
ATOM     32  H   UNL A   1      31.110  32.128  26.421  1.00  0.00     0.163 HD
ATOM     33  O   UNL A   1      32.380  33.882  27.533  1.00  0.00    -0.269 OA
BRANCH  31  34
ATOM     34  C   UNL A   1      34.049  32.297  27.975  1.00  0.00     0.039 A 
ATOM     35  C   UNL A   1      35.066  33.246  28.115  1.00  0.00     0.014 A 
ATOM     36  C   UNL A   1      34.251  30.976  28.379  1.00  0.00     0.014 A 
ATOM     37  C   UNL A   1      36.262  32.888  28.741  1.00  0.00     0.010 A 
ATOM     38  C   UNL A   1      35.411  30.640  29.064  1.00  0.00     0.010 A 
ATOM     39  C   UNL A   1      36.425  31.592  29.256  1.00  0.00    -0.014 A 
BRANCH  39  40
ATOM     40  C   UNL A   1      37.648  31.182  29.989  1.00  0.00     0.031 A 
ATOM     41  C   UNL A   1      38.635  30.270  29.320  1.00  0.00     0.074 A 
ATOM     42  C   UNL A   1      37.813  31.534  31.278  1.00  0.00     0.049 A 
ATOM     43  N   UNL A   1      39.655  29.633  29.833  1.00  0.00    -0.248 NA
ATOM     44  C   UNL A   1      38.419  30.013  27.888  1.00  0.00     0.031 C 
ATOM     45  C   UNL A   1      36.916  32.397  32.046  1.00  0.00     0.029 A 
ATOM     46  N   UNL A   1      38.790  31.185  32.177  1.00  0.00    -0.354 N 
ATOM     47  C   UNL A   1      40.179  28.871  28.798  1.00  0.00     0.074 A 
ATOM     48  C   UNL A   1      39.342  29.096  27.639  1.00  0.00     0.031 C 
ATOM     49  C   UNL A   1      37.391  32.522  33.297  1.00  0.00     0.029 A 
ATOM     50  C   UNL A   1      38.597  31.712  33.431  1.00  0.00     0.049 A 
ATOM     51  H   UNL A   1      39.556  30.611  31.945  1.00  0.00     0.167 HD
ATOM     52  C   UNL A   1      41.270  28.069  28.807  1.00  0.00     0.037 A 
ATOM     53  C   UNL A   1      39.306  31.544  34.564  1.00  0.00     0.037 A 
ATOM     54  C   UNL A   1      42.121  27.878  29.951  1.00  0.00     0.049 A 
ATOM     55  C   UNL A   1      40.512  30.647  34.552  1.00  0.00     0.074 A 
ATOM     56  C   UNL A   1      43.277  27.123  30.051  1.00  0.00     0.029 A 
ATOM     57  N   UNL A   1      41.910  28.459  31.193  1.00  0.00    -0.354 N 
ATOM     58  N   UNL A   1      41.014  29.951  33.561  1.00  0.00    -0.248 NA
ATOM     59  C   UNL A   1      41.248  30.508  35.817  1.00  0.00     0.031 C 
ATOM     60  C   UNL A   1      43.751  27.227  31.363  1.00  0.00     0.029 A 
ATOM     61  C   UNL A   1      42.911  28.073  32.068  1.00  0.00     0.049 A 
ATOM     62  H   UNL A   1      41.161  29.055  31.418  1.00  0.00     0.167 HD
ATOM     63  C   UNL A   1      42.143  29.323  34.070  1.00  0.00     0.074 A 
ATOM     64  C   UNL A   1      42.250  29.716  35.460  1.00  0.00     0.031 C 
ATOM     65  C   UNL A   1      43.015  28.498  33.441  1.00  0.00     0.037 A 
BRANCH  52  66
ATOM     66  C   UNL A   1      41.591  27.339  27.537  1.00  0.00     0.057 A 
ATOM     67  C   UNL A   1      42.368  27.921  26.527  1.00  0.00     0.134 A 
ATOM     68  C   UNL A   1      41.115  26.040  27.319  1.00  0.00     0.134 A 
ATOM     69  F   UNL A   1      42.841  29.169  26.668  1.00  0.00    -0.206 F 
ATOM     70  C   UNL A   1      42.630  27.252  25.331  1.00  0.00     0.040 A 
ATOM     71  C   UNL A   1      41.393  25.351  26.138  1.00  0.00     0.040 A 
ATOM     72  F   UNL A   1      40.370  25.422  28.248  1.00  0.00    -0.206 F 
ATOM     73  C   UNL A   1      42.145  25.961  25.135  1.00  0.00     0.006 A 
ENDBRANCH  52  66
BRANCH  53  74
ATOM     74  C   UNL A   1      38.911  32.267  35.796  1.00  0.00     0.057 A 
ATOM     75  C   UNL A   1      39.301  33.595  36.001  1.00  0.00     0.134 A 
ATOM     76  C   UNL A   1      38.134  31.661  36.791  1.00  0.00     0.134 A 
ATOM     77  F   UNL A   1      40.062  34.222  35.090  1.00  0.00    -0.206 F 
ATOM     78  C   UNL A   1      38.943  34.295  37.154  1.00  0.00     0.040 A 
ATOM     79  C   UNL A   1      37.752  32.355  37.940  1.00  0.00     0.040 A 
ATOM     80  F   UNL A   1      37.724  30.392  36.650  1.00  0.00    -0.206 F 
ATOM     81  C   UNL A   1      38.161  33.674  38.126  1.00  0.00     0.006 A 
ENDBRANCH  53  74
BRANCH  65  82
ATOM     82  C   UNL A   1      44.194  28.013  34.227  1.00  0.00     0.057 A 
ATOM     83  C   UNL A   1      45.384  28.744  34.306  1.00  0.00     0.134 A 
ATOM     84  C   UNL A   1      44.109  26.826  34.968  1.00  0.00     0.134 A 
ATOM     85  F   UNL A   1      45.530  29.881  33.609  1.00  0.00    -0.206 F 
ATOM     86  C   UNL A   1      46.454  28.308  35.088  1.00  0.00     0.040 A 
ATOM     87  C   UNL A   1      45.164  26.390  35.769  1.00  0.00     0.040 A 
ATOM     88  F   UNL A   1      42.992  26.084  34.938  1.00  0.00    -0.206 F 
ATOM     89  C   UNL A   1      46.342  27.132  35.829  1.00  0.00     0.006 A 
ENDBRANCH  65  82
ENDBRANCH  39  40
ENDBRANCH  31  34
ENDBRANCH  29  30
ENDBRANCH  28  29
ENDBRANCH   1  28
TORSDOF 14
ENDMDL
MODEL 2
REMARK VINA RESULT:     -12.3      2.265      3.193
REMARK SMILES COc1ccc(N[C@]2(Br)C(=O)NC(=O)N[C@@H]2C(=O)NCCCCNC(=O)c2ccc(-c3c4nc(c(-c5c(F)cccc5F)c5ccc([nH]5)c(-c5c(F)cccc5F)c5nc(c(-c6c(F)cccc6F)c6ccc3[nH]6)C=C5)C=C4)cc2)cc1
REMARK SMILES IDX 21 1 20 2 19 3 17 4 18 5 16 7 8 8 10 9 9 10 11 11 12 12
REMARK SMILES IDX 15 13 13 14 14 17 7 18 6 20 3 21 4 22 82 23 5 24 81 25 2 26
REMARK SMILES IDX 1 27 22 28 23 29 24 30 25 31 26 33 27 34 28 35 80 36 29 37
REMARK SMILES IDX 79 38 30 39 31 40 32 41 73 42 33 43 78 44 72 45 74 46 34 47
REMARK SMILES IDX 77 48 71 49 70 50 35 52 61 53 44 54 60 55 45 56 48 57 59 58
REMARK SMILES IDX 75 59 46 60 47 61 58 63 76 64 49 65 36 66 37 67 42 68 38 69
REMARK SMILES IDX 39 70 41 71 43 72 40 73 62 74 63 75 68 76 64 77 65 78 67 79
REMARK SMILES IDX 69 80 66 81 50 82 51 83 56 84 52 85 53 86 55 87 57 88 54 89
REMARK H PARENT 19 6 12 15 15 16 7 19 24 32 74 51 48 62
REMARK Flexibility Score: inf
ROOT
ATOM      1  C   UNL A   1      31.980  30.158  26.968  1.00  0.00     0.023 C 
ENDROOT
BRANCH   1   2
ATOM      2  C   UNL A   1      33.391  29.683  26.610  1.00  0.00     0.116 C 
BRANCH   2   3
ATOM      3  N   UNL A   1      33.586  29.646  25.170  1.00  0.00    -0.354 N 
ATOM      4  C   UNL A   1      33.380  28.650  24.264  1.00  0.00     0.246 C 
ATOM      5  O   UNL A   1      34.146  28.654  23.294  1.00  0.00    -0.273 OA
ATOM      6  H   UNL A   1      33.925  30.485  24.782  1.00  0.00     0.163 HD
BRANCH   4   7
ATOM      7  C   UNL A   1      32.215  27.632  24.332  1.00  0.00     0.219 C 
ATOM      8  C   UNL A   1      32.415  26.413  23.398  1.00  0.00     0.202 C 
ATOM      9  C   UNL A   1      31.703  26.591  22.043  1.00  0.00     0.267 C 
ATOM     10  Br  UNL A   1      31.305  24.915  24.221  1.00  0.00    -0.048 Br
ATOM     11  O   UNL A   1      31.898  25.887  21.049  1.00  0.00    -0.271 OA
ATOM     12  N   UNL A   1      30.728  27.558  21.975  1.00  0.00    -0.275 N 
ATOM     13  N   UNL A   1      30.881  28.206  24.185  1.00  0.00    -0.322 N 
ATOM     14  C   UNL A   1      30.215  28.274  23.007  1.00  0.00     0.322 C 
ATOM     15  H   UNL A   1      30.365  27.753  21.082  1.00  0.00     0.174 HD
ATOM     16  H   UNL A   1      30.440  28.564  24.988  1.00  0.00     0.166 HD
ATOM     17  O   UNL A   1      29.198  28.945  22.893  1.00  0.00    -0.248 OA
BRANCH   8  18
ATOM     18  N   UNL A   1      33.742  25.814  23.322  1.00  0.00    -0.360 N 
ATOM     19  H   UNL A   1      34.379  26.272  22.726  1.00  0.00     0.162 HD
BRANCH  18  20
ATOM     20  C   UNL A   1      34.233  24.699  23.966  1.00  0.00     0.036 A 
ATOM     21  C   UNL A   1      35.383  22.535  25.377  1.00  0.00     0.119 A 
ATOM     22  C   UNL A   1      34.963  22.372  24.064  1.00  0.00     0.048 A 
ATOM     23  C   UNL A   1      35.258  23.774  25.992  1.00  0.00     0.048 A 
ATOM     24  C   UNL A   1      34.385  23.441  23.372  1.00  0.00     0.029 A 
ATOM     25  C   UNL A   1      34.687  24.840  25.288  1.00  0.00     0.029 A 
BRANCH  21  26
ATOM     26  O   UNL A   1      35.986  21.467  25.980  1.00  0.00    -0.497 OA
ATOM     27  C   UNL A   1      36.550  20.566  25.029  1.00  0.00     0.278 C 
ENDBRANCH  21  26
ENDBRANCH  18  20
ENDBRANCH   8  18
ENDBRANCH   4   7
ENDBRANCH   2   3
ENDBRANCH   1   2
BRANCH   1  28
ATOM     28  C   UNL A   1      31.738  31.660  26.827  1.00  0.00     0.023 C 
BRANCH  28  29
ATOM     29  C   UNL A   1      32.891  32.548  27.281  1.00  0.00     0.116 C 
BRANCH  29  30
ATOM     30  N   UNL A   1      32.482  33.913  27.570  1.00  0.00    -0.352 N 
ATOM     31  C   UNL A   1      32.991  34.795  28.501  1.00  0.00     0.251 C 
ATOM     32  H   UNL A   1      31.738  34.256  27.025  1.00  0.00     0.163 HD
ATOM     33  O   UNL A   1      32.448  35.871  28.702  1.00  0.00    -0.269 OA
BRANCH  31  34
ATOM     34  C   UNL A   1      34.186  34.408  29.276  1.00  0.00     0.039 A 
ATOM     35  C   UNL A   1      34.021  33.816  30.531  1.00  0.00     0.014 A 
ATOM     36  C   UNL A   1      35.462  34.596  28.742  1.00  0.00     0.014 A 
ATOM     37  C   UNL A   1      35.137  33.333  31.219  1.00  0.00     0.010 A 
ATOM     38  C   UNL A   1      36.562  34.052  29.392  1.00  0.00     0.010 A 
ATOM     39  C   UNL A   1      36.410  33.412  30.633  1.00  0.00    -0.014 A 
BRANCH  39  40
ATOM     40  C   UNL A   1      37.616  32.853  31.291  1.00  0.00     0.031 A 
ATOM     41  C   UNL A   1      38.306  31.669  30.678  1.00  0.00     0.074 A 
ATOM     42  C   UNL A   1      38.020  33.332  32.482  1.00  0.00     0.049 A 
ATOM     43  N   UNL A   1      39.242  30.903  31.177  1.00  0.00    -0.248 NA
ATOM     44  C   UNL A   1      37.853  31.272  29.336  1.00  0.00     0.031 C 
ATOM     45  C   UNL A   1      37.422  34.463  33.192  1.00  0.00     0.029 A 
ATOM     46  N   UNL A   1      39.022  32.906  33.319  1.00  0.00    -0.354 N 
ATOM     47  C   UNL A   1      39.462  29.914  30.229  1.00  0.00     0.074 A 
ATOM     48  C   UNL A   1      38.536  30.154  29.142  1.00  0.00     0.031 C 
ATOM     49  C   UNL A   1      38.076  34.651  34.350  1.00  0.00     0.029 A 
ATOM     50  C   UNL A   1      39.107  33.627  34.486  1.00  0.00     0.049 A 
ATOM     51  H   UNL A   1      39.622  32.156  33.104  1.00  0.00     0.167 HD
ATOM     52  C   UNL A   1      40.364  28.906  30.252  1.00  0.00     0.037 A 
ATOM     53  C   UNL A   1      39.915  33.466  35.551  1.00  0.00     0.037 A 
ATOM     54  C   UNL A   1      41.309  28.694  31.317  1.00  0.00     0.049 A 
ATOM     55  C   UNL A   1      40.909  32.339  35.558  1.00  0.00     0.074 A 
ATOM     56  C   UNL A   1      42.296  27.730  31.416  1.00  0.00     0.029 A 
ATOM     57  N   UNL A   1      41.385  29.468  32.465  1.00  0.00    -0.354 N 
ATOM     58  N   UNL A   1      41.127  31.424  34.644  1.00  0.00    -0.248 NA
ATOM     59  C   UNL A   1      41.767  32.218  36.745  1.00  0.00     0.031 C 
ATOM     60  C   UNL A   1      42.954  27.905  32.639  1.00  0.00     0.029 A 
ATOM     61  C   UNL A   1      42.400  29.000  33.282  1.00  0.00     0.049 A 
ATOM     62  H   UNL A   1      40.804  30.236  32.669  1.00  0.00     0.167 HD
ATOM     63  C   UNL A   1      42.168  30.643  35.127  1.00  0.00     0.074 A 
ATOM     64  C   UNL A   1      42.537  31.189  36.417  1.00  0.00     0.031 C 
ATOM     65  C   UNL A   1      42.769  29.574  34.551  1.00  0.00     0.037 A 
BRANCH  52  66
ATOM     66  C   UNL A   1      40.362  27.959  29.089  1.00  0.00     0.057 A 
ATOM     67  C   UNL A   1      41.150  28.183  27.953  1.00  0.00     0.134 A 
ATOM     68  C   UNL A   1      39.560  26.811  29.104  1.00  0.00     0.134 A 
ATOM     69  F   UNL A   1      41.929  29.273  27.871  1.00  0.00    -0.206 F 
ATOM     70  C   UNL A   1      41.113  27.320  26.857  1.00  0.00     0.040 A 
ATOM     71  C   UNL A   1      39.535  25.926  28.025  1.00  0.00     0.040 A 
ATOM     72  F   UNL A   1      38.785  26.533  30.163  1.00  0.00    -0.206 F 
ATOM     73  C   UNL A   1      40.306  26.185  26.893  1.00  0.00     0.006 A 
ENDBRANCH  52  66
BRANCH  53  74
ATOM     74  C   UNL A   1      39.839  34.417  36.686  1.00  0.00     0.057 A 
ATOM     75  C   UNL A   1      39.069  34.119  37.816  1.00  0.00     0.134 A 
ATOM     76  C   UNL A   1      40.532  35.633  36.679  1.00  0.00     0.134 A 
ATOM     77  F   UNL A   1      38.368  32.976  37.871  1.00  0.00    -0.206 F 
ATOM     78  C   UNL A   1      38.981  34.999  38.895  1.00  0.00     0.040 A 
ATOM     79  C   UNL A   1      40.469  36.514  37.759  1.00  0.00     0.040 A 
ATOM     80  F   UNL A   1      41.292  35.973  35.628  1.00  0.00    -0.206 F 
ATOM     81  C   UNL A   1      39.687  36.200  38.870  1.00  0.00     0.006 A 
ENDBRANCH  53  74
BRANCH  65  82
ATOM     82  C   UNL A   1      43.925  28.958  35.278  1.00  0.00     0.057 A 
ATOM     83  C   UNL A   1      45.244  29.370  35.056  1.00  0.00     0.134 A 
ATOM     84  C   UNL A   1      43.704  27.984  36.260  1.00  0.00     0.134 A 
ATOM     85  F   UNL A   1      45.520  30.290  34.120  1.00  0.00    -0.206 F 
ATOM     86  C   UNL A   1      46.305  28.828  35.781  1.00  0.00     0.040 A 
ATOM     87  C   UNL A   1      44.754  27.449  37.005  1.00  0.00     0.040 A 
ATOM     88  F   UNL A   1      42.461  27.552  36.522  1.00  0.00    -0.206 F 
ATOM     89  C   UNL A   1      46.060  27.870  36.765  1.00  0.00     0.006 A 
ENDBRANCH  65  82
ENDBRANCH  39  40
ENDBRANCH  31  34
ENDBRANCH  29  30
ENDBRANCH  28  29
ENDBRANCH   1  28
TORSDOF 14
ENDMDL
MODEL 3
REMARK VINA RESULT:     -12.2      2.049      6.727
REMARK SMILES COc1ccc(N[C@]2(Br)C(=O)NC(=O)N[C@@H]2C(=O)NCCCCNC(=O)c2ccc(-c3c4nc(c(-c5c(F)cccc5F)c5ccc([nH]5)c(-c5c(F)cccc5F)c5nc(c(-c6c(F)cccc6F)c6ccc3[nH]6)C=C5)C=C4)cc2)cc1
REMARK SMILES IDX 21 1 20 2 19 3 17 4 18 5 16 7 8 8 10 9 9 10 11 11 12 12
REMARK SMILES IDX 15 13 13 14 14 17 7 18 6 20 3 21 4 22 82 23 5 24 81 25 2 26
REMARK SMILES IDX 1 27 22 28 23 29 24 30 25 31 26 33 27 34 28 35 80 36 29 37
REMARK SMILES IDX 79 38 30 39 31 40 32 41 73 42 33 43 78 44 72 45 74 46 34 47
REMARK SMILES IDX 77 48 71 49 70 50 35 52 61 53 44 54 60 55 45 56 48 57 59 58
REMARK SMILES IDX 75 59 46 60 47 61 58 63 76 64 49 65 36 66 37 67 42 68 38 69
REMARK SMILES IDX 39 70 41 71 43 72 40 73 62 74 63 75 68 76 64 77 65 78 67 79
REMARK SMILES IDX 69 80 66 81 50 82 51 83 56 84 52 85 53 86 55 87 57 88 54 89
REMARK H PARENT 19 6 12 15 15 16 7 19 24 32 74 51 48 62
REMARK Flexibility Score: inf
ROOT
ATOM      1  C   UNL A   1      31.400  30.751  26.329  1.00  0.00     0.023 C 
ENDROOT
BRANCH   1   2
ATOM      2  C   UNL A   1      32.778  30.084  26.345  1.00  0.00     0.116 C 
BRANCH   2   3
ATOM      3  N   UNL A   1      33.274  29.864  24.997  1.00  0.00    -0.354 N 
ATOM      4  C   UNL A   1      33.328  28.735  24.236  1.00  0.00     0.246 C 
ATOM      5  O   UNL A   1      34.280  28.677  23.449  1.00  0.00    -0.273 OA
ATOM      6  H   UNL A   1      33.632  30.669  24.557  1.00  0.00     0.163 HD
BRANCH   4   7
ATOM      7  C   UNL A   1      32.244  27.630  24.231  1.00  0.00     0.219 C 
ATOM      8  C   UNL A   1      32.690  26.341  23.498  1.00  0.00     0.202 C 
ATOM      9  C   UNL A   1      32.217  26.310  22.031  1.00  0.00     0.267 C 
ATOM     10  Br  UNL A   1      31.560  24.846  24.298  1.00  0.00    -0.048 Br
ATOM     11  O   UNL A   1      32.634  25.524  21.176  1.00  0.00    -0.271 OA
ATOM     12  N   UNL A   1      31.204  27.172  21.685  1.00  0.00    -0.275 N 
ATOM     13  N   UNL A   1      30.920  28.063  23.795  1.00  0.00    -0.322 N 
ATOM     14  C   UNL A   1      30.469  27.945  22.523  1.00  0.00     0.322 C 
ATOM     15  H   UNL A   1      30.992  27.237  20.727  1.00  0.00     0.174 HD
ATOM     16  H   UNL A   1      30.320  28.464  24.464  1.00  0.00     0.166 HD
ATOM     17  O   UNL A   1      29.443  28.507  22.161  1.00  0.00    -0.248 OA
BRANCH   8  18
ATOM     18  N   UNL A   1      34.049  25.859  23.717  1.00  0.00    -0.360 N 
ATOM     19  H   UNL A   1      34.765  26.498  23.495  1.00  0.00     0.162 HD
BRANCH  18  20
ATOM     20  C   UNL A   1      34.473  24.638  24.192  1.00  0.00     0.036 A 
ATOM     21  C   UNL A   1      35.481  22.233  25.288  1.00  0.00     0.119 A 
ATOM     22  C   UNL A   1      35.170  22.312  23.937  1.00  0.00     0.048 A 
ATOM     23  C   UNL A   1      35.319  23.349  26.099  1.00  0.00     0.048 A 
ATOM     24  C   UNL A   1      34.661  23.499  23.400  1.00  0.00     0.029 A 
ATOM     25  C   UNL A   1      34.818  24.535  25.550  1.00  0.00     0.029 A 
BRANCH  21  26
ATOM     26  O   UNL A   1      36.022  21.062  25.740  1.00  0.00    -0.497 OA
ATOM     27  C   UNL A   1      37.152  20.663  24.967  1.00  0.00     0.278 C 
ENDBRANCH  21  26
ENDBRANCH  18  20
ENDBRANCH   8  18
ENDBRANCH   4   7
ENDBRANCH   2   3
ENDBRANCH   1   2
BRANCH   1  28
ATOM     28  C   UNL A   1      31.400  32.264  26.535  1.00  0.00     0.023 C 
BRANCH  28  29
ATOM     29  C   UNL A   1      32.637  32.823  27.230  1.00  0.00     0.116 C 
BRANCH  29  30
ATOM     30  N   UNL A   1      32.484  34.209  27.643  1.00  0.00    -0.352 N 
ATOM     31  C   UNL A   1      33.144  34.897  28.640  1.00  0.00     0.251 C 
ATOM     32  H   UNL A   1      31.815  34.728  27.141  1.00  0.00     0.163 HD
ATOM     33  O   UNL A   1      32.806  36.033  28.942  1.00  0.00    -0.269 OA
BRANCH  31  34
ATOM     34  C   UNL A   1      34.248  34.233  29.359  1.00  0.00     0.039 A 
ATOM     35  C   UNL A   1      33.957  33.468  30.493  1.00  0.00     0.014 A 
ATOM     36  C   UNL A   1      35.558  34.336  28.889  1.00  0.00     0.014 A 
ATOM     37  C   UNL A   1      34.973  32.735  31.109  1.00  0.00     0.010 A 
ATOM     38  C   UNL A   1      36.552  33.550  29.458  1.00  0.00     0.010 A 
ATOM     39  C   UNL A   1      36.270  32.739  30.569  1.00  0.00    -0.014 A 
BRANCH  39  40
ATOM     40  C   UNL A   1      37.367  31.924  31.145  1.00  0.00     0.031 A 
ATOM     41  C   UNL A   1      37.867  32.236  32.526  1.00  0.00     0.074 A 
ATOM     42  C   UNL A   1      37.981  30.991  30.395  1.00  0.00     0.049 A 
ATOM     43  N   UNL A   1      38.933  31.792  33.142  1.00  0.00    -0.248 NA
ATOM     44  C   UNL A   1      37.080  33.206  33.302  1.00  0.00     0.031 C 
ATOM     45  C   UNL A   1      37.604  30.610  29.033  1.00  0.00     0.029 A 
ATOM     46  N   UNL A   1      39.073  30.206  30.669  1.00  0.00    -0.354 N 
ATOM     47  C   UNL A   1      38.964  32.457  34.360  1.00  0.00     0.074 A 
ATOM     48  C   UNL A   1      37.833  33.361  34.380  1.00  0.00     0.031 C 
ATOM     49  C   UNL A   1      38.442  29.655  28.596  1.00  0.00     0.029 A 
ATOM     50  C   UNL A   1      39.441  29.391  29.626  1.00  0.00     0.049 A 
ATOM     51  H   UNL A   1      39.548  30.226  31.532  1.00  0.00     0.167 HD
ATOM     52  C   UNL A   1      39.846  32.316  35.377  1.00  0.00     0.037 A 
ATOM     53  C   UNL A   1      40.478  28.540  29.511  1.00  0.00     0.037 A 
ATOM     54  C   UNL A   1      40.946  31.389  35.368  1.00  0.00     0.049 A 
ATOM     55  C   UNL A   1      41.447  28.401  30.651  1.00  0.00     0.074 A 
ATOM     56  C   UNL A   1      41.870  31.136  36.367  1.00  0.00     0.029 A 
ATOM     57  N   UNL A   1      41.262  30.556  34.305  1.00  0.00    -0.354 N 
ATOM     58  N   UNL A   1      41.454  29.015  31.810  1.00  0.00    -0.248 NA
ATOM     59  C   UNL A   1      42.556  27.453  30.469  1.00  0.00     0.031 C 
ATOM     60  C   UNL A   1      42.763  30.166  35.897  1.00  0.00     0.029 A 
ATOM     61  C   UNL A   1      42.373  29.792  34.621  1.00  0.00     0.049 A 
ATOM     62  H   UNL A   1      40.772  30.515  33.453  1.00  0.00     0.167 HD
ATOM     63  C   UNL A   1      42.540  28.503  32.507  1.00  0.00     0.074 A 
ATOM     64  C   UNL A   1      43.173  27.530  31.640  1.00  0.00     0.031 C 
ATOM     65  C   UNL A   1      42.971  28.808  33.754  1.00  0.00     0.037 A 
BRANCH  52  66
ATOM     66  C   UNL A   1      39.649  33.193  36.578  1.00  0.00     0.057 A 
ATOM     67  C   UNL A   1      38.776  32.840  37.615  1.00  0.00     0.134 A 
ATOM     68  C   UNL A   1      40.339  34.406  36.698  1.00  0.00     0.134 A 
ATOM     69  F   UNL A   1      38.074  31.698  37.553  1.00  0.00    -0.206 F 
ATOM     70  C   UNL A   1      38.567  33.679  38.710  1.00  0.00     0.040 A 
ATOM     71  C   UNL A   1      40.159  35.240  37.802  1.00  0.00     0.040 A 
ATOM     72  F   UNL A   1      41.195  34.801  35.744  1.00  0.00    -0.206 F 
ATOM     73  C   UNL A   1      39.262  34.882  38.807  1.00  0.00     0.006 A 
ENDBRANCH  52  66
BRANCH  53  74
ATOM     74  C   UNL A   1      40.636  27.730  28.279  1.00  0.00     0.057 A 
ATOM     75  C   UNL A   1      41.381  28.214  27.197  1.00  0.00     0.134 A 
ATOM     76  C   UNL A   1      40.061  26.461  28.151  1.00  0.00     0.134 A 
ATOM     77  F   UNL A   1      41.940  29.432  27.256  1.00  0.00    -0.206 F 
ATOM     78  C   UNL A   1      41.541  27.471  26.027  1.00  0.00     0.040 A 
ATOM     79  C   UNL A   1      40.229  25.698  26.994  1.00  0.00     0.040 A 
ATOM     80  F   UNL A   1      39.341  25.940  29.155  1.00  0.00    -0.206 F 
ATOM     81  C   UNL A   1      40.967  26.205  25.926  1.00  0.00     0.006 A 
ENDBRANCH  53  74
BRANCH  65  82
ATOM     82  C   UNL A   1      44.145  28.044  34.284  1.00  0.00     0.057 A 
ATOM     83  C   UNL A   1      43.997  26.806  34.921  1.00  0.00     0.134 A 
ATOM     84  C   UNL A   1      45.446  28.526  34.094  1.00  0.00     0.134 A 
ATOM     85  F   UNL A   1      42.776  26.298  35.143  1.00  0.00    -0.206 F 
ATOM     86  C   UNL A   1      45.104  26.078  35.359  1.00  0.00     0.040 A 
ATOM     87  C   UNL A   1      46.561  27.798  34.509  1.00  0.00     0.040 A 
ATOM     88  F   UNL A   1      45.654  29.703  33.484  1.00  0.00    -0.206 F 
ATOM     89  C   UNL A   1      46.391  26.571  35.145  1.00  0.00     0.006 A 
ENDBRANCH  65  82
ENDBRANCH  39  40
ENDBRANCH  31  34
ENDBRANCH  29  30
ENDBRANCH  28  29
ENDBRANCH   1  28
TORSDOF 14
ENDMDL
