MODEL 1
REMARK VINA RESULT:     -12.8      0.000      0.000
REMARK SMILES CS(=O)(=O)c1ccc(C2=NN(c3ccc(C(=O)NCCCCNC(=O)c4ccc(-c5c6nc(c(-c7c(F)cccc7F)c7ccc([nH]7)c(-c7c(F)cccc7F)c7nc(c(-c8c(F)cccc8F)c8ccc5[nH]8)C=C7)C=C6)cc4)cc3)[C@H](c3ccccc3)C2)cc1
REMARK SMILES IDX 20 1 19 2 18 3 16 4 17 5 15 7 12 8 13 9 81 10 14 11 80 12
REMARK SMILES IDX 11 13 9 14 10 15 89 16 82 17 8 18 5 19 6 20 91 21 7 22 90 23
REMARK SMILES IDX 2 24 1 25 3 26 4 27 83 28 84 29 88 30 85 31 87 32 86 33
REMARK SMILES IDX 21 34 22 35 23 36 24 37 25 39 26 40 27 41 79 42 28 43 78 44
REMARK SMILES IDX 29 45 30 46 31 47 72 48 32 49 77 50 71 51 73 52 33 53 76 54
REMARK SMILES IDX 70 55 69 56 34 58 60 59 43 60 59 61 44 62 47 63 58 64 74 65
REMARK SMILES IDX 45 66 46 67 57 69 75 70 48 71 35 72 36 73 41 74 37 75 38 76
REMARK SMILES IDX 40 77 42 78 39 79 61 80 62 81 67 82 63 83 64 84 66 85 68 86
REMARK SMILES IDX 65 87 49 88 50 89 55 90 51 91 52 92 54 93 56 94 53 95
REMARK H PARENT 18 6 23 38 73 57 47 68
REMARK Flexibility Score: inf
ROOT
ATOM      1  C   UNL A   1      40.101  20.101  26.597  1.00  0.00     0.023 C 
ENDROOT
BRANCH   1   2
ATOM      2  C   UNL A   1      39.189  21.031  25.795  1.00  0.00     0.116 C 
BRANCH   2   3
ATOM      3  N   UNL A   1      39.551  22.420  26.008  1.00  0.00    -0.352 N 
ATOM      4  C   UNL A   1      38.778  23.557  26.024  1.00  0.00     0.251 C 
ATOM      5  O   UNL A   1      39.314  24.628  26.297  1.00  0.00    -0.269 OA
ATOM      6  H   UNL A   1      40.511  22.575  26.166  1.00  0.00     0.163 HD
BRANCH   4   7
ATOM      7  C   UNL A   1      37.309  23.504  25.802  1.00  0.00     0.039 A 
ATOM      8  C   UNL A   1      34.548  23.672  25.301  1.00  0.00     0.060 A 
ATOM      9  C   UNL A   1      35.467  23.812  24.257  1.00  0.00     0.029 A 
ATOM     10  C   UNL A   1      35.023  23.344  26.571  1.00  0.00     0.029 A 
ATOM     11  C   UNL A   1      36.841  23.724  24.502  1.00  0.00     0.016 A 
ATOM     12  C   UNL A   1      36.390  23.245  26.819  1.00  0.00     0.016 A 
BRANCH   8  13
ATOM     13  N   UNL A   1      33.198  23.868  25.103  1.00  0.00    -0.257 N 
ATOM     14  C   UNL A   1      31.473  25.009  24.675  1.00  0.00     0.071 C 
ATOM     15  N   UNL A   1      32.764  25.029  24.572  1.00  0.00    -0.176 NA
ATOM     16  C   UNL A   1      30.892  23.793  25.349  1.00  0.00     0.091 C 
ATOM     17  C   UNL A   1      32.146  22.902  25.427  1.00  0.00     0.144 C 
BRANCH  14  18
ATOM     18  C   UNL A   1      30.640  26.119  24.185  1.00  0.00    -0.002 A 
ATOM     19  C   UNL A   1      29.140  28.287  23.298  1.00  0.00     0.067 A 
ATOM     20  C   UNL A   1      30.523  28.421  23.453  1.00  0.00     0.021 A 
ATOM     21  C   UNL A   1      28.501  27.077  23.594  1.00  0.00     0.021 A 
ATOM     22  C   UNL A   1      31.271  27.336  23.905  1.00  0.00     0.011 A 
ATOM     23  C   UNL A   1      29.257  25.986  24.038  1.00  0.00     0.011 A 
BRANCH  19  24
ATOM     24  S   UNL A   1      28.215  29.684  22.701  1.00  0.00     0.175 S 
ATOM     25  C   UNL A   1      28.933  31.112  23.467  1.00  0.00     0.163 C 
ATOM     26  O   UNL A   1      26.868  29.525  23.206  1.00  0.00    -0.224 OA
ATOM     27  O   UNL A   1      28.478  29.794  21.277  1.00  0.00    -0.224 OA
ENDBRANCH  19  24
ENDBRANCH  14  18
BRANCH  17  28
ATOM     28  C   UNL A   1      32.211  21.673  24.517  1.00  0.00    -0.023 A 
ATOM     29  C   UNL A   1      32.035  21.710  23.126  1.00  0.00     0.006 A 
ATOM     30  C   UNL A   1      32.492  20.420  25.102  1.00  0.00     0.006 A 
ATOM     31  C   UNL A   1      32.120  20.541  22.357  1.00  0.00     0.000 A 
ATOM     32  C   UNL A   1      32.608  19.260  24.332  1.00  0.00     0.000 A 
ATOM     33  C   UNL A   1      32.413  19.319  22.957  1.00  0.00     0.000 A 
ENDBRANCH  17  28
ENDBRANCH   8  13
ENDBRANCH   4   7
ENDBRANCH   2   3
ENDBRANCH   1   2
BRANCH   1  34
ATOM     34  C   UNL A   1      41.107  19.327  25.746  1.00  0.00     0.023 C 
BRANCH  34  35
ATOM     35  C   UNL A   1      42.557  19.725  25.969  1.00  0.00     0.116 C 
BRANCH  35  36
ATOM     36  N   UNL A   1      43.489  19.024  25.096  1.00  0.00    -0.352 N 
ATOM     37  C   UNL A   1      44.583  19.545  24.446  1.00  0.00     0.251 C 
ATOM     38  H   UNL A   1      43.315  18.065  24.954  1.00  0.00     0.163 HD
ATOM     39  O   UNL A   1      45.233  18.874  23.653  1.00  0.00    -0.269 OA
BRANCH  37  40
ATOM     40  C   UNL A   1      44.933  20.956  24.698  1.00  0.00     0.039 A 
ATOM     41  C   UNL A   1      44.561  21.928  23.768  1.00  0.00     0.014 A 
ATOM     42  C   UNL A   1      45.535  21.313  25.907  1.00  0.00     0.014 A 
ATOM     43  C   UNL A   1      44.725  23.278  24.087  1.00  0.00     0.010 A 
ATOM     44  C   UNL A   1      45.623  22.654  26.252  1.00  0.00     0.010 A 
ATOM     45  C   UNL A   1      45.217  23.649  25.348  1.00  0.00    -0.014 A 
BRANCH  45  46
ATOM     46  C   UNL A   1      45.344  25.068  25.761  1.00  0.00     0.031 A 
ATOM     47  C   UNL A   1      46.699  25.717  25.742  1.00  0.00     0.074 A 
ATOM     48  C   UNL A   1      44.280  25.730  26.254  1.00  0.00     0.049 A 
ATOM     49  N   UNL A   1      47.074  26.868  26.236  1.00  0.00    -0.248 NA
ATOM     50  C   UNL A   1      47.785  24.949  25.110  1.00  0.00     0.031 C 
ATOM     51  C   UNL A   1      42.918  25.201  26.349  1.00  0.00     0.029 A 
ATOM     52  N   UNL A   1      44.185  26.987  26.798  1.00  0.00    -0.354 N 
ATOM     53  C   UNL A   1      48.441  26.947  26.003  1.00  0.00     0.074 A 
ATOM     54  C   UNL A   1      48.838  25.710  25.368  1.00  0.00     0.031 C 
ATOM     55  C   UNL A   1      42.125  26.128  26.910  1.00  0.00     0.029 A 
ATOM     56  C   UNL A   1      42.929  27.295  27.262  1.00  0.00     0.049 A 
ATOM     57  H   UNL A   1      44.946  27.610  26.851  1.00  0.00     0.167 HD
ATOM     58  C   UNL A   1      49.286  27.968  26.278  1.00  0.00     0.037 A 
ATOM     59  C   UNL A   1      42.484  28.383  27.920  1.00  0.00     0.037 A 
ATOM     60  C   UNL A   1      48.879  29.207  26.884  1.00  0.00     0.049 A 
ATOM     61  C   UNL A   1      43.448  29.495  28.238  1.00  0.00     0.074 A 
ATOM     62  C   UNL A   1      49.648  30.323  27.159  1.00  0.00     0.029 A 
ATOM     63  N   UNL A   1      47.590  29.489  27.311  1.00  0.00    -0.354 N 
ATOM     64  N   UNL A   1      44.729  29.578  27.972  1.00  0.00    -0.248 NA
ATOM     65  C   UNL A   1      42.907  30.663  28.948  1.00  0.00     0.031 C 
ATOM     66  C   UNL A   1      48.835  31.265  27.796  1.00  0.00     0.029 A 
ATOM     67  C   UNL A   1      47.547  30.759  27.864  1.00  0.00     0.049 A 
ATOM     68  H   UNL A   1      46.821  28.880  27.232  1.00  0.00     0.167 HD
ATOM     69  C   UNL A   1      45.136  30.821  28.442  1.00  0.00     0.074 A 
ATOM     70  C   UNL A   1      43.966  31.457  29.011  1.00  0.00     0.031 C 
ATOM     71  C   UNL A   1      46.366  31.388  28.398  1.00  0.00     0.037 A 
BRANCH  58  72
ATOM     72  C   UNL A   1      50.733  27.783  25.926  1.00  0.00     0.057 A 
ATOM     73  C   UNL A   1      51.227  28.062  24.644  1.00  0.00     0.134 A 
ATOM     74  C   UNL A   1      51.651  27.347  26.890  1.00  0.00     0.134 A 
ATOM     75  F   UNL A   1      50.399  28.470  23.671  1.00  0.00    -0.206 F 
ATOM     76  C   UNL A   1      52.574  27.884  24.326  1.00  0.00     0.040 A 
ATOM     77  C   UNL A   1      53.006  27.197  26.592  1.00  0.00     0.040 A 
ATOM     78  F   UNL A   1      51.249  27.069  28.139  1.00  0.00    -0.206 F 
ATOM     79  C   UNL A   1      53.470  27.458  25.304  1.00  0.00     0.006 A 
ENDBRANCH  58  72
BRANCH  59  80
ATOM     80  C   UNL A   1      41.056  28.482  28.318  1.00  0.00     0.057 A 
ATOM     81  C   UNL A   1      40.637  28.096  29.597  1.00  0.00     0.134 A 
ATOM     82  C   UNL A   1      40.076  28.948  27.432  1.00  0.00     0.134 A 
ATOM     83  F   UNL A   1      41.524  27.624  30.484  1.00  0.00    -0.206 F 
ATOM     84  C   UNL A   1      39.293  28.149  29.974  1.00  0.00     0.040 A 
ATOM     85  C   UNL A   1      38.734  29.031  27.806  1.00  0.00     0.040 A 
ATOM     86  F   UNL A   1      40.412  29.340  26.195  1.00  0.00    -0.206 F 
ATOM     87  C   UNL A   1      38.337  28.622  29.078  1.00  0.00     0.006 A 
ENDBRANCH  59  80
BRANCH  71  88
ATOM     88  C   UNL A   1      46.509  32.789  28.915  1.00  0.00     0.057 A 
ATOM     89  C   UNL A   1      46.891  33.063  30.233  1.00  0.00     0.134 A 
ATOM     90  C   UNL A   1      46.343  33.878  28.048  1.00  0.00     0.134 A 
ATOM     91  F   UNL A   1      47.054  32.065  31.115  1.00  0.00    -0.206 F 
ATOM     92  C   UNL A   1      47.096  34.371  30.674  1.00  0.00     0.040 A 
ATOM     93  C   UNL A   1      46.572  35.188  28.470  1.00  0.00     0.040 A 
ATOM     94  F   UNL A   1      45.988  33.683  26.769  1.00  0.00    -0.206 F 
ATOM     95  C   UNL A   1      46.948  35.437  29.787  1.00  0.00     0.006 A 
ENDBRANCH  71  88
ENDBRANCH  45  46
ENDBRANCH  37  40
ENDBRANCH  35  36
ENDBRANCH  34  35
ENDBRANCH   1  34
TORSDOF 15
ENDMDL
MODEL 2
REMARK VINA RESULT:     -12.5      5.791     12.218
REMARK SMILES CS(=O)(=O)c1ccc(C2=NN(c3ccc(C(=O)NCCCCNC(=O)c4ccc(-c5c6nc(c(-c7c(F)cccc7F)c7ccc([nH]7)c(-c7c(F)cccc7F)c7nc(c(-c8c(F)cccc8F)c8ccc5[nH]8)C=C7)C=C6)cc4)cc3)[C@H](c3ccccc3)C2)cc1
REMARK SMILES IDX 20 1 19 2 18 3 16 4 17 5 15 7 12 8 13 9 81 10 14 11 80 12
REMARK SMILES IDX 11 13 9 14 10 15 89 16 82 17 8 18 5 19 6 20 91 21 7 22 90 23
REMARK SMILES IDX 2 24 1 25 3 26 4 27 83 28 84 29 88 30 85 31 87 32 86 33
REMARK SMILES IDX 21 34 22 35 23 36 24 37 25 39 26 40 27 41 79 42 28 43 78 44
REMARK SMILES IDX 29 45 30 46 31 47 72 48 32 49 77 50 71 51 73 52 33 53 76 54
REMARK SMILES IDX 70 55 69 56 34 58 60 59 43 60 59 61 44 62 47 63 58 64 74 65
REMARK SMILES IDX 45 66 46 67 57 69 75 70 48 71 35 72 36 73 41 74 37 75 38 76
REMARK SMILES IDX 40 77 42 78 39 79 61 80 62 81 67 82 63 83 64 84 66 85 68 86
REMARK SMILES IDX 65 87 49 88 50 89 55 90 51 91 52 92 54 93 56 94 53 95
REMARK H PARENT 18 6 23 38 73 57 47 68
REMARK Flexibility Score: inf
ROOT
ATOM      1  C   UNL A   1      34.253  34.874  28.961  1.00  0.00     0.023 C 
ENDROOT
BRANCH   1   2
ATOM      2  C   UNL A   1      33.877  34.583  30.415  1.00  0.00     0.116 C 
BRANCH   2   3
ATOM      3  N   UNL A   1      33.740  35.815  31.169  1.00  0.00    -0.352 N 
ATOM      4  C   UNL A   1      34.324  36.214  32.348  1.00  0.00     0.251 C 
ATOM      5  O   UNL A   1      34.099  37.350  32.760  1.00  0.00    -0.269 OA
ATOM      6  H   UNL A   1      33.127  36.475  30.771  1.00  0.00     0.163 HD
BRANCH   4   7
ATOM      7  C   UNL A   1      35.275  35.340  33.083  1.00  0.00     0.039 A 
ATOM      8  C   UNL A   1      37.056  33.510  34.257  1.00  0.00     0.060 A 
ATOM      9  C   UNL A   1      37.388  34.153  33.062  1.00  0.00     0.029 A 
ATOM     10  C   UNL A   1      35.876  33.872  34.907  1.00  0.00     0.029 A 
ATOM     11  C   UNL A   1      36.507  35.068  32.477  1.00  0.00     0.016 A 
ATOM     12  C   UNL A   1      34.999  34.790  34.334  1.00  0.00     0.016 A 
BRANCH   8  13
ATOM     13  N   UNL A   1      37.857  32.522  34.790  1.00  0.00    -0.257 N 
ATOM     14  C   UNL A   1      39.238  30.927  34.706  1.00  0.00     0.071 C 
ATOM     15  N   UNL A   1      38.776  31.916  34.011  1.00  0.00    -0.176 NA
ATOM     16  C   UNL A   1      38.621  30.742  36.069  1.00  0.00     0.091 C 
ATOM     17  C   UNL A   1      37.805  32.045  36.174  1.00  0.00     0.144 C 
BRANCH  14  18
ATOM     18  C   UNL A   1      40.282  30.033  34.181  1.00  0.00    -0.002 A 
ATOM     19  C   UNL A   1      42.331  28.419  33.211  1.00  0.00     0.067 A 
ATOM     20  C   UNL A   1      42.612  29.382  34.185  1.00  0.00     0.021 A 
ATOM     21  C   UNL A   1      41.032  28.266  32.710  1.00  0.00     0.021 A 
ATOM     22  C   UNL A   1      41.585  30.194  34.664  1.00  0.00     0.011 A 
ATOM     23  C   UNL A   1      40.002  29.077  33.201  1.00  0.00     0.011 A 
BRANCH  19  24
ATOM     24  S   UNL A   1      43.658  27.386  32.634  1.00  0.00     0.175 S 
ATOM     25  C   UNL A   1      43.828  26.090  33.830  1.00  0.00     0.163 C 
ATOM     26  O   UNL A   1      44.854  28.201  32.671  1.00  0.00    -0.224 OA
ATOM     27  O   UNL A   1      43.209  26.763  31.401  1.00  0.00    -0.224 OA
ENDBRANCH  19  24
ENDBRANCH  14  18
BRANCH  17  28
ATOM     28  C   UNL A   1      38.286  33.115  37.156  1.00  0.00    -0.023 A 
ATOM     29  C   UNL A   1      39.075  34.219  36.798  1.00  0.00     0.006 A 
ATOM     30  C   UNL A   1      37.894  33.010  38.508  1.00  0.00     0.006 A 
ATOM     31  C   UNL A   1      39.468  35.165  37.755  1.00  0.00     0.000 A 
ATOM     32  C   UNL A   1      38.259  33.969  39.455  1.00  0.00     0.000 A 
ATOM     33  C   UNL A   1      39.055  35.045  39.080  1.00  0.00     0.000 A 
ENDBRANCH  17  28
ENDBRANCH   8  13
ENDBRANCH   4   7
ENDBRANCH   2   3
ENDBRANCH   1   2
BRANCH   1  34
ATOM     34  C   UNL A   1      34.785  33.661  28.199  1.00  0.00     0.023 C 
BRANCH  34  35
ATOM     35  C   UNL A   1      34.946  32.408  29.044  1.00  0.00     0.116 C 
BRANCH  35  36
ATOM     36  N   UNL A   1      34.299  31.237  28.470  1.00  0.00    -0.352 N 
ATOM     37  C   UNL A   1      34.880  30.036  28.136  1.00  0.00     0.251 C 
ATOM     38  H   UNL A   1      33.332  31.314  28.301  1.00  0.00     0.163 HD
ATOM     39  O   UNL A   1      34.246  29.159  27.562  1.00  0.00    -0.269 OA
BRANCH  37  40
ATOM     40  C   UNL A   1      36.309  29.845  28.454  1.00  0.00     0.039 A 
ATOM     41  C   UNL A   1      36.667  29.342  29.707  1.00  0.00     0.014 A 
ATOM     42  C   UNL A   1      37.272  30.067  27.468  1.00  0.00     0.014 A 
ATOM     43  C   UNL A   1      37.996  28.988  29.946  1.00  0.00     0.010 A 
ATOM     44  C   UNL A   1      38.575  29.640  27.682  1.00  0.00     0.010 A 
ATOM     45  C   UNL A   1      38.949  29.095  28.920  1.00  0.00    -0.014 A 
BRANCH  45  46
ATOM     46  C   UNL A   1      40.358  28.666  29.102  1.00  0.00     0.031 A 
ATOM     47  C   UNL A   1      41.368  29.662  29.595  1.00  0.00     0.074 A 
ATOM     48  C   UNL A   1      40.747  27.433  28.723  1.00  0.00     0.049 A 
ATOM     49  N   UNL A   1      42.672  29.567  29.643  1.00  0.00    -0.248 NA
ATOM     50  C   UNL A   1      40.840  30.954  30.064  1.00  0.00     0.031 C 
ATOM     51  C   UNL A   1      39.867  26.385  28.206  1.00  0.00     0.029 A 
ATOM     52  N   UNL A   1      41.996  26.865  28.687  1.00  0.00    -0.354 N 
ATOM     53  C   UNL A   1      43.117  30.794  30.118  1.00  0.00     0.074 A 
ATOM     54  C   UNL A   1      41.953  31.633  30.295  1.00  0.00     0.031 C 
ATOM     55  C   UNL A   1      40.602  25.300  27.911  1.00  0.00     0.029 A 
ATOM     56  C   UNL A   1      42.009  25.593  28.167  1.00  0.00     0.049 A 
ATOM     57  H   UNL A   1      42.807  27.325  29.003  1.00  0.00     0.167 HD
ATOM     58  C   UNL A   1      44.385  31.180  30.397  1.00  0.00     0.037 A 
ATOM     59  C   UNL A   1      43.041  24.768  27.904  1.00  0.00     0.037 A 
ATOM     60  C   UNL A   1      45.536  30.332  30.243  1.00  0.00     0.049 A 
ATOM     61  C   UNL A   1      44.444  25.228  28.198  1.00  0.00     0.074 A 
ATOM     62  C   UNL A   1      46.856  30.610  30.546  1.00  0.00     0.029 A 
ATOM     63  N   UNL A   1      45.500  29.039  29.743  1.00  0.00    -0.354 N 
ATOM     64  N   UNL A   1      44.851  26.374  28.689  1.00  0.00    -0.248 NA
ATOM     65  C   UNL A   1      45.531  24.285  27.901  1.00  0.00     0.031 C 
ATOM     66  C   UNL A   1      47.628  29.503  30.184  1.00  0.00     0.029 A 
ATOM     67  C   UNL A   1      46.781  28.512  29.712  1.00  0.00     0.049 A 
ATOM     68  H   UNL A   1      44.687  28.565  29.454  1.00  0.00     0.167 HD
ATOM     69  C   UNL A   1      46.232  26.272  28.800  1.00  0.00     0.074 A 
ATOM     70  C   UNL A   1      46.595  24.954  28.324  1.00  0.00     0.031 C 
ATOM     71  C   UNL A   1      47.120  27.186  29.263  1.00  0.00     0.037 A 
BRANCH  58  72
ATOM     72  C   UNL A   1      44.588  32.581  30.893  1.00  0.00     0.057 A 
ATOM     73  C   UNL A   1      44.566  32.896  32.258  1.00  0.00     0.134 A 
ATOM     74  C   UNL A   1      44.839  33.626  29.994  1.00  0.00     0.134 A 
ATOM     75  F   UNL A   1      44.317  31.945  33.171  1.00  0.00    -0.206 F 
ATOM     76  C   UNL A   1      44.753  34.204  32.710  1.00  0.00     0.040 A 
ATOM     77  C   UNL A   1      45.061  34.932  30.436  1.00  0.00     0.040 A 
ATOM     78  F   UNL A   1      44.882  33.395  28.673  1.00  0.00    -0.206 F 
ATOM     79  C   UNL A   1      45.010  35.225  31.797  1.00  0.00     0.006 A 
ENDBRANCH  58  72
BRANCH  59  80
ATOM     80  C   UNL A   1      42.791  23.418  27.337  1.00  0.00     0.057 A 
ATOM     81  C   UNL A   1      42.864  23.192  25.957  1.00  0.00     0.134 A 
ATOM     82  C   UNL A   1      42.460  22.327  28.151  1.00  0.00     0.134 A 
ATOM     83  F   UNL A   1      43.157  24.200  25.123  1.00  0.00    -0.206 F 
ATOM     84  C   UNL A   1      42.596  21.937  25.405  1.00  0.00     0.040 A 
ATOM     85  C   UNL A   1      42.217  21.062  27.615  1.00  0.00     0.040 A 
ATOM     86  F   UNL A   1      42.382  22.474  29.482  1.00  0.00    -0.206 F 
ATOM     87  C   UNL A   1      42.275  20.866  26.236  1.00  0.00     0.006 A 
ENDBRANCH  59  80
BRANCH  71  88
ATOM     88  C   UNL A   1      48.562  26.780  29.346  1.00  0.00     0.057 A 
ATOM     89  C   UNL A   1      49.479  27.072  28.331  1.00  0.00     0.134 A 
ATOM     90  C   UNL A   1      49.052  26.162  30.505  1.00  0.00     0.134 A 
ATOM     91  F   UNL A   1      49.071  27.652  27.192  1.00  0.00    -0.206 F 
ATOM     92  C   UNL A   1      50.832  26.757  28.461  1.00  0.00     0.040 A 
ATOM     93  C   UNL A   1      50.407  25.867  30.657  1.00  0.00     0.040 A 
ATOM     94  F   UNL A   1      48.226  25.864  31.520  1.00  0.00    -0.206 F 
ATOM     95  C   UNL A   1      51.301  26.164  29.632  1.00  0.00     0.006 A 
ENDBRANCH  71  88
ENDBRANCH  45  46
ENDBRANCH  37  40
ENDBRANCH  35  36
ENDBRANCH  34  35
ENDBRANCH   1  34
TORSDOF 15
ENDMDL
MODEL 3
REMARK VINA RESULT:     -12.5      4.447      6.572
REMARK SMILES CS(=O)(=O)c1ccc(C2=NN(c3ccc(C(=O)NCCCCNC(=O)c4ccc(-c5c6nc(c(-c7c(F)cccc7F)c7ccc([nH]7)c(-c7c(F)cccc7F)c7nc(c(-c8c(F)cccc8F)c8ccc5[nH]8)C=C7)C=C6)cc4)cc3)[C@H](c3ccccc3)C2)cc1
REMARK SMILES IDX 20 1 19 2 18 3 16 4 17 5 15 7 12 8 13 9 81 10 14 11 80 12
REMARK SMILES IDX 11 13 9 14 10 15 89 16 82 17 8 18 5 19 6 20 91 21 7 22 90 23
REMARK SMILES IDX 2 24 1 25 3 26 4 27 83 28 84 29 88 30 85 31 87 32 86 33
REMARK SMILES IDX 21 34 22 35 23 36 24 37 25 39 26 40 27 41 79 42 28 43 78 44
REMARK SMILES IDX 29 45 30 46 31 47 72 48 32 49 77 50 71 51 73 52 33 53 76 54
REMARK SMILES IDX 70 55 69 56 34 58 60 59 43 60 59 61 44 62 47 63 58 64 74 65
REMARK SMILES IDX 45 66 46 67 57 69 75 70 48 71 35 72 36 73 41 74 37 75 38 76
REMARK SMILES IDX 40 77 42 78 39 79 61 80 62 81 67 82 63 83 64 84 66 85 68 86
REMARK SMILES IDX 65 87 49 88 50 89 55 90 51 91 52 92 54 93 56 94 53 95
REMARK H PARENT 18 6 23 38 73 57 47 68
REMARK Flexibility Score: inf
ROOT
ATOM      1  C   UNL A   1      40.068  20.256  26.521  1.00  0.00     0.023 C 
ENDROOT
BRANCH   1   2
ATOM      2  C   UNL A   1      39.145  21.202  25.750  1.00  0.00     0.116 C 
BRANCH   2   3
ATOM      3  N   UNL A   1      39.492  22.587  26.010  1.00  0.00    -0.352 N 
ATOM      4  C   UNL A   1      38.706  23.713  26.065  1.00  0.00     0.251 C 
ATOM      5  O   UNL A   1      39.230  24.781  26.373  1.00  0.00    -0.269 OA
ATOM      6  H   UNL A   1      40.450  22.746  26.173  1.00  0.00     0.163 HD
BRANCH   4   7
ATOM      7  C   UNL A   1      37.238  23.652  25.842  1.00  0.00     0.039 A 
ATOM      8  C   UNL A   1      34.478  23.800  25.328  1.00  0.00     0.060 A 
ATOM      9  C   UNL A   1      35.399  23.903  24.282  1.00  0.00     0.029 A 
ATOM     10  C   UNL A   1      34.950  23.517  26.611  1.00  0.00     0.029 A 
ATOM     11  C   UNL A   1      36.772  23.825  24.533  1.00  0.00     0.016 A 
ATOM     12  C   UNL A   1      36.317  23.429  26.864  1.00  0.00     0.016 A 
BRANCH   8  13
ATOM     13  N   UNL A   1      33.128  23.988  25.120  1.00  0.00    -0.257 N 
ATOM     14  C   UNL A   1      31.399  25.119  24.681  1.00  0.00     0.071 C 
ATOM     15  N   UNL A   1      32.690  25.147  24.587  1.00  0.00    -0.176 NA
ATOM     16  C   UNL A   1      30.821  23.898  25.350  1.00  0.00     0.091 C 
ATOM     17  C   UNL A   1      32.080  23.015  25.437  1.00  0.00     0.144 C 
BRANCH  14  18
ATOM     18  C   UNL A   1      30.563  26.223  24.185  1.00  0.00    -0.002 A 
ATOM     19  C   UNL A   1      29.056  28.383  23.289  1.00  0.00     0.067 A 
ATOM     20  C   UNL A   1      30.435  28.529  23.466  1.00  0.00     0.021 A 
ATOM     21  C   UNL A   1      28.424  27.165  23.568  1.00  0.00     0.021 A 
ATOM     22  C   UNL A   1      31.187  27.448  23.922  1.00  0.00     0.011 A 
ATOM     23  C   UNL A   1      29.184  26.079  24.016  1.00  0.00     0.011 A 
BRANCH  19  24
ATOM     24  S   UNL A   1      28.127  29.775  22.687  1.00  0.00     0.175 S 
ATOM     25  C   UNL A   1      28.862  31.211  23.420  1.00  0.00     0.163 C 
ATOM     26  O   UNL A   1      26.787  29.629  23.215  1.00  0.00    -0.224 OA
ATOM     27  O   UNL A   1      28.367  29.863  21.257  1.00  0.00    -0.224 OA
ENDBRANCH  19  24
ENDBRANCH  14  18
BRANCH  17  28
ATOM     28  C   UNL A   1      32.159  21.787  24.527  1.00  0.00    -0.023 A 
ATOM     29  C   UNL A   1      31.999  21.825  23.133  1.00  0.00     0.006 A 
ATOM     30  C   UNL A   1      32.436  20.534  25.113  1.00  0.00     0.006 A 
ATOM     31  C   UNL A   1      32.096  20.657  22.365  1.00  0.00     0.000 A 
ATOM     32  C   UNL A   1      32.564  19.375  24.344  1.00  0.00     0.000 A 
ATOM     33  C   UNL A   1      32.386  19.435  22.967  1.00  0.00     0.000 A 
ENDBRANCH  17  28
ENDBRANCH   8  13
ENDBRANCH   4   7
ENDBRANCH   2   3
ENDBRANCH   1   2
BRANCH   1  34
ATOM     34  C   UNL A   1      41.543  20.377  26.143  1.00  0.00     0.023 C 
BRANCH  34  35
ATOM     35  C   UNL A   1      42.178  21.710  26.504  1.00  0.00     0.116 C 
BRANCH  35  36
ATOM     36  N   UNL A   1      42.940  22.303  25.413  1.00  0.00    -0.352 N 
ATOM     37  C   UNL A   1      43.428  23.586  25.330  1.00  0.00     0.251 C 
ATOM     38  H   UNL A   1      43.127  21.716  24.645  1.00  0.00     0.163 HD
ATOM     39  O   UNL A   1      43.968  23.997  24.310  1.00  0.00    -0.269 OA
BRANCH  37  40
ATOM     40  C   UNL A   1      43.247  24.473  26.495  1.00  0.00     0.039 A 
ATOM     41  C   UNL A   1      43.876  25.720  26.506  1.00  0.00     0.014 A 
ATOM     42  C   UNL A   1      42.372  24.103  27.517  1.00  0.00     0.014 A 
ATOM     43  C   UNL A   1      43.564  26.634  27.515  1.00  0.00     0.010 A 
ATOM     44  C   UNL A   1      42.004  25.041  28.471  1.00  0.00     0.010 A 
ATOM     45  C   UNL A   1      42.594  26.315  28.478  1.00  0.00    -0.014 A 
BRANCH  45  46
ATOM     46  C   UNL A   1      42.175  27.277  29.527  1.00  0.00     0.031 A 
ATOM     47  C   UNL A   1      42.853  27.238  30.868  1.00  0.00     0.074 A 
ATOM     48  C   UNL A   1      41.127  28.097  29.319  1.00  0.00     0.049 A 
ATOM     49  N   UNL A   1      42.526  27.842  31.980  1.00  0.00    -0.248 NA
ATOM     50  C   UNL A   1      44.039  26.373  30.977  1.00  0.00     0.031 C 
ATOM     51  C   UNL A   1      40.371  28.210  28.071  1.00  0.00     0.029 A 
ATOM     52  N   UNL A   1      40.497  28.971  30.169  1.00  0.00    -0.354 N 
ATOM     53  C   UNL A   1      43.445  27.407  32.925  1.00  0.00     0.074 A 
ATOM     54  C   UNL A   1      44.311  26.452  32.271  1.00  0.00     0.031 C 
ATOM     55  C   UNL A   1      39.385  29.107  28.235  1.00  0.00     0.029 A 
ATOM     56  C   UNL A   1      39.405  29.592  29.611  1.00  0.00     0.049 A 
ATOM     57  H   UNL A   1      40.798  29.138  31.091  1.00  0.00     0.167 HD
ATOM     58  C   UNL A   1      43.567  27.784  34.221  1.00  0.00     0.037 A 
ATOM     59  C   UNL A   1      38.508  30.436  30.157  1.00  0.00     0.037 A 
ATOM     60  C   UNL A   1      42.718  28.754  34.858  1.00  0.00     0.049 A 
ATOM     61  C   UNL A   1      38.647  30.821  31.606  1.00  0.00     0.074 A 
ATOM     62  C   UNL A   1      42.789  29.242  36.150  1.00  0.00     0.029 A 
ATOM     63  N   UNL A   1      41.643  29.382  34.248  1.00  0.00    -0.354 N 
ATOM     64  N   UNL A   1      39.548  30.438  32.478  1.00  0.00    -0.248 NA
ATOM     65  C   UNL A   1      37.647  31.752  32.147  1.00  0.00     0.031 C 
ATOM     66  C   UNL A   1      41.727  30.131  36.338  1.00  0.00     0.029 A 
ATOM     67  C   UNL A   1      41.030  30.242  35.145  1.00  0.00     0.049 A 
ATOM     68  H   UNL A   1      41.357  29.240  33.316  1.00  0.00     0.167 HD
ATOM     69  C   UNL A   1      39.249  31.114  33.656  1.00  0.00     0.074 A 
ATOM     70  C   UNL A   1      38.083  31.929  33.387  1.00  0.00     0.031 C 
ATOM     71  C   UNL A   1      39.888  31.069  34.850  1.00  0.00     0.037 A 
BRANCH  58  72
ATOM     72  C   UNL A   1      44.654  27.141  35.029  1.00  0.00     0.057 A 
ATOM     73  C   UNL A   1      45.928  27.712  35.147  1.00  0.00     0.134 A 
ATOM     74  C   UNL A   1      44.415  25.948  35.725  1.00  0.00     0.134 A 
ATOM     75  F   UNL A   1      46.228  28.846  34.496  1.00  0.00    -0.206 F 
ATOM     76  C   UNL A   1      46.935  27.105  35.900  1.00  0.00     0.040 A 
ATOM     77  C   UNL A   1      45.404  25.349  36.507  1.00  0.00     0.040 A 
ATOM     78  F   UNL A   1      43.216  25.350  35.663  1.00  0.00    -0.206 F 
ATOM     79  C   UNL A   1      46.671  25.923  36.590  1.00  0.00     0.006 A 
ENDBRANCH  58  72
BRANCH  59  80
ATOM     80  C   UNL A   1      37.400  30.984  29.332  1.00  0.00     0.057 A 
ATOM     81  C   UNL A   1      36.287  30.197  29.009  1.00  0.00     0.134 A 
ATOM     82  C   UNL A   1      37.430  32.293  28.835  1.00  0.00     0.134 A 
ATOM     83  F   UNL A   1      36.209  28.930  29.437  1.00  0.00    -0.206 F 
ATOM     84  C   UNL A   1      35.255  30.685  28.204  1.00  0.00     0.040 A 
ATOM     85  C   UNL A   1      36.392  32.801  28.052  1.00  0.00     0.040 A 
ATOM     86  F   UNL A   1      38.463  33.100  29.115  1.00  0.00    -0.206 F 
ATOM     87  C   UNL A   1      35.304  31.992  27.727  1.00  0.00     0.006 A 
ENDBRANCH  59  80
BRANCH  71  88
ATOM     88  C   UNL A   1      39.393  31.971  35.942  1.00  0.00     0.057 A 
ATOM     89  C   UNL A   1      39.873  33.275  36.106  1.00  0.00     0.134 A 
ATOM     90  C   UNL A   1      38.355  31.550  36.785  1.00  0.00     0.134 A 
ATOM     91  F   UNL A   1      40.874  33.734  35.339  1.00  0.00    -0.206 F 
ATOM     92  C   UNL A   1      39.344  34.127  37.077  1.00  0.00     0.040 A 
ATOM     93  C   UNL A   1      37.800  32.402  37.740  1.00  0.00     0.040 A 
ATOM     94  F   UNL A   1      37.844  30.315  36.672  1.00  0.00    -0.206 F 
ATOM     95  C   UNL A   1      38.296  33.695  37.889  1.00  0.00     0.006 A 
ENDBRANCH  71  88
ENDBRANCH  45  46
ENDBRANCH  37  40
ENDBRANCH  35  36
ENDBRANCH  34  35
ENDBRANCH   1  34
TORSDOF 15
ENDMDL
