MODEL 1
REMARK VINA RESULT:     -11.9      0.000      0.000
REMARK SMILES Cc1cc(C)c2c(c1)C=C(C(=O)NCCCCNC(=O)c1ccc(-c3c4nc(c(-c5c(F)cccc5F)c5ccc([nH]5)c(-c5c(F)cccc5F)c5nc(c(-c6c(F)cccc6F)c6ccc3[nH]6)C=C5)C=C4)cc1)[C@@H](C(F)(F)F)O2
REMARK SMILES IDX 16 1 15 2 14 3 13 4 11 5 12 6 10 8 1 9 2 10 3 11 8 12 4 13
REMARK SMILES IDX 7 14 5 15 6 16 9 17 80 18 75 19 76 20 77 21 78 22 79 23
REMARK SMILES IDX 17 24 18 25 19 26 20 28 21 29 22 30 74 31 23 32 73 33 24 34
REMARK SMILES IDX 25 35 26 36 67 37 27 38 72 39 66 40 68 41 28 42 71 43 65 44
REMARK SMILES IDX 64 45 29 47 55 48 38 49 54 50 39 51 42 52 53 53 69 54 40 55
REMARK SMILES IDX 41 56 52 58 70 59 43 60 30 61 31 62 36 63 32 64 33 65 35 66
REMARK SMILES IDX 37 67 34 68 56 69 57 70 62 71 58 72 59 73 61 74 63 75 60 76
REMARK SMILES IDX 44 77 45 78 50 79 46 80 47 81 49 82 51 83 48 84
REMARK H PARENT 13 7 18 27 68 46 42 57
REMARK Flexibility Score: inf
ROOT
ATOM      1  C   UNL A   1      34.003  28.407  25.761  1.00  0.00     0.023 C 
ENDROOT
BRANCH   1   2
ATOM      2  C   UNL A   1      32.893  28.816  24.790  1.00  0.00     0.023 C 
BRANCH   2   3
ATOM      3  C   UNL A   1      32.135  27.640  24.182  1.00  0.00     0.116 C 
BRANCH   3   4
ATOM      4  N   UNL A   1      31.231  27.027  25.137  1.00  0.00    -0.352 N 
ATOM      5  C   UNL A   1      31.098  25.820  25.736  1.00  0.00     0.251 C 
ATOM      6  O   UNL A   1      30.136  25.723  26.505  1.00  0.00    -0.270 OA
ATOM      7  H   UNL A   1      30.527  27.653  25.425  1.00  0.00     0.163 HD
BRANCH   5   8
ATOM      8  C   UNL A   1      32.004  24.651  25.533  1.00  0.00     0.067 C 
ATOM      9  C   UNL A   1      37.986  23.132  25.860  1.00  0.00     0.044 C 
ATOM     10  C   UNL A   1      36.513  22.893  25.711  1.00  0.00    -0.050 A 
ATOM     11  C   UNL A   1      36.026  21.622  25.374  1.00  0.00     0.010 A 
ATOM     12  C   UNL A   1      35.610  23.954  25.872  1.00  0.00     0.015 A 
ATOM     13  C   UNL A   1      34.652  21.398  25.217  1.00  0.00    -0.008 A 
ATOM     14  C   UNL A   1      34.238  23.747  25.708  1.00  0.00     0.018 A 
ATOM     15  C   UNL A   1      34.140  20.032  24.860  1.00  0.00     0.048 C 
ATOM     16  C   UNL A   1      33.770  22.473  25.379  1.00  0.00     0.130 A 
ATOM     17  C   UNL A   1      33.284  24.833  25.908  1.00  0.00     0.025 C 
ATOM     18  O   UNL A   1      32.433  22.212  25.245  1.00  0.00    -0.475 OA
ATOM     19  C   UNL A   1      31.588  23.347  24.915  1.00  0.00     0.314 C 
BRANCH  19  20
ATOM     20  C   UNL A   1      31.427  23.436  23.386  1.00  0.00     0.429 C 
ATOM     21  F   UNL A   1      30.157  23.789  23.064  1.00  0.00    -0.167 F 
ATOM     22  F   UNL A   1      32.234  24.376  22.835  1.00  0.00    -0.167 F 
ATOM     23  F   UNL A   1      31.696  22.271  22.757  1.00  0.00    -0.167 F 
ENDBRANCH  19  20
ENDBRANCH   5   8
ENDBRANCH   3   4
ENDBRANCH   2   3
ENDBRANCH   1   2
BRANCH   1  24
ATOM     24  C   UNL A   1      33.668  28.568  27.244  1.00  0.00     0.116 C 
BRANCH  24  25
ATOM     25  N   UNL A   1      33.611  29.953  27.687  1.00  0.00    -0.352 N 
ATOM     26  C   UNL A   1      34.615  30.706  28.244  1.00  0.00     0.251 C 
ATOM     27  H   UNL A   1      32.745  30.408  27.571  1.00  0.00     0.163 HD
ATOM     28  O   UNL A   1      34.404  31.847  28.641  1.00  0.00    -0.269 OA
BRANCH  26  29
ATOM     29  C   UNL A   1      35.949  30.099  28.398  1.00  0.00     0.039 A 
ATOM     30  C   UNL A   1      36.851  30.180  27.336  1.00  0.00     0.014 A 
ATOM     31  C   UNL A   1      36.321  29.515  29.612  1.00  0.00     0.014 A 
ATOM     32  C   UNL A   1      38.160  29.736  27.515  1.00  0.00     0.010 A 
ATOM     33  C   UNL A   1      37.640  29.124  29.808  1.00  0.00     0.010 A 
ATOM     34  C   UNL A   1      38.571  29.238  28.763  1.00  0.00    -0.014 A 
BRANCH  34  35
ATOM     35  C   UNL A   1      39.971  28.817  28.996  1.00  0.00     0.031 A 
ATOM     36  C   UNL A   1      40.933  29.767  29.646  1.00  0.00     0.074 A 
ATOM     37  C   UNL A   1      40.386  27.610  28.572  1.00  0.00     0.049 A 
ATOM     38  N   UNL A   1      42.216  29.625  29.859  1.00  0.00    -0.248 NA
ATOM     39  C   UNL A   1      40.386  31.058  30.092  1.00  0.00     0.031 C 
ATOM     40  C   UNL A   1      39.550  26.613  27.898  1.00  0.00     0.029 A 
ATOM     41  N   UNL A   1      41.620  27.016  28.639  1.00  0.00    -0.354 N 
ATOM     42  C   UNL A   1      42.629  30.810  30.453  1.00  0.00     0.074 A 
ATOM     43  C   UNL A   1      41.474  31.678  30.522  1.00  0.00     0.031 C 
ATOM     44  C   UNL A   1      40.289  25.523  27.640  1.00  0.00     0.029 A 
ATOM     45  C   UNL A   1      41.656  25.755  28.097  1.00  0.00     0.049 A 
ATOM     46  H   UNL A   1      42.407  27.453  29.039  1.00  0.00     0.167 HD
ATOM     47  C   UNL A   1      43.857  31.134  30.920  1.00  0.00     0.037 A 
ATOM     48  C   UNL A   1      42.678  24.887  27.981  1.00  0.00     0.037 A 
ATOM     49  C   UNL A   1      44.997  30.260  30.876  1.00  0.00     0.049 A 
ATOM     50  C   UNL A   1      44.033  25.275  28.499  1.00  0.00     0.074 A 
ATOM     51  C   UNL A   1      46.274  30.481  31.362  1.00  0.00     0.029 A 
ATOM     52  N   UNL A   1      44.993  28.991  30.317  1.00  0.00    -0.354 N 
ATOM     53  N   UNL A   1      44.405  26.388  29.085  1.00  0.00    -0.248 NA
ATOM     54  C   UNL A   1      45.113  24.291  28.335  1.00  0.00     0.031 C 
ATOM     55  C   UNL A   1      47.051  29.354  31.072  1.00  0.00     0.029 A 
ATOM     56  C   UNL A   1      46.249  28.420  30.435  1.00  0.00     0.049 A 
ATOM     57  H   UNL A   1      44.213  28.560  29.899  1.00  0.00     0.167 HD
ATOM     58  C   UNL A   1      45.754  26.233  29.374  1.00  0.00     0.074 A 
ATOM     59  C   UNL A   1      46.133  24.913  28.911  1.00  0.00     0.031 C 
ATOM     60  C   UNL A   1      46.604  27.107  29.965  1.00  0.00     0.037 A 
BRANCH  47  61
ATOM     61  C   UNL A   1      44.019  32.493  31.532  1.00  0.00     0.057 A 
ATOM     62  C   UNL A   1      43.825  32.706  32.903  1.00  0.00     0.134 A 
ATOM     63  C   UNL A   1      44.395  33.593  30.752  1.00  0.00     0.134 A 
ATOM     64  F   UNL A   1      43.447  31.695  33.701  1.00  0.00    -0.206 F 
ATOM     65  C   UNL A   1      43.977  33.970  33.474  1.00  0.00     0.040 A 
ATOM     66  C   UNL A   1      44.572  34.857  31.315  1.00  0.00     0.040 A 
ATOM     67  F   UNL A   1      44.598  33.454  29.433  1.00  0.00    -0.206 F 
ATOM     68  C   UNL A   1      44.358  35.049  32.679  1.00  0.00     0.006 A 
ENDBRANCH  47  61
BRANCH  48  69
ATOM     69  C   UNL A   1      42.449  23.552  27.379  1.00  0.00     0.057 A 
ATOM     70  C   UNL A   1      42.071  22.463  28.175  1.00  0.00     0.134 A 
ATOM     71  C   UNL A   1      42.589  23.332  26.005  1.00  0.00     0.134 A 
ATOM     72  F   UNL A   1      41.939  22.613  29.501  1.00  0.00    -0.206 F 
ATOM     73  C   UNL A   1      41.849  21.200  27.626  1.00  0.00     0.040 A 
ATOM     74  C   UNL A   1      42.353  22.076  25.440  1.00  0.00     0.040 A 
ATOM     75  F   UNL A   1      42.943  24.336  25.191  1.00  0.00    -0.206 F 
ATOM     76  C   UNL A   1      41.985  21.005  26.253  1.00  0.00     0.006 A 
ENDBRANCH  48  69
BRANCH  60  77
ATOM     77  C   UNL A   1      48.022  26.661  30.156  1.00  0.00     0.057 A 
ATOM     78  C   UNL A   1      49.011  26.945  29.207  1.00  0.00     0.134 A 
ATOM     79  C   UNL A   1      48.413  25.997  31.325  1.00  0.00     0.134 A 
ATOM     80  F   UNL A   1      48.695  27.568  28.062  1.00  0.00    -0.206 F 
ATOM     81  C   UNL A   1      50.340  26.573  29.410  1.00  0.00     0.040 A 
ATOM     82  C   UNL A   1      49.742  25.638  31.548  1.00  0.00     0.040 A 
ATOM     83  F   UNL A   1      47.511  25.704  32.275  1.00  0.00    -0.206 F 
ATOM     84  C   UNL A   1      50.709  25.925  30.587  1.00  0.00     0.006 A 
ENDBRANCH  60  77
ENDBRANCH  34  35
ENDBRANCH  26  29
ENDBRANCH  24  25
ENDBRANCH   1  24
TORSDOF 12
ENDMDL
MODEL 2
REMARK VINA RESULT:     -11.8      2.450      7.465
REMARK SMILES Cc1cc(C)c2c(c1)C=C(C(=O)NCCCCNC(=O)c1ccc(-c3c4nc(c(-c5c(F)cccc5F)c5ccc([nH]5)c(-c5c(F)cccc5F)c5nc(c(-c6c(F)cccc6F)c6ccc3[nH]6)C=C5)C=C4)cc1)[C@@H](C(F)(F)F)O2
REMARK SMILES IDX 16 1 15 2 14 3 13 4 11 5 12 6 10 8 1 9 2 10 3 11 8 12 4 13
REMARK SMILES IDX 7 14 5 15 6 16 9 17 80 18 75 19 76 20 77 21 78 22 79 23
REMARK SMILES IDX 17 24 18 25 19 26 20 28 21 29 22 30 74 31 23 32 73 33 24 34
REMARK SMILES IDX 25 35 26 36 67 37 27 38 72 39 66 40 68 41 28 42 71 43 65 44
REMARK SMILES IDX 64 45 29 47 55 48 38 49 54 50 39 51 42 52 53 53 69 54 40 55
REMARK SMILES IDX 41 56 52 58 70 59 43 60 30 61 31 62 36 63 32 64 33 65 35 66
REMARK SMILES IDX 37 67 34 68 56 69 57 70 62 71 58 72 59 73 61 74 63 75 60 76
REMARK SMILES IDX 44 77 45 78 50 79 46 80 47 81 49 82 51 83 48 84
REMARK H PARENT 13 7 18 27 68 46 42 57
REMARK Flexibility Score: inf
ROOT
ATOM      1  C   UNL A   1      39.102  21.357  25.714  1.00  0.00     0.023 C 
ENDROOT
BRANCH   1   2
ATOM      2  C   UNL A   1      39.138  22.690  26.466  1.00  0.00     0.023 C 
BRANCH   2   3
ATOM      3  C   UNL A   1      38.098  23.700  25.990  1.00  0.00     0.116 C 
BRANCH   3   4
ATOM      4  N   UNL A   1      37.611  23.390  24.660  1.00  0.00    -0.352 N 
ATOM      5  C   UNL A   1      36.410  23.329  24.037  1.00  0.00     0.251 C 
ATOM      6  O   UNL A   1      36.456  22.997  22.848  1.00  0.00    -0.270 OA
ATOM      7  H   UNL A   1      38.349  23.164  24.047  1.00  0.00     0.163 HD
BRANCH   5   8
ATOM      8  C   UNL A   1      35.093  23.626  24.672  1.00  0.00     0.067 C 
ATOM      9  C   UNL A   1      31.734  28.406  26.690  1.00  0.00     0.044 C 
ATOM     10  C   UNL A   1      32.011  26.980  26.318  1.00  0.00    -0.050 A 
ATOM     11  C   UNL A   1      31.068  25.976  26.584  1.00  0.00     0.010 A 
ATOM     12  C   UNL A   1      33.237  26.632  25.735  1.00  0.00     0.015 A 
ATOM     13  C   UNL A   1      31.329  24.639  26.255  1.00  0.00    -0.008 A 
ATOM     14  C   UNL A   1      33.516  25.301  25.411  1.00  0.00     0.018 A 
ATOM     15  C   UNL A   1      30.311  23.573  26.539  1.00  0.00     0.048 C 
ATOM     16  C   UNL A   1      32.562  24.316  25.676  1.00  0.00     0.130 A 
ATOM     17  C   UNL A   1      34.773  24.930  24.770  1.00  0.00     0.025 C 
ATOM     18  O   UNL A   1      32.773  23.005  25.343  1.00  0.00    -0.475 OA
ATOM     19  C   UNL A   1      34.160  22.588  25.227  1.00  0.00     0.314 C 
BRANCH  19  20
ATOM     20  C   UNL A   1      34.636  22.019  26.577  1.00  0.00     0.429 C 
ATOM     21  F   UNL A   1      35.691  21.185  26.392  1.00  0.00    -0.167 F 
ATOM     22  F   UNL A   1      35.062  22.987  27.425  1.00  0.00    -0.167 F 
ATOM     23  F   UNL A   1      33.677  21.323  27.225  1.00  0.00    -0.167 F 
ENDBRANCH  19  20
ENDBRANCH   5   8
ENDBRANCH   3   4
ENDBRANCH   2   3
ENDBRANCH   1   2
BRANCH   1  24
ATOM     24  C   UNL A   1      39.565  20.141  26.515  1.00  0.00     0.116 C 
BRANCH  24  25
ATOM     25  N   UNL A   1      40.663  19.413  25.896  1.00  0.00    -0.352 N 
ATOM     26  C   UNL A   1      41.977  19.797  25.784  1.00  0.00     0.251 C 
ATOM     27  H   UNL A   1      40.436  18.535  25.512  1.00  0.00     0.163 HD
ATOM     28  O   UNL A   1      42.785  19.111  25.167  1.00  0.00    -0.269 OA
BRANCH  26  29
ATOM     29  C   UNL A   1      42.391  21.077  26.383  1.00  0.00     0.039 A 
ATOM     30  C   UNL A   1      42.737  22.134  25.538  1.00  0.00     0.014 A 
ATOM     31  C   UNL A   1      42.370  21.245  27.770  1.00  0.00     0.014 A 
ATOM     32  C   UNL A   1      42.996  23.389  26.085  1.00  0.00     0.010 A 
ATOM     33  C   UNL A   1      42.573  22.510  28.309  1.00  0.00     0.010 A 
ATOM     34  C   UNL A   1      42.882  23.593  27.470  1.00  0.00    -0.014 A 
BRANCH  34  35
ATOM     35  C   UNL A   1      43.091  24.931  28.067  1.00  0.00     0.031 A 
ATOM     36  C   UNL A   1      44.461  25.333  28.526  1.00  0.00     0.074 A 
ATOM     37  C   UNL A   1      42.042  25.754  28.247  1.00  0.00     0.049 A 
ATOM     38  N   UNL A   1      44.837  26.420  29.151  1.00  0.00    -0.248 NA
ATOM     39  C   UNL A   1      45.549  24.375  28.273  1.00  0.00     0.031 C 
ATOM     40  C   UNL A   1      40.658  25.460  27.869  1.00  0.00     0.029 A 
ATOM     41  N   UNL A   1      41.976  27.008  28.799  1.00  0.00    -0.354 N 
ATOM     42  C   UNL A   1      46.199  26.270  29.374  1.00  0.00     0.074 A 
ATOM     43  C   UNL A   1      46.575  24.970  28.863  1.00  0.00     0.031 C 
ATOM     44  C   UNL A   1      39.886  26.514  28.177  1.00  0.00     0.029 A 
ATOM     45  C   UNL A   1      40.712  27.543  28.802  1.00  0.00     0.049 A 
ATOM     46  H   UNL A   1      42.762  27.480  29.160  1.00  0.00     0.167 HD
ATOM     47  C   UNL A   1      47.062  27.150  29.932  1.00  0.00     0.037 A 
ATOM     48  C   UNL A   1      40.271  28.729  29.261  1.00  0.00     0.037 A 
ATOM     49  C   UNL A   1      46.691  28.453  30.414  1.00  0.00     0.049 A 
ATOM     50  C   UNL A   1      41.248  29.683  29.887  1.00  0.00     0.074 A 
ATOM     51  C   UNL A   1      47.501  29.434  30.959  1.00  0.00     0.029 A 
ATOM     52  N   UNL A   1      45.400  28.958  30.401  1.00  0.00    -0.354 N 
ATOM     53  N   UNL A   1      42.539  29.543  30.065  1.00  0.00    -0.248 NA
ATOM     54  C   UNL A   1      40.707  30.959  30.379  1.00  0.00     0.031 C 
ATOM     55  C   UNL A   1      46.694  30.524  31.301  1.00  0.00     0.029 A 
ATOM     56  C   UNL A   1      45.387  30.233  30.939  1.00  0.00     0.049 A 
ATOM     57  H   UNL A   1      44.610  28.480  30.060  1.00  0.00     0.167 HD
ATOM     58  C   UNL A   1      42.968  30.714  30.675  1.00  0.00     0.074 A 
ATOM     59  C   UNL A   1      41.801  31.561  30.823  1.00  0.00     0.031 C 
ATOM     60  C   UNL A   1      44.215  31.057  31.080  1.00  0.00     0.037 A 
BRANCH  47  61
ATOM     61  C   UNL A   1      48.496  26.728  30.037  1.00  0.00     0.057 A 
ATOM     62  C   UNL A   1      49.430  27.058  29.047  1.00  0.00     0.134 A 
ATOM     63  C   UNL A   1      48.954  26.008  31.147  1.00  0.00     0.134 A 
ATOM     64  F   UNL A   1      49.049  27.732  27.951  1.00  0.00    -0.206 F 
ATOM     65  C   UNL A   1      50.766  26.667  29.144  1.00  0.00     0.040 A 
ATOM     66  C   UNL A   1      50.292  25.631  31.267  1.00  0.00     0.040 A 
ATOM     67  F   UNL A   1      48.110  25.663  32.131  1.00  0.00    -0.206 F 
ATOM     68  C   UNL A   1      51.201  25.956  30.261  1.00  0.00     0.006 A 
ENDBRANCH  47  61
BRANCH  48  69
ATOM     69  C   UNL A   1      38.841  29.093  29.114  1.00  0.00     0.057 A 
ATOM     70  C   UNL A   1      37.968  29.016  30.206  1.00  0.00     0.134 A 
ATOM     71  C   UNL A   1      38.316  29.533  27.895  1.00  0.00     0.134 A 
ATOM     72  F   UNL A   1      38.413  28.583  31.395  1.00  0.00    -0.206 F 
ATOM     73  C   UNL A   1      36.620  29.356  30.088  1.00  0.00     0.040 A 
ATOM     74  C   UNL A   1      36.973  29.893  27.767  1.00  0.00     0.040 A 
ATOM     75  F   UNL A   1      39.104  29.633  26.814  1.00  0.00    -0.206 F 
ATOM     76  C   UNL A   1      36.121  29.802  28.866  1.00  0.00     0.006 A 
ENDBRANCH  48  69
BRANCH  60  77
ATOM     77  C   UNL A   1      44.385  32.405  31.710  1.00  0.00     0.057 A 
ATOM     78  C   UNL A   1      44.637  33.546  30.939  1.00  0.00     0.134 A 
ATOM     79  C   UNL A   1      44.233  32.574  33.092  1.00  0.00     0.134 A 
ATOM     80  F   UNL A   1      44.803  33.446  29.611  1.00  0.00    -0.206 F 
ATOM     81  C   UNL A   1      44.745  34.808  31.523  1.00  0.00     0.040 A 
ATOM     82  C   UNL A   1      44.319  33.834  33.684  1.00  0.00     0.040 A 
ATOM     83  F   UNL A   1      43.983  31.519  33.883  1.00  0.00    -0.206 F 
ATOM     84  C   UNL A   1      44.577  34.955  32.899  1.00  0.00     0.006 A 
ENDBRANCH  60  77
ENDBRANCH  34  35
ENDBRANCH  26  29
ENDBRANCH  24  25
ENDBRANCH   1  24
TORSDOF 12
ENDMDL
MODEL 3
REMARK VINA RESULT:     -11.8      2.204      7.334
REMARK SMILES Cc1cc(C)c2c(c1)C=C(C(=O)NCCCCNC(=O)c1ccc(-c3c4nc(c(-c5c(F)cccc5F)c5ccc([nH]5)c(-c5c(F)cccc5F)c5nc(c(-c6c(F)cccc6F)c6ccc3[nH]6)C=C5)C=C4)cc1)[C@@H](C(F)(F)F)O2
REMARK SMILES IDX 16 1 15 2 14 3 13 4 11 5 12 6 10 8 1 9 2 10 3 11 8 12 4 13
REMARK SMILES IDX 7 14 5 15 6 16 9 17 80 18 75 19 76 20 77 21 78 22 79 23
REMARK SMILES IDX 17 24 18 25 19 26 20 28 21 29 22 30 74 31 23 32 73 33 24 34
REMARK SMILES IDX 25 35 26 36 67 37 27 38 72 39 66 40 68 41 28 42 71 43 65 44
REMARK SMILES IDX 64 45 29 47 55 48 38 49 54 50 39 51 42 52 53 53 69 54 40 55
REMARK SMILES IDX 41 56 52 58 70 59 43 60 30 61 31 62 36 63 32 64 33 65 35 66
REMARK SMILES IDX 37 67 34 68 56 69 57 70 62 71 58 72 59 73 61 74 63 75 60 76
REMARK SMILES IDX 44 77 45 78 50 79 46 80 47 81 49 82 51 83 48 84
REMARK H PARENT 13 7 18 27 68 46 42 57
REMARK Flexibility Score: inf
ROOT
ATOM      1  C   UNL A   1      37.856  20.202  24.873  1.00  0.00     0.023 C 
ENDROOT
BRANCH   1   2
ATOM      2  C   UNL A   1      37.069  21.467  24.519  1.00  0.00     0.023 C 
BRANCH   2   3
ATOM      3  C   UNL A   1      36.437  22.163  25.720  1.00  0.00     0.116 C 
BRANCH   3   4
ATOM      4  N   UNL A   1      35.018  21.883  25.823  1.00  0.00    -0.352 N 
ATOM      5  C   UNL A   1      33.861  22.546  25.584  1.00  0.00     0.251 C 
ATOM      6  O   UNL A   1      32.833  21.907  25.831  1.00  0.00    -0.270 OA
ATOM      7  H   UNL A   1      34.850  20.971  26.154  1.00  0.00     0.163 HD
BRANCH   5   8
ATOM      8  C   UNL A   1      33.758  23.941  25.063  1.00  0.00     0.067 C 
ATOM      9  C   UNL A   1      32.760  29.713  27.035  1.00  0.00     0.044 C 
ATOM     10  C   UNL A   1      33.125  28.639  26.054  1.00  0.00    -0.050 A 
ATOM     11  C   UNL A   1      33.335  28.948  24.703  1.00  0.00     0.010 A 
ATOM     12  C   UNL A   1      33.221  27.306  26.477  1.00  0.00     0.015 A 
ATOM     13  C   UNL A   1      33.659  27.946  23.778  1.00  0.00    -0.008 A 
ATOM     14  C   UNL A   1      33.533  26.294  25.564  1.00  0.00     0.018 A 
ATOM     15  C   UNL A   1      33.887  28.287  22.334  1.00  0.00     0.048 C 
ATOM     16  C   UNL A   1      33.747  26.621  24.223  1.00  0.00     0.130 A 
ATOM     17  C   UNL A   1      33.672  24.908  25.996  1.00  0.00     0.025 C 
ATOM     18  O   UNL A   1      34.091  25.672  23.299  1.00  0.00    -0.475 OA
ATOM     19  C   UNL A   1      33.702  24.307  23.607  1.00  0.00     0.314 C 
BRANCH  19  20
ATOM     20  C   UNL A   1      32.331  24.011  22.971  1.00  0.00     0.429 C 
ATOM     21  F   UNL A   1      31.346  24.114  23.899  1.00  0.00    -0.167 F 
ATOM     22  F   UNL A   1      32.018  24.888  21.986  1.00  0.00    -0.167 F 
ATOM     23  F   UNL A   1      32.254  22.774  22.433  1.00  0.00    -0.167 F 
ENDBRANCH  19  20
ENDBRANCH   5   8
ENDBRANCH   3   4
ENDBRANCH   2   3
ENDBRANCH   1   2
BRANCH   1  24
ATOM     24  C   UNL A   1      38.985  20.396  25.885  1.00  0.00     0.116 C 
BRANCH  24  25
ATOM     25  N   UNL A   1      40.036  19.393  25.792  1.00  0.00    -0.352 N 
ATOM     26  C   UNL A   1      41.369  19.534  26.089  1.00  0.00     0.251 C 
ATOM     27  H   UNL A   1      39.756  18.503  25.478  1.00  0.00     0.163 HD
ATOM     28  O   UNL A   1      42.161  18.619  25.892  1.00  0.00    -0.269 OA
BRANCH  26  29
ATOM     29  C   UNL A   1      41.843  20.828  26.611  1.00  0.00     0.039 A 
ATOM     30  C   UNL A   1      42.287  21.796  25.708  1.00  0.00     0.014 A 
ATOM     31  C   UNL A   1      41.782  21.099  27.981  1.00  0.00     0.014 A 
ATOM     32  C   UNL A   1      42.606  23.070  26.174  1.00  0.00     0.010 A 
ATOM     33  C   UNL A   1      42.045  22.385  28.436  1.00  0.00     0.010 A 
ATOM     34  C   UNL A   1      42.453  23.382  27.535  1.00  0.00    -0.014 A 
BRANCH  34  35
ATOM     35  C   UNL A   1      42.726  24.745  28.043  1.00  0.00     0.031 A 
ATOM     36  C   UNL A   1      44.125  25.128  28.429  1.00  0.00     0.074 A 
ATOM     37  C   UNL A   1      41.711  25.612  28.209  1.00  0.00     0.049 A 
ATOM     38  N   UNL A   1      44.556  26.236  28.973  1.00  0.00    -0.248 NA
ATOM     39  C   UNL A   1      45.172  24.121  28.196  1.00  0.00     0.031 C 
ATOM     40  C   UNL A   1      40.305  25.343  27.899  1.00  0.00     0.029 A 
ATOM     41  N   UNL A   1      41.705  26.898  28.687  1.00  0.00    -0.354 N 
ATOM     42  C   UNL A   1      45.921  26.056  29.157  1.00  0.00     0.074 A 
ATOM     43  C   UNL A   1      46.237  24.716  28.713  1.00  0.00     0.031 C 
ATOM     44  C   UNL A   1      39.579  26.438  28.169  1.00  0.00     0.029 A 
ATOM     45  C   UNL A   1      40.458  27.474  28.703  1.00  0.00     0.049 A 
ATOM     46  H   UNL A   1      42.517  27.364  28.991  1.00  0.00     0.167 HD
ATOM     47  C   UNL A   1      46.830  26.937  29.631  1.00  0.00     0.037 A 
ATOM     48  C   UNL A   1      40.072  28.699  29.104  1.00  0.00     0.037 A 
ATOM     49  C   UNL A   1      46.519  28.278  30.046  1.00  0.00     0.049 A 
ATOM     50  C   UNL A   1      41.100  29.656  29.637  1.00  0.00     0.074 A 
ATOM     51  C   UNL A   1      47.378  29.262  30.502  1.00  0.00     0.029 A 
ATOM     52  N   UNL A   1      45.244  28.824  30.048  1.00  0.00    -0.354 N 
ATOM     53  N   UNL A   1      42.393  29.484  29.778  1.00  0.00    -0.248 NA
ATOM     54  C   UNL A   1      40.618  30.975  30.070  1.00  0.00     0.031 C 
ATOM     55  C   UNL A   1      46.618  30.397  30.806  1.00  0.00     0.029 A 
ATOM     56  C   UNL A   1      45.291  30.129  30.509  1.00  0.00     0.049 A 
ATOM     57  H   UNL A   1      44.427  28.353  29.765  1.00  0.00     0.167 HD
ATOM     58  C   UNL A   1      42.880  30.674  30.301  1.00  0.00     0.074 A 
ATOM     59  C   UNL A   1      41.746  31.566  30.438  1.00  0.00     0.031 C 
ATOM     60  C   UNL A   1      44.151  30.998  30.640  1.00  0.00     0.037 A 
BRANCH  47  61
ATOM     61  C   UNL A   1      48.254  26.475  29.711  1.00  0.00     0.057 A 
ATOM     62  C   UNL A   1      48.746  25.813  30.843  1.00  0.00     0.134 A 
ATOM     63  C   UNL A   1      49.135  26.672  28.641  1.00  0.00     0.134 A 
ATOM     64  F   UNL A   1      47.956  25.610  31.908  1.00  0.00    -0.206 F 
ATOM     65  C   UNL A   1      50.071  25.382  30.918  1.00  0.00     0.040 A 
ATOM     66  C   UNL A   1      50.455  26.225  28.694  1.00  0.00     0.040 A 
ATOM     67  F   UNL A   1      48.724  27.298  27.527  1.00  0.00    -0.206 F 
ATOM     68  C   UNL A   1      50.928  25.583  29.838  1.00  0.00     0.006 A 
ENDBRANCH  47  61
BRANCH  48  69
ATOM     69  C   UNL A   1      38.650  29.101  28.986  1.00  0.00     0.057 A 
ATOM     70  C   UNL A   1      37.793  29.033  30.091  1.00  0.00     0.134 A 
ATOM     71  C   UNL A   1      38.116  29.569  27.781  1.00  0.00     0.134 A 
ATOM     72  F   UNL A   1      38.247  28.575  31.268  1.00  0.00    -0.206 F 
ATOM     73  C   UNL A   1      36.453  29.409  30.000  1.00  0.00     0.040 A 
ATOM     74  C   UNL A   1      36.780  29.965  27.680  1.00  0.00     0.040 A 
ATOM     75  F   UNL A   1      38.888  29.661  26.688  1.00  0.00    -0.206 F 
ATOM     76  C   UNL A   1      35.944  29.882  28.792  1.00  0.00     0.006 A 
ENDBRANCH  48  69
BRANCH  60  77
ATOM     77  C   UNL A   1      44.386  32.374  31.182  1.00  0.00     0.057 A 
ATOM     78  C   UNL A   1      44.631  33.461  30.335  1.00  0.00     0.134 A 
ATOM     79  C   UNL A   1      44.305  32.626  32.557  1.00  0.00     0.134 A 
ATOM     80  F   UNL A   1      44.731  33.281  29.009  1.00  0.00    -0.206 F 
ATOM     81  C   UNL A   1      44.800  34.752  30.838  1.00  0.00     0.040 A 
ATOM     82  C   UNL A   1      44.452  33.915  33.070  1.00  0.00     0.040 A 
ATOM     83  F   UNL A   1      44.065  31.627  33.419  1.00  0.00    -0.206 F 
ATOM     84  C   UNL A   1      44.701  34.981  32.209  1.00  0.00     0.006 A 
ENDBRANCH  60  77
ENDBRANCH  34  35
ENDBRANCH  26  29
ENDBRANCH  24  25
ENDBRANCH   1  24
TORSDOF 12
ENDMDL
