MODEL 1
REMARK VINA RESULT:     -10.6      0.000      0.000
REMARK SMILES CCCN(CC(=O)OC)C(=O)N1CC[C@H](C(=O)NCCCCNC(=O)c2ccc(-c3c4nc(c(-c5c(F)cccc5F)c5ccc([nH]5)c(-c5c(F)cccc5F)c5nc(c(-c6c(F)cccc6F)c6ccc3[nH]6)C=C5)C=C4)cc2)[C@H]1C
REMARK SMILES IDX 19 1 18 2 16 3 17 4 15 6 12 7 13 8 80 9 14 10 81 11 10 12
REMARK SMILES IDX 11 13 4 14 3 15 2 16 1 17 5 18 6 19 7 20 8 21 9 22 20 23
REMARK SMILES IDX 21 24 22 25 23 26 24 27 25 29 26 30 27 31 79 32 28 33 78 34
REMARK SMILES IDX 29 35 30 36 31 37 72 38 32 39 77 40 71 41 73 42 33 43 76 44
REMARK SMILES IDX 70 45 69 46 34 48 60 49 43 50 59 51 44 52 47 53 58 54 74 55
REMARK SMILES IDX 45 56 46 57 57 59 75 60 48 61 35 62 36 63 41 64 37 65 38 66
REMARK SMILES IDX 40 67 42 68 39 69 61 70 62 71 67 72 63 73 64 74 66 75 68 76
REMARK SMILES IDX 65 77 49 78 50 79 55 80 51 81 52 82 54 83 56 84 53 85
REMARK H PARENT 18 5 23 28 73 47 47 58
REMARK Flexibility Score: inf
ROOT
ATOM      1  C   UNL A   1      36.858  22.454  25.434  1.00  0.00     0.116 C 
ENDROOT
BRANCH   1   2
ATOM      2  N   UNL A   1      35.953  22.007  26.475  1.00  0.00    -0.356 N 
ATOM      3  C   UNL A   1      34.626  21.698  26.393  1.00  0.00     0.225 C 
ATOM      4  O   UNL A   1      34.033  21.442  27.438  1.00  0.00    -0.275 OA
ATOM      5  H   UNL A   1      36.354  21.911  27.370  1.00  0.00     0.163 HD
BRANCH   3   6
ATOM      6  C   UNL A   1      33.935  21.786  25.039  1.00  0.00     0.102 C 
ATOM      7  N   UNL A   1      32.045  23.219  25.303  1.00  0.00    -0.321 N 
ATOM      8  C   UNL A   1      31.592  21.848  25.506  1.00  0.00     0.122 C 
ATOM      9  C   UNL A   1      33.411  23.208  24.740  1.00  0.00     0.096 C 
ATOM     10  C   UNL A   1      32.663  20.945  24.930  1.00  0.00     0.037 C 
ATOM     11  C   UNL A   1      33.442  23.405  23.216  1.00  0.00     0.032 C 
BRANCH   7  12
ATOM     12  C   UNL A   1      31.617  24.114  26.279  1.00  0.00     0.320 C 
ATOM     13  O   UNL A   1      31.346  23.719  27.417  1.00  0.00    -0.248 OA
BRANCH  12  14
ATOM     14  N   UNL A   1      31.320  25.411  25.902  1.00  0.00    -0.314 N 
BRANCH  14  15
ATOM     15  C   UNL A   1      32.300  26.453  26.211  1.00  0.00     0.122 C 
BRANCH  15  16
ATOM     16  C   UNL A   1      31.717  27.564  27.102  1.00  0.00     0.018 C 
ATOM     17  C   UNL A   1      31.805  28.959  26.492  1.00  0.00     0.006 C 
ENDBRANCH  15  16
ENDBRANCH  14  15
BRANCH  14  18
ATOM     18  C   UNL A   1      30.083  25.849  25.259  1.00  0.00     0.243 C 
BRANCH  18  19
ATOM     19  C   UNL A   1      30.287  26.451  23.863  1.00  0.00     0.325 C 
ATOM     20  O   UNL A   1      30.965  25.908  22.996  1.00  0.00    -0.250 OA
BRANCH  19  21
ATOM     21  O   UNL A   1      29.639  27.636  23.714  1.00  0.00    -0.468 OA
ATOM     22  C   UNL A   1      30.189  28.587  22.797  1.00  0.00     0.282 C 
ENDBRANCH  19  21
ENDBRANCH  18  19
ENDBRANCH  14  18
ENDBRANCH  12  14
ENDBRANCH   7  12
ENDBRANCH   3   6
ENDBRANCH   1   2
BRANCH   1  23
ATOM     23  C   UNL A   1      37.159  21.361  24.415  1.00  0.00     0.023 C 
BRANCH  23  24
ATOM     24  C   UNL A   1      37.857  20.123  24.976  1.00  0.00     0.023 C 
BRANCH  24  25
ATOM     25  C   UNL A   1      39.068  20.403  25.860  1.00  0.00     0.116 C 
BRANCH  25  26
ATOM     26  N   UNL A   1      40.033  19.315  25.856  1.00  0.00    -0.352 N 
ATOM     27  C   UNL A   1      41.391  19.347  26.081  1.00  0.00     0.251 C 
ATOM     28  H   UNL A   1      39.661  18.424  25.664  1.00  0.00     0.163 HD
ATOM     29  O   UNL A   1      42.070  18.349  25.891  1.00  0.00    -0.269 OA
BRANCH  27  30
ATOM     30  C   UNL A   1      42.033  20.606  26.519  1.00  0.00     0.039 A 
ATOM     31  C   UNL A   1      42.583  21.456  25.555  1.00  0.00     0.014 A 
ATOM     32  C   UNL A   1      42.072  20.959  27.869  1.00  0.00     0.014 A 
ATOM     33  C   UNL A   1      43.096  22.697  25.938  1.00  0.00     0.010 A 
ATOM     34  C   UNL A   1      42.508  22.228  28.238  1.00  0.00     0.010 A 
ATOM     35  C   UNL A   1      43.019  23.114  27.277  1.00  0.00    -0.014 A 
BRANCH  35  36
ATOM     36  C   UNL A   1      43.451  24.473  27.694  1.00  0.00     0.031 A 
ATOM     37  C   UNL A   1      42.428  25.509  28.067  1.00  0.00     0.074 A 
ATOM     38  C   UNL A   1      44.757  24.804  27.647  1.00  0.00     0.049 A 
ATOM     39  N   UNL A   1      42.598  26.776  28.347  1.00  0.00    -0.248 NA
ATOM     40  C   UNL A   1      41.024  25.069  28.099  1.00  0.00     0.031 C 
ATOM     41  C   UNL A   1      45.845  23.905  27.257  1.00  0.00     0.029 A 
ATOM     42  N   UNL A   1      45.388  25.994  27.911  1.00  0.00    -0.354 N 
ATOM     43  C   UNL A   1      41.324  27.289  28.565  1.00  0.00     0.074 A 
ATOM     44  C   UNL A   1      40.390  26.207  28.338  1.00  0.00     0.031 C 
ATOM     45  C   UNL A   1      47.008  24.571  27.313  1.00  0.00     0.029 A 
ATOM     46  C   UNL A   1      46.746  25.954  27.701  1.00  0.00     0.049 A 
ATOM     47  H   UNL A   1      44.914  26.799  28.219  1.00  0.00     0.167 HD
ATOM     48  C   UNL A   1      40.969  28.541  28.935  1.00  0.00     0.037 A 
ATOM     49  C   UNL A   1      47.675  26.926  27.791  1.00  0.00     0.037 A 
ATOM     50  C   UNL A   1      41.903  29.608  29.183  1.00  0.00     0.049 A 
ATOM     51  C   UNL A   1      47.256  28.311  28.198  1.00  0.00     0.074 A 
ATOM     52  C   UNL A   1      41.646  30.889  29.639  1.00  0.00     0.029 A 
ATOM     53  N   UNL A   1      43.273  29.520  28.987  1.00  0.00    -0.354 N 
ATOM     54  N   UNL A   1      46.056  28.762  28.479  1.00  0.00    -0.248 NA
ATOM     55  C   UNL A   1      48.317  29.324  28.303  1.00  0.00     0.031 C 
ATOM     56  C   UNL A   1      42.853  31.594  29.664  1.00  0.00     0.029 A 
ATOM     57  C   UNL A   1      43.871  30.735  29.282  1.00  0.00     0.049 A 
ATOM     58  H   UNL A   1      43.750  28.714  28.683  1.00  0.00     0.167 HD
ATOM     59  C   UNL A   1      46.222  30.098  28.822  1.00  0.00     0.074 A 
ATOM     60  C   UNL A   1      47.638  30.383  28.723  1.00  0.00     0.031 C 
ATOM     61  C   UNL A   1      45.283  31.005  29.187  1.00  0.00     0.037 A 
BRANCH  48  62
ATOM     62  C   UNL A   1      39.503  28.829  29.089  1.00  0.00     0.057 A 
ATOM     63  C   UNL A   1      38.843  28.696  30.318  1.00  0.00     0.134 A 
ATOM     64  C   UNL A   1      38.747  29.280  27.998  1.00  0.00     0.134 A 
ATOM     65  F   UNL A   1      39.505  28.260  31.401  1.00  0.00    -0.206 F 
ATOM     66  C   UNL A   1      37.480  28.966  30.449  1.00  0.00     0.040 A 
ATOM     67  C   UNL A   1      37.391  29.583  28.123  1.00  0.00     0.040 A 
ATOM     68  F   UNL A   1      39.317  29.440  26.794  1.00  0.00    -0.206 F 
ATOM     69  C   UNL A   1      36.752  29.418  29.350  1.00  0.00     0.006 A 
ENDBRANCH  48  62
BRANCH  49  70
ATOM     70  C   UNL A   1      49.098  26.619  27.494  1.00  0.00     0.057 A 
ATOM     71  C   UNL A   1      49.636  26.843  26.222  1.00  0.00     0.134 A 
ATOM     72  C   UNL A   1      49.954  26.099  28.473  1.00  0.00     0.134 A 
ATOM     73  F   UNL A   1      48.861  27.321  25.236  1.00  0.00    -0.206 F 
ATOM     74  C   UNL A   1      50.968  26.546  25.928  1.00  0.00     0.040 A 
ATOM     75  C   UNL A   1      51.295  25.823  28.201  1.00  0.00     0.040 A 
ATOM     76  F   UNL A   1      49.502  25.870  29.715  1.00  0.00    -0.206 F 
ATOM     77  C   UNL A   1      51.803  26.041  26.922  1.00  0.00     0.006 A 
ENDBRANCH  49  70
BRANCH  61  78
ATOM     78  C   UNL A   1      45.753  32.384  29.547  1.00  0.00     0.057 A 
ATOM     79  C   UNL A   1      46.163  32.713  30.845  1.00  0.00     0.134 A 
ATOM     80  C   UNL A   1      45.859  33.377  28.564  1.00  0.00     0.134 A 
ATOM     81  F   UNL A   1      46.075  31.813  31.836  1.00  0.00    -0.206 F 
ATOM     82  C   UNL A   1      46.647  33.986  31.155  1.00  0.00     0.040 A 
ATOM     83  C   UNL A   1      46.367  34.643  28.856  1.00  0.00     0.040 A 
ATOM     84  F   UNL A   1      45.493  33.124  27.298  1.00  0.00    -0.206 F 
ATOM     85  C   UNL A   1      46.761  34.951  30.156  1.00  0.00     0.006 A 
ENDBRANCH  61  78
ENDBRANCH  35  36
ENDBRANCH  27  30
ENDBRANCH  25  26
ENDBRANCH  24  25
ENDBRANCH  23  24
ENDBRANCH   1  23
TORSDOF 18
ENDMDL
MODEL 2
REMARK VINA RESULT:     -10.4      4.770      9.326
REMARK SMILES CCCN(CC(=O)OC)C(=O)N1CC[C@H](C(=O)NCCCCNC(=O)c2ccc(-c3c4nc(c(-c5c(F)cccc5F)c5ccc([nH]5)c(-c5c(F)cccc5F)c5nc(c(-c6c(F)cccc6F)c6ccc3[nH]6)C=C5)C=C4)cc2)[C@H]1C
REMARK SMILES IDX 19 1 18 2 16 3 17 4 15 6 12 7 13 8 80 9 14 10 81 11 10 12
REMARK SMILES IDX 11 13 4 14 3 15 2 16 1 17 5 18 6 19 7 20 8 21 9 22 20 23
REMARK SMILES IDX 21 24 22 25 23 26 24 27 25 29 26 30 27 31 79 32 28 33 78 34
REMARK SMILES IDX 29 35 30 36 31 37 72 38 32 39 77 40 71 41 73 42 33 43 76 44
REMARK SMILES IDX 70 45 69 46 34 48 60 49 43 50 59 51 44 52 47 53 58 54 74 55
REMARK SMILES IDX 45 56 46 57 57 59 75 60 48 61 35 62 36 63 41 64 37 65 38 66
REMARK SMILES IDX 40 67 42 68 39 69 61 70 62 71 67 72 63 73 64 74 66 75 68 76
REMARK SMILES IDX 65 77 49 78 50 79 55 80 51 81 52 82 54 83 56 84 53 85
REMARK H PARENT 18 5 23 28 73 47 47 58
REMARK Flexibility Score: inf
ROOT
ATOM      1  C   UNL A   1      32.637  29.970  25.852  1.00  0.00     0.116 C 
ENDROOT
BRANCH   1   2
ATOM      2  N   UNL A   1      33.187  29.673  24.544  1.00  0.00    -0.356 N 
ATOM      3  C   UNL A   1      32.755  28.778  23.608  1.00  0.00     0.225 C 
ATOM      4  O   UNL A   1      33.448  28.619  22.606  1.00  0.00    -0.275 OA
ATOM      5  H   UNL A   1      33.986  30.192  24.294  1.00  0.00     0.163 HD
BRANCH   3   6
ATOM      6  C   UNL A   1      31.505  27.958  23.899  1.00  0.00     0.102 C 
ATOM      7  N   UNL A   1      32.009  25.688  23.361  1.00  0.00    -0.321 N 
ATOM      8  C   UNL A   1      31.402  26.297  22.184  1.00  0.00     0.122 C 
ATOM      9  C   UNL A   1      31.838  26.585  24.523  1.00  0.00     0.096 C 
ATOM     10  C   UNL A   1      30.713  27.562  22.653  1.00  0.00     0.037 C 
ATOM     11  C   UNL A   1      30.661  26.187  25.428  1.00  0.00     0.032 C 
BRANCH   7  12
ATOM     12  C   UNL A   1      33.175  24.974  23.100  1.00  0.00     0.320 C 
ATOM     13  O   UNL A   1      33.997  25.393  22.279  1.00  0.00    -0.248 OA
BRANCH  12  14
ATOM     14  N   UNL A   1      33.304  23.703  23.628  1.00  0.00    -0.314 N 
BRANCH  14  15
ATOM     15  C   UNL A   1      34.626  23.294  24.105  1.00  0.00     0.122 C 
BRANCH  15  16
ATOM     16  C   UNL A   1      35.118  24.153  25.283  1.00  0.00     0.018 C 
ATOM     17  C   UNL A   1      36.502  23.770  25.796  1.00  0.00     0.006 C 
ENDBRANCH  15  16
ENDBRANCH  14  15
BRANCH  14  18
ATOM     18  C   UNL A   1      32.242  22.703  23.712  1.00  0.00     0.243 C 
BRANCH  18  19
ATOM     19  C   UNL A   1      31.899  22.279  25.146  1.00  0.00     0.325 C 
ATOM     20  O   UNL A   1      31.830  23.074  26.078  1.00  0.00    -0.250 OA
BRANCH  19  21
ATOM     21  O   UNL A   1      31.690  20.939  25.250  1.00  0.00    -0.468 OA
ATOM     22  C   UNL A   1      32.467  20.076  24.415  1.00  0.00     0.282 C 
ENDBRANCH  19  21
ENDBRANCH  18  19
ENDBRANCH  14  18
ENDBRANCH  12  14
ENDBRANCH   7  12
ENDBRANCH   3   6
ENDBRANCH   1   2
BRANCH   1  23
ATOM     23  C   UNL A   1      31.397  30.854  25.776  1.00  0.00     0.023 C 
BRANCH  23  24
ATOM     24  C   UNL A   1      31.313  31.948  26.839  1.00  0.00     0.023 C 
BRANCH  24  25
ATOM     25  C   UNL A   1      32.637  32.620  27.187  1.00  0.00     0.116 C 
BRANCH  25  26
ATOM     26  N   UNL A   1      32.481  34.017  27.563  1.00  0.00    -0.352 N 
ATOM     27  C   UNL A   1      33.143  34.745  28.525  1.00  0.00     0.251 C 
ATOM     28  H   UNL A   1      31.801  34.514  27.055  1.00  0.00     0.163 HD
ATOM     29  O   UNL A   1      32.775  35.876  28.803  1.00  0.00    -0.269 OA
BRANCH  27  30
ATOM     30  C   UNL A   1      34.283  34.139  29.250  1.00  0.00     0.039 A 
ATOM     31  C   UNL A   1      34.026  33.348  30.373  1.00  0.00     0.014 A 
ATOM     32  C   UNL A   1      35.595  34.330  28.812  1.00  0.00     0.014 A 
ATOM     33  C   UNL A   1      35.077  32.680  31.005  1.00  0.00     0.010 A 
ATOM     34  C   UNL A   1      36.628  33.601  29.392  1.00  0.00     0.010 A 
ATOM     35  C   UNL A   1      36.381  32.763  30.491  1.00  0.00    -0.014 A 
BRANCH  35  36
ATOM     36  C   UNL A   1      37.498  31.975  31.071  1.00  0.00     0.031 A 
ATOM     37  C   UNL A   1      38.034  32.315  32.434  1.00  0.00     0.074 A 
ATOM     38  C   UNL A   1      38.093  31.015  30.336  1.00  0.00     0.049 A 
ATOM     39  N   UNL A   1      39.071  31.822  33.062  1.00  0.00    -0.248 NA
ATOM     40  C   UNL A   1      37.327  33.370  33.177  1.00  0.00     0.031 C 
ATOM     41  C   UNL A   1      37.701  30.621  28.981  1.00  0.00     0.029 A 
ATOM     42  N   UNL A   1      39.170  30.211  30.616  1.00  0.00    -0.354 N 
ATOM     43  C   UNL A   1      39.155  32.522  34.260  1.00  0.00     0.074 A 
ATOM     44  C   UNL A   1      38.093  33.505  34.249  1.00  0.00     0.031 C 
ATOM     45  C   UNL A   1      38.518  29.647  28.552  1.00  0.00     0.029 A 
ATOM     46  C   UNL A   1      39.518  29.377  29.581  1.00  0.00     0.049 A 
ATOM     47  H   UNL A   1      39.648  30.230  31.476  1.00  0.00     0.167 HD
ATOM     48  C   UNL A   1      40.027  32.349  35.282  1.00  0.00     0.037 A 
ATOM     49  C   UNL A   1      40.539  28.505  29.463  1.00  0.00     0.037 A 
ATOM     50  C   UNL A   1      41.066  31.354  35.298  1.00  0.00     0.049 A 
ATOM     51  C   UNL A   1      41.499  28.336  30.607  1.00  0.00     0.074 A 
ATOM     52  C   UNL A   1      41.950  31.048  36.319  1.00  0.00     0.029 A 
ATOM     53  N   UNL A   1      41.369  30.509  34.242  1.00  0.00    -0.354 N 
ATOM     54  N   UNL A   1      41.518  28.948  31.767  1.00  0.00    -0.248 NA
ATOM     55  C   UNL A   1      42.578  27.353  30.431  1.00  0.00     0.031 C 
ATOM     56  C   UNL A   1      42.823  30.058  35.860  1.00  0.00     0.029 A 
ATOM     57  C   UNL A   1      42.446  29.703  34.574  1.00  0.00     0.049 A 
ATOM     58  H   UNL A   1      40.889  30.484  33.382  1.00  0.00     0.167 HD
ATOM     59  C   UNL A   1      42.588  28.406  32.467  1.00  0.00     0.074 A 
ATOM     60  C   UNL A   1      43.189  27.409  31.606  1.00  0.00     0.031 C 
ATOM     61  C   UNL A   1      43.031  28.708  33.712  1.00  0.00     0.037 A 
BRANCH  48  62
ATOM     62  C   UNL A   1      39.898  33.264  36.465  1.00  0.00     0.057 A 
ATOM     63  C   UNL A   1      40.623  34.460  36.564  1.00  0.00     0.134 A 
ATOM     64  C   UNL A   1      39.010  32.962  37.506  1.00  0.00     0.134 A 
ATOM     65  F   UNL A   1      41.498  34.806  35.607  1.00  0.00    -0.206 F 
ATOM     66  C   UNL A   1      40.495  35.303  37.669  1.00  0.00     0.040 A 
ATOM     67  C   UNL A   1      38.850  33.812  38.601  1.00  0.00     0.040 A 
ATOM     68  F   UNL A   1      38.277  31.839  37.472  1.00  0.00    -0.206 F 
ATOM     69  C   UNL A   1      39.600  34.983  38.688  1.00  0.00     0.006 A 
ENDBRANCH  48  62
BRANCH  49  70
ATOM     70  C   UNL A   1      40.702  27.722  28.212  1.00  0.00     0.057 A 
ATOM     71  C   UNL A   1      41.453  28.217  27.140  1.00  0.00     0.134 A 
ATOM     72  C   UNL A   1      40.115  26.460  28.057  1.00  0.00     0.134 A 
ATOM     73  F   UNL A   1      42.024  29.428  27.219  1.00  0.00    -0.206 F 
ATOM     74  C   UNL A   1      41.603  27.494  25.955  1.00  0.00     0.040 A 
ATOM     75  C   UNL A   1      40.278  25.714  26.889  1.00  0.00     0.040 A 
ATOM     76  F   UNL A   1      39.389  25.924  29.050  1.00  0.00    -0.206 F 
ATOM     77  C   UNL A   1      41.019  26.235  25.830  1.00  0.00     0.006 A 
ENDBRANCH  49  70
BRANCH  61  78
ATOM     78  C   UNL A   1      44.199  27.928  34.241  1.00  0.00     0.057 A 
ATOM     79  C   UNL A   1      45.515  28.392  34.125  1.00  0.00     0.134 A 
ATOM     80  C   UNL A   1      43.995  26.727  34.934  1.00  0.00     0.134 A 
ATOM     81  F   UNL A   1      45.780  29.528  33.463  1.00  0.00    -0.206 F 
ATOM     82  C   UNL A   1      46.588  27.682  34.668  1.00  0.00     0.040 A 
ATOM     83  C   UNL A   1      45.056  26.023  35.504  1.00  0.00     0.040 A 
ATOM     84  F   UNL A   1      42.758  26.232  35.090  1.00  0.00    -0.206 F 
ATOM     85  C   UNL A   1      46.359  26.499  35.368  1.00  0.00     0.006 A 
ENDBRANCH  61  78
ENDBRANCH  35  36
ENDBRANCH  27  30
ENDBRANCH  25  26
ENDBRANCH  24  25
ENDBRANCH  23  24
ENDBRANCH   1  23
TORSDOF 18
ENDMDL
MODEL 3
REMARK VINA RESULT:     -10.4      0.838      1.633
REMARK SMILES CCCN(CC(=O)OC)C(=O)N1CC[C@H](C(=O)NCCCCNC(=O)c2ccc(-c3c4nc(c(-c5c(F)cccc5F)c5ccc([nH]5)c(-c5c(F)cccc5F)c5nc(c(-c6c(F)cccc6F)c6ccc3[nH]6)C=C5)C=C4)cc2)[C@H]1C
REMARK SMILES IDX 19 1 18 2 16 3 17 4 15 6 12 7 13 8 80 9 14 10 81 11 10 12
REMARK SMILES IDX 11 13 4 14 3 15 2 16 1 17 5 18 6 19 7 20 8 21 9 22 20 23
REMARK SMILES IDX 21 24 22 25 23 26 24 27 25 29 26 30 27 31 79 32 28 33 78 34
REMARK SMILES IDX 29 35 30 36 31 37 72 38 32 39 77 40 71 41 73 42 33 43 76 44
REMARK SMILES IDX 70 45 69 46 34 48 60 49 43 50 59 51 44 52 47 53 58 54 74 55
REMARK SMILES IDX 45 56 46 57 57 59 75 60 48 61 35 62 36 63 41 64 37 65 38 66
REMARK SMILES IDX 40 67 42 68 39 69 61 70 62 71 67 72 63 73 64 74 66 75 68 76
REMARK SMILES IDX 65 77 49 78 50 79 55 80 51 81 52 82 54 83 56 84 53 85
REMARK H PARENT 18 5 23 28 73 47 47 58
REMARK Flexibility Score: inf
ROOT
ATOM      1  C   UNL A   1      36.736  22.043  25.419  1.00  0.00     0.116 C 
ENDROOT
BRANCH   1   2
ATOM      2  N   UNL A   1      35.816  22.284  26.512  1.00  0.00    -0.356 N 
ATOM      3  C   UNL A   1      34.459  22.432  26.483  1.00  0.00     0.225 C 
ATOM      4  O   UNL A   1      33.894  22.738  27.530  1.00  0.00    -0.275 OA
ATOM      5  H   UNL A   1      36.227  22.350  27.404  1.00  0.00     0.163 HD
BRANCH   3   6
ATOM      6  C   UNL A   1      33.736  22.310  25.147  1.00  0.00     0.102 C 
ATOM      7  N   UNL A   1      31.704  23.549  25.329  1.00  0.00    -0.321 N 
ATOM      8  C   UNL A   1      31.411  22.163  25.677  1.00  0.00     0.122 C 
ATOM      9  C   UNL A   1      33.053  23.630  24.730  1.00  0.00     0.096 C 
ATOM     10  C   UNL A   1      32.564  21.329  25.158  1.00  0.00     0.037 C 
ATOM     11  C   UNL A   1      33.032  23.678  23.193  1.00  0.00     0.032 C 
BRANCH   7  12
ATOM     12  C   UNL A   1      31.199  24.484  26.227  1.00  0.00     0.320 C 
ATOM     13  O   UNL A   1      30.673  24.120  27.283  1.00  0.00    -0.248 OA
BRANCH  12  14
ATOM     14  N   UNL A   1      31.125  25.807  25.831  1.00  0.00    -0.314 N 
BRANCH  14  15
ATOM     15  C   UNL A   1      29.958  26.220  25.050  1.00  0.00     0.122 C 
BRANCH  15  16
ATOM     16  C   UNL A   1      30.348  26.877  23.714  1.00  0.00     0.018 C 
ATOM     17  C   UNL A   1      29.296  27.834  23.162  1.00  0.00     0.006 C 
ENDBRANCH  15  16
ENDBRANCH  14  15
BRANCH  14  18
ATOM     18  C   UNL A   1      32.137  26.830  26.083  1.00  0.00     0.243 C 
BRANCH  18  19
ATOM     19  C   UNL A   1      31.646  27.988  26.960  1.00  0.00     0.325 C 
ATOM     20  O   UNL A   1      31.062  27.817  28.025  1.00  0.00    -0.250 OA
BRANCH  19  21
ATOM     21  O   UNL A   1      31.931  29.202  26.417  1.00  0.00    -0.468 OA
ATOM     22  C   UNL A   1      32.717  30.111  27.192  1.00  0.00     0.282 C 
ENDBRANCH  19  21
ENDBRANCH  18  19
ENDBRANCH  14  18
ENDBRANCH  12  14
ENDBRANCH   7  12
ENDBRANCH   3   6
ENDBRANCH   1   2
BRANCH   1  23
ATOM     23  C   UNL A   1      36.783  20.575  25.008  1.00  0.00     0.023 C 
BRANCH  23  24
ATOM     24  C   UNL A   1      38.175  20.034  24.689  1.00  0.00     0.023 C 
BRANCH  24  25
ATOM     25  C   UNL A   1      39.224  20.254  25.774  1.00  0.00     0.116 C 
BRANCH  25  26
ATOM     26  N   UNL A   1      40.163  19.149  25.886  1.00  0.00    -0.352 N 
ATOM     27  C   UNL A   1      41.510  19.168  26.167  1.00  0.00     0.251 C 
ATOM     28  H   UNL A   1      39.778  18.255  25.739  1.00  0.00     0.163 HD
ATOM     29  O   UNL A   1      42.173  18.145  26.075  1.00  0.00    -0.269 OA
BRANCH  27  30
ATOM     30  C   UNL A   1      42.162  20.441  26.547  1.00  0.00     0.039 A 
ATOM     31  C   UNL A   1      42.736  21.231  25.547  1.00  0.00     0.014 A 
ATOM     32  C   UNL A   1      42.190  20.864  27.877  1.00  0.00     0.014 A 
ATOM     33  C   UNL A   1      43.260  22.485  25.870  1.00  0.00     0.010 A 
ATOM     34  C   UNL A   1      42.637  22.145  28.184  1.00  0.00     0.010 A 
ATOM     35  C   UNL A   1      43.172  22.972  27.185  1.00  0.00    -0.014 A 
BRANCH  35  36
ATOM     36  C   UNL A   1      43.616  24.346  27.536  1.00  0.00     0.031 A 
ATOM     37  C   UNL A   1      42.607  25.389  27.927  1.00  0.00     0.074 A 
ATOM     38  C   UNL A   1      44.916  24.681  27.412  1.00  0.00     0.049 A 
ATOM     39  N   UNL A   1      42.783  26.665  28.157  1.00  0.00    -0.248 NA
ATOM     40  C   UNL A   1      41.210  24.944  28.045  1.00  0.00     0.031 C 
ATOM     41  C   UNL A   1      45.988  23.775  26.995  1.00  0.00     0.029 A 
ATOM     42  N   UNL A   1      45.553  25.882  27.604  1.00  0.00    -0.354 N 
ATOM     43  C   UNL A   1      41.520  27.179  28.422  1.00  0.00     0.074 A 
ATOM     44  C   UNL A   1      40.582  26.087  28.279  1.00  0.00     0.031 C 
ATOM     45  C   UNL A   1      47.149  24.448  26.971  1.00  0.00     0.029 A 
ATOM     46  C   UNL A   1      46.898  25.842  27.327  1.00  0.00     0.049 A 
ATOM     47  H   UNL A   1      45.090  26.695  27.910  1.00  0.00     0.167 HD
ATOM     48  C   UNL A   1      41.176  28.442  28.771  1.00  0.00     0.037 A 
ATOM     49  C   UNL A   1      47.825  26.820  27.338  1.00  0.00     0.037 A 
ATOM     50  C   UNL A   1      42.115  29.519  28.936  1.00  0.00     0.049 A 
ATOM     51  C   UNL A   1      47.418  28.216  27.721  1.00  0.00     0.074 A 
ATOM     52  C   UNL A   1      41.874  30.814  29.363  1.00  0.00     0.029 A 
ATOM     53  N   UNL A   1      43.474  29.432  28.673  1.00  0.00    -0.354 N 
ATOM     54  N   UNL A   1      46.232  28.670  28.048  1.00  0.00    -0.248 NA
ATOM     55  C   UNL A   1      48.477  29.236  27.739  1.00  0.00     0.031 C 
ATOM     56  C   UNL A   1      43.076  31.524  29.304  1.00  0.00     0.029 A 
ATOM     57  C   UNL A   1      44.078  30.658  28.898  1.00  0.00     0.049 A 
ATOM     58  H   UNL A   1      43.940  28.618  28.371  1.00  0.00     0.167 HD
ATOM     59  C   UNL A   1      46.407  30.017  28.339  1.00  0.00     0.074 A 
ATOM     60  C   UNL A   1      47.814  30.305  28.159  1.00  0.00     0.031 C 
ATOM     61  C   UNL A   1      45.482  30.931  28.723  1.00  0.00     0.037 A 
BRANCH  48  62
ATOM     62  C   UNL A   1      39.718  28.728  28.989  1.00  0.00     0.057 A 
ATOM     63  C   UNL A   1      39.110  28.576  30.243  1.00  0.00     0.134 A 
ATOM     64  C   UNL A   1      38.918  29.195  27.938  1.00  0.00     0.134 A 
ATOM     65  F   UNL A   1      39.815  28.124  31.291  1.00  0.00    -0.206 F 
ATOM     66  C   UNL A   1      37.754  28.845  30.434  1.00  0.00     0.040 A 
ATOM     67  C   UNL A   1      37.568  29.497  28.124  1.00  0.00     0.040 A 
ATOM     68  F   UNL A   1      39.437  29.372  26.713  1.00  0.00    -0.206 F 
ATOM     69  C   UNL A   1      36.980  29.314  29.374  1.00  0.00     0.006 A 
ENDBRANCH  48  62
BRANCH  49  70
ATOM     70  C   UNL A   1      49.232  26.510  26.978  1.00  0.00     0.057 A 
ATOM     71  C   UNL A   1      49.714  26.731  25.683  1.00  0.00     0.134 A 
ATOM     72  C   UNL A   1      50.130  25.989  27.919  1.00  0.00     0.134 A 
ATOM     73  F   UNL A   1      48.898  27.210  24.732  1.00  0.00    -0.206 F 
ATOM     74  C   UNL A   1      51.031  26.432  25.331  1.00  0.00     0.040 A 
ATOM     75  C   UNL A   1      51.457  25.711  27.589  1.00  0.00     0.040 A 
ATOM     76  F   UNL A   1      49.733  25.763  29.180  1.00  0.00    -0.206 F 
ATOM     77  C   UNL A   1      51.909  25.926  26.288  1.00  0.00     0.006 A 
ENDBRANCH  49  70
BRANCH  61  78
ATOM     78  C   UNL A   1      45.962  32.323  29.013  1.00  0.00     0.057 A 
ATOM     79  C   UNL A   1      45.973  33.324  28.033  1.00  0.00     0.134 A 
ATOM     80  C   UNL A   1      46.357  32.682  30.309  1.00  0.00     0.134 A 
ATOM     81  F   UNL A   1      45.619  33.044  26.770  1.00  0.00    -0.206 F 
ATOM     82  C   UNL A   1      46.373  34.629  28.329  1.00  0.00     0.040 A 
ATOM     83  C   UNL A   1      46.733  33.989  30.622  1.00  0.00     0.040 A 
ATOM     84  F   UNL A   1      46.361  31.774  31.296  1.00  0.00    -0.206 F 
ATOM     85  C   UNL A   1      46.744  34.966  29.629  1.00  0.00     0.006 A 
ENDBRANCH  61  78
ENDBRANCH  35  36
ENDBRANCH  27  30
ENDBRANCH  25  26
ENDBRANCH  24  25
ENDBRANCH  23  24
ENDBRANCH   1  23
TORSDOF 18
ENDMDL
