MODEL 1
REMARK VINA RESULT:     -12.4      0.000      0.000
REMARK SMILES O=C(NCCCCNC(=O)[C@H]1Cc2[nH]cnc2CN1C(=O)c1ccncc1Cl)c1ccc(-c2c3nc(c(-c4c(F)cccc4F)c4ccc([nH]4)c(-c4c(F)cccc4F)c4nc(c(-c5c(F)cccc5F)c5ccc2[nH]5)C=C4)C=C3)cc1
REMARK SMILES IDX 5 1 4 2 3 3 1 4 2 5 29 7 30 8 82 9 31 10 81 11 32 12 33 13
REMARK SMILES IDX 34 14 75 15 35 16 80 17 74 18 76 19 36 20 79 21 73 22 72 23
REMARK SMILES IDX 37 25 63 26 46 27 62 28 47 29 50 30 61 31 77 32 48 33 49 34
REMARK SMILES IDX 60 36 78 37 51 38 38 39 39 40 44 41 40 42 41 43 43 44 45 45
REMARK SMILES IDX 42 46 64 47 65 48 70 49 66 50 67 51 69 52 71 53 68 54 52 55
REMARK SMILES IDX 53 56 58 57 54 58 55 59 57 60 59 61 56 62 6 63 7 64 8 65
REMARK SMILES IDX 9 66 10 68 11 69 12 70 19 71 13 72 18 73 14 74 17 75 15 76
REMARK SMILES IDX 16 78 20 79 21 80 22 81 23 82 27 83 24 84 26 85 28 86 25 87
REMARK H PARENT 3 6 76 24 50 35 8 67 14 77
REMARK Flexibility Score: inf
ROOT
ATOM      1  C   UNL A   1      39.700  21.605  26.157  1.00  0.00     0.023 C 
ENDROOT
BRANCH   1   2
ATOM      2  C   UNL A   1      41.173  21.378  26.458  1.00  0.00     0.116 C 
BRANCH   2   3
ATOM      3  N   UNL A   1      42.050  22.103  25.562  1.00  0.00    -0.352 N 
ATOM      4  O   UNL A   1      43.309  23.547  24.499  1.00  0.00    -0.269 OA
ATOM      5  C   UNL A   1      42.574  23.360  25.484  1.00  0.00     0.251 C 
ATOM      6  H   UNL A   1      42.346  21.539  24.812  1.00  0.00     0.163 HD
BRANCH   5   7
ATOM      7  C   UNL A   1      42.350  24.512  26.408  1.00  0.00     0.039 A 
ATOM      8  C   UNL A   1      42.906  24.709  27.674  1.00  0.00     0.014 A 
ATOM      9  C   UNL A   1      41.513  25.531  25.897  1.00  0.00     0.014 A 
ATOM     10  C   UNL A   1      42.601  25.870  28.411  1.00  0.00     0.010 A 
ATOM     11  C   UNL A   1      41.214  26.683  26.620  1.00  0.00     0.010 A 
ATOM     12  C   UNL A   1      41.739  26.852  27.895  1.00  0.00    -0.014 A 
BRANCH  12  13
ATOM     13  C   UNL A   1      41.540  28.117  28.621  1.00  0.00     0.031 A 
ATOM     14  C   UNL A   1      42.579  29.165  28.360  1.00  0.00     0.074 A 
ATOM     15  C   UNL A   1      40.420  28.449  29.308  1.00  0.00     0.049 A 
ATOM     16  N   UNL A   1      43.359  29.756  29.208  1.00  0.00    -0.248 NA
ATOM     17  C   UNL A   1      42.829  29.550  26.960  1.00  0.00     0.031 C 
ATOM     18  C   UNL A   1      39.162  27.703  29.407  1.00  0.00     0.029 A 
ATOM     19  N   UNL A   1      40.141  29.594  30.005  1.00  0.00    -0.354 N 
ATOM     20  C   UNL A   1      44.088  30.700  28.481  1.00  0.00     0.074 A 
ATOM     21  C   UNL A   1      43.807  30.447  27.092  1.00  0.00     0.031 C 
ATOM     22  C   UNL A   1      38.201  28.498  29.936  1.00  0.00     0.029 A 
ATOM     23  C   UNL A   1      38.800  29.757  30.346  1.00  0.00     0.049 A 
ATOM     24  H   UNL A   1      40.833  30.250  30.248  1.00  0.00     0.167 HD
ATOM     25  C   UNL A   1      44.731  31.740  29.083  1.00  0.00     0.037 A 
ATOM     26  C   UNL A   1      38.216  30.854  30.897  1.00  0.00     0.037 A 
ATOM     27  C   UNL A   1      44.924  31.500  30.486  1.00  0.00     0.049 A 
ATOM     28  C   UNL A   1      39.286  31.679  31.502  1.00  0.00     0.074 A 
ATOM     29  C   UNL A   1      45.594  30.547  31.227  1.00  0.00     0.029 A 
ATOM     30  N   UNL A   1      44.083  32.127  31.371  1.00  0.00    -0.354 N 
ATOM     31  N   UNL A   1      39.969  31.333  32.554  1.00  0.00    -0.248 NA
ATOM     32  C   UNL A   1      39.886  32.711  30.671  1.00  0.00     0.031 C 
ATOM     33  C   UNL A   1      44.755  30.305  32.354  1.00  0.00     0.029 A 
ATOM     34  C   UNL A   1      43.667  31.174  32.263  1.00  0.00     0.049 A 
ATOM     35  H   UNL A   1      43.827  33.078  31.365  1.00  0.00     0.167 HD
ATOM     36  C   UNL A   1      41.259  31.762  32.286  1.00  0.00     0.074 A 
ATOM     37  C   UNL A   1      41.129  32.677  31.153  1.00  0.00     0.031 C 
ATOM     38  C   UNL A   1      42.338  31.125  32.821  1.00  0.00     0.037 A 
BRANCH  25  39
ATOM     39  C   UNL A   1      44.897  33.114  28.480  1.00  0.00     0.057 A 
ATOM     40  C   UNL A   1      46.189  33.610  28.215  1.00  0.00     0.134 A 
ATOM     41  C   UNL A   1      43.868  34.075  28.430  1.00  0.00     0.134 A 
ATOM     42  F   UNL A   1      47.258  32.800  28.248  1.00  0.00    -0.206 F 
ATOM     43  C   UNL A   1      46.442  34.970  27.990  1.00  0.00     0.040 A 
ATOM     44  C   UNL A   1      44.104  35.427  28.160  1.00  0.00     0.040 A 
ATOM     45  F   UNL A   1      42.601  33.780  28.741  1.00  0.00    -0.206 F 
ATOM     46  C   UNL A   1      45.399  35.885  27.970  1.00  0.00     0.006 A 
ENDBRANCH  25  39
BRANCH  26  47
ATOM     47  C   UNL A   1      36.852  31.404  30.699  1.00  0.00     0.057 A 
ATOM     48  C   UNL A   1      35.999  31.664  31.785  1.00  0.00     0.134 A 
ATOM     49  C   UNL A   1      36.472  31.973  29.472  1.00  0.00     0.134 A 
ATOM     50  F   UNL A   1      36.294  31.205  33.009  1.00  0.00    -0.206 F 
ATOM     51  C   UNL A   1      34.853  32.467  31.662  1.00  0.00     0.040 A 
ATOM     52  C   UNL A   1      35.331  32.772  29.336  1.00  0.00     0.040 A 
ATOM     53  F   UNL A   1      37.252  31.851  28.388  1.00  0.00    -0.206 F 
ATOM     54  C   UNL A   1      34.524  33.035  30.436  1.00  0.00     0.006 A 
ENDBRANCH  26  47
BRANCH  38  55
ATOM     55  C   UNL A   1      42.099  30.108  33.902  1.00  0.00     0.057 A 
ATOM     56  C   UNL A   1      41.829  28.751  33.665  1.00  0.00     0.134 A 
ATOM     57  C   UNL A   1      42.314  30.486  35.233  1.00  0.00     0.134 A 
ATOM     58  F   UNL A   1      41.699  28.275  32.420  1.00  0.00    -0.206 F 
ATOM     59  C   UNL A   1      41.748  27.823  34.708  1.00  0.00     0.040 A 
ATOM     60  C   UNL A   1      42.270  29.562  36.279  1.00  0.00     0.040 A 
ATOM     61  F   UNL A   1      42.628  31.757  35.531  1.00  0.00    -0.206 F 
ATOM     62  C   UNL A   1      41.979  28.226  36.019  1.00  0.00     0.006 A 
ENDBRANCH  38  55
ENDBRANCH  12  13
ENDBRANCH   5   7
ENDBRANCH   2   3
ENDBRANCH   1   2
BRANCH   1  63
ATOM     63  C   UNL A   1      39.067  22.937  26.599  1.00  0.00     0.023 C 
BRANCH  63  64
ATOM     64  C   UNL A   1      37.891  23.650  25.873  1.00  0.00     0.116 C 
BRANCH  64  65
ATOM     65  N   UNL A   1      37.495  23.356  24.491  1.00  0.00    -0.354 N 
ATOM     66  C   UNL A   1      36.290  23.127  23.849  1.00  0.00     0.243 C 
ATOM     67  H   UNL A   1      38.265  23.313  23.878  1.00  0.00     0.163 HD
ATOM     68  O   UNL A   1      36.221  23.311  22.620  1.00  0.00    -0.273 OA
BRANCH  66  69
ATOM     69  C   UNL A   1      35.045  22.800  24.624  1.00  0.00     0.181 C 
ATOM     70  C   UNL A   1      33.595  22.926  24.055  1.00  0.00     0.091 C 
ATOM     71  N   UNL A   1      35.117  21.580  25.419  1.00  0.00    -0.320 N 
ATOM     72  C   UNL A   1      32.711  22.901  25.285  1.00  0.00     0.042 A 
ATOM     73  C   UNL A   1      34.488  21.811  26.766  1.00  0.00     0.178 C 
ATOM     74  N   UNL A   1      31.458  23.403  25.491  1.00  0.00    -0.348 N 
ATOM     75  C   UNL A   1      33.123  22.418  26.520  1.00  0.00     0.081 A 
ATOM     76  C   UNL A   1      31.220  23.326  26.844  1.00  0.00     0.197 A 
ATOM     77  H   UNL A   1      30.844  23.754  24.805  1.00  0.00     0.167 HD
ATOM     78  N   UNL A   1      32.205  22.731  27.487  1.00  0.00    -0.240 NA
BRANCH  71  79
ATOM     79  C   UNL A   1      35.257  20.253  24.981  1.00  0.00     0.256 C 
ATOM     80  O   UNL A   1      36.428  19.827  25.012  1.00  0.00    -0.269 OA
BRANCH  79  81
ATOM     81  C   UNL A   1      34.258  19.198  24.434  1.00  0.00     0.061 A 
ATOM     82  C   UNL A   1      34.816  17.908  24.661  1.00  0.00     0.035 A 
ATOM     83  C   UNL A   1      33.095  19.156  23.629  1.00  0.00     0.072 A 
ATOM     84  C   UNL A   1      34.328  16.752  24.065  1.00  0.00     0.112 A 
ATOM     85  C   UNL A   1      32.666  17.920  23.095  1.00  0.00     0.132 A 
ATOM     86  Cl  UNL A   1      32.063  20.355  22.982  1.00  0.00    -0.082 Cl
ATOM     87  N   UNL A   1      33.257  16.731  23.275  1.00  0.00    -0.263 NA
ENDBRANCH  79  81
ENDBRANCH  71  79
ENDBRANCH  66  69
ENDBRANCH  64  65
ENDBRANCH  63  64
ENDBRANCH   1  63
TORSDOF 13
ENDMDL
MODEL 2
REMARK VINA RESULT:     -12.3      1.404      3.045
REMARK SMILES O=C(NCCCCNC(=O)[C@H]1Cc2[nH]cnc2CN1C(=O)c1ccncc1Cl)c1ccc(-c2c3nc(c(-c4c(F)cccc4F)c4ccc([nH]4)c(-c4c(F)cccc4F)c4nc(c(-c5c(F)cccc5F)c5ccc2[nH]5)C=C4)C=C3)cc1
REMARK SMILES IDX 5 1 4 2 3 3 1 4 2 5 29 7 30 8 82 9 31 10 81 11 32 12 33 13
REMARK SMILES IDX 34 14 75 15 35 16 80 17 74 18 76 19 36 20 79 21 73 22 72 23
REMARK SMILES IDX 37 25 63 26 46 27 62 28 47 29 50 30 61 31 77 32 48 33 49 34
REMARK SMILES IDX 60 36 78 37 51 38 38 39 39 40 44 41 40 42 41 43 43 44 45 45
REMARK SMILES IDX 42 46 64 47 65 48 70 49 66 50 67 51 69 52 71 53 68 54 52 55
REMARK SMILES IDX 53 56 58 57 54 58 55 59 57 60 59 61 56 62 6 63 7 64 8 65
REMARK SMILES IDX 9 66 10 68 11 69 12 70 19 71 13 72 18 73 14 74 17 75 15 76
REMARK SMILES IDX 16 78 20 79 21 80 22 81 23 82 27 83 24 84 26 85 28 86 25 87
REMARK H PARENT 3 6 76 24 50 35 8 67 14 77
REMARK Flexibility Score: inf
ROOT
ATOM      1  C   UNL A   1      38.637  21.836  25.752  1.00  0.00     0.023 C 
ENDROOT
BRANCH   1   2
ATOM      2  C   UNL A   1      39.926  21.509  26.487  1.00  0.00     0.116 C 
BRANCH   2   3
ATOM      3  N   UNL A   1      41.106  21.976  25.790  1.00  0.00    -0.352 N 
ATOM      4  O   UNL A   1      42.848  23.049  25.006  1.00  0.00    -0.269 OA
ATOM      5  C   UNL A   1      41.907  23.080  25.818  1.00  0.00     0.251 C 
ATOM      6  H   UNL A   1      41.411  21.323  25.119  1.00  0.00     0.163 HD
BRANCH   5   7
ATOM      7  C   UNL A   1      41.770  24.298  26.672  1.00  0.00     0.039 A 
ATOM      8  C   UNL A   1      42.404  24.561  27.888  1.00  0.00     0.014 A 
ATOM      9  C   UNL A   1      40.934  25.307  26.139  1.00  0.00     0.014 A 
ATOM     10  C   UNL A   1      42.176  25.778  28.559  1.00  0.00     0.010 A 
ATOM     11  C   UNL A   1      40.711  26.514  26.796  1.00  0.00     0.010 A 
ATOM     12  C   UNL A   1      41.313  26.751  28.026  1.00  0.00    -0.014 A 
BRANCH  12  13
ATOM     13  C   UNL A   1      41.193  28.068  28.673  1.00  0.00     0.031 A 
ATOM     14  C   UNL A   1      42.261  29.053  28.304  1.00  0.00     0.074 A 
ATOM     15  C   UNL A   1      40.115  28.490  29.378  1.00  0.00     0.049 A 
ATOM     16  N   UNL A   1      43.097  29.665  29.081  1.00  0.00    -0.248 NA
ATOM     17  C   UNL A   1      42.468  29.335  26.873  1.00  0.00     0.031 C 
ATOM     18  C   UNL A   1      38.835  27.804  29.574  1.00  0.00     0.029 A 
ATOM     19  N   UNL A   1      39.909  29.688  30.008  1.00  0.00    -0.354 N 
ATOM     20  C   UNL A   1      43.832  30.529  28.265  1.00  0.00     0.074 A 
ATOM     21  C   UNL A   1      43.485  30.197  26.908  1.00  0.00     0.031 C 
ATOM     22  C   UNL A   1      37.927  28.670  30.084  1.00  0.00     0.029 A 
ATOM     23  C   UNL A   1      38.590  29.927  30.387  1.00  0.00     0.049 A 
ATOM     24  H   UNL A   1      40.635  30.329  30.180  1.00  0.00     0.167 HD
ATOM     25  C   UNL A   1      44.538  31.578  28.772  1.00  0.00     0.037 A 
ATOM     26  C   UNL A   1      38.072  31.081  30.886  1.00  0.00     0.037 A 
ATOM     27  C   UNL A   1      44.778  31.422  30.180  1.00  0.00     0.049 A 
ATOM     28  C   UNL A   1      39.197  31.899  31.393  1.00  0.00     0.074 A 
ATOM     29  C   UNL A   1      45.440  30.492  30.957  1.00  0.00     0.029 A 
ATOM     30  N   UNL A   1      43.998  32.139  31.052  1.00  0.00    -0.354 N 
ATOM     31  N   UNL A   1      39.907  31.594  32.440  1.00  0.00    -0.248 NA
ATOM     32  C   UNL A   1      39.802  32.849  30.473  1.00  0.00     0.031 C 
ATOM     33  C   UNL A   1      44.639  30.359  32.128  1.00  0.00     0.029 A 
ATOM     34  C   UNL A   1      43.582  31.264  32.021  1.00  0.00     0.049 A 
ATOM     35  H   UNL A   1      43.779  33.098  30.993  1.00  0.00     0.167 HD
ATOM     36  C   UNL A   1      41.201  31.952  32.095  1.00  0.00     0.074 A 
ATOM     37  C   UNL A   1      41.062  32.795  30.910  1.00  0.00     0.031 C 
ATOM     38  C   UNL A   1      42.276  31.306  32.631  1.00  0.00     0.037 A 
BRANCH  25  39
ATOM     39  C   UNL A   1      44.733  32.902  28.073  1.00  0.00     0.057 A 
ATOM     40  C   UNL A   1      43.670  33.825  28.014  1.00  0.00     0.134 A 
ATOM     41  C   UNL A   1      45.809  33.177  27.207  1.00  0.00     0.134 A 
ATOM     42  F   UNL A   1      42.577  33.666  28.777  1.00  0.00    -0.206 F 
ATOM     43  C   UNL A   1      43.652  34.897  27.112  1.00  0.00     0.040 A 
ATOM     44  C   UNL A   1      45.822  34.271  26.335  1.00  0.00     0.040 A 
ATOM     45  F   UNL A   1      46.854  32.351  27.082  1.00  0.00    -0.206 F 
ATOM     46  C   UNL A   1      44.727  35.118  26.262  1.00  0.00     0.006 A 
ENDBRANCH  25  39
BRANCH  26  47
ATOM     47  C   UNL A   1      36.723  31.673  30.703  1.00  0.00     0.057 A 
ATOM     48  C   UNL A   1      35.896  31.972  31.799  1.00  0.00     0.134 A 
ATOM     49  C   UNL A   1      36.343  32.241  29.476  1.00  0.00     0.134 A 
ATOM     50  F   UNL A   1      36.196  31.515  33.024  1.00  0.00    -0.206 F 
ATOM     51  C   UNL A   1      34.776  32.809  31.686  1.00  0.00     0.040 A 
ATOM     52  C   UNL A   1      35.226  33.076  29.349  1.00  0.00     0.040 A 
ATOM     53  F   UNL A   1      37.101  32.084  28.381  1.00  0.00    -0.206 F 
ATOM     54  C   UNL A   1      34.445  33.376  30.459  1.00  0.00     0.006 A 
ENDBRANCH  26  47
BRANCH  38  55
ATOM     55  C   UNL A   1      42.041  30.372  33.785  1.00  0.00     0.057 A 
ATOM     56  C   UNL A   1      41.725  29.012  33.650  1.00  0.00     0.134 A 
ATOM     57  C   UNL A   1      42.309  30.832  35.080  1.00  0.00     0.134 A 
ATOM     58  F   UNL A   1      41.542  28.457  32.444  1.00  0.00    -0.206 F 
ATOM     59  C   UNL A   1      41.649  28.159  34.755  1.00  0.00     0.040 A 
ATOM     60  C   UNL A   1      42.271  29.983  36.188  1.00  0.00     0.040 A 
ATOM     61  F   UNL A   1      42.669  32.110  35.281  1.00  0.00    -0.206 F 
ATOM     62  C   UNL A   1      41.933  28.642  36.028  1.00  0.00     0.006 A 
ENDBRANCH  38  55
ENDBRANCH  12  13
ENDBRANCH   5   7
ENDBRANCH   2   3
ENDBRANCH   1   2
BRANCH   1  63
ATOM     63  C   UNL A   1      37.988  23.211  26.002  1.00  0.00     0.023 C 
BRANCH  63  64
ATOM     64  C   UNL A   1      36.536  23.597  25.604  1.00  0.00     0.116 C 
BRANCH  64  65
ATOM     65  N   UNL A   1      36.050  23.605  24.219  1.00  0.00    -0.354 N 
ATOM     66  C   UNL A   1      35.034  22.955  23.539  1.00  0.00     0.243 C 
ATOM     67  H   UNL A   1      36.564  24.213  23.642  1.00  0.00     0.163 HD
ATOM     68  O   UNL A   1      34.601  23.458  22.487  1.00  0.00    -0.273 OA
BRANCH  66  69
ATOM     69  C   UNL A   1      34.360  21.743  24.118  1.00  0.00     0.181 C 
ATOM     70  C   UNL A   1      35.105  20.605  24.889  1.00  0.00     0.091 C 
ATOM     71  N   UNL A   1      33.101  22.007  24.804  1.00  0.00    -0.320 N 
ATOM     72  C   UNL A   1      34.118  19.456  24.897  1.00  0.00     0.042 A 
ATOM     73  C   UNL A   1      32.093  20.950  24.444  1.00  0.00     0.178 C 
ATOM     74  N   UNL A   1      34.321  18.110  25.001  1.00  0.00    -0.348 N 
ATOM     75  C   UNL A   1      32.757  19.609  24.671  1.00  0.00     0.081 A 
ATOM     76  C   UNL A   1      33.119  17.507  24.708  1.00  0.00     0.197 A 
ATOM     77  H   UNL A   1      35.163  17.658  25.238  1.00  0.00     0.167 HD
ATOM     78  N   UNL A   1      32.159  18.388  24.511  1.00  0.00    -0.240 NA
BRANCH  71  79
ATOM     79  C   UNL A   1      32.876  22.757  25.970  1.00  0.00     0.256 C 
ATOM     80  O   UNL A   1      33.231  22.185  27.019  1.00  0.00    -0.269 OA
BRANCH  79  81
ATOM     81  C   UNL A   1      32.248  24.151  26.238  1.00  0.00     0.061 A 
ATOM     82  C   UNL A   1      30.858  23.963  26.488  1.00  0.00     0.035 A 
ATOM     83  C   UNL A   1      32.601  25.515  26.112  1.00  0.00     0.072 A 
ATOM     84  C   UNL A   1      29.940  25.005  26.501  1.00  0.00     0.112 A 
ATOM     85  C   UNL A   1      31.589  26.501  26.168  1.00  0.00     0.132 A 
ATOM     86  Cl  UNL A   1      34.059  26.329  25.750  1.00  0.00    -0.082 Cl
ATOM     87  N   UNL A   1      30.278  26.282  26.339  1.00  0.00    -0.263 NA
ENDBRANCH  79  81
ENDBRANCH  71  79
ENDBRANCH  66  69
ENDBRANCH  64  65
ENDBRANCH  63  64
ENDBRANCH   1  63
TORSDOF 13
ENDMDL
MODEL 3
REMARK VINA RESULT:     -12.2      2.848      7.578
REMARK SMILES O=C(NCCCCNC(=O)[C@H]1Cc2[nH]cnc2CN1C(=O)c1ccncc1Cl)c1ccc(-c2c3nc(c(-c4c(F)cccc4F)c4ccc([nH]4)c(-c4c(F)cccc4F)c4nc(c(-c5c(F)cccc5F)c5ccc2[nH]5)C=C4)C=C3)cc1
REMARK SMILES IDX 5 1 4 2 3 3 1 4 2 5 29 7 30 8 82 9 31 10 81 11 32 12 33 13
REMARK SMILES IDX 34 14 75 15 35 16 80 17 74 18 76 19 36 20 79 21 73 22 72 23
REMARK SMILES IDX 37 25 63 26 46 27 62 28 47 29 50 30 61 31 77 32 48 33 49 34
REMARK SMILES IDX 60 36 78 37 51 38 38 39 39 40 44 41 40 42 41 43 43 44 45 45
REMARK SMILES IDX 42 46 64 47 65 48 70 49 66 50 67 51 69 52 71 53 68 54 52 55
REMARK SMILES IDX 53 56 58 57 54 58 55 59 57 60 59 61 56 62 6 63 7 64 8 65
REMARK SMILES IDX 9 66 10 68 11 69 12 70 19 71 13 72 18 73 14 74 17 75 15 76
REMARK SMILES IDX 16 78 20 79 21 80 22 81 23 82 27 83 24 84 26 85 28 86 25 87
REMARK H PARENT 3 6 76 24 50 35 8 67 14 77
REMARK Flexibility Score: inf
ROOT
ATOM      1  C   UNL A   1      31.824  29.180  26.719  1.00  0.00     0.023 C 
ENDROOT
BRANCH   1   2
ATOM      2  C   UNL A   1      33.213  29.669  26.343  1.00  0.00     0.116 C 
BRANCH   2   3
ATOM      3  N   UNL A   1      33.584  30.892  27.025  1.00  0.00    -0.352 N 
ATOM      4  O   UNL A   1      34.529  32.510  28.160  1.00  0.00    -0.269 OA
ATOM      5  C   UNL A   1      34.648  31.343  27.750  1.00  0.00     0.251 C 
ATOM      6  H   UNL A   1      32.883  31.578  26.944  1.00  0.00     0.163 HD
BRANCH   5   7
ATOM      7  C   UNL A   1      35.894  30.604  28.118  1.00  0.00     0.039 A 
ATOM      8  C   UNL A   1      36.152  29.241  27.962  1.00  0.00     0.014 A 
ATOM      9  C   UNL A   1      36.933  31.412  28.635  1.00  0.00     0.014 A 
ATOM     10  C   UNL A   1      37.397  28.706  28.347  1.00  0.00     0.010 A 
ATOM     11  C   UNL A   1      38.167  30.887  29.011  1.00  0.00     0.010 A 
ATOM     12  C   UNL A   1      38.402  29.523  28.891  1.00  0.00    -0.014 A 
BRANCH  12  13
ATOM     13  C   UNL A   1      39.740  28.971  29.162  1.00  0.00     0.031 A 
ATOM     14  C   UNL A   1      40.098  28.868  30.614  1.00  0.00     0.074 A 
ATOM     15  C   UNL A   1      40.537  28.382  28.238  1.00  0.00     0.049 A 
ATOM     16  N   UNL A   1      41.098  29.406  31.237  1.00  0.00    -0.248 NA
ATOM     17  C   UNL A   1      39.180  28.129  31.497  1.00  0.00     0.031 C 
ATOM     18  C   UNL A   1      40.233  28.085  26.835  1.00  0.00     0.029 A 
ATOM     19  N   UNL A   1      41.784  27.838  28.392  1.00  0.00    -0.354 N 
ATOM     20  C   UNL A   1      41.031  28.949  32.555  1.00  0.00     0.074 A 
ATOM     21  C   UNL A   1      39.771  28.267  32.684  1.00  0.00     0.031 C 
ATOM     22  C   UNL A   1      41.167  27.241  26.335  1.00  0.00     0.029 A 
ATOM     23  C   UNL A   1      42.211  27.048  27.328  1.00  0.00     0.049 A 
ATOM     24  H   UNL A   1      42.335  27.993  29.192  1.00  0.00     0.167 HD
ATOM     25  C   UNL A   1      42.100  29.010  33.398  1.00  0.00     0.037 A 
ATOM     26  C   UNL A   1      43.325  26.270  27.273  1.00  0.00     0.037 A 
ATOM     27  C   UNL A   1      43.088  29.944  32.932  1.00  0.00     0.049 A 
ATOM     28  C   UNL A   1      44.252  26.734  28.329  1.00  0.00     0.074 A 
ATOM     29  C   UNL A   1      43.100  31.302  32.683  1.00  0.00     0.029 A 
ATOM     30  N   UNL A   1      44.206  29.447  32.312  1.00  0.00    -0.354 N 
ATOM     31  N   UNL A   1      44.873  27.878  28.306  1.00  0.00    -0.248 NA
ATOM     32  C   UNL A   1      44.159  26.092  29.630  1.00  0.00     0.031 C 
ATOM     33  C   UNL A   1      43.907  31.451  31.516  1.00  0.00     0.029 A 
ATOM     34  C   UNL A   1      44.388  30.187  31.173  1.00  0.00     0.049 A 
ATOM     35  H   UNL A   1      44.770  28.702  32.625  1.00  0.00     0.167 HD
ATOM     36  C   UNL A   1      44.853  28.309  29.622  1.00  0.00     0.074 A 
ATOM     37  C   UNL A   1      44.477  27.132  30.404  1.00  0.00     0.031 C 
ATOM     38  C   UNL A   1      44.867  29.637  29.929  1.00  0.00     0.037 A 
BRANCH  25  39
ATOM     39  C   UNL A   1      42.410  27.992  34.469  1.00  0.00     0.057 A 
ATOM     40  C   UNL A   1      42.902  26.722  34.106  1.00  0.00     0.134 A 
ATOM     41  C   UNL A   1      41.966  28.100  35.802  1.00  0.00     0.134 A 
ATOM     42  F   UNL A   1      43.339  26.483  32.861  1.00  0.00    -0.206 F 
ATOM     43  C   UNL A   1      42.885  25.629  34.983  1.00  0.00     0.040 A 
ATOM     44  C   UNL A   1      41.989  27.028  36.699  1.00  0.00     0.040 A 
ATOM     45  F   UNL A   1      41.394  29.214  36.275  1.00  0.00    -0.206 F 
ATOM     46  C   UNL A   1      42.419  25.778  36.283  1.00  0.00     0.006 A 
ENDBRANCH  25  39
BRANCH  26  47
ATOM     47  C   UNL A   1      43.544  24.974  26.583  1.00  0.00     0.057 A 
ATOM     48  C   UNL A   1      42.793  23.831  26.908  1.00  0.00     0.134 A 
ATOM     49  C   UNL A   1      44.274  24.906  25.385  1.00  0.00     0.134 A 
ATOM     50  F   UNL A   1      42.026  23.810  28.008  1.00  0.00    -0.206 F 
ATOM     51  C   UNL A   1      42.749  22.702  26.076  1.00  0.00     0.040 A 
ATOM     52  C   UNL A   1      44.241  23.785  24.548  1.00  0.00     0.040 A 
ATOM     53  F   UNL A   1      44.964  25.966  24.941  1.00  0.00    -0.206 F 
ATOM     54  C   UNL A   1      43.465  22.682  24.883  1.00  0.00     0.006 A 
ENDBRANCH  26  47
BRANCH  38  55
ATOM     55  C   UNL A   1      45.156  30.617  28.826  1.00  0.00     0.057 A 
ATOM     56  C   UNL A   1      46.446  30.993  28.422  1.00  0.00     0.134 A 
ATOM     57  C   UNL A   1      44.091  31.066  28.037  1.00  0.00     0.134 A 
ATOM     58  F   UNL A   1      47.534  30.539  29.057  1.00  0.00    -0.206 F 
ATOM     59  C   UNL A   1      46.661  31.804  27.303  1.00  0.00     0.040 A 
ATOM     60  C   UNL A   1      44.294  31.847  26.898  1.00  0.00     0.040 A 
ATOM     61  F   UNL A   1      42.833  30.703  28.332  1.00  0.00    -0.206 F 
ATOM     62  C   UNL A   1      45.583  32.225  26.531  1.00  0.00     0.006 A 
ENDBRANCH  38  55
ENDBRANCH  12  13
ENDBRANCH   5   7
ENDBRANCH   2   3
ENDBRANCH   1   2
BRANCH   1  63
ATOM     63  C   UNL A   1      31.681  27.742  27.252  1.00  0.00     0.023 C 
BRANCH  63  64
ATOM     64  C   UNL A   1      31.886  26.453  26.407  1.00  0.00     0.116 C 
BRANCH  64  65
ATOM     65  N   UNL A   1      31.317  25.149  26.766  1.00  0.00    -0.354 N 
ATOM     66  C   UNL A   1      31.824  23.869  26.908  1.00  0.00     0.243 C 
ATOM     67  H   UNL A   1      30.351  25.196  26.949  1.00  0.00     0.163 HD
ATOM     68  O   UNL A   1      31.203  23.052  27.611  1.00  0.00    -0.273 OA
BRANCH  66  69
ATOM     69  C   UNL A   1      33.168  23.498  26.349  1.00  0.00     0.181 C 
ATOM     70  C   UNL A   1      34.382  23.027  27.213  1.00  0.00     0.091 C 
ATOM     71  N   UNL A   1      33.130  22.685  25.139  1.00  0.00    -0.320 N 
ATOM     72  C   UNL A   1      35.575  23.179  26.292  1.00  0.00     0.042 A 
ATOM     73  C   UNL A   1      34.161  23.177  24.160  1.00  0.00     0.178 C 
ATOM     74  N   UNL A   1      36.899  23.362  26.571  1.00  0.00    -0.348 N 
ATOM     75  C   UNL A   1      35.473  23.271  24.910  1.00  0.00     0.081 A 
ATOM     76  C   UNL A   1      37.512  23.684  25.382  1.00  0.00     0.197 A 
ATOM     77  H   UNL A   1      37.331  23.282  27.453  1.00  0.00     0.167 HD
ATOM     78  N   UNL A   1      36.677  23.631  24.364  1.00  0.00    -0.240 NA
BRANCH  71  79
ATOM     79  C   UNL A   1      32.641  21.379  24.974  1.00  0.00     0.256 C 
ATOM     80  O   UNL A   1      31.421  21.259  25.201  1.00  0.00    -0.269 OA
BRANCH  79  81
ATOM     81  C   UNL A   1      33.307  20.030  24.590  1.00  0.00     0.061 A 
ATOM     82  C   UNL A   1      32.271  19.102  24.286  1.00  0.00     0.035 A 
ATOM     83  C   UNL A   1      34.584  19.424  24.648  1.00  0.00     0.072 A 
ATOM     84  C   UNL A   1      32.486  17.735  24.165  1.00  0.00     0.112 A 
ATOM     85  C   UNL A   1      34.696  18.024  24.483  1.00  0.00     0.132 A 
ATOM     86  Cl  UNL A   1      36.148  19.999  25.029  1.00  0.00    -0.082 Cl
ATOM     87  N   UNL A   1      33.687  17.170  24.263  1.00  0.00    -0.263 NA
ENDBRANCH  79  81
ENDBRANCH  71  79
ENDBRANCH  66  69
ENDBRANCH  64  65
ENDBRANCH  63  64
ENDBRANCH   1  63
TORSDOF 13
ENDMDL
