MODEL 1
REMARK VINA RESULT:      -9.1      0.000      0.000
REMARK SMILES CCN(CCC(=O)NCCCCNC(=O)c1ccc(-c2c3nc(c(-c4c(F)cccc4F)c4ccc([nH]4)c(-c4c(F)cccc4F)c4nc(c(-c5c(F)cccc5F)c5ccc2[nH]5)C=C4)C=C3)cc1)S(=O)(=O)c1cn(CC)cn1
REMARK SMILES IDX 9 1 8 2 6 3 7 4 5 6 4 7 3 8 2 9 1 10 70 11 71 12 72 13 73 14
REMARK SMILES IDX 74 15 79 16 75 17 78 18 76 19 77 20 10 21 11 22 12 23 13 24
REMARK SMILES IDX 14 25 15 27 16 28 17 29 69 30 18 31 68 32 19 33 20 34 21 35
REMARK SMILES IDX 62 36 22 37 67 38 61 39 63 40 23 41 66 42 60 43 59 44 24 46
REMARK SMILES IDX 50 47 33 48 49 49 34 50 37 51 48 52 64 53 35 54 36 55 47 57
REMARK SMILES IDX 65 58 38 59 25 60 26 61 31 62 27 63 28 64 30 65 32 66 29 67
REMARK SMILES IDX 51 68 52 69 57 70 53 71 54 72 56 73 58 74 55 75 39 76 40 77
REMARK SMILES IDX 45 78 41 79 42 80 44 81 46 82 43 83
REMARK H PARENT 8 5 13 26 63 45 37 56
REMARK Flexibility Score: inf
ROOT
ATOM      1  C   UNL A   1      34.300  36.356  33.851  1.00  0.00     0.116 C 
ENDROOT
BRANCH   1   2
ATOM      2  N   UNL A   1      34.253  34.916  33.675  1.00  0.00    -0.356 N 
ATOM      3  C   UNL A   1      35.134  33.954  34.065  1.00  0.00     0.221 C 
ATOM      4  O   UNL A   1      34.839  32.773  33.873  1.00  0.00    -0.275 OA
ATOM      5  H   UNL A   1      33.458  34.583  33.199  1.00  0.00     0.163 HD
BRANCH   3   6
ATOM      6  C   UNL A   1      36.422  34.329  34.762  1.00  0.00     0.116 C 
BRANCH   6   7
ATOM      7  C   UNL A   1      36.579  33.541  36.059  1.00  0.00     0.112 C 
BRANCH   7   8
ATOM      8  N   UNL A   1      38.005  33.358  36.409  1.00  0.00    -0.196 NA
BRANCH   8   9
ATOM      9  C   UNL A   1      38.693  34.471  37.090  1.00  0.00     0.099 C 
ATOM     10  C   UNL A   1      38.555  34.376  38.605  1.00  0.00     0.022 C 
ENDBRANCH   8   9
BRANCH   8  11
ATOM     11  S   UNL A   1      38.665  31.804  36.431  1.00  0.00     0.262 S 
ATOM     12  O   UNL A   1      40.045  31.917  36.843  1.00  0.00    -0.205 OA
ATOM     13  O   UNL A   1      37.750  30.916  37.122  1.00  0.00    -0.205 OA
BRANCH  11  14
ATOM     14  C   UNL A   1      38.845  31.089  34.851  1.00  0.00     0.188 A 
ATOM     15  C   UNL A   1      37.813  30.546  34.108  1.00  0.00     0.129 A 
ATOM     16  N   UNL A   1      40.069  30.716  34.318  1.00  0.00    -0.224 NA
ATOM     17  N   UNL A   1      38.428  29.758  33.180  1.00  0.00    -0.336 N 
ATOM     18  C   UNL A   1      39.778  29.880  33.347  1.00  0.00     0.201 A 
BRANCH  17  19
ATOM     19  C   UNL A   1      37.766  28.866  32.253  1.00  0.00     0.120 C 
ATOM     20  C   UNL A   1      38.399  27.489  32.250  1.00  0.00     0.027 C 
ENDBRANCH  17  19
ENDBRANCH  11  14
ENDBRANCH   8  11
ENDBRANCH   7   8
ENDBRANCH   6   7
ENDBRANCH   3   6
ENDBRANCH   1   2
BRANCH   1  21
ATOM     21  C   UNL A   1      33.495  37.128  32.809  1.00  0.00     0.023 C 
BRANCH  21  22
ATOM     22  C   UNL A   1      32.832  36.260  31.740  1.00  0.00     0.023 C 
BRANCH  22  23
ATOM     23  C   UNL A   1      33.411  36.435  30.355  1.00  0.00     0.116 C 
BRANCH  23  24
ATOM     24  N   UNL A   1      32.751  35.600  29.361  1.00  0.00    -0.352 N 
ATOM     25  C   UNL A   1      33.222  34.462  28.748  1.00  0.00     0.251 C 
ATOM     26  H   UNL A   1      31.848  35.886  29.094  1.00  0.00     0.163 HD
ATOM     27  O   UNL A   1      32.584  33.938  27.839  1.00  0.00    -0.269 OA
BRANCH  25  28
ATOM     28  C   UNL A   1      34.529  33.898  29.157  1.00  0.00     0.039 A 
ATOM     29  C   UNL A   1      34.579  33.011  30.237  1.00  0.00     0.014 A 
ATOM     30  C   UNL A   1      35.696  34.214  28.460  1.00  0.00     0.014 A 
ATOM     31  C   UNL A   1      35.788  32.397  30.572  1.00  0.00     0.010 A 
ATOM     32  C   UNL A   1      36.867  33.519  28.719  1.00  0.00     0.010 A 
ATOM     33  C   UNL A   1      36.934  32.623  29.795  1.00  0.00    -0.014 A 
BRANCH  33  34
ATOM     34  C   UNL A   1      38.239  31.994  30.111  1.00  0.00     0.031 A 
ATOM     35  C   UNL A   1      39.213  32.731  30.991  1.00  0.00     0.074 A 
ATOM     36  C   UNL A   1      38.583  30.825  29.541  1.00  0.00     0.049 A 
ATOM     37  N   UNL A   1      40.458  32.447  31.270  1.00  0.00    -0.248 NA
ATOM     38  C   UNL A   1      38.736  33.988  31.594  1.00  0.00     0.031 C 
ATOM     39  C   UNL A   1      37.754  30.051  28.615  1.00  0.00     0.029 A 
ATOM     40  N   UNL A   1      39.735  30.088  29.650  1.00  0.00    -0.354 N 
ATOM     41  C   UNL A   1      40.923  33.511  32.033  1.00  0.00     0.074 A 
ATOM     42  C   UNL A   1      39.846  34.471  32.128  1.00  0.00     0.031 C 
ATOM     43  C   UNL A   1      38.413  28.934  28.263  1.00  0.00     0.029 A 
ATOM     44  C   UNL A   1      39.719  28.929  28.913  1.00  0.00     0.049 A 
ATOM     45  H   UNL A   1      40.501  30.364  30.203  1.00  0.00     0.167 HD
ATOM     46  C   UNL A   1      42.129  33.663  32.627  1.00  0.00     0.037 A 
ATOM     47  C   UNL A   1      40.656  27.972  28.783  1.00  0.00     0.037 A 
ATOM     48  C   UNL A   1      43.165  32.669  32.596  1.00  0.00     0.049 A 
ATOM     49  C   UNL A   1      41.952  28.115  29.531  1.00  0.00     0.074 A 
ATOM     50  C   UNL A   1      44.396  32.680  33.227  1.00  0.00     0.029 A 
ATOM     51  N   UNL A   1      43.076  31.468  31.908  1.00  0.00    -0.354 N 
ATOM     52  N   UNL A   1      42.362  29.104  30.287  1.00  0.00    -0.248 NA
ATOM     53  C   UNL A   1      42.909  27.007  29.415  1.00  0.00     0.031 C 
ATOM     54  C   UNL A   1      45.056  31.488  32.912  1.00  0.00     0.029 A 
ATOM     55  C   UNL A   1      44.226  30.725  32.105  1.00  0.00     0.049 A 
ATOM     56  H   UNL A   1      42.308  31.185  31.360  1.00  0.00     0.167 HD
ATOM     57  C   UNL A   1      43.615  28.732  30.754  1.00  0.00     0.074 A 
ATOM     58  C   UNL A   1      43.890  27.418  30.208  1.00  0.00     0.031 C 
ATOM     59  C   UNL A   1      44.465  29.414  31.560  1.00  0.00     0.037 A 
BRANCH  46  60
ATOM     60  C   UNL A   1      42.369  34.940  33.378  1.00  0.00     0.057 A 
ATOM     61  C   UNL A   1      42.016  35.080  34.727  1.00  0.00     0.134 A 
ATOM     62  C   UNL A   1      42.954  36.044  32.745  1.00  0.00     0.134 A 
ATOM     63  F   UNL A   1      41.435  34.066  35.386  1.00  0.00    -0.206 F 
ATOM     64  C   UNL A   1      42.202  36.284  35.410  1.00  0.00     0.040 A 
ATOM     65  C   UNL A   1      43.170  37.243  33.426  1.00  0.00     0.040 A 
ATOM     66  F   UNL A   1      43.319  35.977  31.457  1.00  0.00    -0.206 F 
ATOM     67  C   UNL A   1      42.784  37.369  34.759  1.00  0.00     0.006 A 
ENDBRANCH  46  60
BRANCH  47  68
ATOM     68  C   UNL A   1      40.381  26.774  27.954  1.00  0.00     0.057 A 
ATOM     69  C   UNL A   1      40.967  26.627  26.690  1.00  0.00     0.134 A 
ATOM     70  C   UNL A   1      39.543  25.746  28.400  1.00  0.00     0.134 A 
ATOM     71  F   UNL A   1      41.767  27.587  26.202  1.00  0.00    -0.206 F 
ATOM     72  C   UNL A   1      40.717  25.509  25.893  1.00  0.00     0.040 A 
ATOM     73  C   UNL A   1      39.300  24.613  27.622  1.00  0.00     0.040 A 
ATOM     74  F   UNL A   1      38.960  25.824  29.604  1.00  0.00    -0.206 F 
ATOM     75  C   UNL A   1      39.884  24.495  26.362  1.00  0.00     0.006 A 
ENDBRANCH  47  68
BRANCH  59  76
ATOM     76  C   UNL A   1      45.751  28.740  31.918  1.00  0.00     0.057 A 
ATOM     77  C   UNL A   1      45.857  27.915  33.044  1.00  0.00     0.134 A 
ATOM     78  C   UNL A   1      46.880  28.880  31.101  1.00  0.00     0.134 A 
ATOM     79  F   UNL A   1      44.813  27.753  33.869  1.00  0.00    -0.206 F 
ATOM     80  C   UNL A   1      47.051  27.261  33.353  1.00  0.00     0.040 A 
ATOM     81  C   UNL A   1      48.072  28.216  31.389  1.00  0.00     0.040 A 
ATOM     82  F   UNL A   1      46.835  29.652  30.005  1.00  0.00    -0.206 F 
ATOM     83  C   UNL A   1      48.160  27.407  32.521  1.00  0.00     0.006 A 
ENDBRANCH  59  76
ENDBRANCH  33  34
ENDBRANCH  25  28
ENDBRANCH  23  24
ENDBRANCH  22  23
ENDBRANCH  21  22
ENDBRANCH   1  21
TORSDOF 17
ENDMDL
MODEL 2
REMARK VINA RESULT:      -8.9      0.546      6.209
REMARK SMILES CCN(CCC(=O)NCCCCNC(=O)c1ccc(-c2c3nc(c(-c4c(F)cccc4F)c4ccc([nH]4)c(-c4c(F)cccc4F)c4nc(c(-c5c(F)cccc5F)c5ccc2[nH]5)C=C4)C=C3)cc1)S(=O)(=O)c1cn(CC)cn1
REMARK SMILES IDX 9 1 8 2 6 3 7 4 5 6 4 7 3 8 2 9 1 10 70 11 71 12 72 13 73 14
REMARK SMILES IDX 74 15 79 16 75 17 78 18 76 19 77 20 10 21 11 22 12 23 13 24
REMARK SMILES IDX 14 25 15 27 16 28 17 29 69 30 18 31 68 32 19 33 20 34 21 35
REMARK SMILES IDX 62 36 22 37 67 38 61 39 63 40 23 41 66 42 60 43 59 44 24 46
REMARK SMILES IDX 50 47 33 48 49 49 34 50 37 51 48 52 64 53 35 54 36 55 47 57
REMARK SMILES IDX 65 58 38 59 25 60 26 61 31 62 27 63 28 64 30 65 32 66 29 67
REMARK SMILES IDX 51 68 52 69 57 70 53 71 54 72 56 73 58 74 55 75 39 76 40 77
REMARK SMILES IDX 45 78 41 79 42 80 44 81 46 82 43 83
REMARK H PARENT 8 5 13 26 63 45 37 56
REMARK Flexibility Score: inf
ROOT
ATOM      1  C   UNL A   1      34.288  36.349  33.638  1.00  0.00     0.116 C 
ENDROOT
BRANCH   1   2
ATOM      2  N   UNL A   1      34.196  34.904  33.550  1.00  0.00    -0.356 N 
ATOM      3  C   UNL A   1      35.108  33.944  33.867  1.00  0.00     0.221 C 
ATOM      4  O   UNL A   1      34.772  32.761  33.783  1.00  0.00    -0.275 OA
ATOM      5  H   UNL A   1      33.338  34.564  33.207  1.00  0.00     0.163 HD
BRANCH   3   6
ATOM      6  C   UNL A   1      36.485  34.327  34.358  1.00  0.00     0.116 C 
BRANCH   6   7
ATOM      7  C   UNL A   1      36.759  33.705  35.724  1.00  0.00     0.112 C 
BRANCH   7   8
ATOM      8  N   UNL A   1      38.203  33.446  35.918  1.00  0.00    -0.196 NA
BRANCH   8   9
ATOM      9  C   UNL A   1      39.097  34.611  36.061  1.00  0.00     0.099 C 
ATOM     10  C   UNL A   1      39.024  35.209  37.462  1.00  0.00     0.022 C 
ENDBRANCH   8   9
BRANCH   8  11
ATOM     11  S   UNL A   1      38.718  31.911  36.399  1.00  0.00     0.262 S 
ATOM     12  O   UNL A   1      39.813  32.083  37.325  1.00  0.00    -0.205 OA
ATOM     13  O   UNL A   1      37.557  31.117  36.753  1.00  0.00    -0.205 OA
BRANCH  11  14
ATOM     14  C   UNL A   1      39.492  30.996  35.132  1.00  0.00     0.188 A 
ATOM     15  C   UNL A   1      38.828  30.363  34.097  1.00  0.00     0.129 A 
ATOM     16  N   UNL A   1      40.803  30.553  35.204  1.00  0.00    -0.224 NA
ATOM     17  N   UNL A   1      39.726  29.460  33.608  1.00  0.00    -0.336 N 
ATOM     18  C   UNL A   1      40.892  29.598  34.305  1.00  0.00     0.201 A 
BRANCH  17  19
ATOM     19  C   UNL A   1      39.454  28.456  32.602  1.00  0.00     0.120 C 
ATOM     20  C   UNL A   1      37.976  28.366  32.283  1.00  0.00     0.027 C 
ENDBRANCH  17  19
ENDBRANCH  11  14
ENDBRANCH   8  11
ENDBRANCH   7   8
ENDBRANCH   6   7
ENDBRANCH   3   6
ENDBRANCH   1   2
BRANCH   1  21
ATOM     21  C   UNL A   1      33.547  37.081  32.521  1.00  0.00     0.023 C 
BRANCH  21  22
ATOM     22  C   UNL A   1      32.854  36.170  31.509  1.00  0.00     0.023 C 
BRANCH  22  23
ATOM     23  C   UNL A   1      33.370  36.313  30.096  1.00  0.00     0.116 C 
BRANCH  23  24
ATOM     24  N   UNL A   1      32.752  35.368  29.175  1.00  0.00    -0.352 N 
ATOM     25  C   UNL A   1      33.287  34.221  28.635  1.00  0.00     0.251 C 
ATOM     26  H   UNL A   1      31.829  35.576  28.904  1.00  0.00     0.163 HD
ATOM     27  O   UNL A   1      32.673  33.593  27.778  1.00  0.00    -0.269 OA
BRANCH  25  28
ATOM     28  C   UNL A   1      34.633  33.772  29.061  1.00  0.00     0.039 A 
ATOM     29  C   UNL A   1      34.749  32.920  30.164  1.00  0.00     0.014 A 
ATOM     30  C   UNL A   1      35.774  34.160  28.356  1.00  0.00     0.014 A 
ATOM     31  C   UNL A   1      36.002  32.413  30.517  1.00  0.00     0.010 A 
ATOM     32  C   UNL A   1      36.995  33.566  28.635  1.00  0.00     0.010 A 
ATOM     33  C   UNL A   1      37.129  32.707  29.734  1.00  0.00    -0.014 A 
BRANCH  33  34
ATOM     34  C   UNL A   1      38.478  32.191  30.069  1.00  0.00     0.031 A 
ATOM     35  C   UNL A   1      38.919  30.869  29.498  1.00  0.00     0.074 A 
ATOM     36  C   UNL A   1      39.257  32.850  30.946  1.00  0.00     0.049 A 
ATOM     37  N   UNL A   1      39.981  30.158  29.774  1.00  0.00    -0.248 NA
ATOM     38  C   UNL A   1      38.013  30.237  28.523  1.00  0.00     0.031 C 
ATOM     39  C   UNL A   1      38.910  34.102  31.620  1.00  0.00     0.029 A 
ATOM     40  N   UNL A   1      40.504  32.545  31.431  1.00  0.00    -0.354 N 
ATOM     41  C   UNL A   1      39.842  28.980  29.051  1.00  0.00     0.074 A 
ATOM     42  C   UNL A   1      38.571  29.047  28.366  1.00  0.00     0.031 C 
ATOM     43  C   UNL A   1      39.932  34.473  32.410  1.00  0.00     0.029 A 
ATOM     44  C   UNL A   1      40.990  33.473  32.320  1.00  0.00     0.049 A 
ATOM     45  H   UNL A   1      41.002  31.738  31.167  1.00  0.00     0.167 HD
ATOM     46  C   UNL A   1      40.709  27.948  28.942  1.00  0.00     0.037 A 
ATOM     47  C   UNL A   1      42.161  33.506  32.982  1.00  0.00     0.037 A 
ATOM     48  C   UNL A   1      42.005  27.924  29.561  1.00  0.00     0.049 A 
ATOM     49  C   UNL A   1      43.150  32.396  32.770  1.00  0.00     0.074 A 
ATOM     50  C   UNL A   1      42.998  26.967  29.456  1.00  0.00     0.029 A 
ATOM     51  N   UNL A   1      42.495  28.925  30.386  1.00  0.00    -0.354 N 
ATOM     52  N   UNL A   1      43.027  31.309  32.047  1.00  0.00    -0.248 NA
ATOM     53  C   UNL A   1      44.443  32.519  33.457  1.00  0.00     0.031 C 
ATOM     54  C   UNL A   1      44.088  27.385  30.227  1.00  0.00     0.029 A 
ATOM     55  C   UNL A   1      43.781  28.614  30.792  1.00  0.00     0.049 A 
ATOM     56  H   UNL A   1      42.003  29.737  30.645  1.00  0.00     0.167 HD
ATOM     57  C   UNL A   1      44.230  30.628  32.174  1.00  0.00     0.074 A 
ATOM     58  C   UNL A   1      45.076  31.434  33.032  1.00  0.00     0.031 C 
ATOM     59  C   UNL A   1      44.603  29.443  31.634  1.00  0.00     0.037 A 
BRANCH  46  60
ATOM     60  C   UNL A   1      40.283  26.779  28.103  1.00  0.00     0.057 A 
ATOM     61  C   UNL A   1      39.397  25.806  28.588  1.00  0.00     0.134 A 
ATOM     62  C   UNL A   1      40.767  26.618  26.799  1.00  0.00     0.134 A 
ATOM     63  F   UNL A   1      38.911  25.892  29.836  1.00  0.00    -0.206 F 
ATOM     64  C   UNL A   1      39.038  24.697  27.820  1.00  0.00     0.040 A 
ATOM     65  C   UNL A   1      40.392  25.528  26.012  1.00  0.00     0.040 A 
ATOM     66  F   UNL A   1      41.615  27.513  26.271  1.00  0.00    -0.206 F 
ATOM     67  C   UNL A   1      39.533  24.558  26.526  1.00  0.00     0.006 A 
ENDBRANCH  46  60
BRANCH  47  68
ATOM     68  C   UNL A   1      42.480  34.656  33.864  1.00  0.00     0.057 A 
ATOM     69  C   UNL A   1      42.852  35.892  33.322  1.00  0.00     0.134 A 
ATOM     70  C   UNL A   1      42.412  34.556  35.258  1.00  0.00     0.134 A 
ATOM     71  F   UNL A   1      42.950  36.044  31.992  1.00  0.00    -0.206 F 
ATOM     72  C   UNL A   1      43.160  36.984  34.134  1.00  0.00     0.040 A 
ATOM     73  C   UNL A   1      42.698  35.645  36.082  1.00  0.00     0.040 A 
ATOM     74  F   UNL A   1      42.053  33.401  35.836  1.00  0.00    -0.206 F 
ATOM     75  C   UNL A   1      43.079  36.863  35.520  1.00  0.00     0.006 A 
ENDBRANCH  47  68
BRANCH  59  76
ATOM     76  C   UNL A   1      45.989  28.966  31.932  1.00  0.00     0.057 A 
ATOM     77  C   UNL A   1      46.257  28.122  33.016  1.00  0.00     0.134 A 
ATOM     78  C   UNL A   1      47.057  29.315  31.096  1.00  0.00     0.134 A 
ATOM     79  F   UNL A   1      45.276  27.764  33.857  1.00  0.00    -0.206 F 
ATOM     80  C   UNL A   1      47.546  27.652  33.268  1.00  0.00     0.040 A 
ATOM     81  C   UNL A   1      48.346  28.836  31.326  1.00  0.00     0.040 A 
ATOM     82  F   UNL A   1      46.860  30.115  30.037  1.00  0.00    -0.206 F 
ATOM     83  C   UNL A   1      48.594  28.004  32.418  1.00  0.00     0.006 A 
ENDBRANCH  59  76
ENDBRANCH  33  34
ENDBRANCH  25  28
ENDBRANCH  23  24
ENDBRANCH  22  23
ENDBRANCH  21  22
ENDBRANCH   1  21
TORSDOF 17
ENDMDL
MODEL 3
REMARK VINA RESULT:      -8.8      1.074      2.989
REMARK SMILES CCN(CCC(=O)NCCCCNC(=O)c1ccc(-c2c3nc(c(-c4c(F)cccc4F)c4ccc([nH]4)c(-c4c(F)cccc4F)c4nc(c(-c5c(F)cccc5F)c5ccc2[nH]5)C=C4)C=C3)cc1)S(=O)(=O)c1cn(CC)cn1
REMARK SMILES IDX 9 1 8 2 6 3 7 4 5 6 4 7 3 8 2 9 1 10 70 11 71 12 72 13 73 14
REMARK SMILES IDX 74 15 79 16 75 17 78 18 76 19 77 20 10 21 11 22 12 23 13 24
REMARK SMILES IDX 14 25 15 27 16 28 17 29 69 30 18 31 68 32 19 33 20 34 21 35
REMARK SMILES IDX 62 36 22 37 67 38 61 39 63 40 23 41 66 42 60 43 59 44 24 46
REMARK SMILES IDX 50 47 33 48 49 49 34 50 37 51 48 52 64 53 35 54 36 55 47 57
REMARK SMILES IDX 65 58 38 59 25 60 26 61 31 62 27 63 28 64 30 65 32 66 29 67
REMARK SMILES IDX 51 68 52 69 57 70 53 71 54 72 56 73 58 74 55 75 39 76 40 77
REMARK SMILES IDX 45 78 41 79 42 80 44 81 46 82 43 83
REMARK H PARENT 8 5 13 26 63 45 37 56
REMARK Flexibility Score: inf
ROOT
ATOM      1  C   UNL A   1      34.418  36.415  33.359  1.00  0.00     0.116 C 
ENDROOT
BRANCH   1   2
ATOM      2  N   UNL A   1      34.181  34.983  33.349  1.00  0.00    -0.356 N 
ATOM      3  C   UNL A   1      34.944  33.963  33.827  1.00  0.00     0.221 C 
ATOM      4  O   UNL A   1      34.494  32.816  33.776  1.00  0.00    -0.275 OA
ATOM      5  H   UNL A   1      33.334  34.707  32.930  1.00  0.00     0.163 HD
BRANCH   3   6
ATOM      6  C   UNL A   1      36.293  34.240  34.450  1.00  0.00     0.116 C 
BRANCH   6   7
ATOM      7  C   UNL A   1      36.403  33.563  35.813  1.00  0.00     0.112 C 
BRANCH   7   8
ATOM      8  N   UNL A   1      37.430  32.497  35.804  1.00  0.00    -0.196 NA
BRANCH   8   9
ATOM      9  C   UNL A   1      38.207  32.304  34.566  1.00  0.00     0.099 C 
ATOM     10  C   UNL A   1      38.187  30.850  34.108  1.00  0.00     0.022 C 
ENDBRANCH   8   9
BRANCH   8  11
ATOM     11  S   UNL A   1      37.979  31.855  37.266  1.00  0.00     0.262 S 
ATOM     12  O   UNL A   1      37.481  30.503  37.370  1.00  0.00    -0.205 OA
ATOM     13  O   UNL A   1      39.394  32.142  37.401  1.00  0.00    -0.205 OA
BRANCH  11  14
ATOM     14  C   UNL A   1      37.258  32.587  38.675  1.00  0.00     0.188 A 
ATOM     15  C   UNL A   1      37.914  33.434  39.548  1.00  0.00     0.129 A 
ATOM     16  N   UNL A   1      36.063  32.156  39.231  1.00  0.00    -0.224 NA
ATOM     17  N   UNL A   1      37.150  33.430  40.678  1.00  0.00    -0.336 N 
ATOM     18  C   UNL A   1      36.057  32.644  40.451  1.00  0.00     0.201 A 
BRANCH  17  19
ATOM     19  C   UNL A   1      37.494  34.061  41.935  1.00  0.00     0.120 C 
ATOM     20  C   UNL A   1      38.739  33.450  42.547  1.00  0.00     0.027 C 
ENDBRANCH  17  19
ENDBRANCH  11  14
ENDBRANCH   8  11
ENDBRANCH   7   8
ENDBRANCH   6   7
ENDBRANCH   3   6
ENDBRANCH   1   2
BRANCH   1  21
ATOM     21  C   UNL A   1      33.465  37.201  32.463  1.00  0.00     0.023 C 
BRANCH  21  22
ATOM     22  C   UNL A   1      32.740  36.366  31.409  1.00  0.00     0.023 C 
BRANCH  22  23
ATOM     23  C   UNL A   1      33.314  36.492  30.018  1.00  0.00     0.116 C 
BRANCH  23  24
ATOM     24  N   UNL A   1      32.655  35.618  29.057  1.00  0.00    -0.352 N 
ATOM     25  C   UNL A   1      33.119  34.448  28.502  1.00  0.00     0.251 C 
ATOM     26  H   UNL A   1      31.758  35.901  28.767  1.00  0.00     0.163 HD
ATOM     27  O   UNL A   1      32.485  33.889  27.613  1.00  0.00    -0.269 OA
BRANCH  25  28
ATOM     28  C   UNL A   1      34.416  33.890  28.951  1.00  0.00     0.039 A 
ATOM     29  C   UNL A   1      34.450  33.076  30.088  1.00  0.00     0.014 A 
ATOM     30  C   UNL A   1      35.589  34.139  28.236  1.00  0.00     0.014 A 
ATOM     31  C   UNL A   1      35.648  32.466  30.466  1.00  0.00     0.010 A 
ATOM     32  C   UNL A   1      36.747  33.443  28.544  1.00  0.00     0.010 A 
ATOM     33  C   UNL A   1      36.798  32.620  29.677  1.00  0.00    -0.014 A 
BRANCH  33  34
ATOM     34  C   UNL A   1      38.092  31.991  30.038  1.00  0.00     0.031 A 
ATOM     35  C   UNL A   1      39.046  32.739  30.930  1.00  0.00     0.074 A 
ATOM     36  C   UNL A   1      38.445  30.810  29.497  1.00  0.00     0.049 A 
ATOM     37  N   UNL A   1      40.283  32.454  31.246  1.00  0.00    -0.248 NA
ATOM     38  C   UNL A   1      38.559  34.008  31.499  1.00  0.00     0.031 C 
ATOM     39  C   UNL A   1      37.636  30.025  28.563  1.00  0.00     0.029 A 
ATOM     40  N   UNL A   1      39.591  30.071  29.647  1.00  0.00    -0.354 N 
ATOM     41  C   UNL A   1      40.733  33.530  32.001  1.00  0.00     0.074 A 
ATOM     42  C   UNL A   1      39.658  34.495  32.053  1.00  0.00     0.031 C 
ATOM     43  C   UNL A   1      38.299  28.899  28.247  1.00  0.00     0.029 A 
ATOM     44  C   UNL A   1      39.588  28.900  28.930  1.00  0.00     0.049 A 
ATOM     45  H   UNL A   1      40.344  30.354  30.215  1.00  0.00     0.167 HD
ATOM     46  C   UNL A   1      41.923  33.687  32.624  1.00  0.00     0.037 A 
ATOM     47  C   UNL A   1      40.524  27.937  28.841  1.00  0.00     0.037 A 
ATOM     48  C   UNL A   1      42.956  32.688  32.636  1.00  0.00     0.049 A 
ATOM     49  C   UNL A   1      41.800  28.088  29.619  1.00  0.00     0.074 A 
ATOM     50  C   UNL A   1      44.170  32.705  33.298  1.00  0.00     0.029 A 
ATOM     51  N   UNL A   1      42.879  31.476  31.967  1.00  0.00    -0.354 N 
ATOM     52  N   UNL A   1      42.196  29.088  30.369  1.00  0.00    -0.248 NA
ATOM     53  C   UNL A   1      42.756  26.974  29.547  1.00  0.00     0.031 C 
ATOM     54  C   UNL A   1      44.833  31.505  33.021  1.00  0.00     0.029 A 
ATOM     55  C   UNL A   1      44.021  30.732  32.206  1.00  0.00     0.049 A 
ATOM     56  H   UNL A   1      42.124  31.187  31.405  1.00  0.00     0.167 HD
ATOM     57  C   UNL A   1      43.435  28.718  30.874  1.00  0.00     0.074 A 
ATOM     58  C   UNL A   1      43.718  27.394  30.358  1.00  0.00     0.031 C 
ATOM     59  C   UNL A   1      44.267  29.411  31.689  1.00  0.00     0.037 A 
BRANCH  46  60
ATOM     60  C   UNL A   1      42.151  34.976  33.359  1.00  0.00     0.057 A 
ATOM     61  C   UNL A   1      42.902  36.019  32.800  1.00  0.00     0.134 A 
ATOM     62  C   UNL A   1      41.620  35.175  34.638  1.00  0.00     0.134 A 
ATOM     63  F   UNL A   1      43.454  35.885  31.585  1.00  0.00    -0.206 F 
ATOM     64  C   UNL A   1      43.148  37.200  33.504  1.00  0.00     0.040 A 
ATOM     65  C   UNL A   1      41.835  36.362  35.340  1.00  0.00     0.040 A 
ATOM     66  F   UNL A   1      40.889  34.218  35.230  1.00  0.00    -0.206 F 
ATOM     67  C   UNL A   1      42.610  37.375  34.777  1.00  0.00     0.006 A 
ENDBRANCH  46  60
BRANCH  47  68
ATOM     68  C   UNL A   1      40.265  26.725  28.025  1.00  0.00     0.057 A 
ATOM     69  C   UNL A   1      40.822  26.589  26.748  1.00  0.00     0.134 A 
ATOM     70  C   UNL A   1      39.471  25.676  28.499  1.00  0.00     0.134 A 
ATOM     71  F   UNL A   1      41.580  27.570  26.234  1.00  0.00    -0.206 F 
ATOM     72  C   UNL A   1      40.586  25.459  25.963  1.00  0.00     0.040 A 
ATOM     73  C   UNL A   1      39.242  24.531  27.733  1.00  0.00     0.040 A 
ATOM     74  F   UNL A   1      38.916  25.743  29.717  1.00  0.00    -0.206 F 
ATOM     75  C   UNL A   1      39.797  24.423  26.459  1.00  0.00     0.006 A 
ENDBRANCH  47  68
BRANCH  59  76
ATOM     76  C   UNL A   1      45.541  28.738  32.092  1.00  0.00     0.057 A 
ATOM     77  C   UNL A   1      46.720  28.900  31.356  1.00  0.00     0.134 A 
ATOM     78  C   UNL A   1      45.598  27.961  33.256  1.00  0.00     0.134 A 
ATOM     79  F   UNL A   1      46.722  29.623  30.227  1.00  0.00    -0.206 F 
ATOM     80  C   UNL A   1      47.913  28.297  31.757  1.00  0.00     0.040 A 
ATOM     81  C   UNL A   1      46.789  27.370  33.677  1.00  0.00     0.040 A 
ATOM     82  F   UNL A   1      44.501  27.776  34.006  1.00  0.00    -0.206 F 
ATOM     83  C   UNL A   1      47.950  27.535  32.924  1.00  0.00     0.006 A 
ENDBRANCH  59  76
ENDBRANCH  33  34
ENDBRANCH  25  28
ENDBRANCH  23  24
ENDBRANCH  22  23
ENDBRANCH  21  22
ENDBRANCH   1  21
TORSDOF 17
ENDMDL
