MODEL 1
REMARK VINA RESULT:     -11.5      0.000      0.000
REMARK SMILES CC[C@H](C(=O)NCCCCNC(=O)c1ccc(-c2c3nc(c(-c4c(F)cccc4F)c4ccc([nH]4)c(-c4c(F)cccc4F)c4nc(c(-c5c(F)cccc5F)c5ccc2[nH]5)C=C4)C=C3)cc1)C1=CCCc2c(C)ccc(C)c21
REMARK SMILES IDX 9 1 8 2 7 3 6 4 4 5 5 6 3 8 2 9 1 10 68 11 69 12 79 13 70 14
REMARK SMILES IDX 72 15 77 16 71 17 73 18 76 19 78 20 74 21 75 22 10 23 11 24
REMARK SMILES IDX 12 25 13 27 14 28 15 29 67 30 16 31 66 32 17 33 18 34 19 35
REMARK SMILES IDX 60 36 20 37 65 38 59 39 61 40 21 41 64 42 58 43 57 44 22 46
REMARK SMILES IDX 48 47 31 48 47 49 32 50 35 51 46 52 62 53 33 54 34 55 45 57
REMARK SMILES IDX 63 58 36 59 23 60 24 61 29 62 25 63 26 64 28 65 30 66 27 67
REMARK SMILES IDX 49 68 50 69 55 70 51 71 52 72 54 73 56 74 53 75 37 76 38 77
REMARK SMILES IDX 43 78 39 79 40 80 42 81 44 82 41 83
REMARK H PARENT 6 7 11 26 61 45 35 56
REMARK Flexibility Score: inf
ROOT
ATOM      1  C   UNL A   1      37.652  19.942  24.544  1.00  0.00     0.023 C 
ENDROOT
BRANCH   1   2
ATOM      2  C   UNL A   1      36.240  19.477  24.904  1.00  0.00     0.023 C 
BRANCH   2   3
ATOM      3  C   UNL A   1      35.139  20.544  24.908  1.00  0.00     0.116 C 
BRANCH   3   4
ATOM      4  N   UNL A   1      34.796  21.062  26.232  1.00  0.00    -0.356 N 
ATOM      5  C   UNL A   1      34.549  22.287  26.787  1.00  0.00     0.227 C 
ATOM      6  O   UNL A   1      34.208  22.224  27.977  1.00  0.00    -0.274 OA
ATOM      7  H   UNL A   1      34.727  20.339  26.898  1.00  0.00     0.163 HD
BRANCH   5   8
ATOM      8  C   UNL A   1      34.766  23.681  26.109  1.00  0.00     0.108 C 
BRANCH   8   9
ATOM      9  C   UNL A   1      35.900  23.728  25.022  1.00  0.00     0.015 C 
ATOM     10  C   UNL A   1      37.356  23.675  25.516  1.00  0.00     0.005 C 
ENDBRANCH   8   9
BRANCH   8  11
ATOM     11  C   UNL A   1      33.489  24.367  25.547  1.00  0.00    -0.032 C 
ATOM     12  C   UNL A   1      33.026  25.448  26.235  1.00  0.00    -0.022 C 
ATOM     13  C   UNL A   1      32.902  24.359  24.104  1.00  0.00    -0.016 A 
ATOM     14  C   UNL A   1      33.564  26.788  25.684  1.00  0.00     0.032 C 
ATOM     15  C   UNL A   1      32.716  25.721  23.685  1.00  0.00    -0.037 A 
ATOM     16  C   UNL A   1      31.908  23.441  23.702  1.00  0.00    -0.043 A 
ATOM     17  C   UNL A   1      33.796  26.670  24.175  1.00  0.00     0.040 C 
ATOM     18  C   UNL A   1      31.429  26.197  23.340  1.00  0.00    -0.047 A 
ATOM     19  C   UNL A   1      30.633  23.917  23.324  1.00  0.00     0.004 A 
ATOM     20  C   UNL A   1      32.228  22.053  23.208  1.00  0.00     0.045 C 
ATOM     21  C   UNL A   1      31.071  27.657  23.404  1.00  0.00     0.044 C 
ATOM     22  C   UNL A   1      30.382  25.280  23.211  1.00  0.00     0.004 A 
ENDBRANCH   8  11
ENDBRANCH   5   8
ENDBRANCH   3   4
ENDBRANCH   2   3
ENDBRANCH   1   2
BRANCH   1  23
ATOM     23  C   UNL A   1      38.611  20.174  25.712  1.00  0.00     0.116 C 
BRANCH  23  24
ATOM     24  N   UNL A   1      39.789  19.319  25.673  1.00  0.00    -0.352 N 
ATOM     25  C   UNL A   1      41.102  19.568  26.004  1.00  0.00     0.251 C 
ATOM     26  H   UNL A   1      39.616  18.403  25.355  1.00  0.00     0.163 HD
ATOM     27  O   UNL A   1      41.944  18.708  25.773  1.00  0.00    -0.269 OA
BRANCH  25  28
ATOM     28  C   UNL A   1      41.534  20.859  26.604  1.00  0.00     0.039 A 
ATOM     29  C   UNL A   1      41.937  21.887  25.741  1.00  0.00     0.014 A 
ATOM     30  C   UNL A   1      41.603  21.067  27.983  1.00  0.00     0.014 A 
ATOM     31  C   UNL A   1      42.336  23.126  26.255  1.00  0.00     0.010 A 
ATOM     32  C   UNL A   1      41.925  22.329  28.494  1.00  0.00     0.010 A 
ATOM     33  C   UNL A   1      42.296  23.375  27.637  1.00  0.00    -0.014 A 
BRANCH  33  34
ATOM     34  C   UNL A   1      42.617  24.730  28.171  1.00  0.00     0.031 A 
ATOM     35  C   UNL A   1      44.030  25.118  28.519  1.00  0.00     0.074 A 
ATOM     36  C   UNL A   1      41.620  25.615  28.369  1.00  0.00     0.049 A 
ATOM     37  N   UNL A   1      44.488  26.265  28.960  1.00  0.00    -0.248 NA
ATOM     38  C   UNL A   1      45.062  24.080  28.377  1.00  0.00     0.031 C 
ATOM     39  C   UNL A   1      40.199  25.353  28.135  1.00  0.00     0.029 A 
ATOM     40  N   UNL A   1      41.647  26.917  28.806  1.00  0.00    -0.354 N 
ATOM     41  C   UNL A   1      45.853  26.085  29.148  1.00  0.00     0.074 A 
ATOM     42  C   UNL A   1      46.140  24.702  28.830  1.00  0.00     0.031 C 
ATOM     43  C   UNL A   1      39.497  26.468  28.390  1.00  0.00     0.029 A 
ATOM     44  C   UNL A   1      40.409  27.514  28.839  1.00  0.00     0.049 A 
ATOM     45  H   UNL A   1      42.475  27.379  29.072  1.00  0.00     0.167 HD
ATOM     46  C   UNL A   1      46.787  26.992  29.526  1.00  0.00     0.037 A 
ATOM     47  C   UNL A   1      40.047  28.764  29.185  1.00  0.00     0.037 A 
ATOM     48  C   UNL A   1      46.507  28.372  29.833  1.00  0.00     0.049 A 
ATOM     49  C   UNL A   1      41.102  29.752  29.597  1.00  0.00     0.074 A 
ATOM     50  C   UNL A   1      47.396  29.379  30.172  1.00  0.00     0.029 A 
ATOM     51  N   UNL A   1      45.242  28.939  29.849  1.00  0.00    -0.354 N 
ATOM     52  N   UNL A   1      42.400  29.589  29.687  1.00  0.00    -0.248 NA
ATOM     53  C   UNL A   1      40.642  31.105  29.940  1.00  0.00     0.031 C 
ATOM     54  C   UNL A   1      46.663  30.540  30.442  1.00  0.00     0.029 A 
ATOM     55  C   UNL A   1      45.324  30.275  30.213  1.00  0.00     0.049 A 
ATOM     56  H   UNL A   1      44.406  28.463  29.633  1.00  0.00     0.167 HD
ATOM     57  C   UNL A   1      42.913  30.821  30.070  1.00  0.00     0.074 A 
ATOM     58  C   UNL A   1      41.789  31.728  30.171  1.00  0.00     0.031 C 
ATOM     59  C   UNL A   1      44.200  31.171  30.315  1.00  0.00     0.037 A 
BRANCH  46  60
ATOM     60  C   UNL A   1      48.212  26.520  29.625  1.00  0.00     0.057 A 
ATOM     61  C   UNL A   1      48.726  25.958  30.802  1.00  0.00     0.134 A 
ATOM     62  C   UNL A   1      49.070  26.587  28.519  1.00  0.00     0.134 A 
ATOM     63  F   UNL A   1      47.962  25.869  31.902  1.00  0.00    -0.206 F 
ATOM     64  C   UNL A   1      50.044  25.506  30.884  1.00  0.00     0.040 A 
ATOM     65  C   UNL A   1      50.381  26.112  28.579  1.00  0.00     0.040 A 
ATOM     66  F   UNL A   1      48.643  27.103  27.356  1.00  0.00    -0.206 F 
ATOM     67  C   UNL A   1      50.875  25.576  29.767  1.00  0.00     0.006 A 
ENDBRANCH  46  60
BRANCH  47  68
ATOM     68  C   UNL A   1      38.618  29.168  29.123  1.00  0.00     0.057 A 
ATOM     69  C   UNL A   1      38.049  29.640  27.935  1.00  0.00     0.134 A 
ATOM     70  C   UNL A   1      37.792  29.105  30.252  1.00  0.00     0.134 A 
ATOM     71  F   UNL A   1      38.793  29.743  26.824  1.00  0.00    -0.206 F 
ATOM     72  C   UNL A   1      36.718  30.058  27.875  1.00  0.00     0.040 A 
ATOM     73  C   UNL A   1      36.452  29.491  30.200  1.00  0.00     0.040 A 
ATOM     74  F   UNL A   1      38.273  28.654  31.419  1.00  0.00    -0.206 F 
ATOM     75  C   UNL A   1      35.914  29.977  29.010  1.00  0.00     0.006 A 
ENDBRANCH  47  68
BRANCH  59  76
ATOM     76  C   UNL A   1      44.461  32.604  30.681  1.00  0.00     0.057 A 
ATOM     77  C   UNL A   1      44.700  33.589  29.712  1.00  0.00     0.134 A 
ATOM     78  C   UNL A   1      44.470  33.007  32.023  1.00  0.00     0.134 A 
ATOM     79  F   UNL A   1      44.717  33.271  28.409  1.00  0.00    -0.206 F 
ATOM     80  C   UNL A   1      44.976  34.911  30.067  1.00  0.00     0.040 A 
ATOM     81  C   UNL A   1      44.713  34.332  32.388  1.00  0.00     0.040 A 
ATOM     82  F   UNL A   1      44.238  32.120  33.002  1.00  0.00    -0.206 F 
ATOM     83  C   UNL A   1      44.979  35.286  31.409  1.00  0.00     0.006 A 
ENDBRANCH  59  76
ENDBRANCH  33  34
ENDBRANCH  25  28
ENDBRANCH  23  24
ENDBRANCH   1  23
TORSDOF 13
ENDMDL
MODEL 2
REMARK VINA RESULT:     -11.5      4.680      9.371
REMARK SMILES CC[C@H](C(=O)NCCCCNC(=O)c1ccc(-c2c3nc(c(-c4c(F)cccc4F)c4ccc([nH]4)c(-c4c(F)cccc4F)c4nc(c(-c5c(F)cccc5F)c5ccc2[nH]5)C=C4)C=C3)cc1)C1=CCCc2c(C)ccc(C)c21
REMARK SMILES IDX 9 1 8 2 7 3 6 4 4 5 5 6 3 8 2 9 1 10 68 11 69 12 79 13 70 14
REMARK SMILES IDX 72 15 77 16 71 17 73 18 76 19 78 20 74 21 75 22 10 23 11 24
REMARK SMILES IDX 12 25 13 27 14 28 15 29 67 30 16 31 66 32 17 33 18 34 19 35
REMARK SMILES IDX 60 36 20 37 65 38 59 39 61 40 21 41 64 42 58 43 57 44 22 46
REMARK SMILES IDX 48 47 31 48 47 49 32 50 35 51 46 52 62 53 33 54 34 55 45 57
REMARK SMILES IDX 63 58 36 59 23 60 24 61 29 62 25 63 26 64 28 65 30 66 27 67
REMARK SMILES IDX 49 68 50 69 55 70 51 71 52 72 54 73 56 74 53 75 37 76 38 77
REMARK SMILES IDX 43 78 39 79 40 80 42 81 44 82 41 83
REMARK H PARENT 6 7 11 26 61 45 35 56
REMARK Flexibility Score: inf
ROOT
ATOM      1  C   UNL A   1      31.433  32.033  26.807  1.00  0.00     0.023 C 
ENDROOT
BRANCH   1   2
ATOM      2  C   UNL A   1      31.710  30.566  26.471  1.00  0.00     0.023 C 
BRANCH   2   3
ATOM      3  C   UNL A   1      33.160  30.086  26.608  1.00  0.00     0.116 C 
BRANCH   3   4
ATOM      4  N   UNL A   1      33.662  29.329  25.461  1.00  0.00    -0.356 N 
ATOM      5  C   UNL A   1      33.350  28.156  24.829  1.00  0.00     0.227 C 
ATOM      6  O   UNL A   1      34.027  27.956  23.810  1.00  0.00    -0.274 OA
ATOM      7  H   UNL A   1      34.423  29.783  25.032  1.00  0.00     0.163 HD
BRANCH   5   8
ATOM      8  C   UNL A   1      32.351  27.061  25.332  1.00  0.00     0.108 C 
BRANCH   8   9
ATOM      9  C   UNL A   1      30.837  27.339  25.015  1.00  0.00     0.015 C 
ATOM     10  C   UNL A   1      30.517  28.149  23.748  1.00  0.00     0.005 C 
ENDBRANCH   8   9
BRANCH   8  11
ATOM     11  C   UNL A   1      32.697  25.597  24.940  1.00  0.00    -0.032 C 
ATOM     12  C   UNL A   1      33.232  24.815  25.919  1.00  0.00    -0.022 C 
ATOM     13  C   UNL A   1      32.128  24.708  23.795  1.00  0.00    -0.016 A 
ATOM     14  C   UNL A   1      32.170  23.990  26.680  1.00  0.00     0.032 C 
ATOM     15  C   UNL A   1      31.653  23.480  24.372  1.00  0.00    -0.037 A 
ATOM     16  C   UNL A   1      32.762  24.603  22.539  1.00  0.00    -0.043 A 
ATOM     17  C   UNL A   1      31.012  23.647  25.738  1.00  0.00     0.040 C 
ATOM     18  C   UNL A   1      32.203  22.239  23.971  1.00  0.00    -0.047 A 
ATOM     19  C   UNL A   1      33.282  23.356  22.123  1.00  0.00     0.004 A 
ATOM     20  C   UNL A   1      32.530  25.587  21.420  1.00  0.00     0.045 C 
ATOM     21  C   UNL A   1      32.153  21.019  24.852  1.00  0.00     0.044 C 
ATOM     22  C   UNL A   1      33.059  22.204  22.868  1.00  0.00     0.004 A 
ENDBRANCH   8  11
ENDBRANCH   5   8
ENDBRANCH   3   4
ENDBRANCH   2   3
ENDBRANCH   1   2
BRANCH   1  23
ATOM     23  C   UNL A   1      32.651  32.952  26.898  1.00  0.00     0.116 C 
BRANCH  23  24
ATOM     24  N   UNL A   1      32.392  34.187  27.624  1.00  0.00    -0.352 N 
ATOM     25  C   UNL A   1      33.013  34.741  28.721  1.00  0.00     0.251 C 
ATOM     26  H   UNL A   1      31.643  34.718  27.268  1.00  0.00     0.163 HD
ATOM     27  O   UNL A   1      32.532  35.749  29.227  1.00  0.00    -0.269 OA
BRANCH  25  28
ATOM     28  C   UNL A   1      34.229  34.138  29.329  1.00  0.00     0.039 A 
ATOM     29  C   UNL A   1      34.059  33.138  30.295  1.00  0.00     0.014 A 
ATOM     30  C   UNL A   1      35.522  34.563  29.015  1.00  0.00     0.014 A 
ATOM     31  C   UNL A   1      35.171  32.527  30.885  1.00  0.00     0.010 A 
ATOM     32  C   UNL A   1      36.634  33.898  29.544  1.00  0.00     0.010 A 
ATOM     33  C   UNL A   1      36.473  32.872  30.486  1.00  0.00    -0.014 A 
BRANCH  33  34
ATOM     34  C   UNL A   1      37.652  32.143  31.037  1.00  0.00     0.031 A 
ATOM     35  C   UNL A   1      38.158  32.414  32.429  1.00  0.00     0.074 A 
ATOM     36  C   UNL A   1      38.291  31.241  30.264  1.00  0.00     0.049 A 
ATOM     37  N   UNL A   1      39.147  31.844  33.075  1.00  0.00    -0.248 NA
ATOM     38  C   UNL A   1      37.485  33.477  33.189  1.00  0.00     0.031 C 
ATOM     39  C   UNL A   1      37.947  30.924  28.877  1.00  0.00     0.029 A 
ATOM     40  N   UNL A   1      39.357  30.420  30.536  1.00  0.00    -0.354 N 
ATOM     41  C   UNL A   1      39.213  32.478  34.310  1.00  0.00     0.074 A 
ATOM     42  C   UNL A   1      38.205  33.517  34.301  1.00  0.00     0.031 C 
ATOM     43  C   UNL A   1      38.759  29.952  28.433  1.00  0.00     0.029 A 
ATOM     44  C   UNL A   1      39.702  29.598  29.489  1.00  0.00     0.049 A 
ATOM     45  H   UNL A   1      39.832  30.421  31.399  1.00  0.00     0.167 HD
ATOM     46  C   UNL A   1      40.022  32.207  35.364  1.00  0.00     0.037 A 
ATOM     47  C   UNL A   1      40.662  28.660  29.389  1.00  0.00     0.037 A 
ATOM     48  C   UNL A   1      41.020  31.169  35.380  1.00  0.00     0.049 A 
ATOM     49  C   UNL A   1      41.543  28.375  30.574  1.00  0.00     0.074 A 
ATOM     50  C   UNL A   1      41.849  30.783  36.421  1.00  0.00     0.029 A 
ATOM     51  N   UNL A   1      41.333  30.354  34.302  1.00  0.00    -0.354 N 
ATOM     52  N   UNL A   1      41.536  28.927  31.763  1.00  0.00    -0.248 NA
ATOM     53  C   UNL A   1      42.557  27.325  30.405  1.00  0.00     0.031 C 
ATOM     54  C   UNL A   1      42.697  29.771  35.957  1.00  0.00     0.029 A 
ATOM     55  C   UNL A   1      42.357  29.484  34.647  1.00  0.00     0.049 A 
ATOM     56  H   UNL A   1      40.893  30.387  33.422  1.00  0.00     0.167 HD
ATOM     57  C   UNL A   1      42.522  28.274  32.491  1.00  0.00     0.074 A 
ATOM     58  C   UNL A   1      43.090  27.269  31.618  1.00  0.00     0.031 C 
ATOM     59  C   UNL A   1      42.920  28.487  33.770  1.00  0.00     0.037 A 
BRANCH  46  60
ATOM     60  C   UNL A   1      39.857  33.050  36.599  1.00  0.00     0.057 A 
ATOM     61  C   UNL A   1      40.620  34.206  36.814  1.00  0.00     0.134 A 
ATOM     62  C   UNL A   1      38.894  32.728  37.565  1.00  0.00     0.134 A 
ATOM     63  F   UNL A   1      41.565  34.570  35.933  1.00  0.00    -0.206 F 
ATOM     64  C   UNL A   1      40.451  34.994  37.954  1.00  0.00     0.040 A 
ATOM     65  C   UNL A   1      38.696  33.524  38.694  1.00  0.00     0.040 A 
ATOM     66  F   UNL A   1      38.120  31.642  37.420  1.00  0.00    -0.206 F 
ATOM     67  C   UNL A   1      39.482  34.657  38.896  1.00  0.00     0.006 A 
ENDBRANCH  46  60
BRANCH  47  68
ATOM     68  C   UNL A   1      40.822  27.890  28.128  1.00  0.00     0.057 A 
ATOM     69  C   UNL A   1      40.187  26.656  27.947  1.00  0.00     0.134 A 
ATOM     70  C   UNL A   1      41.623  28.362  27.081  1.00  0.00     0.134 A 
ATOM     71  F   UNL A   1      39.423  26.140  28.920  1.00  0.00    -0.206 F 
ATOM     72  C   UNL A   1      40.361  25.907  26.780  1.00  0.00     0.040 A 
ATOM     73  C   UNL A   1      41.782  27.639  25.899  1.00  0.00     0.040 A 
ATOM     74  F   UNL A   1      42.252  29.542  27.188  1.00  0.00    -0.206 F 
ATOM     75  C   UNL A   1      41.157  26.403  25.749  1.00  0.00     0.006 A 
ENDBRANCH  47  68
BRANCH  59  76
ATOM     76  C   UNL A   1      43.998  27.591  34.309  1.00  0.00     0.057 A 
ATOM     77  C   UNL A   1      45.353  27.948  34.270  1.00  0.00     0.134 A 
ATOM     78  C   UNL A   1      43.676  26.353  34.880  1.00  0.00     0.134 A 
ATOM     79  F   UNL A   1      45.733  29.115  33.727  1.00  0.00    -0.206 F 
ATOM     80  C   UNL A   1      46.350  27.091  34.742  1.00  0.00     0.040 A 
ATOM     81  C   UNL A   1      44.661  25.501  35.385  1.00  0.00     0.040 A 
ATOM     82  F   UNL A   1      42.399  25.951  34.961  1.00  0.00    -0.206 F 
ATOM     83  C   UNL A   1      46.002  25.865  35.305  1.00  0.00     0.006 A 
ENDBRANCH  59  76
ENDBRANCH  33  34
ENDBRANCH  25  28
ENDBRANCH  23  24
ENDBRANCH   1  23
TORSDOF 13
ENDMDL
MODEL 3
REMARK VINA RESULT:     -11.4      0.884      2.093
REMARK SMILES CC[C@H](C(=O)NCCCCNC(=O)c1ccc(-c2c3nc(c(-c4c(F)cccc4F)c4ccc([nH]4)c(-c4c(F)cccc4F)c4nc(c(-c5c(F)cccc5F)c5ccc2[nH]5)C=C4)C=C3)cc1)C1=CCCc2c(C)ccc(C)c21
REMARK SMILES IDX 9 1 8 2 7 3 6 4 4 5 5 6 3 8 2 9 1 10 68 11 69 12 79 13 70 14
REMARK SMILES IDX 72 15 77 16 71 17 73 18 76 19 78 20 74 21 75 22 10 23 11 24
REMARK SMILES IDX 12 25 13 27 14 28 15 29 67 30 16 31 66 32 17 33 18 34 19 35
REMARK SMILES IDX 60 36 20 37 65 38 59 39 61 40 21 41 64 42 58 43 57 44 22 46
REMARK SMILES IDX 48 47 31 48 47 49 32 50 35 51 46 52 62 53 33 54 34 55 45 57
REMARK SMILES IDX 63 58 36 59 23 60 24 61 29 62 25 63 26 64 28 65 30 66 27 67
REMARK SMILES IDX 49 68 50 69 55 70 51 71 52 72 54 73 56 74 53 75 37 76 38 77
REMARK SMILES IDX 43 78 39 79 40 80 42 81 44 82 41 83
REMARK H PARENT 6 7 11 26 61 45 35 56
REMARK Flexibility Score: inf
ROOT
ATOM      1  C   UNL A   1      38.421  19.676  24.781  1.00  0.00     0.023 C 
ENDROOT
BRANCH   1   2
ATOM      2  C   UNL A   1      37.216  20.612  24.894  1.00  0.00     0.023 C 
BRANCH   2   3
ATOM      3  C   UNL A   1      37.459  21.981  25.538  1.00  0.00     0.116 C 
BRANCH   3   4
ATOM      4  N   UNL A   1      36.328  22.503  26.306  1.00  0.00    -0.356 N 
ATOM      5  C   UNL A   1      35.092  23.020  26.029  1.00  0.00     0.227 C 
ATOM      6  O   UNL A   1      34.425  23.261  27.045  1.00  0.00    -0.274 OA
ATOM      7  H   UNL A   1      36.502  22.474  27.274  1.00  0.00     0.163 HD
BRANCH   5   8
ATOM      8  C   UNL A   1      34.540  23.417  24.619  1.00  0.00     0.108 C 
BRANCH   8   9
ATOM      9  C   UNL A   1      34.067  22.217  23.722  1.00  0.00     0.015 C 
ATOM     10  C   UNL A   1      33.428  21.011  24.433  1.00  0.00     0.005 C 
ENDBRANCH   8   9
BRANCH   8  11
ATOM     11  C   UNL A   1      33.452  24.527  24.606  1.00  0.00    -0.032 C 
ATOM     12  C   UNL A   1      33.853  25.768  24.210  1.00  0.00    -0.022 C 
ATOM     13  C   UNL A   1      31.902  24.407  24.503  1.00  0.00    -0.016 A 
ATOM     14  C   UNL A   1      33.632  26.021  22.702  1.00  0.00     0.032 C 
ATOM     15  C   UNL A   1      31.458  25.226  23.409  1.00  0.00    -0.037 A 
ATOM     16  C   UNL A   1      31.072  24.387  25.644  1.00  0.00    -0.043 A 
ATOM     17  C   UNL A   1      32.406  25.238  22.222  1.00  0.00     0.040 C 
ATOM     18  C   UNL A   1      30.555  26.293  23.631  1.00  0.00    -0.047 A 
ATOM     19  C   UNL A   1      30.146  25.434  25.850  1.00  0.00     0.004 A 
ATOM     20  C   UNL A   1      30.773  23.127  26.416  1.00  0.00     0.045 C 
ATOM     21  C   UNL A   1      30.458  27.468  22.695  1.00  0.00     0.044 C 
ATOM     22  C   UNL A   1      29.942  26.410  24.881  1.00  0.00     0.004 A 
ENDBRANCH   8  11
ENDBRANCH   5   8
ENDBRANCH   3   4
ENDBRANCH   2   3
ENDBRANCH   1   2
BRANCH   1  23
ATOM     23  C   UNL A   1      39.239  19.464  26.055  1.00  0.00     0.116 C 
BRANCH  23  24
ATOM     24  N   UNL A   1      40.572  18.934  25.806  1.00  0.00    -0.352 N 
ATOM     25  C   UNL A   1      41.815  19.519  25.906  1.00  0.00     0.251 C 
ATOM     26  H   UNL A   1      40.587  17.992  25.517  1.00  0.00     0.163 HD
ATOM     27  O   UNL A   1      42.796  18.890  25.526  1.00  0.00    -0.269 OA
BRANCH  25  28
ATOM     28  C   UNL A   1      41.998  20.899  26.430  1.00  0.00     0.039 A 
ATOM     29  C   UNL A   1      41.892  21.101  27.812  1.00  0.00     0.014 A 
ATOM     30  C   UNL A   1      42.218  22.000  25.599  1.00  0.00     0.014 A 
ATOM     31  C   UNL A   1      42.073  22.377  28.356  1.00  0.00     0.010 A 
ATOM     32  C   UNL A   1      42.478  23.260  26.149  1.00  0.00     0.010 A 
ATOM     33  C   UNL A   1      42.409  23.466  27.534  1.00  0.00    -0.014 A 
BRANCH  33  34
ATOM     34  C   UNL A   1      42.708  24.800  28.129  1.00  0.00     0.031 A 
ATOM     35  C   UNL A   1      44.107  25.175  28.542  1.00  0.00     0.074 A 
ATOM     36  C   UNL A   1      41.703  25.677  28.323  1.00  0.00     0.049 A 
ATOM     37  N   UNL A   1      44.546  26.306  29.041  1.00  0.00    -0.248 NA
ATOM     38  C   UNL A   1      45.145  24.144  28.400  1.00  0.00     0.031 C 
ATOM     39  C   UNL A   1      40.291  25.423  28.027  1.00  0.00     0.029 A 
ATOM     40  N   UNL A   1      41.712  26.962  28.807  1.00  0.00    -0.354 N 
ATOM     41  C   UNL A   1      45.904  26.120  29.272  1.00  0.00     0.074 A 
ATOM     42  C   UNL A   1      46.205  24.750  28.915  1.00  0.00     0.031 C 
ATOM     43  C   UNL A   1      39.579  26.528  28.298  1.00  0.00     0.029 A 
ATOM     44  C   UNL A   1      40.473  27.557  28.817  1.00  0.00     0.049 A 
ATOM     45  H   UNL A   1      42.529  27.415  29.120  1.00  0.00     0.167 HD
ATOM     46  C   UNL A   1      46.822  27.013  29.716  1.00  0.00     0.037 A 
ATOM     47  C   UNL A   1      40.095  28.793  29.195  1.00  0.00     0.037 A 
ATOM     48  C   UNL A   1      46.529  28.380  30.063  1.00  0.00     0.049 A 
ATOM     49  C   UNL A   1      41.134  29.767  29.680  1.00  0.00     0.074 A 
ATOM     50  C   UNL A   1      47.403  29.375  30.470  1.00  0.00     0.029 A 
ATOM     51  N   UNL A   1      45.263  28.946  30.053  1.00  0.00    -0.354 N 
ATOM     52  N   UNL A   1      42.427  29.600  29.812  1.00  0.00    -0.248 NA
ATOM     53  C   UNL A   1      40.659  31.105  30.056  1.00  0.00     0.031 C 
ATOM     54  C   UNL A   1      46.659  30.525  30.755  1.00  0.00     0.029 A 
ATOM     55  C   UNL A   1      45.330  30.268  30.469  1.00  0.00     0.049 A 
ATOM     56  H   UNL A   1      44.437  28.479  29.790  1.00  0.00     0.167 HD
ATOM     57  C   UNL A   1      42.924  30.818  30.258  1.00  0.00     0.074 A 
ATOM     58  C   UNL A   1      41.795  31.720  30.351  1.00  0.00     0.031 C 
ATOM     59  C   UNL A   1      44.201  31.159  30.562  1.00  0.00     0.037 A 
BRANCH  46  60
ATOM     60  C   UNL A   1      48.243  26.538  29.850  1.00  0.00     0.057 A 
ATOM     61  C   UNL A   1      49.184  26.721  28.826  1.00  0.00     0.134 A 
ATOM     62  C   UNL A   1      48.691  25.931  31.031  1.00  0.00     0.134 A 
ATOM     63  F   UNL A   1      48.823  27.290  27.665  1.00  0.00    -0.206 F 
ATOM     64  C   UNL A   1      50.506  26.294  28.961  1.00  0.00     0.040 A 
ATOM     65  C   UNL A   1      50.017  25.526  31.189  1.00  0.00     0.040 A 
ATOM     66  F   UNL A   1      47.848  25.734  32.056  1.00  0.00    -0.206 F 
ATOM     67  C   UNL A   1      50.928  25.700  30.149  1.00  0.00     0.006 A 
ENDBRANCH  46  60
BRANCH  47  68
ATOM     68  C   UNL A   1      38.669  29.199  29.096  1.00  0.00     0.057 A 
ATOM     69  C   UNL A   1      37.822  29.145  30.209  1.00  0.00     0.134 A 
ATOM     70  C   UNL A   1      38.116  29.635  27.886  1.00  0.00     0.134 A 
ATOM     71  F   UNL A   1      38.286  28.717  31.391  1.00  0.00    -0.206 F 
ATOM     72  C   UNL A   1      36.471  29.488  30.118  1.00  0.00     0.040 A 
ATOM     73  C   UNL A   1      36.775  30.009  27.787  1.00  0.00     0.040 A 
ATOM     74  F   UNL A   1      38.876  29.717  26.784  1.00  0.00    -0.206 F 
ATOM     75  C   UNL A   1      35.946  29.928  28.904  1.00  0.00     0.006 A 
ENDBRANCH  47  68
BRANCH  59  76
ATOM     76  C   UNL A   1      44.446  32.578  30.989  1.00  0.00     0.057 A 
ATOM     77  C   UNL A   1      44.415  32.968  32.335  1.00  0.00     0.134 A 
ATOM     78  C   UNL A   1      44.723  33.571  30.039  1.00  0.00     0.134 A 
ATOM     79  F   UNL A   1      44.146  32.070  33.296  1.00  0.00    -0.206 F 
ATOM     80  C   UNL A   1      44.610  34.296  32.717  1.00  0.00     0.040 A 
ATOM     81  C   UNL A   1      44.951  34.896  30.412  1.00  0.00     0.040 A 
ATOM     82  F   UNL A   1      44.779  33.268  28.734  1.00  0.00    -0.206 F 
ATOM     83  C   UNL A   1      44.883  35.264  31.753  1.00  0.00     0.006 A 
ENDBRANCH  59  76
ENDBRANCH  33  34
ENDBRANCH  25  28
ENDBRANCH  23  24
ENDBRANCH   1  23
TORSDOF 13
ENDMDL
