MODEL 1
REMARK VINA RESULT:     -10.7      0.000      0.000
REMARK SMILES CC(C)C[C@@H](C)NS(=O)(=O)c1ccsc1C(=O)NCCCCNC(=O)c1ccc(-c2c3nc(c(-c4c(F)cccc4F)c4ccc([nH]4)c(-c4c(F)cccc4F)c4nc(c(-c5c(F)cccc5F)c5ccc2[nH]5)C=C4)C=C3)cc1
REMARK SMILES IDX 19 1 18 2 16 3 17 4 15 6 11 7 12 8 13 9 14 10 8 11 9 12
REMARK SMILES IDX 10 13 7 14 5 16 6 17 4 18 2 19 1 20 3 21 20 22 21 23 22 24
REMARK SMILES IDX 23 25 24 26 25 28 26 29 27 30 79 31 28 32 78 33 29 34 30 35
REMARK SMILES IDX 31 36 72 37 32 38 77 39 71 40 73 41 33 42 76 43 70 44 69 45
REMARK SMILES IDX 34 47 60 48 43 49 59 50 44 51 47 52 58 53 74 54 45 55 46 56
REMARK SMILES IDX 57 58 75 59 48 60 35 61 36 62 41 63 37 64 38 65 40 66 42 67
REMARK SMILES IDX 39 68 61 69 62 70 67 71 63 72 64 73 66 74 68 75 65 76 49 77
REMARK SMILES IDX 50 78 55 79 51 80 52 81 54 82 56 83 53 84
REMARK H PARENT 18 5 7 15 23 27 73 46 47 57
REMARK Flexibility Score: inf
ROOT
ATOM      1  C   UNL A   1      37.525  23.642  25.764  1.00  0.00     0.116 C 
ENDROOT
BRANCH   1   2
ATOM      2  N   UNL A   1      37.231  23.273  24.409  1.00  0.00    -0.351 N 
ATOM      3  C   UNL A   1      36.025  23.281  23.744  1.00  0.00     0.262 C 
ATOM      4  O   UNL A   1      36.104  23.040  22.534  1.00  0.00    -0.268 OA
ATOM      5  H   UNL A   1      38.003  22.971  23.876  1.00  0.00     0.163 HD
BRANCH   3   6
ATOM      6  C   UNL A   1      34.736  23.435  24.420  1.00  0.00     0.112 A 
ATOM      7  C   UNL A   1      34.026  22.762  25.409  1.00  0.00     0.106 A 
ATOM      8  C   UNL A   1      32.799  23.431  25.758  1.00  0.00     0.034 A 
ATOM      9  C   UNL A   1      32.604  24.592  25.055  1.00  0.00     0.067 A 
ATOM     10  S   UNL A   1      33.869  24.876  23.959  1.00  0.00    -0.137 S 
BRANCH   7  11
ATOM     11  S   UNL A   1      34.456  21.322  26.279  1.00  0.00     0.242 S 
ATOM     12  O   UNL A   1      34.465  21.709  27.666  1.00  0.00    -0.207 OA
ATOM     13  O   UNL A   1      35.655  20.824  25.639  1.00  0.00    -0.207 OA
BRANCH  11  14
ATOM     14  N   UNL A   1      33.219  20.168  26.064  1.00  0.00    -0.208 NA
ATOM     15  H   UNL A   1      33.246  19.541  26.868  1.00  0.00     0.141 HD
BRANCH  14  16
ATOM     16  C   UNL A   1      33.259  19.315  24.836  1.00  0.00     0.067 C 
ATOM     17  C   UNL A   1      32.465  20.003  23.727  1.00  0.00     0.025 C 
BRANCH  16  18
ATOM     18  C   UNL A   1      32.667  17.921  25.169  1.00  0.00     0.022 C 
BRANCH  18  19
ATOM     19  C   UNL A   1      33.606  16.728  24.856  1.00  0.00    -0.016 C 
ATOM     20  C   UNL A   1      32.997  15.386  25.269  1.00  0.00     0.007 C 
ATOM     21  C   UNL A   1      33.973  16.681  23.369  1.00  0.00     0.007 C 
ENDBRANCH  18  19
ENDBRANCH  16  18
ENDBRANCH  14  16
ENDBRANCH  11  14
ENDBRANCH   7  11
ENDBRANCH   3   6
ENDBRANCH   1   2
BRANCH   1  22
ATOM     22  C   UNL A   1      38.741  22.993  26.403  1.00  0.00     0.023 C 
BRANCH  22  23
ATOM     23  C   UNL A   1      39.356  21.805  25.665  1.00  0.00     0.023 C 
BRANCH  23  24
ATOM     24  C   UNL A   1      39.237  20.427  26.315  1.00  0.00     0.116 C 
BRANCH  24  25
ATOM     25  N   UNL A   1      40.298  19.493  25.960  1.00  0.00    -0.352 N 
ATOM     26  C   UNL A   1      41.667  19.625  26.041  1.00  0.00     0.251 C 
ATOM     27  H   UNL A   1      39.987  18.630  25.605  1.00  0.00     0.163 HD
ATOM     28  O   UNL A   1      42.397  18.727  25.634  1.00  0.00    -0.269 OA
BRANCH  26  29
ATOM     29  C   UNL A   1      42.260  20.875  26.567  1.00  0.00     0.039 A 
ATOM     30  C   UNL A   1      42.804  21.797  25.669  1.00  0.00     0.014 A 
ATOM     31  C   UNL A   1      42.225  21.164  27.932  1.00  0.00     0.014 A 
ATOM     32  C   UNL A   1      43.194  23.060  26.126  1.00  0.00     0.010 A 
ATOM     33  C   UNL A   1      42.524  22.451  28.369  1.00  0.00     0.010 A 
ATOM     34  C   UNL A   1      42.993  23.421  27.469  1.00  0.00    -0.014 A 
BRANCH  34  35
ATOM     35  C   UNL A   1      43.229  24.810  27.946  1.00  0.00     0.031 A 
ATOM     36  C   UNL A   1      44.617  25.259  28.316  1.00  0.00     0.074 A 
ATOM     37  C   UNL A   1      42.184  25.641  28.135  1.00  0.00     0.049 A 
ATOM     38  N   UNL A   1      45.006  26.392  28.846  1.00  0.00    -0.248 NA
ATOM     39  C   UNL A   1      45.707  24.297  28.092  1.00  0.00     0.031 C 
ATOM     40  C   UNL A   1      40.778  25.312  27.880  1.00  0.00     0.029 A 
ATOM     41  N   UNL A   1      42.136  26.931  28.606  1.00  0.00    -0.354 N 
ATOM     42  C   UNL A   1      46.376  26.268  29.039  1.00  0.00     0.074 A 
ATOM     43  C   UNL A   1      46.743  24.933  28.619  1.00  0.00     0.031 C 
ATOM     44  C   UNL A   1      40.014  26.377  28.170  1.00  0.00     0.029 A 
ATOM     45  C   UNL A   1      40.865  27.451  28.673  1.00  0.00     0.049 A 
ATOM     46  H   UNL A   1      42.938  27.437  28.870  1.00  0.00     0.167 HD
ATOM     47  C   UNL A   1      47.255  27.190  29.498  1.00  0.00     0.037 A 
ATOM     48  C   UNL A   1      40.431  28.653  29.099  1.00  0.00     0.037 A 
ATOM     49  C   UNL A   1      46.897  28.530  29.879  1.00  0.00     0.049 A 
ATOM     50  C   UNL A   1      41.430  29.662  29.593  1.00  0.00     0.074 A 
ATOM     51  C   UNL A   1      47.728  29.560  30.288  1.00  0.00     0.029 A 
ATOM     52  N   UNL A   1      45.604  29.029  29.897  1.00  0.00    -0.354 N 
ATOM     53  N   UNL A   1      42.732  29.556  29.695  1.00  0.00    -0.248 NA
ATOM     54  C   UNL A   1      40.899  30.964  30.026  1.00  0.00     0.031 C 
ATOM     55  C   UNL A   1      46.933  30.669  30.591  1.00  0.00     0.029 A 
ATOM     56  C   UNL A   1      45.612  30.345  30.326  1.00  0.00     0.049 A 
ATOM     57  H   UNL A   1      44.799  28.522  29.641  1.00  0.00     0.167 HD
ATOM     58  C   UNL A   1      43.179  30.781  30.172  1.00  0.00     0.074 A 
ATOM     59  C   UNL A   1      42.010  31.622  30.326  1.00  0.00     0.031 C 
ATOM     60  C   UNL A   1      44.442  31.176  30.458  1.00  0.00     0.037 A 
BRANCH  47  61
ATOM     61  C   UNL A   1      48.696  26.786  29.601  1.00  0.00     0.057 A 
ATOM     62  C   UNL A   1      49.604  27.018  28.559  1.00  0.00     0.134 A 
ATOM     63  C   UNL A   1      49.194  26.201  30.773  1.00  0.00     0.134 A 
ATOM     64  F   UNL A   1      49.189  27.564  27.406  1.00  0.00    -0.206 F 
ATOM     65  C   UNL A   1      50.949  26.664  28.669  1.00  0.00     0.040 A 
ATOM     66  C   UNL A   1      50.543  25.867  30.905  1.00  0.00     0.040 A 
ATOM     67  F   UNL A   1      48.381  25.957  31.811  1.00  0.00    -0.206 F 
ATOM     68  C   UNL A   1      51.423  26.094  29.848  1.00  0.00     0.006 A 
ENDBRANCH  47  61
BRANCH  48  69
ATOM     69  C   UNL A   1      38.982  28.985  29.063  1.00  0.00     0.057 A 
ATOM     70  C   UNL A   1      38.375  29.438  27.885  1.00  0.00     0.134 A 
ATOM     71  C   UNL A   1      38.179  28.889  30.205  1.00  0.00     0.134 A 
ATOM     72  F   UNL A   1      39.097  29.570  26.762  1.00  0.00    -0.206 F 
ATOM     73  C   UNL A   1      37.031  29.810  27.851  1.00  0.00     0.040 A 
ATOM     74  C   UNL A   1      36.826  29.233  30.178  1.00  0.00     0.040 A 
ATOM     75  F   UNL A   1      38.697  28.455  31.363  1.00  0.00    -0.206 F 
ATOM     76  C   UNL A   1      36.251  29.705  29.000  1.00  0.00     0.006 A 
ENDBRANCH  48  69
BRANCH  60  77
ATOM     77  C   UNL A   1      44.636  32.589  30.924  1.00  0.00     0.057 A 
ATOM     78  C   UNL A   1      44.647  32.925  32.283  1.00  0.00     0.134 A 
ATOM     79  C   UNL A   1      44.856  33.618  29.999  1.00  0.00     0.134 A 
ATOM     80  F   UNL A   1      44.429  31.988  33.218  1.00  0.00    -0.206 F 
ATOM     81  C   UNL A   1      44.849  34.240  32.706  1.00  0.00     0.040 A 
ATOM     82  C   UNL A   1      45.086  34.931  30.411  1.00  0.00     0.040 A 
ATOM     83  F   UNL A   1      44.866  33.360  28.682  1.00  0.00    -0.206 F 
ATOM     84  C   UNL A   1      45.078  35.246  31.768  1.00  0.00     0.006 A 
ENDBRANCH  60  77
ENDBRANCH  34  35
ENDBRANCH  26  29
ENDBRANCH  24  25
ENDBRANCH  23  24
ENDBRANCH  22  23
ENDBRANCH   1  22
TORSDOF 16
ENDMDL
MODEL 2
REMARK VINA RESULT:     -10.6      1.213      6.547
REMARK SMILES CC(C)C[C@@H](C)NS(=O)(=O)c1ccsc1C(=O)NCCCCNC(=O)c1ccc(-c2c3nc(c(-c4c(F)cccc4F)c4ccc([nH]4)c(-c4c(F)cccc4F)c4nc(c(-c5c(F)cccc5F)c5ccc2[nH]5)C=C4)C=C3)cc1
REMARK SMILES IDX 19 1 18 2 16 3 17 4 15 6 11 7 12 8 13 9 14 10 8 11 9 12
REMARK SMILES IDX 10 13 7 14 5 16 6 17 4 18 2 19 1 20 3 21 20 22 21 23 22 24
REMARK SMILES IDX 23 25 24 26 25 28 26 29 27 30 79 31 28 32 78 33 29 34 30 35
REMARK SMILES IDX 31 36 72 37 32 38 77 39 71 40 73 41 33 42 76 43 70 44 69 45
REMARK SMILES IDX 34 47 60 48 43 49 59 50 44 51 47 52 58 53 74 54 45 55 46 56
REMARK SMILES IDX 57 58 75 59 48 60 35 61 36 62 41 63 37 64 38 65 40 66 42 67
REMARK SMILES IDX 39 68 61 69 62 70 67 71 63 72 64 73 66 74 68 75 65 76 49 77
REMARK SMILES IDX 50 78 55 79 51 80 52 81 54 82 56 83 53 84
REMARK H PARENT 18 5 7 15 23 27 73 46 47 57
REMARK Flexibility Score: inf
ROOT
ATOM      1  C   UNL A   1      35.424  22.805  25.248  1.00  0.00     0.116 C 
ENDROOT
BRANCH   1   2
ATOM      2  N   UNL A   1      35.206  24.177  25.610  1.00  0.00    -0.351 N 
ATOM      3  C   UNL A   1      34.067  24.942  25.483  1.00  0.00     0.262 C 
ATOM      4  O   UNL A   1      34.138  26.057  26.011  1.00  0.00    -0.268 OA
ATOM      5  H   UNL A   1      35.980  24.638  26.007  1.00  0.00     0.163 HD
BRANCH   3   6
ATOM      6  C   UNL A   1      32.911  24.534  24.683  1.00  0.00     0.112 A 
ATOM      7  C   UNL A   1      31.887  23.599  24.790  1.00  0.00     0.106 A 
ATOM      8  C   UNL A   1      30.937  23.697  23.710  1.00  0.00     0.034 A 
ATOM      9  C   UNL A   1      31.237  24.699  22.824  1.00  0.00     0.067 A 
ATOM     10  S   UNL A   1      32.664  25.510  23.259  1.00  0.00    -0.137 S 
BRANCH   7  11
ATOM     11  S   UNL A   1      31.593  22.433  26.042  1.00  0.00     0.242 S 
ATOM     12  O   UNL A   1      30.211  22.609  26.404  1.00  0.00    -0.207 OA
ATOM     13  O   UNL A   1      32.647  22.634  27.015  1.00  0.00    -0.207 OA
BRANCH  11  14
ATOM     14  N   UNL A   1      31.769  20.870  25.382  1.00  0.00    -0.208 NA
ATOM     15  H   UNL A   1      31.945  20.231  26.157  1.00  0.00     0.141 HD
BRANCH  14  16
ATOM     16  C   UNL A   1      32.852  20.652  24.373  1.00  0.00     0.067 C 
ATOM     17  C   UNL A   1      32.216  20.391  23.009  1.00  0.00     0.025 C 
BRANCH  16  18
ATOM     18  C   UNL A   1      33.727  19.453  24.824  1.00  0.00     0.022 C 
BRANCH  18  19
ATOM     19  C   UNL A   1      33.173  18.061  24.426  1.00  0.00    -0.016 C 
ATOM     20  C   UNL A   1      34.172  17.253  23.596  1.00  0.00     0.007 C 
ATOM     21  C   UNL A   1      32.765  17.250  25.660  1.00  0.00     0.007 C 
ENDBRANCH  18  19
ENDBRANCH  16  18
ENDBRANCH  14  16
ENDBRANCH  11  14
ENDBRANCH   7  11
ENDBRANCH   3   6
ENDBRANCH   1   2
BRANCH   1  22
ATOM     22  C   UNL A   1      36.616  22.515  24.351  1.00  0.00     0.023 C 
BRANCH  22  23
ATOM     23  C   UNL A   1      37.345  21.191  24.579  1.00  0.00     0.023 C 
BRANCH  23  24
ATOM     24  C   UNL A   1      38.446  21.162  25.639  1.00  0.00     0.116 C 
BRANCH  24  25
ATOM     25  N   UNL A   1      39.334  20.009  25.561  1.00  0.00    -0.352 N 
ATOM     26  C   UNL A   1      40.648  19.868  25.948  1.00  0.00     0.251 C 
ATOM     27  H   UNL A   1      38.929  19.202  25.170  1.00  0.00     0.163 HD
ATOM     28  O   UNL A   1      41.240  18.812  25.745  1.00  0.00    -0.269 OA
BRANCH  26  29
ATOM     29  C   UNL A   1      41.366  21.009  26.560  1.00  0.00     0.039 A 
ATOM     30  C   UNL A   1      41.992  21.940  25.727  1.00  0.00     0.014 A 
ATOM     31  C   UNL A   1      41.371  21.193  27.943  1.00  0.00     0.014 A 
ATOM     32  C   UNL A   1      42.508  23.119  26.273  1.00  0.00     0.010 A 
ATOM     33  C   UNL A   1      41.798  22.407  28.473  1.00  0.00     0.010 A 
ATOM     34  C   UNL A   1      42.354  23.393  27.643  1.00  0.00    -0.014 A 
BRANCH  34  35
ATOM     35  C   UNL A   1      42.730  24.711  28.221  1.00  0.00     0.031 A 
ATOM     36  C   UNL A   1      41.686  25.773  28.433  1.00  0.00     0.074 A 
ATOM     37  C   UNL A   1      44.027  24.988  28.468  1.00  0.00     0.049 A 
ATOM     38  N   UNL A   1      41.835  27.013  28.826  1.00  0.00    -0.248 NA
ATOM     39  C   UNL A   1      40.294  25.402  28.133  1.00  0.00     0.031 C 
ATOM     40  C   UNL A   1      45.151  24.073  28.245  1.00  0.00     0.029 A 
ATOM     41  N   UNL A   1      44.625  26.130  28.945  1.00  0.00    -0.354 N 
ATOM     42  C   UNL A   1      40.564  27.574  28.797  1.00  0.00     0.074 A 
ATOM     43  C   UNL A   1      39.664  26.556  28.299  1.00  0.00     0.031 C 
ATOM     44  C   UNL A   1      46.292  24.678  28.609  1.00  0.00     0.029 A 
ATOM     45  C   UNL A   1      45.994  26.036  29.050  1.00  0.00     0.049 A 
ATOM     46  H   UNL A   1      44.122  26.939  29.190  1.00  0.00     0.167 HD
ATOM     47  C   UNL A   1      40.175  28.814  29.176  1.00  0.00     0.037 A 
ATOM     48  C   UNL A   1      46.905  26.944  29.448  1.00  0.00     0.037 A 
ATOM     49  C   UNL A   1      41.063  29.814  29.708  1.00  0.00     0.049 A 
ATOM     50  C   UNL A   1      46.445  28.311  29.875  1.00  0.00     0.074 A 
ATOM     51  C   UNL A   1      40.751  31.075  30.188  1.00  0.00     0.029 A 
ATOM     52  N   UNL A   1      42.435  29.666  29.833  1.00  0.00    -0.354 N 
ATOM     53  N   UNL A   1      45.229  28.798  29.916  1.00  0.00    -0.248 NA
ATOM     54  C   UNL A   1      47.484  29.253  30.318  1.00  0.00     0.031 C 
ATOM     55  C   UNL A   1      41.940  31.704  30.566  1.00  0.00     0.029 A 
ATOM     56  C   UNL A   1      42.987  30.819  30.367  1.00  0.00     0.049 A 
ATOM     57  H   UNL A   1      42.943  28.861  29.581  1.00  0.00     0.167 HD
ATOM     58  C   UNL A   1      45.353  30.088  30.416  1.00  0.00     0.074 A 
ATOM     59  C   UNL A   1      46.760  30.302  30.679  1.00  0.00     0.031 C 
ATOM     60  C   UNL A   1      44.388  31.012  30.639  1.00  0.00     0.037 A 
BRANCH  47  61
ATOM     61  C   UNL A   1      38.721  29.158  29.043  1.00  0.00     0.057 A 
ATOM     62  C   UNL A   1      37.851  29.120  30.141  1.00  0.00     0.134 A 
ATOM     63  C   UNL A   1      38.193  29.577  27.815  1.00  0.00     0.134 A 
ATOM     64  F   UNL A   1      38.290  28.716  31.343  1.00  0.00    -0.206 F 
ATOM     65  C   UNL A   1      36.504  29.466  30.018  1.00  0.00     0.040 A 
ATOM     66  C   UNL A   1      36.855  29.951  27.686  1.00  0.00     0.040 A 
ATOM     67  F   UNL A   1      38.973  29.642  26.726  1.00  0.00    -0.206 F 
ATOM     68  C   UNL A   1      36.005  29.890  28.788  1.00  0.00     0.006 A 
ENDBRANCH  47  61
BRANCH  48  69
ATOM     69  C   UNL A   1      48.349  26.593  29.482  1.00  0.00     0.057 A 
ATOM     70  C   UNL A   1      48.910  25.955  30.596  1.00  0.00     0.134 A 
ATOM     71  C   UNL A   1      49.208  26.912  28.425  1.00  0.00     0.134 A 
ATOM     72  F   UNL A   1      48.142  25.641  31.651  1.00  0.00    -0.206 F 
ATOM     73  C   UNL A   1      50.275  25.673  30.669  1.00  0.00     0.040 A 
ATOM     74  C   UNL A   1      50.571  26.612  28.473  1.00  0.00     0.040 A 
ATOM     75  F   UNL A   1      48.734  27.518  27.326  1.00  0.00    -0.206 F 
ATOM     76  C   UNL A   1      51.110  25.999  29.602  1.00  0.00     0.006 A 
ENDBRANCH  48  69
BRANCH  60  77
ATOM     77  C   UNL A   1      44.811  32.323  31.233  1.00  0.00     0.057 A 
ATOM     78  C   UNL A   1      45.157  33.421  30.435  1.00  0.00     0.134 A 
ATOM     79  C   UNL A   1      44.831  32.500  32.623  1.00  0.00     0.134 A 
ATOM     80  F   UNL A   1      45.172  33.312  29.098  1.00  0.00    -0.206 F 
ATOM     81  C   UNL A   1      45.530  34.642  30.999  1.00  0.00     0.040 A 
ATOM     82  C   UNL A   1      45.175  33.723  33.197  1.00  0.00     0.040 A 
ATOM     83  F   UNL A   1      44.501  31.490  33.443  1.00  0.00    -0.206 F 
ATOM     84  C   UNL A   1      45.531  34.798  32.385  1.00  0.00     0.006 A 
ENDBRANCH  60  77
ENDBRANCH  34  35
ENDBRANCH  26  29
ENDBRANCH  24  25
ENDBRANCH  23  24
ENDBRANCH  22  23
ENDBRANCH   1  22
TORSDOF 16
ENDMDL
MODEL 3
REMARK VINA RESULT:     -10.5      5.356     10.169
REMARK SMILES CC(C)C[C@@H](C)NS(=O)(=O)c1ccsc1C(=O)NCCCCNC(=O)c1ccc(-c2c3nc(c(-c4c(F)cccc4F)c4ccc([nH]4)c(-c4c(F)cccc4F)c4nc(c(-c5c(F)cccc5F)c5ccc2[nH]5)C=C4)C=C3)cc1
REMARK SMILES IDX 19 1 18 2 16 3 17 4 15 6 11 7 12 8 13 9 14 10 8 11 9 12
REMARK SMILES IDX 10 13 7 14 5 16 6 17 4 18 2 19 1 20 3 21 20 22 21 23 22 24
REMARK SMILES IDX 23 25 24 26 25 28 26 29 27 30 79 31 28 32 78 33 29 34 30 35
REMARK SMILES IDX 31 36 72 37 32 38 77 39 71 40 73 41 33 42 76 43 70 44 69 45
REMARK SMILES IDX 34 47 60 48 43 49 59 50 44 51 47 52 58 53 74 54 45 55 46 56
REMARK SMILES IDX 57 58 75 59 48 60 35 61 36 62 41 63 37 64 38 65 40 66 42 67
REMARK SMILES IDX 39 68 61 69 62 70 67 71 63 72 64 73 66 74 68 75 65 76 49 77
REMARK SMILES IDX 50 78 55 79 51 80 52 81 54 82 56 83 53 84
REMARK H PARENT 18 5 7 15 23 27 73 46 47 57
REMARK Flexibility Score: inf
ROOT
ATOM      1  C   UNL A   1      32.904  29.928  26.072  1.00  0.00     0.116 C 
ENDROOT
BRANCH   1   2
ATOM      2  N   UNL A   1      33.686  29.736  24.884  1.00  0.00    -0.351 N 
ATOM      3  C   UNL A   1      33.768  28.633  24.063  1.00  0.00     0.262 C 
ATOM      4  O   UNL A   1      34.423  28.810  23.031  1.00  0.00    -0.268 OA
ATOM      5  H   UNL A   1      34.243  30.502  24.616  1.00  0.00     0.163 HD
BRANCH   3   6
ATOM      6  C   UNL A   1      33.238  27.318  24.428  1.00  0.00     0.112 A 
ATOM      7  C   UNL A   1      32.533  26.300  23.795  1.00  0.00     0.106 A 
ATOM      8  C   UNL A   1      32.345  25.151  24.643  1.00  0.00     0.034 A 
ATOM      9  C   UNL A   1      32.913  25.301  25.881  1.00  0.00     0.067 A 
ATOM     10  S   UNL A   1      33.652  26.821  26.048  1.00  0.00    -0.137 S 
BRANCH   7  11
ATOM     11  S   UNL A   1      31.945  26.225  22.163  1.00  0.00     0.242 S 
ATOM     12  O   UNL A   1      31.149  25.027  22.104  1.00  0.00    -0.207 OA
ATOM     13  O   UNL A   1      33.113  26.384  21.321  1.00  0.00    -0.207 OA
BRANCH  11  14
ATOM     14  N   UNL A   1      30.912  27.556  21.896  1.00  0.00    -0.208 NA
ATOM     15  H   UNL A   1      31.469  28.289  21.458  1.00  0.00     0.141 HD
BRANCH  14  16
ATOM     16  C   UNL A   1      30.230  28.164  23.081  1.00  0.00     0.067 C 
ATOM     17  C   UNL A   1      28.939  27.397  23.360  1.00  0.00     0.025 C 
BRANCH  16  18
ATOM     18  C   UNL A   1      29.943  29.659  22.785  1.00  0.00     0.022 C 
BRANCH  18  19
ATOM     19  C   UNL A   1      28.442  30.007  22.608  1.00  0.00    -0.016 C 
ATOM     20  C   UNL A   1      27.971  31.072  23.600  1.00  0.00     0.007 C 
ATOM     21  C   UNL A   1      28.144  30.477  21.180  1.00  0.00     0.007 C 
ENDBRANCH  18  19
ENDBRANCH  16  18
ENDBRANCH  14  16
ENDBRANCH  11  14
ENDBRANCH   7  11
ENDBRANCH   3   6
ENDBRANCH   1   2
BRANCH   1  22
ATOM     22  C   UNL A   1      31.634  30.751  25.931  1.00  0.00     0.023 C 
BRANCH  22  23
ATOM     23  C   UNL A   1      31.427  31.880  26.939  1.00  0.00     0.023 C 
BRANCH  23  24
ATOM     24  C   UNL A   1      32.636  32.745  27.292  1.00  0.00     0.116 C 
BRANCH  24  25
ATOM     25  N   UNL A   1      32.322  34.134  27.599  1.00  0.00    -0.352 N 
ATOM     26  C   UNL A   1      32.938  35.021  28.454  1.00  0.00     0.251 C 
ATOM     27  H   UNL A   1      31.543  34.497  27.118  1.00  0.00     0.163 HD
ATOM     28  O   UNL A   1      32.477  36.147  28.611  1.00  0.00    -0.269 OA
BRANCH  26  29
ATOM     29  C   UNL A   1      34.127  34.597  29.228  1.00  0.00     0.039 A 
ATOM     30  C   UNL A   1      33.955  34.138  30.536  1.00  0.00     0.014 A 
ATOM     31  C   UNL A   1      35.396  34.595  28.647  1.00  0.00     0.014 A 
ATOM     32  C   UNL A   1      35.032  33.557  31.212  1.00  0.00     0.010 A 
ATOM     33  C   UNL A   1      36.441  33.933  29.283  1.00  0.00     0.010 A 
ATOM     34  C   UNL A   1      36.268  33.389  30.565  1.00  0.00    -0.014 A 
BRANCH  34  35
ATOM     35  C   UNL A   1      37.376  32.618  31.191  1.00  0.00     0.031 A 
ATOM     36  C   UNL A   1      37.933  33.037  32.524  1.00  0.00     0.074 A 
ATOM     37  C   UNL A   1      37.945  31.596  30.518  1.00  0.00     0.049 A 
ATOM     38  N   UNL A   1      38.960  32.557  33.179  1.00  0.00    -0.248 NA
ATOM     39  C   UNL A   1      37.268  34.165  33.195  1.00  0.00     0.031 C 
ATOM     40  C   UNL A   1      37.547  31.127  29.188  1.00  0.00     0.029 A 
ATOM     41  N   UNL A   1      38.996  30.777  30.853  1.00  0.00    -0.354 N 
ATOM     42  C   UNL A   1      39.078  33.337  34.322  1.00  0.00     0.074 A 
ATOM     43  C   UNL A   1      38.051  34.354  34.247  1.00  0.00     0.031 C 
ATOM     44  C   UNL A   1      38.323  30.091  28.833  1.00  0.00     0.029 A 
ATOM     45  C   UNL A   1      39.302  29.846  29.887  1.00  0.00     0.049 A 
ATOM     46  H   UNL A   1      39.484  30.848  31.704  1.00  0.00     0.167 HD
ATOM     47  C   UNL A   1      39.944  33.204  35.355  1.00  0.00     0.037 A 
ATOM     48  C   UNL A   1      40.266  28.907  29.851  1.00  0.00     0.037 A 
ATOM     49  C   UNL A   1      40.939  32.170  35.449  1.00  0.00     0.049 A 
ATOM     50  C   UNL A   1      41.207  28.773  31.017  1.00  0.00     0.074 A 
ATOM     51  C   UNL A   1      41.815  31.910  36.490  1.00  0.00     0.029 A 
ATOM     52  N   UNL A   1      41.192  31.224  34.468  1.00  0.00    -0.354 N 
ATOM     53  N   UNL A   1      41.254  29.470  32.126  1.00  0.00    -0.248 NA
ATOM     54  C   UNL A   1      42.227  27.717  30.929  1.00  0.00     0.031 C 
ATOM     55  C   UNL A   1      42.623  30.831  36.121  1.00  0.00     0.029 A 
ATOM     56  C   UNL A   1      42.220  30.390  34.871  1.00  0.00     0.049 A 
ATOM     57  H   UNL A   1      40.711  31.156  33.611  1.00  0.00     0.167 HD
ATOM     58  C   UNL A   1      42.283  28.919  32.879  1.00  0.00     0.074 A 
ATOM     59  C   UNL A   1      42.825  27.821  32.107  1.00  0.00     0.031 C 
ATOM     60  C   UNL A   1      42.738  29.289  34.100  1.00  0.00     0.037 A 
BRANCH  47  61
ATOM     61  C   UNL A   1      39.844  34.195  36.477  1.00  0.00     0.057 A 
ATOM     62  C   UNL A   1      40.516  35.424  36.439  1.00  0.00     0.134 A 
ATOM     63  C   UNL A   1      39.029  33.939  37.588  1.00  0.00     0.134 A 
ATOM     64  F   UNL A   1      41.321  35.726  35.409  1.00  0.00    -0.206 F 
ATOM     65  C   UNL A   1      40.399  36.353  37.474  1.00  0.00     0.040 A 
ATOM     66  C   UNL A   1      38.884  34.872  38.616  1.00  0.00     0.040 A 
ATOM     67  F   UNL A   1      38.353  32.785  37.685  1.00  0.00    -0.206 F 
ATOM     68  C   UNL A   1      39.574  36.080  38.563  1.00  0.00     0.006 A 
ENDBRANCH  47  61
BRANCH  48  69
ATOM     69  C   UNL A   1      40.389  27.999  28.680  1.00  0.00     0.057 A 
ATOM     70  C   UNL A   1      41.135  28.371  27.554  1.00  0.00     0.134 A 
ATOM     71  C   UNL A   1      39.742  26.759  28.641  1.00  0.00     0.134 A 
ATOM     72  F   UNL A   1      41.762  29.557  27.523  1.00  0.00    -0.206 F 
ATOM     73  C   UNL A   1      41.211  27.557  26.424  1.00  0.00     0.040 A 
ATOM     74  C   UNL A   1      39.830  25.923  27.526  1.00  0.00     0.040 A 
ATOM     75  F   UNL A   1      39.016  26.340  29.688  1.00  0.00    -0.206 F 
ATOM     76  C   UNL A   1      40.558  26.326  26.409  1.00  0.00     0.006 A 
ENDBRANCH  48  69
BRANCH  60  77
ATOM     77  C   UNL A   1      43.849  28.476  34.698  1.00  0.00     0.057 A 
ATOM     78  C   UNL A   1      45.190  28.866  34.595  1.00  0.00     0.134 A 
ATOM     79  C   UNL A   1      43.566  27.311  35.423  1.00  0.00     0.134 A 
ATOM     80  F   UNL A   1      45.529  29.964  33.902  1.00  0.00    -0.206 F 
ATOM     81  C   UNL A   1      46.213  28.113  35.173  1.00  0.00     0.040 A 
ATOM     82  C   UNL A   1      44.577  26.565  36.028  1.00  0.00     0.040 A 
ATOM     83  F   UNL A   1      42.300  26.889  35.566  1.00  0.00    -0.206 F 
ATOM     84  C   UNL A   1      45.907  26.963  35.900  1.00  0.00     0.006 A 
ENDBRANCH  60  77
ENDBRANCH  34  35
ENDBRANCH  26  29
ENDBRANCH  24  25
ENDBRANCH  23  24
ENDBRANCH  22  23
ENDBRANCH   1  22
TORSDOF 16
ENDMDL
