MODEL 1
REMARK VINA RESULT:     -11.5      0.000      0.000
REMARK SMILES CN(CC(=O)NCCCCNC(=O)c1ccc(-c2c3nc(c(-c4c(F)cccc4F)c4ccc([nH]4)c(-c4c(F)cccc4F)c4nc(c(-c5c(F)cccc5F)c5ccc2[nH]5)C=C4)C=C3)cc1)c1nc2cc(N)ccc2[nH]1
REMARK SMILES IDX 8 1 7 2 6 3 4 4 5 5 3 7 2 8 1 9 68 10 69 11 77 12 70 13
REMARK SMILES IDX 76 14 71 16 75 17 72 18 74 19 73 20 9 23 10 24 11 25 12 26
REMARK SMILES IDX 13 28 14 29 15 30 67 31 16 32 66 33 17 34 18 35 19 36 60 37
REMARK SMILES IDX 20 38 65 39 59 40 61 41 21 42 64 43 58 44 57 45 22 47 48 48
REMARK SMILES IDX 31 49 47 50 32 51 35 52 46 53 62 54 33 55 34 56 45 58 63 59
REMARK SMILES IDX 36 60 23 61 24 62 29 63 25 64 26 65 28 66 30 67 27 68 49 69
REMARK SMILES IDX 50 70 55 71 51 72 52 73 54 74 56 75 53 76 37 77 38 78 43 79
REMARK SMILES IDX 39 80 40 81 42 82 44 83 41 84
REMARK H PARENT 6 6 77 15 73 21 73 22 11 27 61 46 35 57
REMARK Flexibility Score: inf
ROOT
ATOM      1  C   UNL A   1      37.008  20.634  24.605  1.00  0.00     0.023 C 
ENDROOT
BRANCH   1   2
ATOM      2  C   UNL A   1      37.124  21.950  25.371  1.00  0.00     0.116 C 
BRANCH   2   3
ATOM      3  N   UNL A   1      36.231  22.033  26.502  1.00  0.00    -0.355 N 
ATOM      4  C   UNL A   1      34.876  22.238  26.498  1.00  0.00     0.239 C 
ATOM      5  O   UNL A   1      34.266  22.062  27.557  1.00  0.00    -0.273 OA
ATOM      6  H   UNL A   1      36.647  21.928  27.388  1.00  0.00     0.163 HD
BRANCH   4   7
ATOM      7  C   UNL A   1      34.146  22.542  25.179  1.00  0.00     0.219 C 
BRANCH   7   8
ATOM      8  N   UNL A   1      32.882  21.802  24.983  1.00  0.00    -0.336 N 
ATOM      9  C   UNL A   1      31.666  22.542  24.725  1.00  0.00     0.147 C 
BRANCH   8  10
ATOM     10  C   UNL A   1      32.955  20.449  24.903  1.00  0.00     0.204 A 
ATOM     11  N   UNL A   1      32.192  19.586  25.529  1.00  0.00    -0.213 NA
ATOM     12  N   UNL A   1      33.894  19.793  24.144  1.00  0.00    -0.324 N 
ATOM     13  C   UNL A   1      32.638  18.345  25.168  1.00  0.00     0.093 A 
ATOM     14  C   UNL A   1      33.729  18.440  24.318  1.00  0.00     0.067 A 
ATOM     15  H   UNL A   1      34.570  20.220  23.571  1.00  0.00     0.170 HD
ATOM     16  C   UNL A   1      32.154  17.082  25.538  1.00  0.00     0.056 A 
ATOM     17  C   UNL A   1      34.405  17.326  23.824  1.00  0.00     0.030 A 
ATOM     18  C   UNL A   1      32.813  15.937  25.079  1.00  0.00     0.034 A 
ATOM     19  C   UNL A   1      33.913  16.071  24.220  1.00  0.00     0.028 A 
BRANCH  18  20
ATOM     20  N   UNL A   1      32.303  14.679  25.376  1.00  0.00    -0.399 N 
ATOM     21  H   UNL A   1      31.332  14.554  25.482  1.00  0.00     0.156 HD
ATOM     22  H   UNL A   1      32.914  13.913  25.482  1.00  0.00     0.156 HD
ENDBRANCH  18  20
ENDBRANCH   8  10
ENDBRANCH   7   8
ENDBRANCH   4   7
ENDBRANCH   2   3
ENDBRANCH   1   2
BRANCH   1  23
ATOM     23  C   UNL A   1      37.963  19.529  25.060  1.00  0.00     0.023 C 
BRANCH  23  24
ATOM     24  C   UNL A   1      39.238  20.000  25.749  1.00  0.00     0.116 C 
BRANCH  24  25
ATOM     25  N   UNL A   1      40.273  18.979  25.815  1.00  0.00    -0.352 N 
ATOM     26  C   UNL A   1      41.617  19.119  26.073  1.00  0.00     0.251 C 
ATOM     27  H   UNL A   1      39.967  18.057  25.653  1.00  0.00     0.163 HD
ATOM     28  O   UNL A   1      42.364  18.152  25.991  1.00  0.00    -0.269 OA
BRANCH  26  29
ATOM     29  C   UNL A   1      42.164  20.451  26.410  1.00  0.00     0.039 A 
ATOM     30  C   UNL A   1      42.612  21.277  25.376  1.00  0.00     0.014 A 
ATOM     31  C   UNL A   1      42.216  20.893  27.734  1.00  0.00     0.014 A 
ATOM     32  C   UNL A   1      43.042  22.574  25.661  1.00  0.00     0.010 A 
ATOM     33  C   UNL A   1      42.575  22.210  28.010  1.00  0.00     0.010 A 
ATOM     34  C   UNL A   1      42.989  23.064  26.977  1.00  0.00    -0.014 A 
BRANCH  34  35
ATOM     35  C   UNL A   1      43.356  24.468  27.294  1.00  0.00     0.031 A 
ATOM     36  C   UNL A   1      44.792  24.904  27.238  1.00  0.00     0.074 A 
ATOM     37  C   UNL A   1      42.406  25.330  27.703  1.00  0.00     0.049 A 
ATOM     38  N   UNL A   1      45.319  26.062  27.547  1.00  0.00    -0.248 NA
ATOM     39  C   UNL A   1      45.770  23.896  26.800  1.00  0.00     0.031 C 
ATOM     40  C   UNL A   1      40.982  25.021  27.837  1.00  0.00     0.029 A 
ATOM     41  N   UNL A   1      42.498  26.644  28.088  1.00  0.00    -0.354 N 
ATOM     42  C   UNL A   1      46.687  25.918  27.356  1.00  0.00     0.074 A 
ATOM     43  C   UNL A   1      46.914  24.544  26.960  1.00  0.00     0.031 C 
ATOM     44  C   UNL A   1      40.330  26.122  28.243  1.00  0.00     0.029 A 
ATOM     45  C   UNL A   1      41.293  27.202  28.435  1.00  0.00     0.049 A 
ATOM     46  H   UNL A   1      43.349  27.140  28.112  1.00  0.00     0.167 HD
ATOM     47  C   UNL A   1      47.663  26.849  27.474  1.00  0.00     0.037 A 
ATOM     48  C   UNL A   1      40.998  28.443  28.865  1.00  0.00     0.037 A 
ATOM     49  C   UNL A   1      47.435  28.218  27.856  1.00  0.00     0.049 A 
ATOM     50  C   UNL A   1      42.101  29.451  29.022  1.00  0.00     0.074 A 
ATOM     51  C   UNL A   1      48.350  29.251  27.956  1.00  0.00     0.029 A 
ATOM     52  N   UNL A   1      46.199  28.743  28.208  1.00  0.00    -0.354 N 
ATOM     53  N   UNL A   1      43.383  29.319  28.779  1.00  0.00    -0.248 NA
ATOM     54  C   UNL A   1      41.715  30.783  29.511  1.00  0.00     0.031 C 
ATOM     55  C   UNL A   1      47.676  30.390  28.411  1.00  0.00     0.029 A 
ATOM     56  C   UNL A   1      46.332  30.079  28.548  1.00  0.00     0.049 A 
ATOM     57  H   UNL A   1      45.354  28.239  28.214  1.00  0.00     0.167 HD
ATOM     58  C   UNL A   1      43.951  30.556  29.055  1.00  0.00     0.074 A 
ATOM     59  C   UNL A   1      42.874  31.427  29.477  1.00  0.00     0.031 C 
ATOM     60  C   UNL A   1      45.249  30.936  28.962  1.00  0.00     0.037 A 
BRANCH  47  61
ATOM     61  C   UNL A   1      49.068  26.403  27.187  1.00  0.00     0.057 A 
ATOM     62  C   UNL A   1      49.923  25.950  28.202  1.00  0.00     0.134 A 
ATOM     63  C   UNL A   1      49.578  26.432  25.883  1.00  0.00     0.134 A 
ATOM     64  F   UNL A   1      49.502  25.910  29.476  1.00  0.00    -0.206 F 
ATOM     65  C   UNL A   1      51.243  25.583  27.939  1.00  0.00     0.040 A 
ATOM     66  C   UNL A   1      50.888  26.037  25.601  1.00  0.00     0.040 A 
ATOM     67  F   UNL A   1      48.814  26.845  24.861  1.00  0.00    -0.206 F 
ATOM     68  C   UNL A   1      51.727  25.623  26.632  1.00  0.00     0.006 A 
ENDBRANCH  47  61
BRANCH  48  69
ATOM     69  C   UNL A   1      39.588  28.814  29.137  1.00  0.00     0.057 A 
ATOM     70  C   UNL A   1      38.771  29.314  28.114  1.00  0.00     0.134 A 
ATOM     71  C   UNL A   1      39.018  28.672  30.407  1.00  0.00     0.134 A 
ATOM     72  F   UNL A   1      39.267  29.491  26.882  1.00  0.00    -0.206 F 
ATOM     73  C   UNL A   1      37.442  29.669  28.348  1.00  0.00     0.040 A 
ATOM     74  C   UNL A   1      37.683  29.002  30.649  1.00  0.00     0.040 A 
ATOM     75  F   UNL A   1      39.746  28.193  31.426  1.00  0.00    -0.206 F 
ATOM     76  C   UNL A   1      36.893  29.507  29.618  1.00  0.00     0.006 A 
ENDBRANCH  48  69
BRANCH  60  77
ATOM     77  C   UNL A   1      45.571  32.366  29.286  1.00  0.00     0.057 A 
ATOM     78  C   UNL A   1      45.979  32.764  30.564  1.00  0.00     0.134 A 
ATOM     79  C   UNL A   1      45.506  33.352  28.292  1.00  0.00     0.134 A 
ATOM     80  F   UNL A   1      46.048  31.871  31.564  1.00  0.00    -0.206 F 
ATOM     81  C   UNL A   1      46.292  34.094  30.849  1.00  0.00     0.040 A 
ATOM     82  C   UNL A   1      45.841  34.679  28.557  1.00  0.00     0.040 A 
ATOM     83  F   UNL A   1      45.129  33.037  27.043  1.00  0.00    -0.206 F 
ATOM     84  C   UNL A   1      46.230  35.055  29.841  1.00  0.00     0.006 A 
ENDBRANCH  60  77
ENDBRANCH  34  35
ENDBRANCH  26  29
ENDBRANCH  24  25
ENDBRANCH  23  24
ENDBRANCH   1  23
TORSDOF 14
ENDMDL
MODEL 2
REMARK VINA RESULT:     -11.5      6.500     11.464
REMARK SMILES CN(CC(=O)NCCCCNC(=O)c1ccc(-c2c3nc(c(-c4c(F)cccc4F)c4ccc([nH]4)c(-c4c(F)cccc4F)c4nc(c(-c5c(F)cccc5F)c5ccc2[nH]5)C=C4)C=C3)cc1)c1nc2cc(N)ccc2[nH]1
REMARK SMILES IDX 8 1 7 2 6 3 4 4 5 5 3 7 2 8 1 9 68 10 69 11 77 12 70 13
REMARK SMILES IDX 76 14 71 16 75 17 72 18 74 19 73 20 9 23 10 24 11 25 12 26
REMARK SMILES IDX 13 28 14 29 15 30 67 31 16 32 66 33 17 34 18 35 19 36 60 37
REMARK SMILES IDX 20 38 65 39 59 40 61 41 21 42 64 43 58 44 57 45 22 47 48 48
REMARK SMILES IDX 31 49 47 50 32 51 35 52 46 53 62 54 33 55 34 56 45 58 63 59
REMARK SMILES IDX 36 60 23 61 24 62 29 63 25 64 26 65 28 66 30 67 27 68 49 69
REMARK SMILES IDX 50 70 55 71 51 72 52 73 54 74 56 75 53 76 37 77 38 78 43 79
REMARK SMILES IDX 39 80 40 81 42 82 44 83 41 84
REMARK H PARENT 6 6 77 15 73 21 73 22 11 27 61 46 35 57
REMARK Flexibility Score: inf
ROOT
ATOM      1  C   UNL A   1      31.612  30.861  26.138  1.00  0.00     0.023 C 
ENDROOT
BRANCH   1   2
ATOM      2  C   UNL A   1      32.871  30.097  26.539  1.00  0.00     0.116 C 
BRANCH   2   3
ATOM      3  N   UNL A   1      33.670  29.682  25.412  1.00  0.00    -0.355 N 
ATOM      4  C   UNL A   1      33.393  28.705  24.492  1.00  0.00     0.239 C 
ATOM      5  O   UNL A   1      34.102  28.650  23.481  1.00  0.00    -0.273 OA
ATOM      6  H   UNL A   1      34.521  30.162  25.287  1.00  0.00     0.163 HD
BRANCH   4   7
ATOM      7  C   UNL A   1      32.156  27.809  24.666  1.00  0.00     0.219 C 
BRANCH   7   8
ATOM      8  N   UNL A   1      31.331  27.645  23.451  1.00  0.00    -0.336 N 
ATOM      9  C   UNL A   1      31.263  26.346  22.817  1.00  0.00     0.147 C 
BRANCH   8  10
ATOM     10  C   UNL A   1      30.552  28.691  23.077  1.00  0.00     0.204 A 
ATOM     11  N   UNL A   1      30.299  29.079  21.850  1.00  0.00    -0.213 NA
ATOM     12  N   UNL A   1      29.928  29.520  23.977  1.00  0.00    -0.324 N 
ATOM     13  C   UNL A   1      29.493  30.178  21.952  1.00  0.00     0.093 A 
ATOM     14  C   UNL A   1      29.263  30.501  23.281  1.00  0.00     0.067 A 
ATOM     15  H   UNL A   1      29.952  29.428  24.956  1.00  0.00     0.170 HD
ATOM     16  C   UNL A   1      28.919  30.960  20.939  1.00  0.00     0.056 A 
ATOM     17  C   UNL A   1      28.502  31.600  23.673  1.00  0.00     0.030 A 
ATOM     18  C   UNL A   1      28.163  32.082  21.288  1.00  0.00     0.034 A 
ATOM     19  C   UNL A   1      27.950  32.378  22.641  1.00  0.00     0.028 A 
BRANCH  18  20
ATOM     20  N   UNL A   1      27.528  32.824  20.299  1.00  0.00    -0.399 N 
ATOM     21  H   UNL A   1      28.010  33.056  19.473  1.00  0.00     0.156 HD
ATOM     22  H   UNL A   1      26.597  33.118  20.426  1.00  0.00     0.156 HD
ENDBRANCH  18  20
ENDBRANCH   8  10
ENDBRANCH   7   8
ENDBRANCH   4   7
ENDBRANCH   2   3
ENDBRANCH   1   2
BRANCH   1  23
ATOM     23  C   UNL A   1      31.416  32.207  26.838  1.00  0.00     0.023 C 
BRANCH  23  24
ATOM     24  C   UNL A   1      32.693  32.935  27.240  1.00  0.00     0.116 C 
BRANCH  24  25
ATOM     25  N   UNL A   1      32.463  34.292  27.714  1.00  0.00    -0.352 N 
ATOM     26  C   UNL A   1      33.114  34.989  28.705  1.00  0.00     0.251 C 
ATOM     27  H   UNL A   1      31.738  34.781  27.259  1.00  0.00     0.163 HD
ATOM     28  O   UNL A   1      32.719  36.098  29.041  1.00  0.00    -0.269 OA
BRANCH  26  29
ATOM     29  C   UNL A   1      34.271  34.375  29.393  1.00  0.00     0.039 A 
ATOM     30  C   UNL A   1      34.040  33.565  30.508  1.00  0.00     0.014 A 
ATOM     31  C   UNL A   1      35.574  34.580  28.931  1.00  0.00     0.014 A 
ATOM     32  C   UNL A   1      35.108  32.899  31.113  1.00  0.00     0.010 A 
ATOM     33  C   UNL A   1      36.626  33.859  29.489  1.00  0.00     0.010 A 
ATOM     34  C   UNL A   1      36.403  33.010  30.583  1.00  0.00    -0.014 A 
BRANCH  34  35
ATOM     35  C   UNL A   1      37.540  32.243  31.154  1.00  0.00     0.031 A 
ATOM     36  C   UNL A   1      38.064  32.574  32.522  1.00  0.00     0.074 A 
ATOM     37  C   UNL A   1      38.146  31.297  30.412  1.00  0.00     0.049 A 
ATOM     38  N   UNL A   1      39.089  32.069  33.161  1.00  0.00    -0.248 NA
ATOM     39  C   UNL A   1      37.358  33.633  33.259  1.00  0.00     0.031 C 
ATOM     40  C   UNL A   1      37.760  30.906  29.056  1.00  0.00     0.029 A 
ATOM     41  N   UNL A   1      39.224  30.495  30.694  1.00  0.00    -0.354 N 
ATOM     42  C   UNL A   1      39.158  32.756  34.366  1.00  0.00     0.074 A 
ATOM     43  C   UNL A   1      38.109  33.753  34.343  1.00  0.00     0.031 C 
ATOM     44  C   UNL A   1      38.566  29.918  28.636  1.00  0.00     0.029 A 
ATOM     45  C   UNL A   1      39.551  29.634  29.676  1.00  0.00     0.049 A 
ATOM     46  H   UNL A   1      39.716  30.533  31.547  1.00  0.00     0.167 HD
ATOM     47  C   UNL A   1      40.002  32.561  35.408  1.00  0.00     0.037 A 
ATOM     48  C   UNL A   1      40.536  28.721  29.588  1.00  0.00     0.037 A 
ATOM     49  C   UNL A   1      41.037  31.561  35.434  1.00  0.00     0.049 A 
ATOM     50  C   UNL A   1      41.482  28.543  30.742  1.00  0.00     0.074 A 
ATOM     51  C   UNL A   1      41.912  31.251  36.461  1.00  0.00     0.029 A 
ATOM     52  N   UNL A   1      41.342  30.713  34.380  1.00  0.00    -0.354 N 
ATOM     53  N   UNL A   1      41.498  29.158  31.900  1.00  0.00    -0.248 NA
ATOM     54  C   UNL A   1      42.546  27.542  30.577  1.00  0.00     0.031 C 
ATOM     55  C   UNL A   1      42.774  30.244  36.012  1.00  0.00     0.029 A 
ATOM     56  C   UNL A   1      42.406  29.895  34.722  1.00  0.00     0.049 A 
ATOM     57  H   UNL A   1      40.871  30.696  33.516  1.00  0.00     0.167 HD
ATOM     58  C   UNL A   1      42.551  28.598  32.612  1.00  0.00     0.074 A 
ATOM     59  C   UNL A   1      43.145  27.589  31.759  1.00  0.00     0.031 C 
ATOM     60  C   UNL A   1      42.984  28.891  33.864  1.00  0.00     0.037 A 
BRANCH  47  61
ATOM     61  C   UNL A   1      39.831  33.457  36.601  1.00  0.00     0.057 A 
ATOM     62  C   UNL A   1      40.554  34.652  36.738  1.00  0.00     0.134 A 
ATOM     63  C   UNL A   1      38.940  33.123  37.628  1.00  0.00     0.134 A 
ATOM     64  F   UNL A   1      41.434  35.024  35.797  1.00  0.00    -0.206 F 
ATOM     65  C   UNL A   1      40.428  35.457  37.871  1.00  0.00     0.040 A 
ATOM     66  C   UNL A   1      38.782  33.937  38.752  1.00  0.00     0.040 A 
ATOM     67  F   UNL A   1      38.209  32.001  37.559  1.00  0.00    -0.206 F 
ATOM     68  C   UNL A   1      39.537  35.101  38.881  1.00  0.00     0.006 A 
ENDBRANCH  47  61
BRANCH  48  69
ATOM     69  C   UNL A   1      40.650  27.872  28.377  1.00  0.00     0.057 A 
ATOM     70  C   UNL A   1      40.008  26.630  28.312  1.00  0.00     0.134 A 
ATOM     71  C   UNL A   1      41.387  28.277  27.258  1.00  0.00     0.134 A 
ATOM     72  F   UNL A   1      39.304  26.179  29.360  1.00  0.00    -0.206 F 
ATOM     73  C   UNL A   1      40.102  25.816  27.182  1.00  0.00     0.040 A 
ATOM     74  C   UNL A   1      41.471  27.484  26.113  1.00  0.00     0.040 A 
ATOM     75  F   UNL A   1      42.021  29.460  27.256  1.00  0.00    -0.206 F 
ATOM     76  C   UNL A   1      40.830  26.246  26.075  1.00  0.00     0.006 A 
ENDBRANCH  48  69
BRANCH  60  77
ATOM     77  C   UNL A   1      44.130  28.084  34.400  1.00  0.00     0.057 A 
ATOM     78  C   UNL A   1      43.936  26.858  35.047  1.00  0.00     0.134 A 
ATOM     79  C   UNL A   1      45.449  28.526  34.233  1.00  0.00     0.134 A 
ATOM     80  F   UNL A   1      42.697  26.387  35.252  1.00  0.00    -0.206 F 
ATOM     81  C   UNL A   1      45.012  26.109  35.526  1.00  0.00     0.040 A 
ATOM     82  C   UNL A   1      46.534  27.774  34.684  1.00  0.00     0.040 A 
ATOM     83  F   UNL A   1      45.706  29.689  33.616  1.00  0.00    -0.206 F 
ATOM     84  C   UNL A   1      46.317  26.563  35.339  1.00  0.00     0.006 A 
ENDBRANCH  60  77
ENDBRANCH  34  35
ENDBRANCH  26  29
ENDBRANCH  24  25
ENDBRANCH  23  24
ENDBRANCH   1  23
TORSDOF 14
ENDMDL
MODEL 3
REMARK VINA RESULT:     -11.4      5.582     10.572
REMARK SMILES CN(CC(=O)NCCCCNC(=O)c1ccc(-c2c3nc(c(-c4c(F)cccc4F)c4ccc([nH]4)c(-c4c(F)cccc4F)c4nc(c(-c5c(F)cccc5F)c5ccc2[nH]5)C=C4)C=C3)cc1)c1nc2cc(N)ccc2[nH]1
REMARK SMILES IDX 8 1 7 2 6 3 4 4 5 5 3 7 2 8 1 9 68 10 69 11 77 12 70 13
REMARK SMILES IDX 76 14 71 16 75 17 72 18 74 19 73 20 9 23 10 24 11 25 12 26
REMARK SMILES IDX 13 28 14 29 15 30 67 31 16 32 66 33 17 34 18 35 19 36 60 37
REMARK SMILES IDX 20 38 65 39 59 40 61 41 21 42 64 43 58 44 57 45 22 47 48 48
REMARK SMILES IDX 31 49 47 50 32 51 35 52 46 53 62 54 33 55 34 56 45 58 63 59
REMARK SMILES IDX 36 60 23 61 24 62 29 63 25 64 26 65 28 66 30 67 27 68 49 69
REMARK SMILES IDX 50 70 55 71 51 72 52 73 54 74 56 75 53 76 37 77 38 78 43 79
REMARK SMILES IDX 39 80 40 81 42 82 44 83 41 84
REMARK H PARENT 6 6 77 15 73 21 73 22 11 27 61 46 35 57
REMARK Flexibility Score: inf
ROOT
ATOM      1  C   UNL A   1      37.188  33.596  29.342  1.00  0.00     0.023 C 
ENDROOT
BRANCH   1   2
ATOM      2  C   UNL A   1      37.243  33.510  30.865  1.00  0.00     0.116 C 
BRANCH   2   3
ATOM      3  N   UNL A   1      36.552  34.593  31.523  1.00  0.00    -0.355 N 
ATOM      4  C   UNL A   1      35.881  34.567  32.718  1.00  0.00     0.239 C 
ATOM      5  O   UNL A   1      35.543  35.649  33.210  1.00  0.00    -0.273 OA
ATOM      6  H   UNL A   1      36.565  35.460  31.056  1.00  0.00     0.163 HD
BRANCH   4   7
ATOM      7  C   UNL A   1      35.690  33.238  33.466  1.00  0.00     0.219 C 
BRANCH   7   8
ATOM      8  N   UNL A   1      36.793  32.875  34.381  1.00  0.00    -0.336 N 
ATOM      9  C   UNL A   1      36.895  33.544  35.660  1.00  0.00     0.147 C 
BRANCH   8  10
ATOM     10  C   UNL A   1      37.569  31.817  34.036  1.00  0.00     0.204 A 
ATOM     11  N   UNL A   1      38.875  31.743  34.124  1.00  0.00    -0.213 NA
ATOM     12  N   UNL A   1      37.060  30.655  33.509  1.00  0.00    -0.324 N 
ATOM     13  C   UNL A   1      39.223  30.509  33.648  1.00  0.00     0.093 A 
ATOM     14  C   UNL A   1      38.104  29.808  33.225  1.00  0.00     0.067 A 
ATOM     15  H   UNL A   1      36.107  30.459  33.360  1.00  0.00     0.170 HD
ATOM     16  C   UNL A   1      40.492  29.921  33.545  1.00  0.00     0.056 A 
ATOM     17  C   UNL A   1      38.176  28.535  32.663  1.00  0.00     0.030 A 
ATOM     18  C   UNL A   1      40.611  28.651  32.970  1.00  0.00     0.034 A 
ATOM     19  C   UNL A   1      39.458  27.972  32.554  1.00  0.00     0.028 A 
BRANCH  18  20
ATOM     20  N   UNL A   1      41.850  28.024  32.927  1.00  0.00    -0.399 N 
ATOM     21  H   UNL A   1      42.036  27.262  33.521  1.00  0.00     0.156 HD
ATOM     22  H   UNL A   1      42.541  28.344  32.302  1.00  0.00     0.156 HD
ENDBRANCH  18  20
ENDBRANCH   8  10
ENDBRANCH   7   8
ENDBRANCH   4   7
ENDBRANCH   2   3
ENDBRANCH   1   2
BRANCH   1  23
ATOM     23  C   UNL A   1      35.788  33.487  28.733  1.00  0.00     0.023 C 
BRANCH  23  24
ATOM     24  C   UNL A   1      34.822  32.560  29.461  1.00  0.00     0.116 C 
BRANCH  24  25
ATOM     25  N   UNL A   1      34.068  31.691  28.569  1.00  0.00    -0.352 N 
ATOM     26  C   UNL A   1      34.475  30.551  27.917  1.00  0.00     0.251 C 
ATOM     27  H   UNL A   1      33.133  31.959  28.410  1.00  0.00     0.163 HD
ATOM     28  O   UNL A   1      33.728  29.996  27.120  1.00  0.00    -0.269 OA
BRANCH  26  29
ATOM     29  C   UNL A   1      35.835  30.017  28.152  1.00  0.00     0.039 A 
ATOM     30  C   UNL A   1      36.802  30.177  27.157  1.00  0.00     0.014 A 
ATOM     31  C   UNL A   1      36.160  29.382  29.353  1.00  0.00     0.014 A 
ATOM     32  C   UNL A   1      38.116  29.768  27.395  1.00  0.00     0.010 A 
ATOM     33  C   UNL A   1      37.484  29.042  29.618  1.00  0.00     0.010 A 
ATOM     34  C   UNL A   1      38.475  29.233  28.643  1.00  0.00    -0.014 A 
BRANCH  34  35
ATOM     35  C   UNL A   1      39.882  28.873  28.954  1.00  0.00     0.031 A 
ATOM     36  C   UNL A   1      40.775  29.855  29.657  1.00  0.00     0.074 A 
ATOM     37  C   UNL A   1      40.376  27.691  28.540  1.00  0.00     0.049 A 
ATOM     38  N   UNL A   1      42.047  29.755  29.951  1.00  0.00    -0.248 NA
ATOM     39  C   UNL A   1      40.163  31.131  30.058  1.00  0.00     0.031 C 
ATOM     40  C   UNL A   1      39.624  26.665  27.815  1.00  0.00     0.029 A 
ATOM     41  N   UNL A   1      41.633  27.155  28.665  1.00  0.00    -0.354 N 
ATOM     42  C   UNL A   1      42.390  30.956  30.558  1.00  0.00     0.074 A 
ATOM     43  C   UNL A   1      41.207  31.791  30.537  1.00  0.00     0.031 C 
ATOM     44  C   UNL A   1      40.425  25.612  27.588  1.00  0.00     0.029 A 
ATOM     45  C   UNL A   1      41.755  25.904  28.114  1.00  0.00     0.049 A 
ATOM     46  H   UNL A   1      42.377  27.624  29.109  1.00  0.00     0.167 HD
ATOM     47  C   UNL A   1      43.573  31.324  31.106  1.00  0.00     0.037 A 
ATOM     48  C   UNL A   1      42.821  25.084  28.038  1.00  0.00     0.037 A 
ATOM     49  C   UNL A   1      44.744  30.488  31.137  1.00  0.00     0.049 A 
ATOM     50  C   UNL A   1      44.133  25.525  28.623  1.00  0.00     0.074 A 
ATOM     51  C   UNL A   1      45.976  30.749  31.712  1.00  0.00     0.029 A 
ATOM     52  N   UNL A   1      44.830  29.229  30.561  1.00  0.00    -0.354 N 
ATOM     53  N   UNL A   1      44.428  26.639  29.248  1.00  0.00    -0.248 NA
ATOM     54  C   UNL A   1      45.262  24.592  28.492  1.00  0.00     0.031 C 
ATOM     55  C   UNL A   1      46.821  29.665  31.446  1.00  0.00     0.029 A 
ATOM     56  C   UNL A   1      46.101  28.709  30.746  1.00  0.00     0.049 A 
ATOM     57  H   UNL A   1      44.097  28.773  30.090  1.00  0.00     0.167 HD
ATOM     58  C   UNL A   1      45.764  26.529  29.612  1.00  0.00     0.074 A 
ATOM     59  C   UNL A   1      46.220  25.236  29.144  1.00  0.00     0.031 C 
ATOM     60  C   UNL A   1      46.540  27.418  30.279  1.00  0.00     0.037 A 
BRANCH  47  61
ATOM     61  C   UNL A   1      43.647  32.696  31.711  1.00  0.00     0.057 A 
ATOM     62  C   UNL A   1      43.932  33.831  30.938  1.00  0.00     0.134 A 
ATOM     63  C   UNL A   1      43.438  32.888  33.082  1.00  0.00     0.134 A 
ATOM     64  F   UNL A   1      44.156  33.716  29.620  1.00  0.00    -0.206 F 
ATOM     65  C   UNL A   1      44.048  35.098  31.512  1.00  0.00     0.040 A 
ATOM     66  C   UNL A   1      43.520  34.155  33.664  1.00  0.00     0.040 A 
ATOM     67  F   UNL A   1      43.152  31.848  33.881  1.00  0.00    -0.206 F 
ATOM     68  C   UNL A   1      43.838  35.262  32.880  1.00  0.00     0.006 A 
ENDBRANCH  47  61
BRANCH  48  69
ATOM     69  C   UNL A   1      42.679  23.743  27.421  1.00  0.00     0.057 A 
ATOM     70  C   UNL A   1      42.861  23.568  26.043  1.00  0.00     0.134 A 
ATOM     71  C   UNL A   1      42.371  22.609  28.181  1.00  0.00     0.134 A 
ATOM     72  F   UNL A   1      43.138  24.621  25.261  1.00  0.00    -0.206 F 
ATOM     73  C   UNL A   1      42.731  22.315  25.442  1.00  0.00     0.040 A 
ATOM     74  C   UNL A   1      42.261  21.346  27.596  1.00  0.00     0.040 A 
ATOM     75  F   UNL A   1      42.190  22.710  29.506  1.00  0.00    -0.206 F 
ATOM     76  C   UNL A   1      42.437  21.198  26.221  1.00  0.00     0.006 A 
ENDBRANCH  48  69
BRANCH  60  77
ATOM     77  C   UNL A   1      47.953  27.007  30.577  1.00  0.00     0.057 A 
ATOM     78  C   UNL A   1      49.019  27.357  29.740  1.00  0.00     0.134 A 
ATOM     79  C   UNL A   1      48.253  26.282  31.738  1.00  0.00     0.134 A 
ATOM     80  F   UNL A   1      48.798  28.038  28.606  1.00  0.00    -0.206 F 
ATOM     81  C   UNL A   1      50.331  26.984  30.037  1.00  0.00     0.040 A 
ATOM     82  C   UNL A   1      49.563  25.926  32.059  1.00  0.00     0.040 A 
ATOM     83  F   UNL A   1      47.278  25.921  32.586  1.00  0.00    -0.206 F 
ATOM     84  C   UNL A   1      50.607  26.272  31.203  1.00  0.00     0.006 A 
ENDBRANCH  60  77
ENDBRANCH  34  35
ENDBRANCH  26  29
ENDBRANCH  24  25
ENDBRANCH  23  24
ENDBRANCH   1  23
TORSDOF 14
ENDMDL
