MODEL 1
REMARK VINA RESULT:     -10.7      0.000      0.000
REMARK SMILES CC[C@H](CC#N)[NH2+]Cc1cc(C(=O)NCCCCNC(=O)c2ccc(-c3c4nc(c(-c5c(F)cccc5F)c5ccc([nH]5)c(-c5c(F)cccc5F)c5nc(c(-c6c(F)cccc6F)c6ccc3[nH]6)C=C5)C=C4)cc2)cs1
REMARK SMILES IDX 15 1 14 2 12 3 13 4 11 6 9 7 10 8 77 9 76 10 8 11 7 12 3 15
REMARK SMILES IDX 2 16 1 17 4 18 5 19 6 20 16 21 17 22 18 23 19 24 20 25 21 27
REMARK SMILES IDX 22 28 23 29 75 30 24 31 74 32 25 33 26 34 27 35 68 36 28 37
REMARK SMILES IDX 73 38 67 39 69 40 29 41 72 42 66 43 65 44 30 46 56 47 39 48
REMARK SMILES IDX 55 49 40 50 43 51 54 52 70 53 41 54 42 55 53 57 71 58 44 59
REMARK SMILES IDX 31 60 32 61 37 62 33 63 34 64 36 65 38 66 35 67 57 68 58 69
REMARK SMILES IDX 63 70 59 71 60 72 62 73 64 74 61 75 45 76 46 77 51 78 47 79
REMARK SMILES IDX 48 80 50 81 52 82 49 83
REMARK H PARENT 14 5 7 13 7 14 19 26 69 45 43 56
REMARK Flexibility Score: inf
ROOT
ATOM      1  C   UNL A   1      38.134  22.097  25.873  1.00  0.00     0.116 C 
ENDROOT
BRANCH   1   2
ATOM      2  N   UNL A   1      37.819  22.442  24.504  1.00  0.00    -0.352 N 
ATOM      3  C   UNL A   1      36.625  22.615  23.854  1.00  0.00     0.252 C 
ATOM      4  O   UNL A   1      36.679  22.998  22.686  1.00  0.00    -0.269 OA
ATOM      5  H   UNL A   1      38.610  22.577  23.933  1.00  0.00     0.163 HD
BRANCH   3   6
ATOM      6  C   UNL A   1      35.343  22.373  24.519  1.00  0.00     0.051 A 
ATOM      7  C   UNL A   1      33.375  21.335  25.295  1.00  0.00     0.059 A 
ATOM      8  C   UNL A   1      34.611  21.155  24.707  1.00  0.00     0.035 A 
ATOM      9  S   UNL A   1      33.118  22.969  25.718  1.00  0.00    -0.142 S 
ATOM     10  C   UNL A   1      34.594  23.437  25.001  1.00  0.00     0.079 A 
BRANCH   7  11
ATOM     11  C   UNL A   1      32.299  20.314  25.477  1.00  0.00     0.308 C 
BRANCH  11  12
ATOM     12  N   UNL A   1      32.830  19.061  26.020  1.00  0.00    -0.339 N 
ATOM     13  H   UNL A   1      33.848  19.107  25.981  1.00  0.00     0.346 HD
ATOM     14  H   UNL A   1      32.462  18.985  26.968  1.00  0.00     0.346 HD
BRANCH  12  15
ATOM     15  C   UNL A   1      32.401  17.845  25.316  1.00  0.00     0.196 C 
BRANCH  15  16
ATOM     16  C   UNL A   1      33.158  16.546  25.721  1.00  0.00     0.063 C 
ATOM     17  C   UNL A   1      32.311  15.278  25.805  1.00  0.00     0.010 C 
ENDBRANCH  15  16
BRANCH  15  18
ATOM     18  C   UNL A   1      32.632  18.030  23.826  1.00  0.00     0.184 C 
BRANCH  18  19
ATOM     19  C   UNL A   1      33.628  17.098  23.155  1.00  0.00     0.068 C 
ATOM     20  N   UNL A   1      34.454  16.324  22.598  1.00  0.00    -0.198 NA
ENDBRANCH  18  19
ENDBRANCH  15  18
ENDBRANCH  12  15
ENDBRANCH  11  12
ENDBRANCH   7  11
ENDBRANCH   3   6
ENDBRANCH   1   2
BRANCH   1  21
ATOM     21  C   UNL A   1      39.401  21.244  25.938  1.00  0.00     0.023 C 
BRANCH  21  22
ATOM     22  C   UNL A   1      40.407  21.728  26.989  1.00  0.00     0.023 C 
BRANCH  22  23
ATOM     23  C   UNL A   1      40.391  23.232  27.242  1.00  0.00     0.116 C 
BRANCH  23  24
ATOM     24  N   UNL A   1      40.888  24.012  26.118  1.00  0.00    -0.352 N 
ATOM     25  C   UNL A   1      41.199  25.351  26.087  1.00  0.00     0.251 C 
ATOM     26  H   UNL A   1      41.018  23.520  25.275  1.00  0.00     0.163 HD
ATOM     27  O   UNL A   1      41.497  25.901  25.035  1.00  0.00    -0.269 OA
BRANCH  25  28
ATOM     28  C   UNL A   1      41.121  26.124  27.342  1.00  0.00     0.039 A 
ATOM     29  C   UNL A   1      42.120  27.057  27.622  1.00  0.00     0.014 A 
ATOM     30  C   UNL A   1      40.027  25.971  28.198  1.00  0.00     0.014 A 
ATOM     31  C   UNL A   1      41.983  27.892  28.731  1.00  0.00     0.010 A 
ATOM     32  C   UNL A   1      39.855  26.856  29.255  1.00  0.00     0.010 A 
ATOM     33  C   UNL A   1      40.830  27.827  29.531  1.00  0.00    -0.014 A 
BRANCH  33  34
ATOM     34  C   UNL A   1      40.623  28.771  30.657  1.00  0.00     0.031 A 
ATOM     35  C   UNL A   1      39.561  29.831  30.565  1.00  0.00     0.074 A 
ATOM     36  C   UNL A   1      41.432  28.714  31.732  1.00  0.00     0.049 A 
ATOM     37  N   UNL A   1      39.269  30.783  31.414  1.00  0.00    -0.248 NA
ATOM     38  C   UNL A   1      38.737  29.841  29.345  1.00  0.00     0.031 C 
ATOM     39  C   UNL A   1      42.531  27.764  31.917  1.00  0.00     0.029 A 
ATOM     40  N   UNL A   1      41.462  29.478  32.871  1.00  0.00    -0.354 N 
ATOM     41  C   UNL A   1      38.240  31.508  30.827  1.00  0.00     0.074 A 
ATOM     42  C   UNL A   1      37.998  30.925  29.526  1.00  0.00     0.031 C 
ATOM     43  C   UNL A   1      43.109  27.984  33.109  1.00  0.00     0.029 A 
ATOM     44  C   UNL A   1      42.450  29.115  33.756  1.00  0.00     0.049 A 
ATOM     45  H   UNL A   1      40.833  30.217  33.041  1.00  0.00     0.167 HD
ATOM     46  C   UNL A   1      37.541  32.549  31.337  1.00  0.00     0.037 A 
ATOM     47  C   UNL A   1      42.791  29.640  34.947  1.00  0.00     0.037 A 
ATOM     48  C   UNL A   1      37.770  33.113  32.641  1.00  0.00     0.049 A 
ATOM     49  C   UNL A   1      42.008  30.807  35.485  1.00  0.00     0.074 A 
ATOM     50  C   UNL A   1      37.078  34.131  33.273  1.00  0.00     0.029 A 
ATOM     51  N   UNL A   1      38.771  32.709  33.512  1.00  0.00    -0.354 N 
ATOM     52  N   UNL A   1      40.988  31.434  34.951  1.00  0.00    -0.248 NA
ATOM     53  C   UNL A   1      42.417  31.332  36.795  1.00  0.00     0.031 C 
ATOM     54  C   UNL A   1      37.693  34.379  34.505  1.00  0.00     0.029 A 
ATOM     55  C   UNL A   1      38.731  33.475  34.666  1.00  0.00     0.049 A 
ATOM     56  H   UNL A   1      39.415  31.985  33.337  1.00  0.00     0.167 HD
ATOM     57  C   UNL A   1      40.614  32.405  35.872  1.00  0.00     0.074 A 
ATOM     58  C   UNL A   1      41.509  32.273  37.004  1.00  0.00     0.031 C 
ATOM     59  C   UNL A   1      39.620  33.323  35.789  1.00  0.00     0.037 A 
BRANCH  46  60
ATOM     60  C   UNL A   1      36.458  33.143  30.484  1.00  0.00     0.057 A 
ATOM     61  C   UNL A   1      36.744  34.023  29.431  1.00  0.00     0.134 A 
ATOM     62  C   UNL A   1      35.116  32.801  30.692  1.00  0.00     0.134 A 
ATOM     63  F   UNL A   1      38.007  34.401  29.185  1.00  0.00    -0.206 F 
ATOM     64  C   UNL A   1      35.733  34.560  28.632  1.00  0.00     0.040 A 
ATOM     65  C   UNL A   1      34.099  33.309  29.881  1.00  0.00     0.040 A 
ATOM     66  F   UNL A   1      34.770  31.961  31.679  1.00  0.00    -0.206 F 
ATOM     67  C   UNL A   1      34.406  34.196  28.852  1.00  0.00     0.006 A 
ENDBRANCH  46  60
BRANCH  47  68
ATOM     68  C   UNL A   1      43.915  29.059  35.726  1.00  0.00     0.057 A 
ATOM     69  C   UNL A   1      45.227  29.514  35.550  1.00  0.00     0.134 A 
ATOM     70  C   UNL A   1      43.712  28.026  36.648  1.00  0.00     0.134 A 
ATOM     71  F   UNL A   1      45.490  30.491  34.668  1.00  0.00    -0.206 F 
ATOM     72  C   UNL A   1      46.299  28.946  36.240  1.00  0.00     0.040 A 
ATOM     73  C   UNL A   1      44.771  27.468  37.367  1.00  0.00     0.040 A 
ATOM     74  F   UNL A   1      42.478  27.550  36.872  1.00  0.00    -0.206 F 
ATOM     75  C   UNL A   1      46.071  27.922  37.155  1.00  0.00     0.006 A 
ENDBRANCH  47  68
BRANCH  59  76
ATOM     76  C   UNL A   1      39.416  34.227  36.970  1.00  0.00     0.057 A 
ATOM     77  C   UNL A   1      38.703  33.818  38.104  1.00  0.00     0.134 A 
ATOM     78  C   UNL A   1      39.977  35.511  36.987  1.00  0.00     0.134 A 
ATOM     79  F   UNL A   1      38.130  32.606  38.147  1.00  0.00    -0.206 F 
ATOM     80  C   UNL A   1      38.535  34.663  39.203  1.00  0.00     0.040 A 
ATOM     81  C   UNL A   1      39.843  36.352  38.092  1.00  0.00     0.040 A 
ATOM     82  F   UNL A   1      40.681  35.961  35.937  1.00  0.00    -0.206 F 
ATOM     83  C   UNL A   1      39.113  35.931  39.202  1.00  0.00     0.006 A 
ENDBRANCH  59  76
ENDBRANCH  33  34
ENDBRANCH  25  28
ENDBRANCH  23  24
ENDBRANCH  22  23
ENDBRANCH  21  22
ENDBRANCH   1  21
TORSDOF 17
ENDMDL
MODEL 2
REMARK VINA RESULT:     -10.6      4.722      9.265
REMARK SMILES CC[C@H](CC#N)[NH2+]Cc1cc(C(=O)NCCCCNC(=O)c2ccc(-c3c4nc(c(-c5c(F)cccc5F)c5ccc([nH]5)c(-c5c(F)cccc5F)c5nc(c(-c6c(F)cccc6F)c6ccc3[nH]6)C=C5)C=C4)cc2)cs1
REMARK SMILES IDX 15 1 14 2 12 3 13 4 11 6 9 7 10 8 77 9 76 10 8 11 7 12 3 15
REMARK SMILES IDX 2 16 1 17 4 18 5 19 6 20 16 21 17 22 18 23 19 24 20 25 21 27
REMARK SMILES IDX 22 28 23 29 75 30 24 31 74 32 25 33 26 34 27 35 68 36 28 37
REMARK SMILES IDX 73 38 67 39 69 40 29 41 72 42 66 43 65 44 30 46 56 47 39 48
REMARK SMILES IDX 55 49 40 50 43 51 54 52 70 53 41 54 42 55 53 57 71 58 44 59
REMARK SMILES IDX 31 60 32 61 37 62 33 63 34 64 36 65 38 66 35 67 57 68 58 69
REMARK SMILES IDX 63 70 59 71 60 72 62 73 64 74 61 75 45 76 46 77 51 78 47 79
REMARK SMILES IDX 48 80 50 81 52 82 49 83
REMARK H PARENT 14 5 7 13 7 14 19 26 69 45 43 56
REMARK Flexibility Score: inf
ROOT
ATOM      1  C   UNL A   1      32.424  26.815  26.190  1.00  0.00     0.116 C 
ENDROOT
BRANCH   1   2
ATOM      2  N   UNL A   1      31.062  26.378  26.403  1.00  0.00    -0.352 N 
ATOM      3  C   UNL A   1      30.510  25.130  26.531  1.00  0.00     0.252 C 
ATOM      4  O   UNL A   1      29.309  25.079  26.796  1.00  0.00    -0.269 OA
ATOM      5  H   UNL A   1      30.411  27.113  26.468  1.00  0.00     0.163 HD
BRANCH   3   6
ATOM      6  C   UNL A   1      31.308  23.914  26.376  1.00  0.00     0.051 A 
ATOM      7  C   UNL A   1      33.014  22.301  26.595  1.00  0.00     0.059 A 
ATOM      8  C   UNL A   1      32.460  23.461  27.101  1.00  0.00     0.035 A 
ATOM      9  S   UNL A   1      32.094  21.686  25.295  1.00  0.00    -0.142 S 
ATOM     10  C   UNL A   1      31.047  23.033  25.336  1.00  0.00     0.079 A 
BRANCH   7  11
ATOM     11  C   UNL A   1      34.302  21.660  26.999  1.00  0.00     0.308 C 
BRANCH  11  12
ATOM     12  N   UNL A   1      35.389  22.639  27.083  1.00  0.00    -0.339 N 
ATOM     13  H   UNL A   1      34.990  23.528  27.383  1.00  0.00     0.346 HD
ATOM     14  H   UNL A   1      36.066  22.254  27.742  1.00  0.00     0.346 HD
BRANCH  12  15
ATOM     15  C   UNL A   1      36.122  22.866  25.830  1.00  0.00     0.196 C 
BRANCH  15  16
ATOM     16  C   UNL A   1      37.618  23.258  26.002  1.00  0.00     0.063 C 
ATOM     17  C   UNL A   1      38.627  22.120  25.864  1.00  0.00     0.010 C 
ENDBRANCH  15  16
BRANCH  15  18
ATOM     18  C   UNL A   1      35.463  24.008  25.074  1.00  0.00     0.184 C 
BRANCH  18  19
ATOM     19  C   UNL A   1      34.954  23.712  23.672  1.00  0.00     0.068 C 
ATOM     20  N   UNL A   1      34.531  23.467  22.510  1.00  0.00    -0.198 NA
ENDBRANCH  18  19
ENDBRANCH  15  18
ENDBRANCH  12  15
ENDBRANCH  11  12
ENDBRANCH   7  11
ENDBRANCH   3   6
ENDBRANCH   1   2
BRANCH   1  21
ATOM     21  C   UNL A   1      32.465  28.013  25.241  1.00  0.00     0.023 C 
BRANCH  21  22
ATOM     22  C   UNL A   1      33.473  29.089  25.663  1.00  0.00     0.023 C 
BRANCH  22  23
ATOM     23  C   UNL A   1      33.921  29.008  27.119  1.00  0.00     0.116 C 
BRANCH  23  24
ATOM     24  N   UNL A   1      33.863  30.286  27.812  1.00  0.00    -0.352 N 
ATOM     25  C   UNL A   1      34.840  30.879  28.578  1.00  0.00     0.251 C 
ATOM     26  H   UNL A   1      33.022  30.789  27.722  1.00  0.00     0.163 HD
ATOM     27  O   UNL A   1      34.610  31.908  29.200  1.00  0.00    -0.269 OA
BRANCH  25  28
ATOM     28  C   UNL A   1      36.160  30.224  28.671  1.00  0.00     0.039 A 
ATOM     29  C   UNL A   1      37.043  30.331  27.596  1.00  0.00     0.014 A 
ATOM     30  C   UNL A   1      36.541  29.572  29.846  1.00  0.00     0.014 A 
ATOM     31  C   UNL A   1      38.342  29.840  27.728  1.00  0.00     0.010 A 
ATOM     32  C   UNL A   1      37.858  29.156  30.003  1.00  0.00     0.010 A 
ATOM     33  C   UNL A   1      38.772  29.287  28.946  1.00  0.00    -0.014 A 
BRANCH  33  34
ATOM     34  C   UNL A   1      40.176  28.848  29.136  1.00  0.00     0.031 A 
ATOM     35  C   UNL A   1      41.183  29.785  29.743  1.00  0.00     0.074 A 
ATOM     36  C   UNL A   1      40.559  27.631  28.703  1.00  0.00     0.049 A 
ATOM     37  N   UNL A   1      42.465  29.609  29.934  1.00  0.00    -0.248 NA
ATOM     38  C   UNL A   1      40.689  31.106  30.166  1.00  0.00     0.031 C 
ATOM     39  C   UNL A   1      39.688  26.650  28.051  1.00  0.00     0.029 A 
ATOM     40  N   UNL A   1      41.783  27.013  28.737  1.00  0.00    -0.354 N 
ATOM     41  C   UNL A   1      42.930  30.796  30.485  1.00  0.00     0.074 A 
ATOM     42  C   UNL A   1      41.808  31.706  30.544  1.00  0.00     0.031 C 
ATOM     43  C   UNL A   1      40.398  25.546  27.773  1.00  0.00     0.029 A 
ATOM     44  C   UNL A   1      41.782  25.753  28.187  1.00  0.00     0.049 A 
ATOM     45  H   UNL A   1      42.587  27.432  29.122  1.00  0.00     0.167 HD
ATOM     46  C   UNL A   1      44.175  31.092  30.929  1.00  0.00     0.037 A 
ATOM     47  C   UNL A   1      42.785  24.870  28.028  1.00  0.00     0.037 A 
ATOM     48  C   UNL A   1      45.285  30.176  30.888  1.00  0.00     0.049 A 
ATOM     49  C   UNL A   1      44.163  25.229  28.516  1.00  0.00     0.074 A 
ATOM     50  C   UNL A   1      46.571  30.360  31.365  1.00  0.00     0.029 A 
ATOM     51  N   UNL A   1      45.240  28.905  30.337  1.00  0.00    -0.354 N 
ATOM     52  N   UNL A   1      44.571  26.327  29.104  1.00  0.00    -0.248 NA
ATOM     53  C   UNL A   1      45.217  24.223  28.325  1.00  0.00     0.031 C 
ATOM     54  C   UNL A   1      47.319  29.220  31.055  1.00  0.00     0.029 A 
ATOM     55  C   UNL A   1      46.484  28.303  30.438  1.00  0.00     0.049 A 
ATOM     56  H   UNL A   1      44.443  28.491  29.932  1.00  0.00     0.167 HD
ATOM     57  C   UNL A   1      45.918  26.132  29.382  1.00  0.00     0.074 A 
ATOM     58  C   UNL A   1      46.253  24.804  28.911  1.00  0.00     0.031 C 
ATOM     59  C   UNL A   1      46.798  26.975  29.975  1.00  0.00     0.037 A 
BRANCH  46  60
ATOM     60  C   UNL A   1      44.401  32.462  31.500  1.00  0.00     0.057 A 
ATOM     61  C   UNL A   1      44.223  32.734  32.863  1.00  0.00     0.134 A 
ATOM     62  C   UNL A   1      44.843  33.512  30.685  1.00  0.00     0.134 A 
ATOM     63  F   UNL A   1      43.790  31.776  33.697  1.00  0.00    -0.206 F 
ATOM     64  C   UNL A   1      44.449  34.007  33.390  1.00  0.00     0.040 A 
ATOM     65  C   UNL A   1      45.101  34.781  31.206  1.00  0.00     0.040 A 
ATOM     66  F   UNL A   1      45.039  33.321  29.372  1.00  0.00    -0.206 F 
ATOM     67  C   UNL A   1      44.897  35.032  32.561  1.00  0.00     0.006 A 
ENDBRANCH  46  60
BRANCH  47  68
ATOM     68  C   UNL A   1      42.527  23.550  27.395  1.00  0.00     0.057 A 
ATOM     69  C   UNL A   1      42.202  22.429  28.167  1.00  0.00     0.134 A 
ATOM     70  C   UNL A   1      42.618  23.372  26.010  1.00  0.00     0.134 A 
ATOM     71  F   UNL A   1      42.117  22.531  29.503  1.00  0.00    -0.206 F 
ATOM     72  C   UNL A   1      42.004  21.174  27.590  1.00  0.00     0.040 A 
ATOM     73  C   UNL A   1      42.393  22.129  25.415  1.00  0.00     0.040 A 
ATOM     74  F   UNL A   1      42.915  24.407  25.211  1.00  0.00    -0.206 F 
ATOM     75  C   UNL A   1      42.095  21.023  26.209  1.00  0.00     0.006 A 
ENDBRANCH  47  68
BRANCH  59  76
ATOM     76  C   UNL A   1      48.196  26.472  30.190  1.00  0.00     0.057 A 
ATOM     77  C   UNL A   1      49.217  26.691  29.256  1.00  0.00     0.134 A 
ATOM     78  C   UNL A   1      48.534  25.796  31.370  1.00  0.00     0.134 A 
ATOM     79  F   UNL A   1      48.958  27.321  28.100  1.00  0.00    -0.206 F 
ATOM     80  C   UNL A   1      50.517  26.232  29.477  1.00  0.00     0.040 A 
ATOM     81  C   UNL A   1      49.836  25.361  31.616  1.00  0.00     0.040 A 
ATOM     82  F   UNL A   1      47.605  25.562  32.311  1.00  0.00    -0.206 F 
ATOM     83  C   UNL A   1      50.831  25.572  30.664  1.00  0.00     0.006 A 
ENDBRANCH  59  76
ENDBRANCH  33  34
ENDBRANCH  25  28
ENDBRANCH  23  24
ENDBRANCH  22  23
ENDBRANCH  21  22
ENDBRANCH   1  21
TORSDOF 17
ENDMDL
MODEL 3
REMARK VINA RESULT:     -10.6      4.993      9.418
REMARK SMILES CC[C@H](CC#N)[NH2+]Cc1cc(C(=O)NCCCCNC(=O)c2ccc(-c3c4nc(c(-c5c(F)cccc5F)c5ccc([nH]5)c(-c5c(F)cccc5F)c5nc(c(-c6c(F)cccc6F)c6ccc3[nH]6)C=C5)C=C4)cc2)cs1
REMARK SMILES IDX 15 1 14 2 12 3 13 4 11 6 9 7 10 8 77 9 76 10 8 11 7 12 3 15
REMARK SMILES IDX 2 16 1 17 4 18 5 19 6 20 16 21 17 22 18 23 19 24 20 25 21 27
REMARK SMILES IDX 22 28 23 29 75 30 24 31 74 32 25 33 26 34 27 35 68 36 28 37
REMARK SMILES IDX 73 38 67 39 69 40 29 41 72 42 66 43 65 44 30 46 56 47 39 48
REMARK SMILES IDX 55 49 40 50 43 51 54 52 70 53 41 54 42 55 53 57 71 58 44 59
REMARK SMILES IDX 31 60 32 61 37 62 33 63 34 64 36 65 38 66 35 67 57 68 58 69
REMARK SMILES IDX 63 70 59 71 60 72 62 73 64 74 61 75 45 76 46 77 51 78 47 79
REMARK SMILES IDX 48 80 50 81 52 82 49 83
REMARK H PARENT 14 5 7 13 7 14 19 26 69 45 43 56
REMARK Flexibility Score: inf
ROOT
ATOM      1  C   UNL A   1      31.070  29.946  24.992  1.00  0.00     0.116 C 
ENDROOT
BRANCH   1   2
ATOM      2  N   UNL A   1      30.623  30.019  23.618  1.00  0.00    -0.352 N 
ATOM      3  C   UNL A   1      30.425  29.053  22.667  1.00  0.00     0.252 C 
ATOM      4  O   UNL A   1      29.948  29.420  21.593  1.00  0.00    -0.269 OA
ATOM      5  H   UNL A   1      30.425  30.932  23.309  1.00  0.00     0.163 HD
BRANCH   3   6
ATOM      6  C   UNL A   1      30.749  27.647  22.916  1.00  0.00     0.051 A 
ATOM      7  C   UNL A   1      31.775  25.527  22.828  1.00  0.00     0.059 A 
ATOM      8  C   UNL A   1      31.866  26.860  22.479  1.00  0.00     0.035 A 
ATOM      9  S   UNL A   1      30.387  25.221  23.772  1.00  0.00    -0.142 S 
ATOM     10  C   UNL A   1      29.856  26.834  23.599  1.00  0.00     0.079 A 
BRANCH   7  11
ATOM     11  C   UNL A   1      32.670  24.412  22.389  1.00  0.00     0.308 C 
BRANCH  11  12
ATOM     12  N   UNL A   1      33.211  23.673  23.533  1.00  0.00    -0.339 N 
ATOM     13  H   UNL A   1      32.510  23.680  24.273  1.00  0.00     0.346 HD
ATOM     14  H   UNL A   1      33.431  22.739  23.188  1.00  0.00     0.346 HD
BRANCH  12  15
ATOM     15  C   UNL A   1      34.463  24.210  24.085  1.00  0.00     0.196 C 
BRANCH  15  16
ATOM     16  C   UNL A   1      35.578  23.155  24.342  1.00  0.00     0.063 C 
ATOM     17  C   UNL A   1      36.602  22.979  23.224  1.00  0.00     0.010 C 
ENDBRANCH  15  16
BRANCH  15  18
ATOM     18  C   UNL A   1      34.171  24.861  25.427  1.00  0.00     0.184 C 
BRANCH  18  19
ATOM     19  C   UNL A   1      33.081  24.235  26.282  1.00  0.00     0.068 C 
ATOM     20  N   UNL A   1      32.177  23.717  26.992  1.00  0.00    -0.198 NA
ENDBRANCH  18  19
ENDBRANCH  15  18
ENDBRANCH  12  15
ENDBRANCH  11  12
ENDBRANCH   7  11
ENDBRANCH   3   6
ENDBRANCH   1   2
BRANCH   1  21
ATOM     21  C   UNL A   1      32.513  29.446  25.065  1.00  0.00     0.023 C 
BRANCH  21  22
ATOM     22  C   UNL A   1      32.750  28.435  26.193  1.00  0.00     0.023 C 
BRANCH  22  23
ATOM     23  C   UNL A   1      33.948  28.743  27.085  1.00  0.00     0.116 C 
BRANCH  23  24
ATOM     24  N   UNL A   1      33.883  30.059  27.703  1.00  0.00    -0.352 N 
ATOM     25  C   UNL A   1      34.861  30.707  28.421  1.00  0.00     0.251 C 
ATOM     26  H   UNL A   1      33.034  30.546  27.593  1.00  0.00     0.163 HD
ATOM     27  O   UNL A   1      34.625  31.768  28.985  1.00  0.00    -0.269 OA
BRANCH  25  28
ATOM     28  C   UNL A   1      36.189  30.074  28.537  1.00  0.00     0.039 A 
ATOM     29  C   UNL A   1      37.080  30.176  27.468  1.00  0.00     0.014 A 
ATOM     30  C   UNL A   1      36.570  29.446  29.726  1.00  0.00     0.014 A 
ATOM     31  C   UNL A   1      38.385  29.707  27.619  1.00  0.00     0.010 A 
ATOM     32  C   UNL A   1      37.892  29.053  29.900  1.00  0.00     0.010 A 
ATOM     33  C   UNL A   1      38.812  29.181  28.849  1.00  0.00    -0.014 A 
BRANCH  33  34
ATOM     34  C   UNL A   1      40.221  28.766  29.059  1.00  0.00     0.031 A 
ATOM     35  C   UNL A   1      41.203  29.720  29.682  1.00  0.00     0.074 A 
ATOM     36  C   UNL A   1      40.632  27.557  28.630  1.00  0.00     0.049 A 
ATOM     37  N   UNL A   1      42.485  29.567  29.891  1.00  0.00    -0.248 NA
ATOM     38  C   UNL A   1      40.680  31.031  30.099  1.00  0.00     0.031 C 
ATOM     39  C   UNL A   1      39.787  26.562  27.965  1.00  0.00     0.029 A 
ATOM     40  N   UNL A   1      41.866  26.961  28.681  1.00  0.00    -0.354 N 
ATOM     41  C   UNL A   1      42.921  30.760  30.451  1.00  0.00     0.074 A 
ATOM     42  C   UNL A   1      41.783  31.650  30.494  1.00  0.00     0.031 C 
ATOM     43  C   UNL A   1      40.521  25.471  27.695  1.00  0.00     0.029 A 
ATOM     44  C   UNL A   1      41.895  25.702  28.130  1.00  0.00     0.049 A 
ATOM     45  H   UNL A   1      42.657  27.393  29.078  1.00  0.00     0.167 HD
ATOM     46  C   UNL A   1      44.154  31.077  30.912  1.00  0.00     0.037 A 
ATOM     47  C   UNL A   1      42.915  24.836  27.984  1.00  0.00     0.037 A 
ATOM     48  C   UNL A   1      45.280  30.181  30.887  1.00  0.00     0.049 A 
ATOM     49  C   UNL A   1      44.279  25.219  28.491  1.00  0.00     0.074 A 
ATOM     50  C   UNL A   1      46.556  30.387  31.382  1.00  0.00     0.029 A 
ATOM     51  N   UNL A   1      45.266  28.910  30.333  1.00  0.00    -0.354 N 
ATOM     52  N   UNL A   1      44.660  26.323  29.087  1.00  0.00    -0.248 NA
ATOM     53  C   UNL A   1      45.354  24.231  28.315  1.00  0.00     0.031 C 
ATOM     54  C   UNL A   1      47.329  29.261  31.081  1.00  0.00     0.029 A 
ATOM     55  C   UNL A   1      46.519  28.330  30.451  1.00  0.00     0.049 A 
ATOM     56  H   UNL A   1      44.482  28.483  29.916  1.00  0.00     0.167 HD
ATOM     57  C   UNL A   1      46.006  26.151  29.384  1.00  0.00     0.074 A 
ATOM     58  C   UNL A   1      46.371  24.830  28.916  1.00  0.00     0.031 C 
ATOM     59  C   UNL A   1      46.863  27.009  29.991  1.00  0.00     0.037 A 
BRANCH  46  60
ATOM     60  C   UNL A   1      44.348  32.450  31.489  1.00  0.00     0.057 A 
ATOM     61  C   UNL A   1      44.739  33.537  30.696  1.00  0.00     0.134 A 
ATOM     62  C   UNL A   1      44.102  32.697  32.845  1.00  0.00     0.134 A 
ATOM     63  F   UNL A   1      45.002  33.368  29.391  1.00  0.00    -0.206 F 
ATOM     64  C   UNL A   1      44.903  34.814  31.235  1.00  0.00     0.040 A 
ATOM     65  C   UNL A   1      44.235  33.975  33.390  1.00  0.00     0.040 A 
ATOM     66  F   UNL A   1      43.721  31.703  33.662  1.00  0.00    -0.206 F 
ATOM     67  C   UNL A   1      44.642  35.037  32.585  1.00  0.00     0.006 A 
ENDBRANCH  46  60
BRANCH  47  68
ATOM     68  C   UNL A   1      42.690  23.514  27.345  1.00  0.00     0.057 A 
ATOM     69  C   UNL A   1      42.317  22.399  28.105  1.00  0.00     0.134 A 
ATOM     70  C   UNL A   1      42.860  23.326  25.969  1.00  0.00     0.134 A 
ATOM     71  F   UNL A   1      42.155  22.510  29.432  1.00  0.00    -0.206 F 
ATOM     72  C   UNL A   1      42.148  21.140  27.525  1.00  0.00     0.040 A 
ATOM     73  C   UNL A   1      42.665  22.079  25.370  1.00  0.00     0.040 A 
ATOM     74  F   UNL A   1      43.207  24.355  25.182  1.00  0.00    -0.206 F 
ATOM     75  C   UNL A   1      42.318  20.980  26.152  1.00  0.00     0.006 A 
ENDBRANCH  47  68
BRANCH  59  76
ATOM     76  C   UNL A   1      48.266  26.530  30.225  1.00  0.00     0.057 A 
ATOM     77  C   UNL A   1      48.637  25.858  31.396  1.00  0.00     0.134 A 
ATOM     78  C   UNL A   1      49.251  26.710  29.244  1.00  0.00     0.134 A 
ATOM     79  F   UNL A   1      47.745  25.664  32.380  1.00  0.00    -0.206 F 
ATOM     80  C   UNL A   1      49.942  25.403  31.594  1.00  0.00     0.040 A 
ATOM     81  C   UNL A   1      50.550  26.232  29.417  1.00  0.00     0.040 A 
ATOM     82  F   UNL A   1      48.960  27.337  28.094  1.00  0.00    -0.206 F 
ATOM     83  C   UNL A   1      50.901  25.583  30.598  1.00  0.00     0.006 A 
ENDBRANCH  59  76
ENDBRANCH  33  34
ENDBRANCH  25  28
ENDBRANCH  23  24
ENDBRANCH  22  23
ENDBRANCH  21  22
ENDBRANCH   1  21
TORSDOF 17
ENDMDL
