MODEL 1
REMARK VINA RESULT:     -12.9      0.000      0.000
REMARK SMILES COc1cccc(-c2nn(-c3cc4c(cc3C(N)=O)OCO4)cc2C(=O)NCCCCNC(=O)c2ccc(-c3c4nc(c(-c5c(F)cccc5F)c5ccc([nH]5)c(-c5c(F)cccc5F)c5nc(c(-c6c(F)cccc6F)c6ccc3[nH]6)C=C5)C=C4)cc2)c1
REMARK SMILES IDX 29 1 28 2 27 3 25 4 26 5 24 7 8 8 9 9 10 10 23 11 7 12 3 13
REMARK SMILES IDX 4 14 89 15 5 16 6 17 2 18 1 19 11 20 12 21 16 22 13 23 15 24
REMARK SMILES IDX 14 25 22 26 20 27 21 28 17 29 18 30 19 31 30 34 31 35 32 36
REMARK SMILES IDX 33 37 34 39 35 40 36 41 88 42 37 43 87 44 38 45 39 46 40 47
REMARK SMILES IDX 81 48 41 49 86 50 80 51 82 52 42 53 85 54 79 55 78 56 43 58
REMARK SMILES IDX 69 59 52 60 68 61 53 62 56 63 67 64 83 65 54 66 55 67 66 69
REMARK SMILES IDX 84 70 57 71 44 72 45 73 50 74 46 75 47 76 49 77 51 78 48 79
REMARK SMILES IDX 70 80 71 81 76 82 72 83 73 84 75 85 77 86 74 87 58 88 59 89
REMARK SMILES IDX 64 90 60 91 61 92 63 93 65 94 62 95
REMARK H PARENT 27 6 18 32 18 33 32 38 82 57 56 68
REMARK Flexibility Score: inf
ROOT
ATOM      1  C   UNL A   1      39.228  21.872  26.049  1.00  0.00     0.023 C 
ENDROOT
BRANCH   1   2
ATOM      2  C   UNL A   1      37.851  22.514  25.870  1.00  0.00     0.116 C 
BRANCH   2   3
ATOM      3  N   UNL A   1      37.471  22.591  24.476  1.00  0.00    -0.352 N 
ATOM      4  C   UNL A   1      36.335  23.022  23.836  1.00  0.00     0.255 C 
ATOM      5  O   UNL A   1      36.382  22.981  22.606  1.00  0.00    -0.269 OA
ATOM      6  H   UNL A   1      38.169  22.269  23.861  1.00  0.00     0.163 HD
BRANCH   4   7
ATOM      7  C   UNL A   1      35.172  23.533  24.552  1.00  0.00     0.086 A 
ATOM      8  C   UNL A   1      33.862  22.940  24.654  1.00  0.00     0.106 A 
ATOM      9  N   UNL A   1      32.994  23.759  25.287  1.00  0.00    -0.167 NA
ATOM     10  N   UNL A   1      33.689  24.908  25.423  1.00  0.00    -0.239 N 
ATOM     11  C   UNL A   1      35.038  24.683  25.298  1.00  0.00     0.129 A 
BRANCH   8  12
ATOM     12  C   UNL A   1      33.441  21.628  24.160  1.00  0.00     0.007 A 
ATOM     13  C   UNL A   1      33.360  19.216  24.390  1.00  0.00     0.119 A 
ATOM     14  C   UNL A   1      32.509  19.138  23.286  1.00  0.00     0.046 A 
ATOM     15  C   UNL A   1      33.845  20.456  24.816  1.00  0.00     0.056 A 
ATOM     16  C   UNL A   1      32.119  20.297  22.618  1.00  0.00     0.005 A 
ATOM     17  C   UNL A   1      32.589  21.537  23.051  1.00  0.00     0.011 A 
BRANCH  13  18
ATOM     18  O   UNL A   1      33.711  18.019  24.956  1.00  0.00    -0.497 OA
ATOM     19  C   UNL A   1      34.331  17.112  24.050  1.00  0.00     0.278 C 
ENDBRANCH  13  18
ENDBRANCH   8  12
BRANCH  10  20
ATOM     20  C   UNL A   1      33.107  26.137  25.818  1.00  0.00     0.081 A 
ATOM     21  C   UNL A   1      33.967  27.192  26.172  1.00  0.00     0.079 A 
ATOM     22  C   UNL A   1      31.693  26.331  25.760  1.00  0.00     0.069 A 
ATOM     23  C   UNL A   1      33.396  28.434  26.367  1.00  0.00     0.167 A 
ATOM     24  C   UNL A   1      31.178  27.632  25.878  1.00  0.00     0.066 A 
ATOM     25  C   UNL A   1      32.049  28.649  26.194  1.00  0.00     0.166 A 
ATOM     26  O   UNL A   1      34.046  29.576  26.721  1.00  0.00    -0.454 OA
ATOM     27  O   UNL A   1      31.689  29.941  26.416  1.00  0.00    -0.454 OA
ATOM     28  C   UNL A   1      32.929  30.469  26.926  1.00  0.00     0.468 C 
BRANCH  22  29
ATOM     29  C   UNL A   1      30.722  25.183  25.777  1.00  0.00     0.251 C 
ATOM     30  N   UNL A   1      30.287  24.687  24.578  1.00  0.00    -0.366 N 
ATOM     31  O   UNL A   1      30.239  24.706  26.797  1.00  0.00    -0.269 OA
ATOM     32  H   UNL A   1      30.652  25.045  23.737  1.00  0.00     0.159 HD
ATOM     33  H   UNL A   1      29.609  23.974  24.558  1.00  0.00     0.159 HD
ENDBRANCH  22  29
ENDBRANCH  10  20
ENDBRANCH   4   7
ENDBRANCH   2   3
ENDBRANCH   1   2
BRANCH   1  34
ATOM     34  C   UNL A   1      39.372  20.469  25.438  1.00  0.00     0.023 C 
BRANCH  34  35
ATOM     35  C   UNL A   1      40.050  19.438  26.339  1.00  0.00     0.116 C 
BRANCH  35  36
ATOM     36  N   UNL A   1      41.322  18.956  25.801  1.00  0.00    -0.352 N 
ATOM     37  C   UNL A   1      42.478  19.672  25.549  1.00  0.00     0.251 C 
ATOM     38  H   UNL A   1      41.360  17.994  25.593  1.00  0.00     0.163 HD
ATOM     39  O   UNL A   1      43.313  19.262  24.759  1.00  0.00    -0.269 OA
BRANCH  37  40
ATOM     40  C   UNL A   1      42.694  20.942  26.263  1.00  0.00     0.039 A 
ATOM     41  C   UNL A   1      42.969  22.130  25.580  1.00  0.00     0.014 A 
ATOM     42  C   UNL A   1      42.596  20.929  27.651  1.00  0.00     0.014 A 
ATOM     43  C   UNL A   1      43.054  23.316  26.306  1.00  0.00     0.010 A 
ATOM     44  C   UNL A   1      42.523  22.109  28.344  1.00  0.00     0.010 A 
ATOM     45  C   UNL A   1      42.804  23.302  27.689  1.00  0.00    -0.014 A 
BRANCH  45  46
ATOM     46  C   UNL A   1      42.698  24.546  28.443  1.00  0.00     0.031 A 
ATOM     47  C   UNL A   1      41.417  25.275  28.232  1.00  0.00     0.074 A 
ATOM     48  C   UNL A   1      43.564  24.900  29.418  1.00  0.00     0.049 A 
ATOM     49  N   UNL A   1      41.247  26.410  27.639  1.00  0.00    -0.248 NA
ATOM     50  C   UNL A   1      40.159  24.597  28.587  1.00  0.00     0.031 C 
ATOM     51  C   UNL A   1      44.688  24.125  29.959  1.00  0.00     0.029 A 
ATOM     52  N   UNL A   1      43.559  26.002  30.221  1.00  0.00    -0.354 N 
ATOM     53  C   UNL A   1      39.890  26.700  27.754  1.00  0.00     0.074 A 
ATOM     54  C   UNL A   1      39.251  25.474  28.154  1.00  0.00     0.031 C 
ATOM     55  C   UNL A   1      45.092  24.660  31.130  1.00  0.00     0.029 A 
ATOM     56  C   UNL A   1      44.384  25.910  31.337  1.00  0.00     0.049 A 
ATOM     57  H   UNL A   1      43.015  26.799  30.025  1.00  0.00     0.167 HD
ATOM     58  C   UNL A   1      39.458  27.991  27.788  1.00  0.00     0.037 A 
ATOM     59  C   UNL A   1      44.467  26.788  32.366  1.00  0.00     0.037 A 
ATOM     60  C   UNL A   1      40.478  28.887  27.297  1.00  0.00     0.049 A 
ATOM     61  C   UNL A   1      43.901  28.073  31.893  1.00  0.00     0.074 A 
ATOM     62  C   UNL A   1      41.187  29.012  26.117  1.00  0.00     0.029 A 
ATOM     63  N   UNL A   1      41.178  29.612  28.229  1.00  0.00    -0.354 N 
ATOM     64  N   UNL A   1      44.458  28.821  30.984  1.00  0.00    -0.248 NA
ATOM     65  C   UNL A   1      42.483  28.304  32.111  1.00  0.00     0.031 C 
ATOM     66  C   UNL A   1      42.506  29.387  26.519  1.00  0.00     0.029 A 
ATOM     67  C   UNL A   1      42.506  29.543  27.905  1.00  0.00     0.049 A 
ATOM     68  H   UNL A   1      40.793  30.096  28.996  1.00  0.00     0.167 HD
ATOM     69  C   UNL A   1      43.400  29.274  30.211  1.00  0.00     0.074 A 
ATOM     70  C   UNL A   1      42.207  29.011  31.013  1.00  0.00     0.031 C 
ATOM     71  C   UNL A   1      43.570  29.545  28.883  1.00  0.00     0.037 A 
BRANCH  58  72
ATOM     72  C   UNL A   1      38.322  28.487  28.659  1.00  0.00     0.057 A 
ATOM     73  C   UNL A   1      37.429  29.439  28.127  1.00  0.00     0.134 A 
ATOM     74  C   UNL A   1      38.255  28.331  30.059  1.00  0.00     0.134 A 
ATOM     75  F   UNL A   1      37.390  29.685  26.809  1.00  0.00    -0.206 F 
ATOM     76  C   UNL A   1      36.619  30.246  28.936  1.00  0.00     0.040 A 
ATOM     77  C   UNL A   1      37.411  29.095  30.870  1.00  0.00     0.040 A 
ATOM     78  F   UNL A   1      39.066  27.512  30.736  1.00  0.00    -0.206 F 
ATOM     79  C   UNL A   1      36.618  30.084  30.314  1.00  0.00     0.006 A 
ENDBRANCH  58  72
BRANCH  59  80
ATOM     80  C   UNL A   1      44.736  26.535  33.802  1.00  0.00     0.057 A 
ATOM     81  C   UNL A   1      43.948  25.638  34.538  1.00  0.00     0.134 A 
ATOM     82  C   UNL A   1      45.942  26.932  34.405  1.00  0.00     0.134 A 
ATOM     83  F   UNL A   1      42.795  25.173  34.035  1.00  0.00    -0.206 F 
ATOM     84  C   UNL A   1      44.352  25.134  35.782  1.00  0.00     0.040 A 
ATOM     85  C   UNL A   1      46.355  26.442  35.648  1.00  0.00     0.040 A 
ATOM     86  F   UNL A   1      46.803  27.736  33.764  1.00  0.00    -0.206 F 
ATOM     87  C   UNL A   1      45.567  25.525  36.334  1.00  0.00     0.006 A 
ENDBRANCH  59  80
BRANCH  71  88
ATOM     88  C   UNL A   1      44.976  29.630  28.356  1.00  0.00     0.057 A 
ATOM     89  C   UNL A   1      45.701  28.545  27.837  1.00  0.00     0.134 A 
ATOM     90  C   UNL A   1      45.567  30.893  28.244  1.00  0.00     0.134 A 
ATOM     91  F   UNL A   1      45.185  27.310  27.812  1.00  0.00    -0.206 F 
ATOM     92  C   UNL A   1      46.970  28.709  27.271  1.00  0.00     0.040 A 
ATOM     93  C   UNL A   1      46.817  31.075  27.650  1.00  0.00     0.040 A 
ATOM     94  F   UNL A   1      44.911  31.984  28.670  1.00  0.00    -0.206 F 
ATOM     95  C   UNL A   1      47.529  29.979  27.171  1.00  0.00     0.006 A 
ENDBRANCH  71  88
ENDBRANCH  45  46
ENDBRANCH  37  40
ENDBRANCH  35  36
ENDBRANCH  34  35
ENDBRANCH   1  34
TORSDOF 15
ENDMDL
MODEL 2
REMARK VINA RESULT:     -12.8      2.890      8.084
REMARK SMILES COc1cccc(-c2nn(-c3cc4c(cc3C(N)=O)OCO4)cc2C(=O)NCCCCNC(=O)c2ccc(-c3c4nc(c(-c5c(F)cccc5F)c5ccc([nH]5)c(-c5c(F)cccc5F)c5nc(c(-c6c(F)cccc6F)c6ccc3[nH]6)C=C5)C=C4)cc2)c1
REMARK SMILES IDX 29 1 28 2 27 3 25 4 26 5 24 7 8 8 9 9 10 10 23 11 7 12 3 13
REMARK SMILES IDX 4 14 89 15 5 16 6 17 2 18 1 19 11 20 12 21 16 22 13 23 15 24
REMARK SMILES IDX 14 25 22 26 20 27 21 28 17 29 18 30 19 31 30 34 31 35 32 36
REMARK SMILES IDX 33 37 34 39 35 40 36 41 88 42 37 43 87 44 38 45 39 46 40 47
REMARK SMILES IDX 81 48 41 49 86 50 80 51 82 52 42 53 85 54 79 55 78 56 43 58
REMARK SMILES IDX 69 59 52 60 68 61 53 62 56 63 67 64 83 65 54 66 55 67 66 69
REMARK SMILES IDX 84 70 57 71 44 72 45 73 50 74 46 75 47 76 49 77 51 78 48 79
REMARK SMILES IDX 70 80 71 81 76 82 72 83 73 84 75 85 77 86 74 87 58 88 59 89
REMARK SMILES IDX 64 90 60 91 61 92 63 93 65 94 62 95
REMARK H PARENT 27 6 18 32 18 33 32 38 82 57 56 68
REMARK Flexibility Score: inf
ROOT
ATOM      1  C   UNL A   1      32.723  29.651  27.212  1.00  0.00     0.023 C 
ENDROOT
BRANCH   1   2
ATOM      2  C   UNL A   1      31.898  29.138  26.030  1.00  0.00     0.116 C 
BRANCH   2   3
ATOM      3  N   UNL A   1      32.603  29.294  24.776  1.00  0.00    -0.352 N 
ATOM      4  C   UNL A   1      32.674  28.526  23.639  1.00  0.00     0.255 C 
ATOM      5  O   UNL A   1      33.355  29.004  22.730  1.00  0.00    -0.269 OA
ATOM      6  H   UNL A   1      33.139  30.117  24.727  1.00  0.00     0.163 HD
BRANCH   4   7
ATOM      7  C   UNL A   1      31.965  27.261  23.496  1.00  0.00     0.086 A 
ATOM      8  C   UNL A   1      30.550  27.052  23.317  1.00  0.00     0.106 A 
ATOM      9  N   UNL A   1      30.232  25.739  23.357  1.00  0.00    -0.167 NA
ATOM     10  N   UNL A   1      31.388  25.148  23.727  1.00  0.00    -0.239 N 
ATOM     11  C   UNL A   1      32.459  25.975  23.492  1.00  0.00     0.129 A 
BRANCH   8  12
ATOM     12  C   UNL A   1      29.520  28.073  23.116  1.00  0.00     0.007 A 
ATOM     13  C   UNL A   1      28.844  30.249  22.288  1.00  0.00     0.119 A 
ATOM     14  C   UNL A   1      27.515  29.959  22.609  1.00  0.00     0.046 A 
ATOM     15  C   UNL A   1      29.850  29.318  22.561  1.00  0.00     0.056 A 
ATOM     16  C   UNL A   1      27.184  28.732  23.179  1.00  0.00     0.005 A 
ATOM     17  C   UNL A   1      28.185  27.795  23.437  1.00  0.00     0.011 A 
BRANCH  13  18
ATOM     18  O   UNL A   1      29.071  31.494  21.764  1.00  0.00    -0.497 OA
ATOM     19  C   UNL A   1      28.220  31.823  20.669  1.00  0.00     0.278 C 
ENDBRANCH  13  18
ENDBRANCH   8  12
BRANCH  10  20
ATOM     20  C   UNL A   1      31.483  23.795  24.132  1.00  0.00     0.081 A 
ATOM     21  C   UNL A   1      31.778  22.830  23.152  1.00  0.00     0.079 A 
ATOM     22  C   UNL A   1      31.384  23.433  25.511  1.00  0.00     0.069 A 
ATOM     23  C   UNL A   1      32.058  21.551  23.588  1.00  0.00     0.167 A 
ATOM     24  C   UNL A   1      31.767  22.141  25.905  1.00  0.00     0.066 A 
ATOM     25  C   UNL A   1      32.081  21.229  24.925  1.00  0.00     0.166 A 
ATOM     26  O   UNL A   1      32.356  20.477  22.807  1.00  0.00    -0.454 OA
ATOM     27  O   UNL A   1      32.394  19.925  25.147  1.00  0.00    -0.454 OA
ATOM     28  C   UNL A   1      32.383  19.424  23.795  1.00  0.00     0.468 C 
BRANCH  22  29
ATOM     29  C   UNL A   1      30.703  24.309  26.526  1.00  0.00     0.251 C 
ATOM     30  N   UNL A   1      29.427  23.990  26.901  1.00  0.00    -0.366 N 
ATOM     31  O   UNL A   1      31.192  25.334  26.987  1.00  0.00    -0.269 OA
ATOM     32  H   UNL A   1      29.000  23.175  26.550  1.00  0.00     0.159 HD
ATOM     33  H   UNL A   1      28.935  24.577  27.520  1.00  0.00     0.159 HD
ENDBRANCH  22  29
ENDBRANCH  10  20
ENDBRANCH   4   7
ENDBRANCH   2   3
ENDBRANCH   1   2
BRANCH   1  34
ATOM     34  C   UNL A   1      34.133  30.145  26.851  1.00  0.00     0.023 C 
BRANCH  34  35
ATOM     35  C   UNL A   1      35.268  29.491  27.635  1.00  0.00     0.116 C 
BRANCH  35  36
ATOM     36  N   UNL A   1      35.384  29.993  29.004  1.00  0.00    -0.352 N 
ATOM     37  C   UNL A   1      36.332  29.677  29.961  1.00  0.00     0.251 C 
ATOM     38  H   UNL A   1      34.696  30.642  29.280  1.00  0.00     0.163 HD
ATOM     39  O   UNL A   1      36.107  29.846  31.149  1.00  0.00    -0.269 OA
BRANCH  37  40
ATOM     40  C   UNL A   1      37.632  29.143  29.520  1.00  0.00     0.039 A 
ATOM     41  C   UNL A   1      38.289  29.651  28.397  1.00  0.00     0.014 A 
ATOM     42  C   UNL A   1      38.201  28.123  30.274  1.00  0.00     0.014 A 
ATOM     43  C   UNL A   1      39.566  29.179  28.098  1.00  0.00     0.010 A 
ATOM     44  C   UNL A   1      39.512  27.773  30.075  1.00  0.00     0.010 A 
ATOM     45  C   UNL A   1      40.183  28.255  28.958  1.00  0.00    -0.014 A 
BRANCH  45  46
ATOM     46  C   UNL A   1      41.583  27.887  28.781  1.00  0.00     0.031 A 
ATOM     47  C   UNL A   1      41.787  26.647  27.981  1.00  0.00     0.074 A 
ATOM     48  C   UNL A   1      42.613  28.702  29.103  1.00  0.00     0.049 A 
ATOM     49  N   UNL A   1      42.242  25.512  28.394  1.00  0.00    -0.248 NA
ATOM     50  C   UNL A   1      41.287  26.619  26.596  1.00  0.00     0.031 C 
ATOM     51  C   UNL A   1      42.556  30.083  29.597  1.00  0.00     0.029 A 
ATOM     52  N   UNL A   1      43.952  28.502  28.952  1.00  0.00    -0.354 N 
ATOM     53  C   UNL A   1      42.307  24.696  27.267  1.00  0.00     0.074 A 
ATOM     54  C   UNL A   1      41.525  25.351  26.253  1.00  0.00     0.031 C 
ATOM     55  C   UNL A   1      43.769  30.663  29.476  1.00  0.00     0.029 A 
ATOM     56  C   UNL A   1      44.726  29.652  29.067  1.00  0.00     0.049 A 
ATOM     57  H   UNL A   1      44.340  27.614  28.777  1.00  0.00     0.167 HD
ATOM     58  C   UNL A   1      43.233  23.700  27.185  1.00  0.00     0.037 A 
ATOM     59  C   UNL A   1      46.056  29.770  28.827  1.00  0.00     0.037 A 
ATOM     60  C   UNL A   1      43.772  23.391  28.489  1.00  0.00     0.049 A 
ATOM     61  C   UNL A   1      46.633  28.407  28.884  1.00  0.00     0.074 A 
ATOM     62  C   UNL A   1      43.240  22.983  29.698  1.00  0.00     0.029 A 
ATOM     63  N   UNL A   1      45.027  23.867  28.778  1.00  0.00    -0.354 N 
ATOM     64  N   UNL A   1      46.718  27.699  29.973  1.00  0.00    -0.248 NA
ATOM     65  C   UNL A   1      46.709  27.656  27.641  1.00  0.00     0.031 C 
ATOM     66  C   UNL A   1      43.998  23.679  30.687  1.00  0.00     0.029 A 
ATOM     67  C   UNL A   1      44.992  24.408  30.035  1.00  0.00     0.049 A 
ATOM     68  H   UNL A   1      45.813  23.826  28.187  1.00  0.00     0.167 HD
ATOM     69  C   UNL A   1      46.396  26.410  29.576  1.00  0.00     0.074 A 
ATOM     70  C   UNL A   1      46.504  26.426  28.118  1.00  0.00     0.031 C 
ATOM     71  C   UNL A   1      45.789  25.543  30.439  1.00  0.00     0.037 A 
BRANCH  58  72
ATOM     72  C   UNL A   1      43.969  23.323  25.916  1.00  0.00     0.057 A 
ATOM     73  C   UNL A   1      44.044  21.962  25.558  1.00  0.00     0.134 A 
ATOM     74  C   UNL A   1      44.861  24.167  25.223  1.00  0.00     0.134 A 
ATOM     75  F   UNL A   1      43.250  21.051  26.142  1.00  0.00    -0.206 F 
ATOM     76  C   UNL A   1      45.005  21.470  24.666  1.00  0.00     0.040 A 
ATOM     77  C   UNL A   1      45.787  23.692  24.291  1.00  0.00     0.040 A 
ATOM     78  F   UNL A   1      44.962  25.476  25.473  1.00  0.00    -0.206 F 
ATOM     79  C   UNL A   1      45.890  22.334  24.039  1.00  0.00     0.006 A 
ENDBRANCH  58  72
BRANCH  59  80
ATOM     80  C   UNL A   1      46.817  30.918  28.281  1.00  0.00     0.057 A 
ATOM     81  C   UNL A   1      46.543  31.424  27.001  1.00  0.00     0.134 A 
ATOM     82  C   UNL A   1      47.614  31.730  29.105  1.00  0.00     0.134 A 
ATOM     83  F   UNL A   1      45.763  30.740  26.150  1.00  0.00    -0.206 F 
ATOM     84  C   UNL A   1      47.002  32.679  26.578  1.00  0.00     0.040 A 
ATOM     85  C   UNL A   1      48.083  32.983  28.695  1.00  0.00     0.040 A 
ATOM     86  F   UNL A   1      47.885  31.377  30.370  1.00  0.00    -0.206 F 
ATOM     87  C   UNL A   1      47.763  33.470  27.433  1.00  0.00     0.006 A 
ENDBRANCH  59  80
BRANCH  71  88
ATOM     88  C   UNL A   1      45.757  25.910  31.898  1.00  0.00     0.057 A 
ATOM     89  C   UNL A   1      46.831  25.746  32.786  1.00  0.00     0.134 A 
ATOM     90  C   UNL A   1      44.632  26.584  32.387  1.00  0.00     0.134 A 
ATOM     91  F   UNL A   1      47.986  25.198  32.390  1.00  0.00    -0.206 F 
ATOM     92  C   UNL A   1      46.770  26.199  34.109  1.00  0.00     0.040 A 
ATOM     93  C   UNL A   1      44.572  27.071  33.694  1.00  0.00     0.040 A 
ATOM     94  F   UNL A   1      43.586  26.823  31.581  1.00  0.00    -0.206 F 
ATOM     95  C   UNL A   1      45.640  26.869  34.564  1.00  0.00     0.006 A 
ENDBRANCH  71  88
ENDBRANCH  45  46
ENDBRANCH  37  40
ENDBRANCH  35  36
ENDBRANCH  34  35
ENDBRANCH   1  34
TORSDOF 15
ENDMDL
MODEL 3
REMARK VINA RESULT:     -12.7      2.424      8.004
REMARK SMILES COc1cccc(-c2nn(-c3cc4c(cc3C(N)=O)OCO4)cc2C(=O)NCCCCNC(=O)c2ccc(-c3c4nc(c(-c5c(F)cccc5F)c5ccc([nH]5)c(-c5c(F)cccc5F)c5nc(c(-c6c(F)cccc6F)c6ccc3[nH]6)C=C5)C=C4)cc2)c1
REMARK SMILES IDX 29 1 28 2 27 3 25 4 26 5 24 7 8 8 9 9 10 10 23 11 7 12 3 13
REMARK SMILES IDX 4 14 89 15 5 16 6 17 2 18 1 19 11 20 12 21 16 22 13 23 15 24
REMARK SMILES IDX 14 25 22 26 20 27 21 28 17 29 18 30 19 31 30 34 31 35 32 36
REMARK SMILES IDX 33 37 34 39 35 40 36 41 88 42 37 43 87 44 38 45 39 46 40 47
REMARK SMILES IDX 81 48 41 49 86 50 80 51 82 52 42 53 85 54 79 55 78 56 43 58
REMARK SMILES IDX 69 59 52 60 68 61 53 62 56 63 67 64 83 65 54 66 55 67 66 69
REMARK SMILES IDX 84 70 57 71 44 72 45 73 50 74 46 75 47 76 49 77 51 78 48 79
REMARK SMILES IDX 70 80 71 81 76 82 72 83 73 84 75 85 77 86 74 87 58 88 59 89
REMARK SMILES IDX 64 90 60 91 61 92 63 93 65 94 62 95
REMARK H PARENT 27 6 18 32 18 33 32 38 82 57 56 68
REMARK Flexibility Score: inf
ROOT
ATOM      1  C   UNL A   1      32.606  29.019  26.482  1.00  0.00     0.023 C 
ENDROOT
BRANCH   1   2
ATOM      2  C   UNL A   1      32.401  27.843  27.439  1.00  0.00     0.116 C 
BRANCH   2   3
ATOM      3  N   UNL A   1      31.167  27.138  27.167  1.00  0.00    -0.352 N 
ATOM      4  C   UNL A   1      30.883  25.960  26.519  1.00  0.00     0.255 C 
ATOM      5  O   UNL A   1      29.693  25.641  26.517  1.00  0.00    -0.269 OA
ATOM      6  H   UNL A   1      30.369  27.594  27.519  1.00  0.00     0.163 HD
BRANCH   4   7
ATOM      7  C   UNL A   1      31.913  25.125  25.915  1.00  0.00     0.086 A 
ATOM      8  C   UNL A   1      32.604  25.331  24.666  1.00  0.00     0.106 A 
ATOM      9  N   UNL A   1      33.398  24.282  24.358  1.00  0.00    -0.167 NA
ATOM     10  N   UNL A   1      33.083  23.364  25.296  1.00  0.00    -0.239 N 
ATOM     11  C   UNL A   1      32.476  23.955  26.376  1.00  0.00     0.129 A 
BRANCH   8  12
ATOM     12  C   UNL A   1      32.510  26.494  23.782  1.00  0.00     0.007 A 
ATOM     13  C   UNL A   1      31.180  28.078  22.516  1.00  0.00     0.119 A 
ATOM     14  C   UNL A   1      32.334  28.804  22.211  1.00  0.00     0.046 A 
ATOM     15  C   UNL A   1      31.269  26.911  23.282  1.00  0.00     0.056 A 
ATOM     16  C   UNL A   1      33.573  28.384  22.689  1.00  0.00     0.005 A 
ATOM     17  C   UNL A   1      33.660  27.229  23.467  1.00  0.00     0.011 A 
BRANCH  13  18
ATOM     18  O   UNL A   1      30.017  28.553  21.972  1.00  0.00    -0.497 OA
ATOM     19  C   UNL A   1      29.650  29.849  22.436  1.00  0.00     0.278 C 
ENDBRANCH  13  18
ENDBRANCH   8  12
BRANCH  10  20
ATOM     20  C   UNL A   1      33.490  22.010  25.236  1.00  0.00     0.081 A 
ATOM     21  C   UNL A   1      32.498  21.016  25.335  1.00  0.00     0.079 A 
ATOM     22  C   UNL A   1      34.852  21.663  24.981  1.00  0.00     0.069 A 
ATOM     23  C   UNL A   1      32.881  19.714  25.084  1.00  0.00     0.167 A 
ATOM     24  C   UNL A   1      35.166  20.336  24.645  1.00  0.00     0.066 A 
ATOM     25  C   UNL A   1      34.168  19.393  24.721  1.00  0.00     0.166 A 
ATOM     26  O   UNL A   1      32.083  18.612  25.135  1.00  0.00    -0.454 OA
ATOM     27  O   UNL A   1      34.336  18.062  24.500  1.00  0.00    -0.454 OA
ATOM     28  C   UNL A   1      33.059  17.565  24.945  1.00  0.00     0.468 C 
BRANCH  22  29
ATOM     29  C   UNL A   1      35.987  22.611  25.251  1.00  0.00     0.251 C 
ATOM     30  N   UNL A   1      36.478  22.686  26.525  1.00  0.00    -0.366 N 
ATOM     31  O   UNL A   1      36.456  23.376  24.416  1.00  0.00    -0.269 OA
ATOM     32  H   UNL A   1      36.126  22.088  27.224  1.00  0.00     0.159 HD
ATOM     33  H   UNL A   1      37.183  23.338  26.744  1.00  0.00     0.159 HD
ENDBRANCH  22  29
ENDBRANCH  10  20
ENDBRANCH   4   7
ENDBRANCH   2   3
ENDBRANCH   1   2
BRANCH   1  34
ATOM     34  C   UNL A   1      34.064  29.479  26.324  1.00  0.00     0.023 C 
BRANCH  34  35
ATOM     35  C   UNL A   1      35.026  28.952  27.386  1.00  0.00     0.116 C 
BRANCH  35  36
ATOM     36  N   UNL A   1      35.220  29.884  28.498  1.00  0.00    -0.352 N 
ATOM     37  C   UNL A   1      36.262  29.938  29.406  1.00  0.00     0.251 C 
ATOM     38  H   UNL A   1      34.515  30.562  28.614  1.00  0.00     0.163 HD
ATOM     39  O   UNL A   1      36.125  30.482  30.490  1.00  0.00    -0.269 OA
BRANCH  37  40
ATOM     40  C   UNL A   1      37.555  29.335  29.036  1.00  0.00     0.039 A 
ATOM     41  C   UNL A   1      38.237  29.718  27.879  1.00  0.00     0.014 A 
ATOM     42  C   UNL A   1      38.091  28.379  29.892  1.00  0.00     0.014 A 
ATOM     43  C   UNL A   1      39.506  29.192  27.644  1.00  0.00     0.010 A 
ATOM     44  C   UNL A   1      39.396  27.983  29.746  1.00  0.00     0.010 A 
ATOM     45  C   UNL A   1      40.091  28.341  28.598  1.00  0.00    -0.014 A 
BRANCH  45  46
ATOM     46  C   UNL A   1      41.484  27.927  28.476  1.00  0.00     0.031 A 
ATOM     47  C   UNL A   1      41.675  26.659  27.719  1.00  0.00     0.074 A 
ATOM     48  C   UNL A   1      42.528  28.720  28.808  1.00  0.00     0.049 A 
ATOM     49  N   UNL A   1      42.083  25.523  28.178  1.00  0.00    -0.248 NA
ATOM     50  C   UNL A   1      41.219  26.605  26.320  1.00  0.00     0.031 C 
ATOM     51  C   UNL A   1      42.497  30.117  29.260  1.00  0.00     0.029 A 
ATOM     52  N   UNL A   1      43.864  28.476  28.706  1.00  0.00    -0.354 N 
ATOM     53  C   UNL A   1      42.158  24.673  27.078  1.00  0.00     0.074 A 
ATOM     54  C   UNL A   1      41.428  25.320  26.021  1.00  0.00     0.031 C 
ATOM     55  C   UNL A   1      43.731  30.656  29.162  1.00  0.00     0.029 A 
ATOM     56  C   UNL A   1      44.669  29.606  28.813  1.00  0.00     0.049 A 
ATOM     57  H   UNL A   1      44.230  27.573  28.569  1.00  0.00     0.167 HD
ATOM     58  C   UNL A   1      43.055  23.649  27.055  1.00  0.00     0.037 A 
ATOM     59  C   UNL A   1      46.008  29.678  28.613  1.00  0.00     0.037 A 
ATOM     60  C   UNL A   1      43.543  23.362  28.383  1.00  0.00     0.049 A 
ATOM     61  C   UNL A   1      46.542  28.301  28.727  1.00  0.00     0.074 A 
ATOM     62  C   UNL A   1      42.962  23.005  29.585  1.00  0.00     0.029 A 
ATOM     63  N   UNL A   1      44.802  23.809  28.699  1.00  0.00    -0.354 N 
ATOM     64  N   UNL A   1      46.571  27.623  29.838  1.00  0.00    -0.248 NA
ATOM     65  C   UNL A   1      46.633  27.512  27.509  1.00  0.00     0.031 C 
ATOM     66  C   UNL A   1      43.709  23.708  30.579  1.00  0.00     0.029 A 
ATOM     67  C   UNL A   1      44.745  24.388  29.938  1.00  0.00     0.049 A 
ATOM     68  H   UNL A   1      45.605  23.727  28.134  1.00  0.00     0.167 HD
ATOM     69  C   UNL A   1      46.223  26.333  29.467  1.00  0.00     0.074 A 
ATOM     70  C   UNL A   1      46.376  26.303  28.014  1.00  0.00     0.031 C 
ATOM     71  C   UNL A   1      45.563  25.510  30.336  1.00  0.00     0.037 A 
BRANCH  58  72
ATOM     72  C   UNL A   1      43.819  23.212  25.821  1.00  0.00     0.057 A 
ATOM     73  C   UNL A   1      43.893  21.836  25.523  1.00  0.00     0.134 A 
ATOM     74  C   UNL A   1      44.733  24.020  25.114  1.00  0.00     0.134 A 
ATOM     75  F   UNL A   1      43.078  20.957  26.126  1.00  0.00    -0.206 F 
ATOM     76  C   UNL A   1      44.871  21.301  24.677  1.00  0.00     0.040 A 
ATOM     77  C   UNL A   1      45.679  23.500  24.227  1.00  0.00     0.040 A 
ATOM     78  F   UNL A   1      44.839  25.338  25.311  1.00  0.00    -0.206 F 
ATOM     79  C   UNL A   1      45.778  22.132  24.035  1.00  0.00     0.006 A 
ENDBRANCH  58  72
BRANCH  59  80
ATOM     80  C   UNL A   1      46.820  30.787  28.059  1.00  0.00     0.057 A 
ATOM     81  C   UNL A   1      46.391  31.506  26.933  1.00  0.00     0.134 A 
ATOM     82  C   UNL A   1      47.876  31.360  28.788  1.00  0.00     0.134 A 
ATOM     83  F   UNL A   1      45.366  31.060  26.190  1.00  0.00    -0.206 F 
ATOM     84  C   UNL A   1      46.950  32.740  26.575  1.00  0.00     0.040 A 
ATOM     85  C   UNL A   1      48.448  32.589  28.439  1.00  0.00     0.040 A 
ATOM     86  F   UNL A   1      48.324  30.793  29.918  1.00  0.00    -0.206 F 
ATOM     87  C   UNL A   1      47.973  33.293  27.339  1.00  0.00     0.006 A 
ENDBRANCH  59  80
BRANCH  71  88
ATOM     88  C   UNL A   1      45.496  25.921  31.781  1.00  0.00     0.057 A 
ATOM     89  C   UNL A   1      46.533  25.742  32.710  1.00  0.00     0.134 A 
ATOM     90  C   UNL A   1      44.383  26.651  32.212  1.00  0.00     0.134 A 
ATOM     91  F   UNL A   1      47.678  25.138  32.370  1.00  0.00    -0.206 F 
ATOM     92  C   UNL A   1      46.445  26.235  34.017  1.00  0.00     0.040 A 
ATOM     93  C   UNL A   1      44.298  27.178  33.502  1.00  0.00     0.040 A 
ATOM     94  F   UNL A   1      43.375  26.907  31.363  1.00  0.00    -0.206 F 
ATOM     95  C   UNL A   1      45.327  26.961  34.414  1.00  0.00     0.006 A 
ENDBRANCH  71  88
ENDBRANCH  45  46
ENDBRANCH  37  40
ENDBRANCH  35  36
ENDBRANCH  34  35
ENDBRANCH   1  34
TORSDOF 15
ENDMDL
