MODEL 1
REMARK VINA RESULT:     -12.7      0.000      0.000
REMARK SMILES C[C@@H](C(=O)NCCCCNC(=O)c1ccc(-c2c3nc(c(-c4c(F)cccc4F)c4ccc([nH]4)c(-c4c(F)cccc4F)c4nc(c(-c5c(F)cccc5F)c5ccc2[nH]5)C=C4)C=C3)cc1)c1ccc(-c2cccc(OC(=O)NC3CC3)c2)c(F)c1
REMARK SMILES IDX 6 1 5 2 3 3 4 4 2 6 1 7 67 8 68 9 86 10 69 11 84 12 70 13
REMARK SMILES IDX 85 14 71 15 72 16 83 17 73 18 75 19 74 20 76 21 77 22 78 23
REMARK SMILES IDX 79 24 80 26 81 27 82 28 7 29 8 30 9 31 10 32 11 33 12 35
REMARK SMILES IDX 13 36 14 37 66 38 15 39 65 40 16 41 17 42 18 43 59 44 19 45
REMARK SMILES IDX 64 46 58 47 60 48 20 49 63 50 57 51 56 52 21 54 47 55 30 56
REMARK SMILES IDX 46 57 31 58 34 59 45 60 61 61 32 62 33 63 44 65 62 66 35 67
REMARK SMILES IDX 22 68 23 69 28 70 24 71 25 72 27 73 29 74 26 75 48 76 49 77
REMARK SMILES IDX 54 78 50 79 51 80 53 81 55 82 52 83 36 84 37 85 42 86 38 87
REMARK SMILES IDX 39 88 41 89 43 90 40 91
REMARK H PARENT 5 5 79 25 10 34 60 53 34 64
REMARK Flexibility Score: inf
ROOT
ATOM      1  C   UNL A   1      36.191  21.276  25.484  1.00  0.00     0.116 C 
ENDROOT
BRANCH   1   2
ATOM      2  N   UNL A   1      34.860  21.331  24.917  1.00  0.00    -0.356 N 
ATOM      3  C   UNL A   1      33.714  21.847  25.455  1.00  0.00     0.227 C 
ATOM      4  O   UNL A   1      32.657  21.488  24.936  1.00  0.00    -0.274 OA
ATOM      5  H   UNL A   1      34.767  20.943  24.018  1.00  0.00     0.163 HD
BRANCH   3   6
ATOM      6  C   UNL A   1      33.803  22.835  26.637  1.00  0.00     0.105 C 
ATOM      7  C   UNL A   1      33.082  22.212  27.843  1.00  0.00     0.023 C 
BRANCH   6   8
ATOM      8  C   UNL A   1      33.282  24.246  26.335  1.00  0.00    -0.033 A 
ATOM      9  C   UNL A   1      31.968  24.617  26.672  1.00  0.00     0.005 A 
ATOM     10  C   UNL A   1      34.089  25.223  25.733  1.00  0.00     0.044 A 
ATOM     11  C   UNL A   1      31.438  25.852  26.295  1.00  0.00     0.012 A 
ATOM     12  C   UNL A   1      33.553  26.453  25.349  1.00  0.00     0.131 A 
ATOM     13  C   UNL A   1      32.213  26.775  25.584  1.00  0.00     0.018 A 
ATOM     14  F   UNL A   1      34.352  27.321  24.707  1.00  0.00    -0.206 F 
BRANCH  13  15
ATOM     15  C   UNL A   1      31.582  27.970  25.019  1.00  0.00    -0.012 A 
ATOM     16  C   UNL A   1      31.834  29.251  25.532  1.00  0.00     0.009 A 
ATOM     17  C   UNL A   1      30.625  27.825  24.000  1.00  0.00     0.056 A 
ATOM     18  C   UNL A   1      31.145  30.362  25.042  1.00  0.00     0.004 A 
ATOM     19  C   UNL A   1      29.933  28.931  23.522  1.00  0.00     0.133 A 
ATOM     20  C   UNL A   1      30.190  30.201  24.039  1.00  0.00     0.047 A 
BRANCH  19  21
ATOM     21  O   UNL A   1      28.934  28.875  22.520  1.00  0.00    -0.410 OA
BRANCH  21  22
ATOM     22  C   UNL A   1      27.602  29.256  22.650  1.00  0.00     0.412 C 
ATOM     23  O   UNL A   1      26.735  28.665  23.289  1.00  0.00    -0.224 OA
ATOM     24  N   UNL A   1      27.283  30.402  21.971  1.00  0.00    -0.318 N 
ATOM     25  H   UNL A   1      26.332  30.656  22.004  1.00  0.00     0.167 HD
BRANCH  24  26
ATOM     26  C   UNL A   1      28.117  31.281  21.222  1.00  0.00     0.085 C 
ATOM     27  C   UNL A   1      27.700  32.532  20.503  1.00  0.00     0.027 C 
ATOM     28  C   UNL A   1      28.435  32.636  21.803  1.00  0.00     0.027 C 
ENDBRANCH  24  26
ENDBRANCH  21  22
ENDBRANCH  19  21
ENDBRANCH  13  15
ENDBRANCH   6   8
ENDBRANCH   3   6
ENDBRANCH   1   2
BRANCH   1  29
ATOM     29  C   UNL A   1      37.197  20.770  24.444  1.00  0.00     0.023 C 
BRANCH  29  30
ATOM     30  C   UNL A   1      38.055  19.592  24.908  1.00  0.00     0.023 C 
BRANCH  30  31
ATOM     31  C   UNL A   1      39.212  19.968  25.820  1.00  0.00     0.116 C 
BRANCH  31  32
ATOM     32  N   UNL A   1      40.273  18.974  25.806  1.00  0.00    -0.352 N 
ATOM     33  C   UNL A   1      41.624  19.140  25.973  1.00  0.00     0.251 C 
ATOM     34  H   UNL A   1      39.980  18.047  25.654  1.00  0.00     0.163 HD
ATOM     35  O   UNL A   1      42.384  18.201  25.762  1.00  0.00    -0.269 OA
BRANCH  33  36
ATOM     36  C   UNL A   1      42.164  20.455  26.376  1.00  0.00     0.039 A 
ATOM     37  C   UNL A   1      42.580  21.336  25.375  1.00  0.00     0.014 A 
ATOM     38  C   UNL A   1      42.265  20.822  27.722  1.00  0.00     0.014 A 
ATOM     39  C   UNL A   1      43.042  22.604  25.724  1.00  0.00     0.010 A 
ATOM     40  C   UNL A   1      42.647  22.117  28.062  1.00  0.00     0.010 A 
ATOM     41  C   UNL A   1      43.043  23.021  27.066  1.00  0.00    -0.014 A 
BRANCH  41  42
ATOM     42  C   UNL A   1      43.437  24.407  27.421  1.00  0.00     0.031 A 
ATOM     43  C   UNL A   1      44.874  24.842  27.345  1.00  0.00     0.074 A 
ATOM     44  C   UNL A   1      42.489  25.273  27.832  1.00  0.00     0.049 A 
ATOM     45  N   UNL A   1      45.393  26.019  27.593  1.00  0.00    -0.248 NA
ATOM     46  C   UNL A   1      45.863  23.823  26.958  1.00  0.00     0.031 C 
ATOM     47  C   UNL A   1      41.071  24.950  28.009  1.00  0.00     0.029 A 
ATOM     48  N   UNL A   1      42.572  26.598  28.172  1.00  0.00    -0.354 N 
ATOM     49  C   UNL A   1      46.760  25.883  27.387  1.00  0.00     0.074 A 
ATOM     50  C   UNL A   1      47.001  24.495  27.057  1.00  0.00     0.031 C 
ATOM     51  C   UNL A   1      40.413  26.057  28.388  1.00  0.00     0.029 A 
ATOM     52  C   UNL A   1      41.365  27.154  28.519  1.00  0.00     0.049 A 
ATOM     53  H   UNL A   1      43.417  27.104  28.168  1.00  0.00     0.167 HD
ATOM     54  C   UNL A   1      47.722  26.835  27.435  1.00  0.00     0.037 A 
ATOM     55  C   UNL A   1      41.058  28.407  28.904  1.00  0.00     0.037 A 
ATOM     56  C   UNL A   1      47.479  28.218  27.760  1.00  0.00     0.049 A 
ATOM     57  C   UNL A   1      42.151  29.440  28.962  1.00  0.00     0.074 A 
ATOM     58  C   UNL A   1      48.383  29.264  27.802  1.00  0.00     0.029 A 
ATOM     59  N   UNL A   1      46.243  28.744  28.102  1.00  0.00    -0.354 N 
ATOM     60  N   UNL A   1      43.427  29.312  28.690  1.00  0.00    -0.248 NA
ATOM     61  C   UNL A   1      41.757  30.795  29.369  1.00  0.00     0.031 C 
ATOM     62  C   UNL A   1      47.702  30.415  28.216  1.00  0.00     0.029 A 
ATOM     63  C   UNL A   1      46.365  30.097  28.376  1.00  0.00     0.049 A 
ATOM     64  H   UNL A   1      45.403  28.232  28.145  1.00  0.00     0.167 HD
ATOM     65  C   UNL A   1      43.982  30.572  28.869  1.00  0.00     0.074 A 
ATOM     66  C   UNL A   1      42.897  31.456  29.241  1.00  0.00     0.031 C 
ATOM     67  C   UNL A   1      45.275  30.963  28.748  1.00  0.00     0.037 A 
BRANCH  54  68
ATOM     68  C   UNL A   1      49.129  26.420  27.112  1.00  0.00     0.057 A 
ATOM     69  C   UNL A   1      50.011  25.979  28.108  1.00  0.00     0.134 A 
ATOM     70  C   UNL A   1      49.589  26.401  25.790  1.00  0.00     0.134 A 
ATOM     71  F   UNL A   1      49.639  25.983  29.397  1.00  0.00    -0.206 F 
ATOM     72  C   UNL A   1      51.304  25.550  27.803  1.00  0.00     0.040 A 
ATOM     73  C   UNL A   1      50.871  25.948  25.469  1.00  0.00     0.040 A 
ATOM     74  F   UNL A   1      48.796  26.804  24.786  1.00  0.00    -0.206 F 
ATOM     75  C   UNL A   1      51.733  25.524  26.478  1.00  0.00     0.006 A 
ENDBRANCH  54  68
BRANCH  55  76
ATOM     76  C   UNL A   1      39.661  28.764  29.260  1.00  0.00     0.057 A 
ATOM     77  C   UNL A   1      39.178  28.610  30.565  1.00  0.00     0.134 A 
ATOM     78  C   UNL A   1      38.762  29.233  28.294  1.00  0.00     0.134 A 
ATOM     79  F   UNL A   1      39.985  28.149  31.533  1.00  0.00    -0.206 F 
ATOM     80  C   UNL A   1      37.847  28.873  30.889  1.00  0.00     0.040 A 
ATOM     81  C   UNL A   1      37.437  29.532  28.611  1.00  0.00     0.040 A 
ATOM     82  F   UNL A   1      39.162  29.413  27.027  1.00  0.00    -0.206 F 
ATOM     83  C   UNL A   1      36.971  29.339  29.910  1.00  0.00     0.006 A 
ENDBRANCH  55  76
BRANCH  67  84
ATOM     84  C   UNL A   1      45.571  32.415  28.994  1.00  0.00     0.057 A 
ATOM     85  C   UNL A   1      45.447  33.378  27.983  1.00  0.00     0.134 A 
ATOM     86  C   UNL A   1      45.987  32.856  30.258  1.00  0.00     0.134 A 
ATOM     87  F   UNL A   1      45.065  33.022  26.747  1.00  0.00    -0.206 F 
ATOM     88  C   UNL A   1      45.769  34.718  28.208  1.00  0.00     0.040 A 
ATOM     89  C   UNL A   1      46.278  34.200  30.502  1.00  0.00     0.040 A 
ATOM     90  F   UNL A   1      46.114  31.991  31.274  1.00  0.00    -0.206 F 
ATOM     91  C   UNL A   1      46.182  35.132  29.472  1.00  0.00     0.006 A 
ENDBRANCH  67  84
ENDBRANCH  41  42
ENDBRANCH  33  36
ENDBRANCH  31  32
ENDBRANCH  30  31
ENDBRANCH  29  30
ENDBRANCH   1  29
TORSDOF 16
ENDMDL
MODEL 2
REMARK VINA RESULT:     -12.2      5.146     11.250
REMARK SMILES C[C@@H](C(=O)NCCCCNC(=O)c1ccc(-c2c3nc(c(-c4c(F)cccc4F)c4ccc([nH]4)c(-c4c(F)cccc4F)c4nc(c(-c5c(F)cccc5F)c5ccc2[nH]5)C=C4)C=C3)cc1)c1ccc(-c2cccc(OC(=O)NC3CC3)c2)c(F)c1
REMARK SMILES IDX 6 1 5 2 3 3 4 4 2 6 1 7 67 8 68 9 86 10 69 11 84 12 70 13
REMARK SMILES IDX 85 14 71 15 72 16 83 17 73 18 75 19 74 20 76 21 77 22 78 23
REMARK SMILES IDX 79 24 80 26 81 27 82 28 7 29 8 30 9 31 10 32 11 33 12 35
REMARK SMILES IDX 13 36 14 37 66 38 15 39 65 40 16 41 17 42 18 43 59 44 19 45
REMARK SMILES IDX 64 46 58 47 60 48 20 49 63 50 57 51 56 52 21 54 47 55 30 56
REMARK SMILES IDX 46 57 31 58 34 59 45 60 61 61 32 62 33 63 44 65 62 66 35 67
REMARK SMILES IDX 22 68 23 69 28 70 24 71 25 72 27 73 29 74 26 75 48 76 49 77
REMARK SMILES IDX 54 78 50 79 51 80 53 81 55 82 52 83 36 84 37 85 42 86 38 87
REMARK SMILES IDX 39 88 41 89 43 90 40 91
REMARK H PARENT 5 5 79 25 10 34 60 53 34 64
REMARK Flexibility Score: inf
ROOT
ATOM      1  C   UNL A   1      33.516  34.956  30.327  1.00  0.00     0.116 C 
ENDROOT
BRANCH   1   2
ATOM      2  N   UNL A   1      34.262  35.574  31.404  1.00  0.00    -0.356 N 
ATOM      3  C   UNL A   1      35.276  35.054  32.159  1.00  0.00     0.227 C 
ATOM      4  O   UNL A   1      35.525  35.636  33.215  1.00  0.00    -0.274 OA
ATOM      5  H   UNL A   1      34.002  36.497  31.623  1.00  0.00     0.163 HD
BRANCH   3   6
ATOM      6  C   UNL A   1      36.043  33.813  31.656  1.00  0.00     0.105 C 
ATOM      7  C   UNL A   1      35.868  32.686  32.685  1.00  0.00     0.023 C 
BRANCH   6   8
ATOM      8  C   UNL A   1      37.523  34.060  31.336  1.00  0.00    -0.033 A 
ATOM      9  C   UNL A   1      37.990  34.029  30.009  1.00  0.00     0.005 A 
ATOM     10  C   UNL A   1      38.463  34.344  32.338  1.00  0.00     0.044 A 
ATOM     11  C   UNL A   1      39.350  34.128  29.711  1.00  0.00     0.012 A 
ATOM     12  C   UNL A   1      39.823  34.433  32.037  1.00  0.00     0.131 A 
ATOM     13  C   UNL A   1      40.295  34.287  30.730  1.00  0.00     0.018 A 
ATOM     14  F   UNL A   1      40.685  34.629  33.048  1.00  0.00    -0.206 F 
BRANCH  13  15
ATOM     15  C   UNL A   1      41.723  34.180  30.418  1.00  0.00    -0.012 A 
ATOM     16  C   UNL A   1      42.632  35.191  30.765  1.00  0.00     0.009 A 
ATOM     17  C   UNL A   1      42.182  33.084  29.669  1.00  0.00     0.056 A 
ATOM     18  C   UNL A   1      43.968  35.112  30.369  1.00  0.00     0.004 A 
ATOM     19  C   UNL A   1      43.511  33.014  29.266  1.00  0.00     0.133 A 
ATOM     20  C   UNL A   1      44.407  34.024  29.616  1.00  0.00     0.047 A 
BRANCH  19  21
ATOM     21  O   UNL A   1      44.054  31.964  28.487  1.00  0.00    -0.410 OA
BRANCH  21  22
ATOM     22  C   UNL A   1      44.298  31.985  27.117  1.00  0.00     0.412 C 
ATOM     23  O   UNL A   1      44.935  32.838  26.504  1.00  0.00    -0.224 OA
ATOM     24  N   UNL A   1      43.740  30.935  26.438  1.00  0.00    -0.318 N 
ATOM     25  H   UNL A   1      43.852  30.963  25.460  1.00  0.00     0.167 HD
BRANCH  24  26
ATOM     26  C   UNL A   1      43.020  29.808  26.930  1.00  0.00     0.085 C 
ATOM     27  C   UNL A   1      42.426  28.689  26.123  1.00  0.00     0.027 C 
ATOM     28  C   UNL A   1      43.689  28.457  26.892  1.00  0.00     0.027 C 
ENDBRANCH  24  26
ENDBRANCH  21  22
ENDBRANCH  19  21
ENDBRANCH  13  15
ENDBRANCH   6   8
ENDBRANCH   3   6
ENDBRANCH   1   2
BRANCH   1  29
ATOM     29  C   UNL A   1      34.182  35.247  28.978  1.00  0.00     0.023 C 
BRANCH  29  30
ATOM     30  C   UNL A   1      34.270  34.044  28.038  1.00  0.00     0.023 C 
BRANCH  30  31
ATOM     31  C   UNL A   1      34.419  32.701  28.736  1.00  0.00     0.116 C 
BRANCH  31  32
ATOM     32  N   UNL A   1      33.907  31.601  27.935  1.00  0.00    -0.352 N 
ATOM     33  C   UNL A   1      34.530  30.443  27.546  1.00  0.00     0.251 C 
ATOM     34  H   UNL A   1      32.978  31.702  27.627  1.00  0.00     0.163 HD
ATOM     35  O   UNL A   1      33.991  29.705  26.728  1.00  0.00    -0.269 OA
BRANCH  33  36
ATOM     36  C   UNL A   1      35.863  30.101  28.088  1.00  0.00     0.039 A 
ATOM     37  C   UNL A   1      35.933  29.501  29.346  1.00  0.00     0.014 A 
ATOM     38  C   UNL A   1      37.032  30.369  27.370  1.00  0.00     0.014 A 
ATOM     39  C   UNL A   1      37.172  29.119  29.858  1.00  0.00     0.010 A 
ATOM     40  C   UNL A   1      38.258  29.911  27.845  1.00  0.00     0.010 A 
ATOM     41  C   UNL A   1      38.341  29.284  29.096  1.00  0.00    -0.014 A 
BRANCH  41  42
ATOM     42  C   UNL A   1      39.643  28.780  29.601  1.00  0.00     0.031 A 
ATOM     43  C   UNL A   1      40.351  29.474  30.731  1.00  0.00     0.074 A 
ATOM     44  C   UNL A   1      40.195  27.696  29.020  1.00  0.00     0.049 A 
ATOM     45  N   UNL A   1      41.480  29.157  31.314  1.00  0.00    -0.248 NA
ATOM     46  C   UNL A   1      39.724  30.693  31.266  1.00  0.00     0.031 C 
ATOM     47  C   UNL A   1      39.636  26.974  27.875  1.00  0.00     0.029 A 
ATOM     48  N   UNL A   1      41.346  27.010  29.314  1.00  0.00    -0.354 N 
ATOM     49  C   UNL A   1      41.693  30.128  32.284  1.00  0.00     0.074 A 
ATOM     50  C   UNL A   1      40.612  31.083  32.170  1.00  0.00     0.031 C 
ATOM     51  C   UNL A   1      40.425  25.927  27.588  1.00  0.00     0.029 A 
ATOM     52  C   UNL A   1      41.562  25.925  28.500  1.00  0.00     0.049 A 
ATOM     53  H   UNL A   1      41.959  27.270  30.040  1.00  0.00     0.167 HD
ATOM     54  C   UNL A   1      42.680  30.200  33.208  1.00  0.00     0.037 A 
ATOM     55  C   UNL A   1      42.568  25.029  28.487  1.00  0.00     0.037 A 
ATOM     56  C   UNL A   1      43.754  29.246  33.323  1.00  0.00     0.049 A 
ATOM     57  C   UNL A   1      43.658  25.143  29.517  1.00  0.00     0.074 A 
ATOM     58  C   UNL A   1      44.783  29.214  34.247  1.00  0.00     0.029 A 
ATOM     59  N   UNL A   1      43.938  28.158  32.483  1.00  0.00    -0.354 N 
ATOM     60  N   UNL A   1      43.803  26.025  30.477  1.00  0.00    -0.248 NA
ATOM     61  C   UNL A   1      44.719  24.128  29.469  1.00  0.00     0.031 C 
ATOM     62  C   UNL A   1      45.617  28.134  33.938  1.00  0.00     0.029 A 
ATOM     63  C   UNL A   1      45.076  27.460  32.856  1.00  0.00     0.049 A 
ATOM     64  H   UNL A   1      43.348  27.917  31.732  1.00  0.00     0.167 HD
ATOM     65  C   UNL A   1      44.956  25.658  31.159  1.00  0.00     0.074 A 
ATOM     66  C   UNL A   1      45.450  24.454  30.524  1.00  0.00     0.031 C 
ATOM     67  C   UNL A   1      45.558  26.265  32.211  1.00  0.00     0.037 A 
BRANCH  54  68
ATOM     68  C   UNL A   1      42.640  31.342  34.184  1.00  0.00     0.057 A 
ATOM     69  C   UNL A   1      42.010  31.222  35.430  1.00  0.00     0.134 A 
ATOM     70  C   UNL A   1      43.288  32.551  33.903  1.00  0.00     0.134 A 
ATOM     71  F   UNL A   1      41.360  30.094  35.757  1.00  0.00    -0.206 F 
ATOM     72  C   UNL A   1      42.011  32.267  36.354  1.00  0.00     0.040 A 
ATOM     73  C   UNL A   1      43.319  33.595  34.831  1.00  0.00     0.040 A 
ATOM     74  F   UNL A   1      43.915  32.733  32.732  1.00  0.00    -0.206 F 
ATOM     75  C   UNL A   1      42.677  33.455  36.059  1.00  0.00     0.006 A 
ENDBRANCH  54  68
BRANCH  55  76
ATOM     76  C   UNL A   1      42.593  23.943  27.475  1.00  0.00     0.057 A 
ATOM     77  C   UNL A   1      42.079  22.671  27.756  1.00  0.00     0.134 A 
ATOM     78  C   UNL A   1      43.166  24.139  26.212  1.00  0.00     0.134 A 
ATOM     79  F   UNL A   1      41.532  22.414  28.953  1.00  0.00    -0.206 F 
ATOM     80  C   UNL A   1      42.166  21.626  26.835  1.00  0.00     0.040 A 
ATOM     81  C   UNL A   1      43.230  23.113  25.269  1.00  0.00     0.040 A 
ATOM     82  F   UNL A   1      43.667  25.336  25.874  1.00  0.00    -0.206 F 
ATOM     83  C   UNL A   1      42.741  21.847  25.585  1.00  0.00     0.006 A 
ENDBRANCH  55  76
BRANCH  67  84
ATOM     84  C   UNL A   1      46.800  25.616  32.751  1.00  0.00     0.057 A 
ATOM     85  C   UNL A   1      48.071  25.902  32.234  1.00  0.00     0.134 A 
ATOM     86  C   UNL A   1      46.724  24.690  33.801  1.00  0.00     0.134 A 
ATOM     87  F   UNL A   1      48.214  26.769  31.220  1.00  0.00    -0.206 F 
ATOM     88  C   UNL A   1      49.215  25.259  32.711  1.00  0.00     0.040 A 
ATOM     89  C   UNL A   1      47.866  24.067  34.309  1.00  0.00     0.040 A 
ATOM     90  F   UNL A   1      45.542  24.379  34.352  1.00  0.00    -0.206 F 
ATOM     91  C   UNL A   1      49.114  24.342  33.754  1.00  0.00     0.006 A 
ENDBRANCH  67  84
ENDBRANCH  41  42
ENDBRANCH  33  36
ENDBRANCH  31  32
ENDBRANCH  30  31
ENDBRANCH  29  30
ENDBRANCH   1  29
TORSDOF 16
ENDMDL
MODEL 3
REMARK VINA RESULT:     -12.1      3.977      9.911
REMARK SMILES C[C@@H](C(=O)NCCCCNC(=O)c1ccc(-c2c3nc(c(-c4c(F)cccc4F)c4ccc([nH]4)c(-c4c(F)cccc4F)c4nc(c(-c5c(F)cccc5F)c5ccc2[nH]5)C=C4)C=C3)cc1)c1ccc(-c2cccc(OC(=O)NC3CC3)c2)c(F)c1
REMARK SMILES IDX 6 1 5 2 3 3 4 4 2 6 1 7 67 8 68 9 86 10 69 11 84 12 70 13
REMARK SMILES IDX 85 14 71 15 72 16 83 17 73 18 75 19 74 20 76 21 77 22 78 23
REMARK SMILES IDX 79 24 80 26 81 27 82 28 7 29 8 30 9 31 10 32 11 33 12 35
REMARK SMILES IDX 13 36 14 37 66 38 15 39 65 40 16 41 17 42 18 43 59 44 19 45
REMARK SMILES IDX 64 46 58 47 60 48 20 49 63 50 57 51 56 52 21 54 47 55 30 56
REMARK SMILES IDX 46 57 31 58 34 59 45 60 61 61 32 62 33 63 44 65 62 66 35 67
REMARK SMILES IDX 22 68 23 69 28 70 24 71 25 72 27 73 29 74 26 75 48 76 49 77
REMARK SMILES IDX 54 78 50 79 51 80 53 81 55 82 52 83 36 84 37 85 42 86 38 87
REMARK SMILES IDX 39 88 41 89 43 90 40 91
REMARK H PARENT 5 5 79 25 10 34 60 53 34 64
REMARK Flexibility Score: inf
ROOT
ATOM      1  C   UNL A   1      32.319  25.300  25.281  1.00  0.00     0.116 C 
ENDROOT
BRANCH   1   2
ATOM      2  N   UNL A   1      32.669  24.330  26.297  1.00  0.00    -0.356 N 
ATOM      3  C   UNL A   1      33.306  23.128  26.160  1.00  0.00     0.227 C 
ATOM      4  O   UNL A   1      33.198  22.342  27.101  1.00  0.00    -0.274 OA
ATOM      5  H   UNL A   1      32.413  24.570  27.217  1.00  0.00     0.163 HD
BRANCH   3   6
ATOM      6  C   UNL A   1      34.114  22.835  24.879  1.00  0.00     0.105 C 
ATOM      7  C   UNL A   1      33.418  21.696  24.117  1.00  0.00     0.023 C 
BRANCH   6   8
ATOM      8  C   UNL A   1      35.600  22.532  25.112  1.00  0.00    -0.033 A 
ATOM      9  C   UNL A   1      36.108  21.233  24.934  1.00  0.00     0.005 A 
ATOM     10  C   UNL A   1      36.511  23.529  25.492  1.00  0.00     0.044 A 
ATOM     11  C   UNL A   1      37.427  20.913  25.260  1.00  0.00     0.012 A 
ATOM     12  C   UNL A   1      37.826  23.204  25.827  1.00  0.00     0.131 A 
ATOM     13  C   UNL A   1      38.296  21.889  25.757  1.00  0.00     0.018 A 
ATOM     14  F   UNL A   1      38.633  24.187  26.258  1.00  0.00    -0.206 F 
BRANCH  13  15
ATOM     15  C   UNL A   1      39.604  21.495  26.287  1.00  0.00    -0.012 A 
ATOM     16  C   UNL A   1      40.233  22.215  27.314  1.00  0.00     0.009 A 
ATOM     17  C   UNL A   1      40.294  20.427  25.688  1.00  0.00     0.056 A 
ATOM     18  C   UNL A   1      41.522  21.879  27.732  1.00  0.00     0.004 A 
ATOM     19  C   UNL A   1      41.581  20.102  26.099  1.00  0.00     0.133 A 
ATOM     20  C   UNL A   1      42.198  20.824  27.122  1.00  0.00     0.047 A 
BRANCH  19  21
ATOM     21  O   UNL A   1      42.360  19.062  25.535  1.00  0.00    -0.410 OA
BRANCH  21  22
ATOM     22  C   UNL A   1      43.360  18.333  26.171  1.00  0.00     0.412 C 
ATOM     23  O   UNL A   1      43.199  17.477  27.036  1.00  0.00    -0.224 OA
ATOM     24  N   UNL A   1      44.627  18.654  25.760  1.00  0.00    -0.318 N 
ATOM     25  H   UNL A   1      45.352  18.190  26.240  1.00  0.00     0.167 HD
BRANCH  24  26
ATOM     26  C   UNL A   1      45.056  19.556  24.745  1.00  0.00     0.085 C 
ATOM     27  C   UNL A   1      45.258  21.039  24.877  1.00  0.00     0.027 C 
ATOM     28  C   UNL A   1      46.448  20.130  24.837  1.00  0.00     0.027 C 
ENDBRANCH  24  26
ENDBRANCH  21  22
ENDBRANCH  19  21
ENDBRANCH  13  15
ENDBRANCH   6   8
ENDBRANCH   3   6
ENDBRANCH   1   2
BRANCH   1  29
ATOM     29  C   UNL A   1      32.664  26.718  25.751  1.00  0.00     0.023 C 
BRANCH  29  30
ATOM     30  C   UNL A   1      32.772  27.752  24.630  1.00  0.00     0.023 C 
BRANCH  30  31
ATOM     31  C   UNL A   1      33.582  28.990  24.982  1.00  0.00     0.116 C 
BRANCH  31  32
ATOM     32  N   UNL A   1      32.743  30.091  25.431  1.00  0.00    -0.352 N 
ATOM     33  C   UNL A   1      32.857  30.871  26.552  1.00  0.00     0.251 C 
ATOM     34  H   UNL A   1      31.983  30.306  24.844  1.00  0.00     0.163 HD
ATOM     35  O   UNL A   1      31.954  31.646  26.850  1.00  0.00    -0.269 OA
BRANCH  33  36
ATOM     36  C   UNL A   1      34.050  30.755  27.417  1.00  0.00     0.039 A 
ATOM     37  C   UNL A   1      34.346  29.509  27.974  1.00  0.00     0.014 A 
ATOM     38  C   UNL A   1      34.869  31.856  27.682  1.00  0.00     0.014 A 
ATOM     39  C   UNL A   1      35.495  29.358  28.749  1.00  0.00     0.010 A 
ATOM     40  C   UNL A   1      36.058  31.684  28.386  1.00  0.00     0.010 A 
ATOM     41  C   UNL A   1      36.382  30.433  28.929  1.00  0.00    -0.014 A 
BRANCH  41  42
ATOM     42  C   UNL A   1      37.655  30.239  29.668  1.00  0.00     0.031 A 
ATOM     43  C   UNL A   1      38.789  29.462  29.057  1.00  0.00     0.074 A 
ATOM     44  C   UNL A   1      37.779  30.757  30.906  1.00  0.00     0.049 A 
ATOM     45  N   UNL A   1      39.977  29.217  29.548  1.00  0.00    -0.248 NA
ATOM     46  C   UNL A   1      38.554  28.866  27.733  1.00  0.00     0.031 C 
ATOM     47  C   UNL A   1      36.728  31.475  31.631  1.00  0.00     0.029 A 
ATOM     48  N   UNL A   1      38.841  30.762  31.773  1.00  0.00    -0.354 N 
ATOM     49  C   UNL A   1      40.632  28.448  28.594  1.00  0.00     0.074 A 
ATOM     50  C   UNL A   1      39.687  28.211  27.524  1.00  0.00     0.031 C 
ATOM     51  C   UNL A   1      37.210  31.882  32.815  1.00  0.00     0.029 A 
ATOM     52  C   UNL A   1      38.588  31.423  32.951  1.00  0.00     0.049 A 
ATOM     53  H   UNL A   1      39.705  30.334  31.571  1.00  0.00     0.167 HD
ATOM     54  C   UNL A   1      41.912  28.009  28.594  1.00  0.00     0.037 A 
ATOM     55  C   UNL A   1      39.375  31.632  34.023  1.00  0.00     0.037 A 
ATOM     56  C   UNL A   1      42.852  28.249  29.659  1.00  0.00     0.049 A 
ATOM     57  C   UNL A   1      40.789  31.119  33.999  1.00  0.00     0.074 A 
ATOM     58  C   UNL A   1      44.182  27.874  29.736  1.00  0.00     0.029 A 
ATOM     59  N   UNL A   1      42.560  28.925  30.834  1.00  0.00    -0.354 N 
ATOM     60  N   UNL A   1      41.416  30.458  33.056  1.00  0.00    -0.248 NA
ATOM     61  C   UNL A   1      41.609  31.392  35.187  1.00  0.00     0.031 C 
ATOM     62  C   UNL A   1      44.681  28.281  30.978  1.00  0.00     0.029 A 
ATOM     63  C   UNL A   1      43.679  28.960  31.651  1.00  0.00     0.049 A 
ATOM     64  H   UNL A   1      41.686  29.322  31.055  1.00  0.00     0.167 HD
ATOM     65  C   UNL A   1      42.707  30.258  33.525  1.00  0.00     0.074 A 
ATOM     66  C   UNL A   1      42.782  30.897  34.822  1.00  0.00     0.031 C 
ATOM     67  C   UNL A   1      43.737  29.597  32.942  1.00  0.00     0.037 A 
BRANCH  54  68
ATOM     68  C   UNL A   1      42.382  27.233  27.396  1.00  0.00     0.057 A 
ATOM     69  C   UNL A   1      42.282  25.836  27.340  1.00  0.00     0.134 A 
ATOM     70  C   UNL A   1      42.882  27.889  26.264  1.00  0.00     0.134 A 
ATOM     71  F   UNL A   1      41.823  25.144  28.394  1.00  0.00    -0.206 F 
ATOM     72  C   UNL A   1      42.677  25.119  26.210  1.00  0.00     0.040 A 
ATOM     73  C   UNL A   1      43.254  27.185  25.117  1.00  0.00     0.040 A 
ATOM     74  F   UNL A   1      43.000  29.225  26.247  1.00  0.00    -0.206 F 
ATOM     75  C   UNL A   1      43.155  25.795  25.089  1.00  0.00     0.006 A 
ENDBRANCH  54  68
BRANCH  55  76
ATOM     76  C   UNL A   1      38.855  32.363  35.206  1.00  0.00     0.057 A 
ATOM     77  C   UNL A   1      38.991  33.752  35.323  1.00  0.00     0.134 A 
ATOM     78  C   UNL A   1      38.240  31.687  36.267  1.00  0.00     0.134 A 
ATOM     79  F   UNL A   1      39.586  34.456  34.349  1.00  0.00    -0.206 F 
ATOM     80  C   UNL A   1      38.570  34.435  36.465  1.00  0.00     0.040 A 
ATOM     81  C   UNL A   1      37.784  32.361  37.399  1.00  0.00     0.040 A 
ATOM     82  F   UNL A   1      38.068  30.358  36.214  1.00  0.00    -0.206 F 
ATOM     83  C   UNL A   1      37.961  33.739  37.507  1.00  0.00     0.006 A 
ENDBRANCH  55  76
BRANCH  67  84
ATOM     84  C   UNL A   1      45.036  29.562  33.696  1.00  0.00     0.057 A 
ATOM     85  C   UNL A   1      45.348  28.527  34.588  1.00  0.00     0.134 A 
ATOM     86  C   UNL A   1      45.987  30.578  33.528  1.00  0.00     0.134 A 
ATOM     87  F   UNL A   1      44.476  27.530  34.804  1.00  0.00    -0.206 F 
ATOM     88  C   UNL A   1      46.537  28.527  35.319  1.00  0.00     0.040 A 
ATOM     89  C   UNL A   1      47.195  30.569  34.228  1.00  0.00     0.040 A 
ATOM     90  F   UNL A   1      45.760  31.593  32.681  1.00  0.00    -0.206 F 
ATOM     91  C   UNL A   1      47.466  29.548  35.137  1.00  0.00     0.006 A 
ENDBRANCH  67  84
ENDBRANCH  41  42
ENDBRANCH  33  36
ENDBRANCH  31  32
ENDBRANCH  30  31
ENDBRANCH  29  30
ENDBRANCH   1  29
TORSDOF 16
ENDMDL
