MODEL 1
REMARK VINA RESULT:     -10.7      0.000      0.000
REMARK SMILES CC(C)N(CC1CC1)C(=O)NC1(CC(=O)NCCCCNC(=O)c2ccc(-c3c4nc(c(-c5c(F)cccc5F)c5ccc([nH]5)c(-c5c(F)cccc5F)c5nc(c(-c6c(F)cccc6F)c6ccc3[nH]6)C=C5)C=C4)cc2)CCC1
REMARK SMILES IDX 17 1 16 2 14 3 15 4 13 6 12 7 78 8 80 9 79 10 11 11 9 12
REMARK SMILES IDX 10 13 4 15 2 16 1 17 3 18 5 19 6 20 7 21 8 22 18 23 19 24
REMARK SMILES IDX 20 25 21 26 22 27 23 29 24 30 25 31 77 32 26 33 76 34 27 35
REMARK SMILES IDX 28 36 29 37 70 38 30 39 75 40 69 41 71 42 31 43 74 44 68 45
REMARK SMILES IDX 67 46 32 48 58 49 41 50 57 51 42 52 45 53 56 54 72 55 43 56
REMARK SMILES IDX 44 57 55 59 73 60 46 61 33 62 34 63 39 64 35 65 36 66 38 67
REMARK SMILES IDX 40 68 37 69 59 70 60 71 65 72 61 73 62 74 64 75 66 76 63 77
REMARK SMILES IDX 47 78 48 79 53 80 49 81 50 82 52 83 54 84 51 85
REMARK H PARENT 16 5 11 14 21 28 71 47 45 58
REMARK Flexibility Score: inf
ROOT
ATOM      1  C   UNL A   1      32.879  29.946  25.775  1.00  0.00     0.116 C 
ENDROOT
BRANCH   1   2
ATOM      2  N   UNL A   1      32.221  29.705  24.510  1.00  0.00    -0.356 N 
ATOM      3  C   UNL A   1      32.582  28.888  23.484  1.00  0.00     0.222 C 
ATOM      4  O   UNL A   1      31.966  29.003  22.422  1.00  0.00    -0.275 OA
ATOM      5  H   UNL A   1      31.386  30.207  24.370  1.00  0.00     0.163 HD
BRANCH   3   6
ATOM      6  C   UNL A   1      33.717  27.884  23.600  1.00  0.00     0.128 C 
BRANCH   6   7
ATOM      7  C   UNL A   1      33.365  26.469  24.154  1.00  0.00     0.051 C 
ATOM      8  C   UNL A   1      31.886  26.366  24.624  1.00  0.00     0.029 C 
ATOM      9  C   UNL A   1      33.802  26.370  25.634  1.00  0.00     0.029 C 
ATOM     10  C   UNL A   1      32.338  26.406  26.086  1.00  0.00     0.005 C 
BRANCH   7  11
ATOM     11  N   UNL A   1      33.759  25.443  23.142  1.00  0.00    -0.332 N 
ATOM     12  C   UNL A   1      33.849  24.101  23.005  1.00  0.00     0.318 C 
ATOM     13  O   UNL A   1      33.517  23.709  21.880  1.00  0.00    -0.249 OA
ATOM     14  H   UNL A   1      34.044  25.885  22.309  1.00  0.00     0.165 HD
BRANCH  12  15
ATOM     15  N   UNL A   1      34.345  23.238  23.940  1.00  0.00    -0.322 N 
BRANCH  15  16
ATOM     16  C   UNL A   1      35.767  23.378  24.353  1.00  0.00     0.080 C 
ATOM     17  C   UNL A   1      35.994  23.134  25.850  1.00  0.00     0.031 C 
ATOM     18  C   UNL A   1      36.721  22.539  23.498  1.00  0.00     0.031 C 
ENDBRANCH  15  16
BRANCH  15  19
ATOM     19  C   UNL A   1      33.555  22.342  24.766  1.00  0.00     0.125 C 
BRANCH  19  20
ATOM     20  C   UNL A   1      33.408  20.992  24.133  1.00  0.00     0.009 C 
ATOM     21  C   UNL A   1      34.066  19.809  24.796  1.00  0.00     0.006 C 
ATOM     22  C   UNL A   1      32.568  19.873  24.684  1.00  0.00     0.006 C 
ENDBRANCH  19  20
ENDBRANCH  15  19
ENDBRANCH  12  15
ENDBRANCH   7  11
ENDBRANCH   6   7
ENDBRANCH   3   6
ENDBRANCH   1   2
BRANCH   1  23
ATOM     23  C   UNL A   1      31.856  30.188  26.885  1.00  0.00     0.023 C 
BRANCH  23  24
ATOM     24  C   UNL A   1      31.346  31.625  26.997  1.00  0.00     0.023 C 
BRANCH  24  25
ATOM     25  C   UNL A   1      32.390  32.692  26.687  1.00  0.00     0.116 C 
BRANCH  25  26
ATOM     26  N   UNL A   1      32.238  33.907  27.474  1.00  0.00    -0.352 N 
ATOM     27  C   UNL A   1      33.069  34.392  28.461  1.00  0.00     0.251 C 
ATOM     28  H   UNL A   1      31.442  34.452  27.276  1.00  0.00     0.163 HD
ATOM     29  O   UNL A   1      32.772  35.401  29.092  1.00  0.00    -0.269 OA
BRANCH  27  30
ATOM     30  C   UNL A   1      34.300  33.642  28.791  1.00  0.00     0.039 A 
ATOM     31  C   UNL A   1      35.538  34.264  28.616  1.00  0.00     0.014 A 
ATOM     32  C   UNL A   1      34.221  32.369  29.359  1.00  0.00     0.014 A 
ATOM     33  C   UNL A   1      36.692  33.653  29.113  1.00  0.00     0.010 A 
ATOM     34  C   UNL A   1      35.357  31.798  29.920  1.00  0.00     0.010 A 
ATOM     35  C   UNL A   1      36.600  32.444  29.822  1.00  0.00    -0.014 A 
BRANCH  35  36
ATOM     36  C   UNL A   1      37.775  31.849  30.508  1.00  0.00     0.031 A 
ATOM     37  C   UNL A   1      38.591  30.791  29.823  1.00  0.00     0.074 A 
ATOM     38  C   UNL A   1      38.040  32.183  31.787  1.00  0.00     0.049 A 
ATOM     39  N   UNL A   1      39.557  30.052  30.304  1.00  0.00    -0.248 NA
ATOM     40  C   UNL A   1      38.251  30.503  28.421  1.00  0.00     0.031 C 
ATOM     41  C   UNL A   1      37.291  33.159  32.583  1.00  0.00     0.029 A 
ATOM     42  N   UNL A   1      39.001  31.720  32.651  1.00  0.00    -0.354 N 
ATOM     43  C   UNL A   1      39.924  29.196  29.273  1.00  0.00     0.074 A 
ATOM     44  C   UNL A   1      39.046  29.476  28.158  1.00  0.00     0.031 C 
ATOM     45  C   UNL A   1      37.831  33.234  33.811  1.00  0.00     0.029 A 
ATOM     46  C   UNL A   1      38.935  32.284  33.903  1.00  0.00     0.049 A 
ATOM     47  H   UNL A   1      39.674  31.048  32.398  1.00  0.00     0.167 HD
ATOM     48  C   UNL A   1      40.916  28.274  29.251  1.00  0.00     0.037 A 
ATOM     49  C   UNL A   1      39.670  32.049  35.007  1.00  0.00     0.037 A 
ATOM     50  C   UNL A   1      41.811  28.023  30.350  1.00  0.00     0.049 A 
ATOM     51  C   UNL A   1      40.764  31.019  34.958  1.00  0.00     0.074 A 
ATOM     52  C   UNL A   1      42.895  27.163  30.398  1.00  0.00     0.029 A 
ATOM     53  N   UNL A   1      41.726  28.631  31.592  1.00  0.00    -0.354 N 
ATOM     54  N   UNL A   1      41.140  30.263  33.957  1.00  0.00    -0.248 NA
ATOM     55  C   UNL A   1      41.533  30.810  36.194  1.00  0.00     0.031 C 
ATOM     56  C   UNL A   1      43.445  27.226  31.682  1.00  0.00     0.029 A 
ATOM     57  C   UNL A   1      42.725  28.151  32.421  1.00  0.00     0.049 A 
ATOM     58  H   UNL A   1      41.055  29.305  31.847  1.00  0.00     0.167 HD
ATOM     59  C   UNL A   1      42.201  29.503  34.432  1.00  0.00     0.074 A 
ATOM     60  C   UNL A   1      42.417  29.899  35.809  1.00  0.00     0.031 C 
ATOM     61  C   UNL A   1      42.930  28.562  33.787  1.00  0.00     0.037 A 
BRANCH  48  62
ATOM     62  C   UNL A   1      41.087  27.476  27.994  1.00  0.00     0.057 A 
ATOM     63  C   UNL A   1      40.417  26.263  27.795  1.00  0.00     0.134 A 
ATOM     64  C   UNL A   1      41.913  27.936  26.960  1.00  0.00     0.134 A 
ATOM     65  F   UNL A   1      39.622  25.761  28.752  1.00  0.00    -0.206 F 
ATOM     66  C   UNL A   1      40.580  25.522  26.624  1.00  0.00     0.040 A 
ATOM     67  C   UNL A   1      42.064  27.216  25.775  1.00  0.00     0.040 A 
ATOM     68  F   UNL A   1      42.580  29.093  27.086  1.00  0.00    -0.206 F 
ATOM     69  C   UNL A   1      41.403  26.002  25.607  1.00  0.00     0.006 A 
ENDBRANCH  48  62
BRANCH  49  70
ATOM     70  C   UNL A   1      39.408  32.814  36.252  1.00  0.00     0.057 A 
ATOM     71  C   UNL A   1      38.496  32.344  37.203  1.00  0.00     0.134 A 
ATOM     72  C   UNL A   1      40.051  34.028  36.517  1.00  0.00     0.134 A 
ATOM     73  F   UNL A   1      37.834  31.197  36.995  1.00  0.00    -0.206 F 
ATOM     74  C   UNL A   1      38.221  33.062  38.368  1.00  0.00     0.040 A 
ATOM     75  C   UNL A   1      39.802  34.745  37.689  1.00  0.00     0.040 A 
ATOM     76  F   UNL A   1      40.940  34.529  35.646  1.00  0.00    -0.206 F 
ATOM     77  C   UNL A   1      38.879  34.264  38.616  1.00  0.00     0.006 A 
ENDBRANCH  49  70
BRANCH  61  78
ATOM     78  C   UNL A   1      44.045  27.912  34.551  1.00  0.00     0.057 A 
ATOM     79  C   UNL A   1      43.861  26.707  35.237  1.00  0.00     0.134 A 
ATOM     80  C   UNL A   1      45.329  28.474  34.555  1.00  0.00     0.134 A 
ATOM     81  F   UNL A   1      42.652  26.127  35.282  1.00  0.00    -0.206 F 
ATOM     82  C   UNL A   1      44.913  26.086  35.912  1.00  0.00     0.040 A 
ATOM     83  C   UNL A   1      46.393  27.851  35.206  1.00  0.00     0.040 A 
ATOM     84  F   UNL A   1      45.570  29.625  33.910  1.00  0.00    -0.206 F 
ATOM     85  C   UNL A   1      46.186  26.655  35.890  1.00  0.00     0.006 A 
ENDBRANCH  61  78
ENDBRANCH  35  36
ENDBRANCH  27  30
ENDBRANCH  25  26
ENDBRANCH  24  25
ENDBRANCH  23  24
ENDBRANCH   1  23
TORSDOF 17
ENDMDL
MODEL 2
REMARK VINA RESULT:     -10.6      3.762      7.345
REMARK SMILES CC(C)N(CC1CC1)C(=O)NC1(CC(=O)NCCCCNC(=O)c2ccc(-c3c4nc(c(-c5c(F)cccc5F)c5ccc([nH]5)c(-c5c(F)cccc5F)c5nc(c(-c6c(F)cccc6F)c6ccc3[nH]6)C=C5)C=C4)cc2)CCC1
REMARK SMILES IDX 17 1 16 2 14 3 15 4 13 6 12 7 78 8 80 9 79 10 11 11 9 12
REMARK SMILES IDX 10 13 4 15 2 16 1 17 3 18 5 19 6 20 7 21 8 22 18 23 19 24
REMARK SMILES IDX 20 25 21 26 22 27 23 29 24 30 25 31 77 32 26 33 76 34 27 35
REMARK SMILES IDX 28 36 29 37 70 38 30 39 75 40 69 41 71 42 31 43 74 44 68 45
REMARK SMILES IDX 67 46 32 48 58 49 41 50 57 51 42 52 45 53 56 54 72 55 43 56
REMARK SMILES IDX 44 57 55 59 73 60 46 61 33 62 34 63 39 64 35 65 36 66 38 67
REMARK SMILES IDX 40 68 37 69 59 70 60 71 65 72 61 73 62 74 64 75 66 76 63 77
REMARK SMILES IDX 47 78 48 79 53 80 49 81 50 82 52 83 54 84 51 85
REMARK H PARENT 16 5 11 14 21 28 71 47 45 58
REMARK Flexibility Score: inf
ROOT
ATOM      1  C   UNL A   1      31.160  29.585  24.415  1.00  0.00     0.116 C 
ENDROOT
BRANCH   1   2
ATOM      2  N   UNL A   1      32.154  29.279  23.410  1.00  0.00    -0.356 N 
ATOM      3  C   UNL A   1      32.321  28.153  22.666  1.00  0.00     0.222 C 
ATOM      4  O   UNL A   1      33.365  28.048  22.018  1.00  0.00    -0.275 OA
ATOM      5  H   UNL A   1      32.810  29.993  23.239  1.00  0.00     0.163 HD
BRANCH   3   6
ATOM      6  C   UNL A   1      31.293  27.034  22.636  1.00  0.00     0.128 C 
BRANCH   6   7
ATOM      7  C   UNL A   1      31.678  25.692  23.333  1.00  0.00     0.051 C 
ATOM      8  C   UNL A   1      30.434  24.825  23.679  1.00  0.00     0.029 C 
ATOM      9  C   UNL A   1      31.881  25.935  24.847  1.00  0.00     0.029 C 
ATOM     10  C   UNL A   1      30.578  25.192  25.159  1.00  0.00     0.005 C 
BRANCH   7  11
ATOM     11  N   UNL A   1      32.700  24.991  22.499  1.00  0.00    -0.332 N 
ATOM     12  C   UNL A   1      33.410  23.841  22.477  1.00  0.00     0.318 C 
ATOM     13  O   UNL A   1      33.543  23.381  21.337  1.00  0.00    -0.249 OA
ATOM     14  H   UNL A   1      32.931  25.543  21.718  1.00  0.00     0.165 HD
BRANCH  12  15
ATOM     15  N   UNL A   1      34.023  23.263  23.552  1.00  0.00    -0.322 N 
BRANCH  15  16
ATOM     16  C   UNL A   1      35.393  23.713  23.915  1.00  0.00     0.080 C 
ATOM     17  C   UNL A   1      35.580  23.946  25.419  1.00  0.00     0.031 C 
ATOM     18  C   UNL A   1      36.488  22.803  23.349  1.00  0.00     0.031 C 
ENDBRANCH  15  16
BRANCH  15  19
ATOM     19  C   UNL A   1      33.375  22.419  24.541  1.00  0.00     0.125 C 
BRANCH  19  20
ATOM     20  C   UNL A   1      33.262  21.002  24.069  1.00  0.00     0.009 C 
ATOM     21  C   UNL A   1      34.018  19.931  24.814  1.00  0.00     0.006 C 
ATOM     22  C   UNL A   1      32.515  19.915  24.792  1.00  0.00     0.006 C 
ENDBRANCH  19  20
ENDBRANCH  15  19
ENDBRANCH  12  15
ENDBRANCH   7  11
ENDBRANCH   6   7
ENDBRANCH   3   6
ENDBRANCH   1   2
BRANCH   1  23
ATOM     23  C   UNL A   1      31.804  29.735  25.793  1.00  0.00     0.023 C 
BRANCH  23  24
ATOM     24  C   UNL A   1      33.275  29.326  25.870  1.00  0.00     0.023 C 
BRANCH  24  25
ATOM     25  C   UNL A   1      33.816  29.177  27.287  1.00  0.00     0.116 C 
BRANCH  25  26
ATOM     26  N   UNL A   1      33.874  30.430  28.027  1.00  0.00    -0.352 N 
ATOM     27  C   UNL A   1      34.932  30.948  28.744  1.00  0.00     0.251 C 
ATOM     28  H   UNL A   1      33.055  30.976  28.014  1.00  0.00     0.163 HD
ATOM     29  O   UNL A   1      34.808  31.989  29.380  1.00  0.00    -0.269 OA
BRANCH  27  30
ATOM     30  C   UNL A   1      36.205  30.197  28.783  1.00  0.00     0.039 A 
ATOM     31  C   UNL A   1      37.046  30.234  27.669  1.00  0.00     0.014 A 
ATOM     32  C   UNL A   1      36.603  29.542  29.949  1.00  0.00     0.014 A 
ATOM     33  C   UNL A   1      38.336  29.707  27.762  1.00  0.00     0.010 A 
ATOM     34  C   UNL A   1      37.911  29.086  30.066  1.00  0.00     0.010 A 
ATOM     35  C   UNL A   1      38.797  29.183  28.981  1.00  0.00    -0.014 A 
BRANCH  35  36
ATOM     36  C   UNL A   1      40.210  28.767  29.169  1.00  0.00     0.031 A 
ATOM     37  C   UNL A   1      41.220  29.747  29.694  1.00  0.00     0.074 A 
ATOM     38  C   UNL A   1      40.604  27.543  28.764  1.00  0.00     0.049 A 
ATOM     39  N   UNL A   1      42.519  29.623  29.792  1.00  0.00    -0.248 NA
ATOM     40  C   UNL A   1      40.703  31.052  30.135  1.00  0.00     0.031 C 
ATOM     41  C   UNL A   1      39.731  26.516  28.189  1.00  0.00     0.029 A 
ATOM     42  N   UNL A   1      41.848  26.962  28.755  1.00  0.00    -0.354 N 
ATOM     43  C   UNL A   1      42.976  30.839  30.281  1.00  0.00     0.074 A 
ATOM     44  C   UNL A   1      41.823  31.702  30.417  1.00  0.00     0.031 C 
ATOM     45  C   UNL A   1      40.463  25.427  27.901  1.00  0.00     0.029 A 
ATOM     46  C   UNL A   1      41.859  25.692  28.229  1.00  0.00     0.049 A 
ATOM     47  H   UNL A   1      42.655  27.412  29.095  1.00  0.00     0.167 HD
ATOM     48  C   UNL A   1      44.240  31.198  30.608  1.00  0.00     0.037 A 
ATOM     49  C   UNL A   1      42.883  24.843  28.019  1.00  0.00     0.037 A 
ATOM     50  C   UNL A   1      45.381  30.325  30.508  1.00  0.00     0.049 A 
ATOM     51  C   UNL A   1      44.279  25.265  28.389  1.00  0.00     0.074 A 
ATOM     52  C   UNL A   1      46.689  30.572  30.886  1.00  0.00     0.029 A 
ATOM     53  N   UNL A   1      45.347  29.039  29.992  1.00  0.00    -0.354 N 
ATOM     54  N   UNL A   1      44.687  26.395  28.910  1.00  0.00    -0.248 NA
ATOM     55  C   UNL A   1      45.354  24.294  28.138  1.00  0.00     0.031 C 
ATOM     56  C   UNL A   1      47.455  29.446  30.566  1.00  0.00     0.029 A 
ATOM     57  C   UNL A   1      46.616  28.486  30.023  1.00  0.00     0.049 A 
ATOM     58  H   UNL A   1      44.540  28.586  29.655  1.00  0.00     0.167 HD
ATOM     59  C   UNL A   1      46.060  26.266  29.069  1.00  0.00     0.074 A 
ATOM     60  C   UNL A   1      46.414  24.942  28.601  1.00  0.00     0.031 C 
ATOM     61  C   UNL A   1      46.949  27.163  29.559  1.00  0.00     0.037 A 
BRANCH  48  62
ATOM     62  C   UNL A   1      44.452  32.593  31.114  1.00  0.00     0.057 A 
ATOM     63  C   UNL A   1      44.380  32.901  32.478  1.00  0.00     0.134 A 
ATOM     64  C   UNL A   1      44.756  33.637  30.230  1.00  0.00     0.134 A 
ATOM     65  F   UNL A   1      44.080  31.948  33.375  1.00  0.00    -0.206 F 
ATOM     66  C   UNL A   1      44.576  34.201  32.945  1.00  0.00     0.040 A 
ATOM     67  C   UNL A   1      44.978  34.936  30.688  1.00  0.00     0.040 A 
ATOM     68  F   UNL A   1      44.843  33.409  28.912  1.00  0.00    -0.206 F 
ATOM     69  C   UNL A   1      44.882  35.223  32.047  1.00  0.00     0.006 A 
ENDBRANCH  48  62
BRANCH  49  70
ATOM     70  C   UNL A   1      42.629  23.499  27.443  1.00  0.00     0.057 A 
ATOM     71  C   UNL A   1      42.725  23.280  26.064  1.00  0.00     0.134 A 
ATOM     72  C   UNL A   1      42.279  22.409  28.247  1.00  0.00     0.134 A 
ATOM     73  F   UNL A   1      43.036  24.291  25.241  1.00  0.00    -0.206 F 
ATOM     74  C   UNL A   1      42.467  22.029  25.503  1.00  0.00     0.040 A 
ATOM     75  C   UNL A   1      42.041  21.146  27.702  1.00  0.00     0.040 A 
ATOM     76  F   UNL A   1      42.177  22.553  29.577  1.00  0.00    -0.206 F 
ATOM     77  C   UNL A   1      42.128  20.956  26.325  1.00  0.00     0.006 A 
ENDBRANCH  49  70
BRANCH  61  78
ATOM     78  C   UNL A   1      48.384  26.737  29.638  1.00  0.00     0.057 A 
ATOM     79  C   UNL A   1      48.878  26.021  30.735  1.00  0.00     0.134 A 
ATOM     80  C   UNL A   1      49.266  27.001  28.582  1.00  0.00     0.134 A 
ATOM     81  F   UNL A   1      48.086  25.751  31.783  1.00  0.00    -0.206 F 
ATOM     82  C   UNL A   1      50.205  25.591  30.785  1.00  0.00     0.040 A 
ATOM     83  C   UNL A   1      50.588  26.556  28.611  1.00  0.00     0.040 A 
ATOM     84  F   UNL A   1      48.851  27.676  27.501  1.00  0.00    -0.206 F 
ATOM     85  C   UNL A   1      51.061  25.852  29.716  1.00  0.00     0.006 A 
ENDBRANCH  61  78
ENDBRANCH  35  36
ENDBRANCH  27  30
ENDBRANCH  25  26
ENDBRANCH  24  25
ENDBRANCH  23  24
ENDBRANCH   1  23
TORSDOF 17
ENDMDL
MODEL 3
REMARK VINA RESULT:     -10.5      1.526      2.428
REMARK SMILES CC(C)N(CC1CC1)C(=O)NC1(CC(=O)NCCCCNC(=O)c2ccc(-c3c4nc(c(-c5c(F)cccc5F)c5ccc([nH]5)c(-c5c(F)cccc5F)c5nc(c(-c6c(F)cccc6F)c6ccc3[nH]6)C=C5)C=C4)cc2)CCC1
REMARK SMILES IDX 17 1 16 2 14 3 15 4 13 6 12 7 78 8 80 9 79 10 11 11 9 12
REMARK SMILES IDX 10 13 4 15 2 16 1 17 3 18 5 19 6 20 7 21 8 22 18 23 19 24
REMARK SMILES IDX 20 25 21 26 22 27 23 29 24 30 25 31 77 32 26 33 76 34 27 35
REMARK SMILES IDX 28 36 29 37 70 38 30 39 75 40 69 41 71 42 31 43 74 44 68 45
REMARK SMILES IDX 67 46 32 48 58 49 41 50 57 51 42 52 45 53 56 54 72 55 43 56
REMARK SMILES IDX 44 57 55 59 73 60 46 61 33 62 34 63 39 64 35 65 36 66 38 67
REMARK SMILES IDX 40 68 37 69 59 70 60 71 65 72 61 73 62 74 64 75 66 76 63 77
REMARK SMILES IDX 47 78 48 79 53 80 49 81 50 82 52 83 54 84 51 85
REMARK H PARENT 16 5 11 14 21 28 71 47 45 58
REMARK Flexibility Score: inf
ROOT
ATOM      1  C   UNL A   1      30.704  28.271  22.972  1.00  0.00     0.116 C 
ENDROOT
BRANCH   1   2
ATOM      2  N   UNL A   1      31.953  27.976  22.303  1.00  0.00    -0.356 N 
ATOM      3  C   UNL A   1      32.562  26.780  22.088  1.00  0.00     0.222 C 
ATOM      4  O   UNL A   1      33.723  26.800  21.671  1.00  0.00    -0.275 OA
ATOM      5  H   UNL A   1      32.434  28.759  21.950  1.00  0.00     0.163 HD
BRANCH   3   6
ATOM      6  C   UNL A   1      31.879  25.452  22.369  1.00  0.00     0.128 C 
BRANCH   6   7
ATOM      7  C   UNL A   1      32.440  24.595  23.545  1.00  0.00     0.051 C 
ATOM      8  C   UNL A   1      31.597  23.313  23.800  1.00  0.00     0.029 C 
ATOM      9  C   UNL A   1      31.919  25.158  24.889  1.00  0.00     0.029 C 
ATOM     10  C   UNL A   1      30.993  23.948  25.056  1.00  0.00     0.005 C 
BRANCH   7  11
ATOM     11  N   UNL A   1      33.891  24.336  23.305  1.00  0.00    -0.332 N 
ATOM     12  C   UNL A   1      34.852  23.438  23.620  1.00  0.00     0.318 C 
ATOM     13  O   UNL A   1      35.628  23.217  22.683  1.00  0.00    -0.249 OA
ATOM     14  H   UNL A   1      34.269  25.047  22.738  1.00  0.00     0.165 HD
BRANCH  12  15
ATOM     15  N   UNL A   1      35.050  22.884  24.852  1.00  0.00    -0.322 N 
BRANCH  15  16
ATOM     16  C   UNL A   1      34.696  21.454  25.054  1.00  0.00     0.080 C 
ATOM     17  C   UNL A   1      35.898  20.507  24.948  1.00  0.00     0.031 C 
ATOM     18  C   UNL A   1      33.905  21.212  26.343  1.00  0.00     0.031 C 
ENDBRANCH  15  16
BRANCH  15  19
ATOM     19  C   UNL A   1      35.810  23.483  25.935  1.00  0.00     0.125 C 
BRANCH  19  20
ATOM     20  C   UNL A   1      37.237  23.720  25.544  1.00  0.00     0.009 C 
ATOM     21  C   UNL A   1      38.204  24.195  26.598  1.00  0.00     0.006 C 
ATOM     22  C   UNL A   1      38.394  22.851  25.953  1.00  0.00     0.006 C 
ENDBRANCH  19  20
ENDBRANCH  15  19
ENDBRANCH  12  15
ENDBRANCH   7  11
ENDBRANCH   6   7
ENDBRANCH   3   6
ENDBRANCH   1   2
BRANCH   1  23
ATOM     23  C   UNL A   1      30.912  29.294  24.088  1.00  0.00     0.023 C 
BRANCH  23  24
ATOM     24  C   UNL A   1      31.562  28.747  25.358  1.00  0.00     0.023 C 
BRANCH  24  25
ATOM     25  C   UNL A   1      32.722  29.583  25.886  1.00  0.00     0.116 C 
BRANCH  25  26
ATOM     26  N   UNL A   1      32.321  30.887  26.395  1.00  0.00    -0.352 N 
ATOM     27  C   UNL A   1      33.035  31.739  27.211  1.00  0.00     0.251 C 
ATOM     28  H   UNL A   1      31.429  31.200  26.123  1.00  0.00     0.163 HD
ATOM     29  O   UNL A   1      32.535  32.781  27.620  1.00  0.00    -0.269 OA
BRANCH  27  30
ATOM     30  C   UNL A   1      34.396  31.348  27.636  1.00  0.00     0.039 A 
ATOM     31  C   UNL A   1      35.376  32.336  27.759  1.00  0.00     0.014 A 
ATOM     32  C   UNL A   1      34.671  30.029  28.001  1.00  0.00     0.014 A 
ATOM     33  C   UNL A   1      36.600  32.021  28.353  1.00  0.00     0.010 A 
ATOM     34  C   UNL A   1      35.858  29.734  28.661  1.00  0.00     0.010 A 
ATOM     35  C   UNL A   1      36.826  30.732  28.863  1.00  0.00    -0.014 A 
BRANCH  35  36
ATOM     36  C   UNL A   1      38.043  30.403  29.648  1.00  0.00     0.031 A 
ATOM     37  C   UNL A   1      39.057  29.443  29.096  1.00  0.00     0.074 A 
ATOM     38  C   UNL A   1      38.179  30.884  30.900  1.00  0.00     0.049 A 
ATOM     39  N   UNL A   1      40.104  28.919  29.682  1.00  0.00    -0.248 NA
ATOM     40  C   UNL A   1      38.847  28.984  27.715  1.00  0.00     0.031 C 
ATOM     41  C   UNL A   1      37.238  31.784  31.571  1.00  0.00     0.029 A 
ATOM     42  N   UNL A   1      39.154  30.664  31.841  1.00  0.00    -0.354 N 
ATOM     43  C   UNL A   1      40.662  28.053  28.751  1.00  0.00     0.074 A 
ATOM     44  C   UNL A   1      39.812  28.086  27.580  1.00  0.00     0.031 C 
ATOM     45  C   UNL A   1      37.691  32.053  32.807  1.00  0.00     0.029 A 
ATOM     46  C   UNL A   1      38.928  31.313  33.031  1.00  0.00     0.049 A 
ATOM     47  H   UNL A   1      39.942  30.096  31.677  1.00  0.00     0.167 HD
ATOM     48  C   UNL A   1      41.790  27.313  28.854  1.00  0.00     0.037 A 
ATOM     49  C   UNL A   1      39.631  31.300  34.180  1.00  0.00     0.037 A 
ATOM     50  C   UNL A   1      42.654  27.310  30.006  1.00  0.00     0.049 A 
ATOM     51  C   UNL A   1      40.880  30.468  34.270  1.00  0.00     0.074 A 
ATOM     52  C   UNL A   1      43.859  26.651  30.176  1.00  0.00     0.029 A 
ATOM     53  N   UNL A   1      42.403  27.998  31.182  1.00  0.00    -0.354 N 
ATOM     54  N   UNL A   1      41.429  29.704  33.360  1.00  0.00    -0.248 NA
ATOM     55  C   UNL A   1      41.604  30.497  35.550  1.00  0.00     0.031 C 
ATOM     56  C   UNL A   1      44.321  26.915  31.470  1.00  0.00     0.029 A 
ATOM     57  C   UNL A   1      43.420  27.765  32.091  1.00  0.00     0.049 A 
ATOM     58  H   UNL A   1      41.617  28.569  31.346  1.00  0.00     0.167 HD
ATOM     59  C   UNL A   1      42.572  29.176  33.945  1.00  0.00     0.074 A 
ATOM     60  C   UNL A   1      42.645  29.718  35.286  1.00  0.00     0.031 C 
ATOM     61  C   UNL A   1      43.480  28.319  33.420  1.00  0.00     0.037 A 
BRANCH  48  62
ATOM     62  C   UNL A   1      42.159  26.451  27.684  1.00  0.00     0.057 A 
ATOM     63  C   UNL A   1      41.738  25.118  27.590  1.00  0.00     0.134 A 
ATOM     64  C   UNL A   1      42.923  26.964  26.629  1.00  0.00     0.134 A 
ATOM     65  F   UNL A   1      41.015  24.563  28.574  1.00  0.00    -0.206 F 
ATOM     66  C   UNL A   1      42.084  24.319  26.500  1.00  0.00     0.040 A 
ATOM     67  C   UNL A   1      43.254  26.182  25.522  1.00  0.00     0.040 A 
ATOM     68  F   UNL A   1      43.355  28.234  26.655  1.00  0.00    -0.206 F 
ATOM     69  C   UNL A   1      42.841  24.853  25.459  1.00  0.00     0.006 A 
ENDBRANCH  48  62
BRANCH  49  70
ATOM     70  C   UNL A   1      39.179  32.113  35.337  1.00  0.00     0.057 A 
ATOM     71  C   UNL A   1      38.370  31.555  36.333  1.00  0.00     0.134 A 
ATOM     72  C   UNL A   1      39.535  33.459  35.472  1.00  0.00     0.134 A 
ATOM     73  F   UNL A   1      37.979  30.276  36.247  1.00  0.00    -0.206 F 
ATOM     74  C   UNL A   1      37.918  32.311  37.416  1.00  0.00     0.040 A 
ATOM     75  C   UNL A   1      39.109  34.221  36.562  1.00  0.00     0.040 A 
ATOM     76  F   UNL A   1      40.314  34.050  34.554  1.00  0.00    -0.206 F 
ATOM     77  C   UNL A   1      38.293  33.647  37.534  1.00  0.00     0.006 A 
ENDBRANCH  49  70
BRANCH  61  78
ATOM     78  C   UNL A   1      44.643  27.934  34.284  1.00  0.00     0.057 A 
ATOM     79  C   UNL A   1      45.812  28.701  34.326  1.00  0.00     0.134 A 
ATOM     80  C   UNL A   1      44.570  26.813  35.121  1.00  0.00     0.134 A 
ATOM     81  F   UNL A   1      45.949  29.778  33.538  1.00  0.00    -0.206 F 
ATOM     82  C   UNL A   1      46.876  28.361  35.164  1.00  0.00     0.040 A 
ATOM     83  C   UNL A   1      45.617  26.475  35.979  1.00  0.00     0.040 A 
ATOM     84  F   UNL A   1      43.473  26.041  35.131  1.00  0.00    -0.206 F 
ATOM     85  C   UNL A   1      46.775  27.249  35.999  1.00  0.00     0.006 A 
ENDBRANCH  61  78
ENDBRANCH  35  36
ENDBRANCH  27  30
ENDBRANCH  25  26
ENDBRANCH  24  25
ENDBRANCH  23  24
ENDBRANCH   1  23
TORSDOF 17
ENDMDL
