MODEL 1
REMARK VINA RESULT:     -11.2      0.000      0.000
REMARK SMILES O=C(CCCN1C(=O)/C(=C/c2cc(Br)ccc2O)SC1=S)NCCCCNC(=O)c1ccc(-c2c3nc(c(-c4c(F)cccc4F)c4ccc([nH]4)c(-c4c(F)cccc4F)c4nc(c(-c5c(F)cccc5F)c5ccc2[nH]5)C=C4)C=C3)cc1
REMARK SMILES IDX 23 1 22 2 1 3 2 4 3 6 4 7 5 8 6 9 7 10 20 11 8 12 9 13 19 14
REMARK SMILES IDX 21 15 10 16 11 17 12 18 17 19 13 20 16 21 14 22 15 23 18 24
REMARK SMILES IDX 24 26 25 27 26 28 27 29 28 30 29 32 30 33 31 34 83 35 32 36
REMARK SMILES IDX 82 37 33 38 34 39 35 40 76 41 36 42 81 43 75 44 77 45 37 46
REMARK SMILES IDX 80 47 74 48 73 49 38 51 64 52 47 53 63 54 48 55 51 56 62 57
REMARK SMILES IDX 78 58 49 59 50 60 61 62 79 63 52 64 39 65 40 66 45 67 41 68
REMARK SMILES IDX 42 69 44 70 46 71 43 72 65 73 66 74 71 75 67 76 68 77 70 78
REMARK SMILES IDX 72 79 69 80 53 81 54 82 59 83 55 84 56 85 58 86 60 87 57 88
REMARK H PARENT 22 5 18 25 27 31 77 50 51 61
REMARK Flexibility Score: inf
ROOT
ATOM      1  C   UNL A   1      37.547  23.227  25.835  1.00  0.00     0.116 C 
ENDROOT
BRANCH   1   2
ATOM      2  N   UNL A   1      36.317  22.742  26.434  1.00  0.00    -0.356 N 
ATOM      3  O   UNL A   1      35.723  21.412  24.659  1.00  0.00    -0.275 OA
ATOM      4  C   UNL A   1      35.490  21.860  25.777  1.00  0.00     0.220 C 
ATOM      5  H   UNL A   1      36.069  23.052  27.335  1.00  0.00     0.163 HD
BRANCH   4   6
ATOM      6  C   UNL A   1      34.251  21.458  26.551  1.00  0.00     0.102 C 
BRANCH   6   7
ATOM      7  C   UNL A   1      33.187  20.814  25.661  1.00  0.00     0.032 C 
BRANCH   7   8
ATOM      8  C   UNL A   1      31.867  21.592  25.544  1.00  0.00     0.128 C 
BRANCH   8   9
ATOM      9  N   UNL A   1      32.021  23.028  25.275  1.00  0.00    -0.293 N 
ATOM     10  C   UNL A   1      31.874  23.944  26.302  1.00  0.00     0.266 C 
ATOM     11  C   UNL A   1      32.460  23.558  24.082  1.00  0.00     0.148 C 
ATOM     12  O   UNL A   1      31.726  23.679  27.490  1.00  0.00    -0.268 OA
ATOM     13  C   UNL A   1      31.937  25.330  25.772  1.00  0.00     0.081 C 
ATOM     14  S   UNL A   1      32.288  25.303  24.093  1.00  0.00    -0.054 SA
ATOM     15  S   UNL A   1      33.089  22.749  22.770  1.00  0.00    -0.052 S 
ATOM     16  C   UNL A   1      31.693  26.402  26.537  1.00  0.00     0.033 C 
BRANCH  16  17
ATOM     17  C   UNL A   1      31.539  27.767  26.021  1.00  0.00     0.019 A 
ATOM     18  C   UNL A   1      30.892  27.999  24.802  1.00  0.00     0.027 A 
ATOM     19  C   UNL A   1      32.033  28.856  26.754  1.00  0.00     0.122 A 
ATOM     20  C   UNL A   1      30.756  29.307  24.333  1.00  0.00     0.018 A 
ATOM     21  C   UNL A   1      31.900  30.160  26.281  1.00  0.00     0.048 A 
ATOM     22  Br  UNL A   1      29.882  29.629  22.686  1.00  0.00    -0.051 Br
ATOM     23  C   UNL A   1      31.259  30.385  25.063  1.00  0.00     0.019 A 
BRANCH  19  24
ATOM     24  O   UNL A   1      32.653  28.625  27.953  1.00  0.00    -0.507 OA
ATOM     25  H   UNL A   1      32.526  29.217  28.668  1.00  0.00     0.293 HD
ENDBRANCH  19  24
ENDBRANCH  16  17
ENDBRANCH   8   9
ENDBRANCH   7   8
ENDBRANCH   6   7
ENDBRANCH   4   6
ENDBRANCH   1   2
BRANCH   1  26
ATOM     26  C   UNL A   1      38.775  22.409  26.240  1.00  0.00     0.023 C 
BRANCH  26  27
ATOM     27  C   UNL A   1      39.041  21.149  25.412  1.00  0.00     0.023 C 
BRANCH  27  28
ATOM     28  C   UNL A   1      39.260  19.864  26.206  1.00  0.00     0.116 C 
BRANCH  28  29
ATOM     29  N   UNL A   1      40.463  19.144  25.843  1.00  0.00    -0.352 N 
ATOM     30  C   UNL A   1      41.771  19.563  25.936  1.00  0.00     0.251 C 
ATOM     31  H   UNL A   1      40.327  18.237  25.484  1.00  0.00     0.163 HD
ATOM     32  O   UNL A   1      42.671  18.852  25.495  1.00  0.00    -0.269 OA
BRANCH  30  33
ATOM     33  C   UNL A   1      42.106  20.886  26.522  1.00  0.00     0.039 A 
ATOM     34  C   UNL A   1      42.546  21.899  25.665  1.00  0.00     0.014 A 
ATOM     35  C   UNL A   1      42.015  21.133  27.895  1.00  0.00     0.014 A 
ATOM     36  C   UNL A   1      42.840  23.169  26.173  1.00  0.00     0.010 A 
ATOM     37  C   UNL A   1      42.255  22.418  28.394  1.00  0.00     0.010 A 
ATOM     38  C   UNL A   1      42.670  23.451  27.539  1.00  0.00    -0.014 A 
BRANCH  38  39
ATOM     39  C   UNL A   1      42.922  24.818  28.073  1.00  0.00     0.031 A 
ATOM     40  C   UNL A   1      44.306  25.241  28.485  1.00  0.00     0.074 A 
ATOM     41  C   UNL A   1      41.895  25.679  28.222  1.00  0.00     0.049 A 
ATOM     42  N   UNL A   1      44.707  26.381  28.993  1.00  0.00    -0.248 NA
ATOM     43  C   UNL A   1      45.378  24.249  28.320  1.00  0.00     0.031 C 
ATOM     44  C   UNL A   1      40.498  25.393  27.899  1.00  0.00     0.029 A 
ATOM     45  N   UNL A   1      41.869  26.971  28.691  1.00  0.00    -0.354 N 
ATOM     46  C   UNL A   1      46.071  26.242  29.211  1.00  0.00     0.074 A 
ATOM     47  C   UNL A   1      46.421  24.890  28.826  1.00  0.00     0.031 C 
ATOM     48  C   UNL A   1      39.754  26.478  28.163  1.00  0.00     0.029 A 
ATOM     49  C   UNL A   1      40.614  27.527  28.705  1.00  0.00     0.049 A 
ATOM     50  H   UNL A   1      42.675  27.452  28.989  1.00  0.00     0.167 HD
ATOM     51  C   UNL A   1      46.958  27.158  29.669  1.00  0.00     0.037 A 
ATOM     52  C   UNL A   1      40.196  28.742  29.114  1.00  0.00     0.037 A 
ATOM     53  C   UNL A   1      46.621  28.508  30.043  1.00  0.00     0.049 A 
ATOM     54  C   UNL A   1      41.195  29.735  29.638  1.00  0.00     0.074 A 
ATOM     55  C   UNL A   1      47.463  29.520  30.473  1.00  0.00     0.029 A 
ATOM     56  N   UNL A   1      45.338  29.033  30.038  1.00  0.00    -0.354 N 
ATOM     57  N   UNL A   1      42.492  29.609  29.778  1.00  0.00    -0.248 NA
ATOM     58  C   UNL A   1      40.673  31.045  30.056  1.00  0.00     0.031 C 
ATOM     59  C   UNL A   1      46.684  30.643  30.770  1.00  0.00     0.029 A 
ATOM     60  C   UNL A   1      45.363  30.348  30.479  1.00  0.00     0.049 A 
ATOM     61  H   UNL A   1      44.529  28.545  29.762  1.00  0.00     0.167 HD
ATOM     62  C   UNL A   1      42.943  30.826  30.273  1.00  0.00     0.074 A 
ATOM     63  C   UNL A   1      41.783  31.684  30.396  1.00  0.00     0.031 C 
ATOM     64  C   UNL A   1      44.205  31.198  30.595  1.00  0.00     0.037 A 
BRANCH  51  65
ATOM     65  C   UNL A   1      48.393  26.730  29.791  1.00  0.00     0.057 A 
ATOM     66  C   UNL A   1      48.878  26.097  30.942  1.00  0.00     0.134 A 
ATOM     67  C   UNL A   1      49.289  26.917  28.730  1.00  0.00     0.134 A 
ATOM     68  F   UNL A   1      48.074  25.895  31.996  1.00  0.00    -0.206 F 
ATOM     69  C   UNL A   1      50.209  25.689  31.046  1.00  0.00     0.040 A 
ATOM     70  C   UNL A   1      50.616  26.489  28.812  1.00  0.00     0.040 A 
ATOM     71  F   UNL A   1      48.888  27.508  27.594  1.00  0.00    -0.206 F 
ATOM     72  C   UNL A   1      51.080  25.880  29.975  1.00  0.00     0.006 A 
ENDBRANCH  51  65
BRANCH  52  73
ATOM     73  C   UNL A   1      38.756  29.094  29.033  1.00  0.00     0.057 A 
ATOM     74  C   UNL A   1      38.189  29.548  27.837  1.00  0.00     0.134 A 
ATOM     75  C   UNL A   1      37.917  28.997  30.150  1.00  0.00     0.134 A 
ATOM     76  F   UNL A   1      38.946  29.683  26.739  1.00  0.00    -0.206 F 
ATOM     77  C   UNL A   1      36.842  29.908  27.757  1.00  0.00     0.040 A 
ATOM     78  C   UNL A   1      36.564  29.331  30.078  1.00  0.00     0.040 A 
ATOM     79  F   UNL A   1      38.400  28.565  31.324  1.00  0.00    -0.206 F 
ATOM     80  C   UNL A   1      36.025  29.795  28.881  1.00  0.00     0.006 A 
ENDBRANCH  52  73
BRANCH  64  81
ATOM     81  C   UNL A   1      44.408  32.603  31.084  1.00  0.00     0.057 A 
ATOM     82  C   UNL A   1      44.639  33.667  30.204  1.00  0.00     0.134 A 
ATOM     83  C   UNL A   1      44.335  32.900  32.451  1.00  0.00     0.134 A 
ATOM     84  F   UNL A   1      44.735  33.448  28.883  1.00  0.00    -0.206 F 
ATOM     85  C   UNL A   1      44.812  34.973  30.667  1.00  0.00     0.040 A 
ATOM     86  C   UNL A   1      44.481  34.205  32.924  1.00  0.00     0.040 A 
ATOM     87  F   UNL A   1      44.107  31.929  33.348  1.00  0.00    -0.206 F 
ATOM     88  C   UNL A   1      44.726  35.245  32.031  1.00  0.00     0.006 A 
ENDBRANCH  64  81
ENDBRANCH  38  39
ENDBRANCH  30  33
ENDBRANCH  28  29
ENDBRANCH  27  28
ENDBRANCH  26  27
ENDBRANCH   1  26
TORSDOF 16
ENDMDL
MODEL 2
REMARK VINA RESULT:     -11.2      4.355      9.543
REMARK SMILES O=C(CCCN1C(=O)/C(=C/c2cc(Br)ccc2O)SC1=S)NCCCCNC(=O)c1ccc(-c2c3nc(c(-c4c(F)cccc4F)c4ccc([nH]4)c(-c4c(F)cccc4F)c4nc(c(-c5c(F)cccc5F)c5ccc2[nH]5)C=C4)C=C3)cc1
REMARK SMILES IDX 23 1 22 2 1 3 2 4 3 6 4 7 5 8 6 9 7 10 20 11 8 12 9 13 19 14
REMARK SMILES IDX 21 15 10 16 11 17 12 18 17 19 13 20 16 21 14 22 15 23 18 24
REMARK SMILES IDX 24 26 25 27 26 28 27 29 28 30 29 32 30 33 31 34 83 35 32 36
REMARK SMILES IDX 82 37 33 38 34 39 35 40 76 41 36 42 81 43 75 44 77 45 37 46
REMARK SMILES IDX 80 47 74 48 73 49 38 51 64 52 47 53 63 54 48 55 51 56 62 57
REMARK SMILES IDX 78 58 49 59 50 60 61 62 79 63 52 64 39 65 40 66 45 67 41 68
REMARK SMILES IDX 42 69 44 70 46 71 43 72 65 73 66 74 71 75 67 76 68 77 70 78
REMARK SMILES IDX 72 79 69 80 53 81 54 82 59 83 55 84 56 85 58 86 60 87 57 88
REMARK H PARENT 22 5 18 25 27 31 77 50 51 61
REMARK Flexibility Score: inf
ROOT
ATOM      1  C   UNL A   1      32.682  30.045  26.100  1.00  0.00     0.116 C 
ENDROOT
BRANCH   1   2
ATOM      2  N   UNL A   1      32.402  29.768  24.702  1.00  0.00    -0.356 N 
ATOM      3  O   UNL A   1      34.225  28.409  24.382  1.00  0.00    -0.275 OA
ATOM      4  C   UNL A   1      33.219  28.960  23.946  1.00  0.00     0.220 C 
ATOM      5  H   UNL A   1      31.606  30.170  24.285  1.00  0.00     0.163 HD
BRANCH   4   6
ATOM      6  C   UNL A   1      32.776  28.778  22.509  1.00  0.00     0.102 C 
BRANCH   6   7
ATOM      7  C   UNL A   1      31.291  28.432  22.392  1.00  0.00     0.032 C 
BRANCH   7   8
ATOM      8  C   UNL A   1      30.980  26.953  22.110  1.00  0.00     0.128 C 
BRANCH   8   9
ATOM      9  N   UNL A   1      31.771  25.997  22.896  1.00  0.00    -0.293 N 
ATOM     10  C   UNL A   1      32.885  25.394  22.335  1.00  0.00     0.266 C 
ATOM     11  C   UNL A   1      31.590  25.746  24.239  1.00  0.00     0.148 C 
ATOM     12  O   UNL A   1      33.372  25.655  21.241  1.00  0.00    -0.268 OA
ATOM     13  C   UNL A   1      33.440  24.372  23.260  1.00  0.00     0.081 C 
ATOM     14  S   UNL A   1      32.578  24.388  24.741  1.00  0.00    -0.054 SA
ATOM     15  S   UNL A   1      30.613  26.562  25.310  1.00  0.00    -0.052 S 
ATOM     16  C   UNL A   1      34.439  23.554  22.905  1.00  0.00     0.033 C 
BRANCH  16  17
ATOM     17  C   UNL A   1      34.882  22.401  23.698  1.00  0.00     0.019 A 
ATOM     18  C   UNL A   1      34.003  21.348  23.976  1.00  0.00     0.027 A 
ATOM     19  C   UNL A   1      36.199  22.341  24.177  1.00  0.00     0.122 A 
ATOM     20  C   UNL A   1      34.449  20.261  24.731  1.00  0.00     0.018 A 
ATOM     21  C   UNL A   1      36.640  21.256  24.933  1.00  0.00     0.048 A 
ATOM     22  Br  UNL A   1      33.267  18.834  25.111  1.00  0.00    -0.051 Br
ATOM     23  C   UNL A   1      35.758  20.212  25.212  1.00  0.00     0.019 A 
BRANCH  19  24
ATOM     24  O   UNL A   1      37.060  23.367  23.890  1.00  0.00    -0.507 OA
ATOM     25  H   UNL A   1      37.223  24.034  24.528  1.00  0.00     0.293 HD
ENDBRANCH  19  24
ENDBRANCH  16  17
ENDBRANCH   8   9
ENDBRANCH   7   8
ENDBRANCH   6   7
ENDBRANCH   4   6
ENDBRANCH   1   2
BRANCH   1  26
ATOM     26  C   UNL A   1      31.496  30.669  26.836  1.00  0.00     0.023 C 
BRANCH  26  27
ATOM     27  C   UNL A   1      31.401  32.196  26.777  1.00  0.00     0.023 C 
BRANCH  27  28
ATOM     28  C   UNL A   1      32.684  32.956  27.099  1.00  0.00     0.116 C 
BRANCH  28  29
ATOM     29  N   UNL A   1      32.466  34.250  27.712  1.00  0.00    -0.352 N 
ATOM     30  C   UNL A   1      33.163  34.837  28.744  1.00  0.00     0.251 C 
ATOM     31  H   UNL A   1      31.721  34.779  27.343  1.00  0.00     0.163 HD
ATOM     32  O   UNL A   1      32.783  35.911  29.203  1.00  0.00    -0.269 OA
BRANCH  30  33
ATOM     33  C   UNL A   1      34.347  34.166  29.339  1.00  0.00     0.039 A 
ATOM     34  C   UNL A   1      34.133  33.160  30.286  1.00  0.00     0.014 A 
ATOM     35  C   UNL A   1      35.654  34.525  28.997  1.00  0.00     0.014 A 
ATOM     36  C   UNL A   1      35.220  32.480  30.846  1.00  0.00     0.010 A 
ATOM     37  C   UNL A   1      36.738  33.807  29.515  1.00  0.00     0.010 A 
ATOM     38  C   UNL A   1      36.533  32.777  30.446  1.00  0.00    -0.014 A 
BRANCH  38  39
ATOM     39  C   UNL A   1      37.689  32.013  30.993  1.00  0.00     0.031 A 
ATOM     40  C   UNL A   1      38.213  32.296  32.375  1.00  0.00     0.074 A 
ATOM     41  C   UNL A   1      38.295  31.079  30.233  1.00  0.00     0.049 A 
ATOM     42  N   UNL A   1      39.224  31.749  33.005  1.00  0.00    -0.248 NA
ATOM     43  C   UNL A   1      37.524  33.343  33.143  1.00  0.00     0.031 C 
ATOM     44  C   UNL A   1      37.917  30.726  28.865  1.00  0.00     0.029 A 
ATOM     45  N   UNL A   1      39.365  30.260  30.504  1.00  0.00    -0.354 N 
ATOM     46  C   UNL A   1      39.293  32.384  34.238  1.00  0.00     0.074 A 
ATOM     47  C   UNL A   1      38.253  33.392  34.248  1.00  0.00     0.031 C 
ATOM     48  C   UNL A   1      38.729  29.754  28.422  1.00  0.00     0.029 A 
ATOM     49  C   UNL A   1      39.706  29.436  29.460  1.00  0.00     0.049 A 
ATOM     50  H   UNL A   1      39.842  30.264  31.366  1.00  0.00     0.167 HD
ATOM     51  C   UNL A   1      40.129  32.141  35.276  1.00  0.00     0.037 A 
ATOM     52  C   UNL A   1      40.698  28.531  29.344  1.00  0.00     0.037 A 
ATOM     53  C   UNL A   1      41.159  31.132  35.278  1.00  0.00     0.049 A 
ATOM     54  C   UNL A   1      41.627  28.292  30.501  1.00  0.00     0.074 A 
ATOM     55  C   UNL A   1      42.022  30.783  36.303  1.00  0.00     0.029 A 
ATOM     56  N   UNL A   1      41.469  30.316  34.202  1.00  0.00    -0.354 N 
ATOM     57  N   UNL A   1      41.639  28.857  31.683  1.00  0.00    -0.248 NA
ATOM     58  C   UNL A   1      42.679  27.281  30.311  1.00  0.00     0.031 C 
ATOM     59  C   UNL A   1      42.883  29.786  35.832  1.00  0.00     0.029 A 
ATOM     60  C   UNL A   1      42.525  29.479  34.531  1.00  0.00     0.049 A 
ATOM     61  H   UNL A   1      41.007  30.327  33.332  1.00  0.00     0.167 HD
ATOM     62  C   UNL A   1      42.676  28.255  32.384  1.00  0.00     0.074 A 
ATOM     63  C   UNL A   1      43.264  27.271  31.500  1.00  0.00     0.031 C 
ATOM     64  C   UNL A   1      43.102  28.498  33.647  1.00  0.00     0.037 A 
BRANCH  51  65
ATOM     65  C   UNL A   1      39.965  32.982  36.508  1.00  0.00     0.057 A 
ATOM     66  C   UNL A   1      40.753  34.117  36.737  1.00  0.00     0.134 A 
ATOM     67  C   UNL A   1      38.981  32.679  37.459  1.00  0.00     0.134 A 
ATOM     68  F   UNL A   1      41.718  34.460  35.870  1.00  0.00    -0.206 F 
ATOM     69  C   UNL A   1      40.588  34.906  37.877  1.00  0.00     0.040 A 
ATOM     70  C   UNL A   1      38.788  33.474  38.590  1.00  0.00     0.040 A 
ATOM     71  F   UNL A   1      38.184  31.611  37.297  1.00  0.00    -0.206 F 
ATOM     72  C   UNL A   1      39.598  34.586  38.805  1.00  0.00     0.006 A 
ENDBRANCH  51  65
BRANCH  52  73
ATOM     73  C   UNL A   1      40.860  27.769  28.080  1.00  0.00     0.057 A 
ATOM     74  C   UNL A   1      40.258  26.516  27.909  1.00  0.00     0.134 A 
ATOM     75  C   UNL A   1      41.625  28.267  27.019  1.00  0.00     0.134 A 
ATOM     76  F   UNL A   1      39.531  25.976  28.897  1.00  0.00    -0.206 F 
ATOM     77  C   UNL A   1      40.426  25.779  26.735  1.00  0.00     0.040 A 
ATOM     78  C   UNL A   1      41.782  27.552  25.831  1.00  0.00     0.040 A 
ATOM     79  F   UNL A   1      42.224  29.463  27.120  1.00  0.00    -0.206 F 
ATOM     80  C   UNL A   1      41.187  26.300  25.690  1.00  0.00     0.006 A 
ENDBRANCH  52  73
BRANCH  64  81
ATOM     81  C   UNL A   1      44.240  27.666  34.164  1.00  0.00     0.057 A 
ATOM     82  C   UNL A   1      45.569  28.101  34.091  1.00  0.00     0.134 A 
ATOM     83  C   UNL A   1      43.998  26.429  34.775  1.00  0.00     0.134 A 
ATOM     84  F   UNL A   1      45.871  29.270  33.505  1.00  0.00    -0.206 F 
ATOM     85  C   UNL A   1      46.619  27.326  34.587  1.00  0.00     0.040 A 
ATOM     86  C   UNL A   1      45.037  25.657  35.299  1.00  0.00     0.040 A 
ATOM     87  F   UNL A   1      42.748  25.956  34.886  1.00  0.00    -0.206 F 
ATOM     88  C   UNL A   1      46.353  26.103  35.200  1.00  0.00     0.006 A 
ENDBRANCH  64  81
ENDBRANCH  38  39
ENDBRANCH  30  33
ENDBRANCH  28  29
ENDBRANCH  27  28
ENDBRANCH  26  27
ENDBRANCH   1  26
TORSDOF 16
ENDMDL
MODEL 3
REMARK VINA RESULT:     -11.1      5.126     10.225
REMARK SMILES O=C(CCCN1C(=O)/C(=C/c2cc(Br)ccc2O)SC1=S)NCCCCNC(=O)c1ccc(-c2c3nc(c(-c4c(F)cccc4F)c4ccc([nH]4)c(-c4c(F)cccc4F)c4nc(c(-c5c(F)cccc5F)c5ccc2[nH]5)C=C4)C=C3)cc1
REMARK SMILES IDX 23 1 22 2 1 3 2 4 3 6 4 7 5 8 6 9 7 10 20 11 8 12 9 13 19 14
REMARK SMILES IDX 21 15 10 16 11 17 12 18 17 19 13 20 16 21 14 22 15 23 18 24
REMARK SMILES IDX 24 26 25 27 26 28 27 29 28 30 29 32 30 33 31 34 83 35 32 36
REMARK SMILES IDX 82 37 33 38 34 39 35 40 76 41 36 42 81 43 75 44 77 45 37 46
REMARK SMILES IDX 80 47 74 48 73 49 38 51 64 52 47 53 63 54 48 55 51 56 62 57
REMARK SMILES IDX 78 58 49 59 50 60 61 62 79 63 52 64 39 65 40 66 45 67 41 68
REMARK SMILES IDX 42 69 44 70 46 71 43 72 65 73 66 74 71 75 67 76 68 77 70 78
REMARK SMILES IDX 72 79 69 80 53 81 54 82 59 83 55 84 56 85 58 86 60 87 57 88
REMARK H PARENT 22 5 18 25 27 31 77 50 51 61
REMARK Flexibility Score: inf
ROOT
ATOM      1  C   UNL A   1      35.001  32.847  28.121  1.00  0.00     0.116 C 
ENDROOT
BRANCH   1   2
ATOM      2  N   UNL A   1      34.366  31.582  27.796  1.00  0.00    -0.356 N 
ATOM      3  O   UNL A   1      36.326  30.400  27.608  1.00  0.00    -0.275 OA
ATOM      4  C   UNL A   1      35.101  30.444  27.558  1.00  0.00     0.220 C 
ATOM      5  H   UNL A   1      33.384  31.538  27.746  1.00  0.00     0.163 HD
BRANCH   4   6
ATOM      6  C   UNL A   1      34.276  29.214  27.236  1.00  0.00     0.102 C 
BRANCH   6   7
ATOM      7  C   UNL A   1      32.780  29.517  27.152  1.00  0.00     0.032 C 
BRANCH   7   8
ATOM      8  C   UNL A   1      32.064  28.960  25.910  1.00  0.00     0.128 C 
BRANCH   8   9
ATOM      9  N   UNL A   1      32.512  27.626  25.488  1.00  0.00    -0.293 N 
ATOM     10  C   UNL A   1      32.150  26.510  26.223  1.00  0.00     0.266 C 
ATOM     11  C   UNL A   1      33.159  27.356  24.303  1.00  0.00     0.148 C 
ATOM     12  O   UNL A   1      31.375  26.492  27.174  1.00  0.00    -0.268 OA
ATOM     13  C   UNL A   1      32.826  25.299  25.691  1.00  0.00     0.081 C 
ATOM     14  S   UNL A   1      33.719  25.694  24.282  1.00  0.00    -0.054 SA
ATOM     15  S   UNL A   1      33.411  28.381  23.016  1.00  0.00    -0.052 S 
ATOM     16  C   UNL A   1      32.749  24.109  26.302  1.00  0.00     0.033 C 
BRANCH  16  17
ATOM     17  C   UNL A   1      33.558  22.941  25.936  1.00  0.00     0.019 A 
ATOM     18  C   UNL A   1      34.954  23.029  25.883  1.00  0.00     0.027 A 
ATOM     19  C   UNL A   1      32.935  21.717  25.646  1.00  0.00     0.122 A 
ATOM     20  C   UNL A   1      35.701  21.902  25.534  1.00  0.00     0.018 A 
ATOM     21  C   UNL A   1      33.684  20.596  25.295  1.00  0.00     0.048 A 
ATOM     22  Br  UNL A   1      37.588  22.013  25.460  1.00  0.00    -0.051 Br
ATOM     23  C   UNL A   1      35.074  20.690  25.238  1.00  0.00     0.019 A 
BRANCH  19  24
ATOM     24  O   UNL A   1      31.570  21.632  25.714  1.00  0.00    -0.507 OA
ATOM     25  H   UNL A   1      31.132  21.769  26.531  1.00  0.00     0.293 HD
ENDBRANCH  19  24
ENDBRANCH  16  17
ENDBRANCH   8   9
ENDBRANCH   7   8
ENDBRANCH   6   7
ENDBRANCH   4   6
ENDBRANCH   1   2
BRANCH   1  26
ATOM     26  C   UNL A   1      34.327  33.574  29.286  1.00  0.00     0.023 C 
BRANCH  26  27
ATOM     27  C   UNL A   1      33.229  34.571  28.907  1.00  0.00     0.023 C 
BRANCH  27  28
ATOM     28  C   UNL A   1      33.317  35.942  29.571  1.00  0.00     0.116 C 
BRANCH  28  29
ATOM     29  N   UNL A   1      32.427  36.108  30.702  1.00  0.00    -0.352 N 
ATOM     30  C   UNL A   1      32.603  35.680  31.999  1.00  0.00     0.251 C 
ATOM     31  H   UNL A   1      31.588  36.589  30.520  1.00  0.00     0.163 HD
ATOM     32  O   UNL A   1      31.700  35.829  32.817  1.00  0.00    -0.269 OA
BRANCH  30  33
ATOM     33  C   UNL A   1      33.858  35.000  32.411  1.00  0.00     0.039 A 
ATOM     34  C   UNL A   1      33.771  33.704  32.927  1.00  0.00     0.014 A 
ATOM     35  C   UNL A   1      35.105  35.624  32.316  1.00  0.00     0.014 A 
ATOM     36  C   UNL A   1      34.932  33.016  33.296  1.00  0.00     0.010 A 
ATOM     37  C   UNL A   1      36.270  34.915  32.633  1.00  0.00     0.010 A 
ATOM     38  C   UNL A   1      36.196  33.604  33.126  1.00  0.00    -0.014 A 
BRANCH  38  39
ATOM     39  C   UNL A   1      37.438  32.851  33.459  1.00  0.00     0.031 A 
ATOM     40  C   UNL A   1      38.195  33.138  34.727  1.00  0.00     0.074 A 
ATOM     41  C   UNL A   1      37.911  31.925  32.601  1.00  0.00     0.049 A 
ATOM     42  N   UNL A   1      39.307  32.600  35.167  1.00  0.00    -0.248 NA
ATOM     43  C   UNL A   1      37.641  34.176  35.609  1.00  0.00     0.031 C 
ATOM     44  C   UNL A   1      37.302  31.570  31.319  1.00  0.00     0.029 A 
ATOM     45  N   UNL A   1      39.020  31.117  32.676  1.00  0.00    -0.354 N 
ATOM     46  C   UNL A   1      39.586  33.234  36.371  1.00  0.00     0.074 A 
ATOM     47  C   UNL A   1      38.554  34.232  36.567  1.00  0.00     0.031 C 
ATOM     48  C   UNL A   1      38.033  30.608  30.736  1.00  0.00     0.029 A 
ATOM     49  C   UNL A   1      39.181  30.298  31.585  1.00  0.00     0.049 A 
ATOM     50  H   UNL A   1      39.642  31.124  33.440  1.00  0.00     0.167 HD
ATOM     51  C   UNL A   1      40.594  32.999  37.245  1.00  0.00     0.037 A 
ATOM     52  C   UNL A   1      40.146  29.404  31.293  1.00  0.00     0.037 A 
ATOM     53  C   UNL A   1      41.618  32.001  37.062  1.00  0.00     0.049 A 
ATOM     54  C   UNL A   1      41.267  29.173  32.268  1.00  0.00     0.074 A 
ATOM     55  C   UNL A   1      42.652  31.660  37.918  1.00  0.00     0.029 A 
ATOM     56  N   UNL A   1      41.742  31.190  35.945  1.00  0.00    -0.354 N 
ATOM     57  N   UNL A   1      41.480  29.737  33.431  1.00  0.00    -0.248 NA
ATOM     58  C   UNL A   1      42.279  28.174  31.892  1.00  0.00     0.031 C 
ATOM     59  C   UNL A   1      43.427  30.673  37.299  1.00  0.00     0.029 A 
ATOM     60  C   UNL A   1      42.848  30.364  36.080  1.00  0.00     0.049 A 
ATOM     61  H   UNL A   1      41.134  31.197  35.170  1.00  0.00     0.167 HD
ATOM     62  C   UNL A   1      42.632  29.145  33.936  1.00  0.00     0.074 A 
ATOM     63  C   UNL A   1      43.064  28.168  32.959  1.00  0.00     0.031 C 
ATOM     64  C   UNL A   1      43.271  29.391  35.105  1.00  0.00     0.037 A 
BRANCH  51  65
ATOM     65  C   UNL A   1      40.641  33.837  38.490  1.00  0.00     0.057 A 
ATOM     66  C   UNL A   1      39.908  33.498  39.634  1.00  0.00     0.134 A 
ATOM     67  C   UNL A   1      41.458  34.973  38.560  1.00  0.00     0.134 A 
ATOM     68  F   UNL A   1      39.101  32.426  39.631  1.00  0.00    -0.206 F 
ATOM     69  C   UNL A   1      39.965  34.272  40.795  1.00  0.00     0.040 A 
ATOM     70  C   UNL A   1      41.544  35.740  39.723  1.00  0.00     0.040 A 
ATOM     71  F   UNL A   1      42.194  35.349  37.503  1.00  0.00    -0.206 F 
ATOM     72  C   UNL A   1      40.790  35.394  40.841  1.00  0.00     0.006 A 
ENDBRANCH  51  65
BRANCH  52  73
ATOM     73  C   UNL A   1      40.090  28.645  30.018  1.00  0.00     0.057 A 
ATOM     74  C   UNL A   1      40.761  29.098  28.876  1.00  0.00     0.134 A 
ATOM     75  C   UNL A   1      39.357  27.458  29.908  1.00  0.00     0.134 A 
ATOM     76  F   UNL A   1      41.462  30.240  28.914  1.00  0.00    -0.206 F 
ATOM     77  C   UNL A   1      40.693  28.406  27.666  1.00  0.00     0.040 A 
ATOM     78  C   UNL A   1      39.299  26.743  28.710  1.00  0.00     0.040 A 
ATOM     79  F   UNL A   1      38.694  26.970  30.967  1.00  0.00    -0.206 F 
ATOM     80  C   UNL A   1      39.963  27.221  27.582  1.00  0.00     0.006 A 
ENDBRANCH  52  73
BRANCH  64  81
ATOM     81  C   UNL A   1      44.491  28.570  35.411  1.00  0.00     0.057 A 
ATOM     82  C   UNL A   1      45.776  28.991  35.050  1.00  0.00     0.134 A 
ATOM     83  C   UNL A   1      44.379  27.360  36.107  1.00  0.00     0.134 A 
ATOM     84  F   UNL A   1      45.951  30.134  34.368  1.00  0.00    -0.206 F 
ATOM     85  C   UNL A   1      46.906  28.227  35.351  1.00  0.00     0.040 A 
ATOM     86  C   UNL A   1      45.503  26.600  36.437  1.00  0.00     0.040 A 
ATOM     87  F   UNL A   1      43.178  26.902  36.491  1.00  0.00    -0.206 F 
ATOM     88  C   UNL A   1      46.771  27.031  36.053  1.00  0.00     0.006 A 
ENDBRANCH  64  81
ENDBRANCH  38  39
ENDBRANCH  30  33
ENDBRANCH  28  29
ENDBRANCH  27  28
ENDBRANCH  26  27
ENDBRANCH   1  26
TORSDOF 16
ENDMDL
