MODEL 1
REMARK VINA RESULT:     -11.1      0.000      0.000
REMARK SMILES C[C@@H]1[C@@H](C(=O)NCCCCNC(=O)c2ccc(-c3c4nc(c(-c5c(F)cccc5F)c5ccc([nH]5)c(-c5c(F)cccc5F)c5nc(c(-c6c(F)cccc6F)c6ccc3[nH]6)C=C5)C=C4)cc2)CCN1C(=O)CCCSc1ccccc1
REMARK SMILES IDX 4 1 5 2 6 3 3 5 1 6 2 7 70 8 68 9 69 10 71 11 72 12 73 13
REMARK SMILES IDX 74 14 75 15 76 16 77 17 78 18 82 19 79 20 81 21 80 22 7 23
REMARK SMILES IDX 8 24 9 25 10 26 11 27 12 28 13 30 14 31 15 32 67 33 16 34
REMARK SMILES IDX 66 35 17 36 18 37 19 38 60 39 20 40 65 41 59 42 61 43 21 44
REMARK SMILES IDX 64 45 58 46 57 47 22 49 48 50 31 51 47 52 32 53 35 54 46 55
REMARK SMILES IDX 62 56 33 57 34 58 45 60 63 61 36 62 23 63 24 64 29 65 25 66
REMARK SMILES IDX 26 67 28 68 30 69 27 70 49 71 50 72 55 73 51 74 52 75 54 76
REMARK SMILES IDX 56 77 53 78 37 79 38 80 43 81 39 82 40 83 42 84 44 85 41 86
REMARK H PARENT 6 4 11 29 61 48 35 59
REMARK Flexibility Score: inf
ROOT
ATOM      1  C   UNL A   1      33.541  28.502  24.575  1.00  0.00     0.225 C 
ATOM      2  O   UNL A   1      34.294  28.329  23.619  1.00  0.00    -0.275 OA
ATOM      3  N   UNL A   1      33.647  29.662  25.284  1.00  0.00    -0.356 N 
ATOM      4  H   UNL A   1      34.325  30.303  24.971  1.00  0.00     0.163 HD
ENDROOT
BRANCH   1   5
ATOM      5  C   UNL A   1      32.533  27.465  25.056  1.00  0.00     0.102 C 
ATOM      6  C   UNL A   1      32.400  25.069  25.772  1.00  0.00     0.032 C 
ATOM      7  C   UNL A   1      33.021  26.042  24.775  1.00  0.00     0.094 C 
ATOM      8  N   UNL A   1      32.587  25.798  23.399  1.00  0.00    -0.339 N 
ATOM      9  C   UNL A   1      31.213  27.499  24.275  1.00  0.00     0.037 C 
ATOM     10  C   UNL A   1      31.524  26.703  23.016  1.00  0.00     0.120 C 
BRANCH   8  11
ATOM     11  C   UNL A   1      33.269  25.078  22.436  1.00  0.00     0.222 C 
ATOM     12  O   UNL A   1      33.436  25.509  21.294  1.00  0.00    -0.275 OA
BRANCH  11  13
ATOM     13  C   UNL A   1      33.700  23.670  22.798  1.00  0.00     0.101 C 
BRANCH  13  14
ATOM     14  C   UNL A   1      32.609  22.639  23.072  1.00  0.00     0.021 C 
BRANCH  14  15
ATOM     15  C   UNL A   1      33.045  21.350  23.789  1.00  0.00     0.075 C 
BRANCH  15  16
ATOM     16  S   UNL A   1      33.514  21.401  25.578  1.00  0.00    -0.126 SA
BRANCH  16  17
ATOM     17  C   UNL A   1      35.209  21.948  25.596  1.00  0.00     0.007 A 
ATOM     18  C   UNL A   1      35.575  23.234  26.012  1.00  0.00     0.015 A 
ATOM     19  C   UNL A   1      36.204  21.085  25.125  1.00  0.00     0.015 A 
ATOM     20  C   UNL A   1      36.925  23.614  26.032  1.00  0.00     0.001 A 
ATOM     21  C   UNL A   1      37.551  21.449  25.178  1.00  0.00     0.001 A 
ATOM     22  C   UNL A   1      37.913  22.711  25.641  1.00  0.00     0.000 A 
ENDBRANCH  16  17
ENDBRANCH  15  16
ENDBRANCH  14  15
ENDBRANCH  13  14
ENDBRANCH  11  13
ENDBRANCH   8  11
ENDBRANCH   1   5
BRANCH   3  23
ATOM     23  C   UNL A   1      32.876  30.057  26.443  1.00  0.00     0.116 C 
BRANCH  23  24
ATOM     24  C   UNL A   1      31.584  30.767  26.080  1.00  0.00     0.023 C 
BRANCH  24  25
ATOM     25  C   UNL A   1      31.350  32.076  26.827  1.00  0.00     0.023 C 
BRANCH  25  26
ATOM     26  C   UNL A   1      32.613  32.830  27.223  1.00  0.00     0.116 C 
BRANCH  26  27
ATOM     27  N   UNL A   1      32.354  34.209  27.615  1.00  0.00    -0.352 N 
ATOM     28  C   UNL A   1      32.990  34.975  28.560  1.00  0.00     0.251 C 
ATOM     29  H   UNL A   1      31.618  34.653  27.136  1.00  0.00     0.163 HD
ATOM     30  O   UNL A   1      32.550  36.079  28.866  1.00  0.00    -0.269 OA
BRANCH  28  31
ATOM     31  C   UNL A   1      34.188  34.438  29.229  1.00  0.00     0.039 A 
ATOM     32  C   UNL A   1      34.035  33.707  30.407  1.00  0.00     0.014 A 
ATOM     33  C   UNL A   1      35.450  34.612  28.656  1.00  0.00     0.014 A 
ATOM     34  C   UNL A   1      35.147  33.083  30.974  1.00  0.00     0.010 A 
ATOM     35  C   UNL A   1      36.534  33.909  29.166  1.00  0.00     0.010 A 
ATOM     36  C   UNL A   1      36.396  33.146  30.335  1.00  0.00    -0.014 A 
BRANCH  36  37
ATOM     37  C   UNL A   1      37.581  32.442  30.884  1.00  0.00     0.031 A 
ATOM     38  C   UNL A   1      38.241  32.958  32.132  1.00  0.00     0.074 A 
ATOM     39  C   UNL A   1      38.100  31.387  30.228  1.00  0.00     0.049 A 
ATOM     40  N   UNL A   1      39.325  32.536  32.731  1.00  0.00    -0.248 NA
ATOM     41  C   UNL A   1      37.617  34.127  32.775  1.00  0.00     0.031 C 
ATOM     42  C   UNL A   1      37.582  30.822  28.980  1.00  0.00     0.029 A 
ATOM     43  N   UNL A   1      39.189  30.603  30.518  1.00  0.00    -0.354 N 
ATOM     44  C   UNL A   1      39.521  33.396  33.804  1.00  0.00     0.074 A 
ATOM     45  C   UNL A   1      38.484  34.401  33.737  1.00  0.00     0.031 C 
ATOM     46  C   UNL A   1      38.334  29.766  28.630  1.00  0.00     0.029 A 
ATOM     47  C   UNL A   1      39.409  29.603  29.603  1.00  0.00     0.049 A 
ATOM     48  H   UNL A   1      39.759  30.745  31.309  1.00  0.00     0.167 HD
ATOM     49  C   UNL A   1      40.460  33.336  34.776  1.00  0.00     0.037 A 
ATOM     50  C   UNL A   1      40.371  28.663  29.555  1.00  0.00     0.037 A 
ATOM     51  C   UNL A   1      41.474  32.318  34.855  1.00  0.00     0.049 A 
ATOM     52  C   UNL A   1      41.408  28.619  30.644  1.00  0.00     0.074 A 
ATOM     53  C   UNL A   1      42.440  32.136  35.828  1.00  0.00     0.029 A 
ATOM     54  N   UNL A   1      41.650  31.309  33.920  1.00  0.00    -0.354 N 
ATOM     55  N   UNL A   1      41.542  29.399  31.690  1.00  0.00    -0.248 NA
ATOM     56  C   UNL A   1      42.421  27.559  30.551  1.00  0.00     0.031 C 
ATOM     57  C   UNL A   1      43.230  31.043  35.458  1.00  0.00     0.029 A 
ATOM     58  C   UNL A   1      42.721  30.510  34.284  1.00  0.00     0.049 A 
ATOM     59  H   UNL A   1      41.096  31.179  33.116  1.00  0.00     0.167 HD
ATOM     60  C   UNL A   1      42.630  28.901  32.398  1.00  0.00     0.074 A 
ATOM     61  C   UNL A   1      43.112  27.748  31.666  1.00  0.00     0.031 C 
ATOM     62  C   UNL A   1      43.178  29.358  33.551  1.00  0.00     0.037 A 
BRANCH  49  63
ATOM     63  C   UNL A   1      40.427  34.404  35.833  1.00  0.00     0.057 A 
ATOM     64  C   UNL A   1      41.152  35.596  35.701  1.00  0.00     0.134 A 
ATOM     65  C   UNL A   1      39.653  34.245  36.988  1.00  0.00     0.134 A 
ATOM     66  F   UNL A   1      41.927  35.807  34.626  1.00  0.00    -0.206 F 
ATOM     67  C   UNL A   1      41.136  36.576  36.696  1.00  0.00     0.040 A 
ATOM     68  C   UNL A   1      39.603  35.230  37.975  1.00  0.00     0.040 A 
ATOM     69  F   UNL A   1      38.929  33.130  37.176  1.00  0.00    -0.206 F 
ATOM     70  C   UNL A   1      40.353  36.397  37.834  1.00  0.00     0.006 A 
ENDBRANCH  49  63
BRANCH  50  71
ATOM     71  C   UNL A   1      40.383  27.665  28.455  1.00  0.00     0.057 A 
ATOM     72  C   UNL A   1      41.090  27.908  27.270  1.00  0.00     0.134 A 
ATOM     73  C   UNL A   1      39.688  26.455  28.553  1.00  0.00     0.134 A 
ATOM     74  F   UNL A   1      41.762  29.058  27.109  1.00  0.00    -0.206 F 
ATOM     75  C   UNL A   1      41.085  26.994  26.215  1.00  0.00     0.040 A 
ATOM     76  C   UNL A   1      39.696  25.520  27.516  1.00  0.00     0.040 A 
ATOM     77  F   UNL A   1      38.999  26.157  29.665  1.00  0.00    -0.206 F 
ATOM     78  C   UNL A   1      40.390  25.793  26.339  1.00  0.00     0.006 A 
ENDBRANCH  50  71
BRANCH  62  79
ATOM     79  C   UNL A   1      44.328  28.578  34.121  1.00  0.00     0.057 A 
ATOM     80  C   UNL A   1      44.135  27.499  34.993  1.00  0.00     0.134 A 
ATOM     81  C   UNL A   1      45.644  28.890  33.758  1.00  0.00     0.134 A 
ATOM     82  F   UNL A   1      42.900  27.157  35.390  1.00  0.00    -0.206 F 
ATOM     83  C   UNL A   1      45.213  26.773  35.503  1.00  0.00     0.040 A 
ATOM     84  C   UNL A   1      46.728  28.154  34.236  1.00  0.00     0.040 A 
ATOM     85  F   UNL A   1      45.897  29.905  32.917  1.00  0.00    -0.206 F 
ATOM     86  C   UNL A   1      46.514  27.096  35.118  1.00  0.00     0.006 A 
ENDBRANCH  62  79
ENDBRANCH  36  37
ENDBRANCH  28  31
ENDBRANCH  26  27
ENDBRANCH  25  26
ENDBRANCH  24  25
ENDBRANCH  23  24
ENDBRANCH   3  23
TORSDOF 17
ENDMDL
MODEL 2
REMARK VINA RESULT:     -11.1      4.862     10.079
REMARK SMILES C[C@@H]1[C@@H](C(=O)NCCCCNC(=O)c2ccc(-c3c4nc(c(-c5c(F)cccc5F)c5ccc([nH]5)c(-c5c(F)cccc5F)c5nc(c(-c6c(F)cccc6F)c6ccc3[nH]6)C=C5)C=C4)cc2)CCN1C(=O)CCCSc1ccccc1
REMARK SMILES IDX 4 1 5 2 6 3 3 5 1 6 2 7 70 8 68 9 69 10 71 11 72 12 73 13
REMARK SMILES IDX 74 14 75 15 76 16 77 17 78 18 82 19 79 20 81 21 80 22 7 23
REMARK SMILES IDX 8 24 9 25 10 26 11 27 12 28 13 30 14 31 15 32 67 33 16 34
REMARK SMILES IDX 66 35 17 36 18 37 19 38 60 39 20 40 65 41 59 42 61 43 21 44
REMARK SMILES IDX 64 45 58 46 57 47 22 49 48 50 31 51 47 52 32 53 35 54 46 55
REMARK SMILES IDX 62 56 33 57 34 58 45 60 63 61 36 62 23 63 24 64 29 65 25 66
REMARK SMILES IDX 26 67 28 68 30 69 27 70 49 71 50 72 55 73 51 74 52 75 54 76
REMARK SMILES IDX 56 77 53 78 37 79 38 80 43 81 39 82 40 83 42 84 44 85 41 86
REMARK H PARENT 6 4 11 29 61 48 35 59
REMARK Flexibility Score: inf
ROOT
ATOM      1  C   UNL A   1      34.430  22.172  26.226  1.00  0.00     0.225 C 
ATOM      2  O   UNL A   1      34.127  22.629  27.326  1.00  0.00    -0.275 OA
ATOM      3  N   UNL A   1      35.164  21.024  26.179  1.00  0.00    -0.356 N 
ATOM      4  H   UNL A   1      35.399  20.622  27.047  1.00  0.00     0.163 HD
ENDROOT
BRANCH   1   5
ATOM      5  C   UNL A   1      34.085  22.849  24.905  1.00  0.00     0.102 C 
ATOM      6  C   UNL A   1      33.732  25.124  23.919  1.00  0.00     0.032 C 
ATOM      7  C   UNL A   1      33.475  24.234  25.132  1.00  0.00     0.094 C 
ATOM      8  N   UNL A   1      32.054  23.953  25.337  1.00  0.00    -0.339 N 
ATOM      9  C   UNL A   1      32.961  22.139  24.138  1.00  0.00     0.037 C 
ATOM     10  C   UNL A   1      31.695  22.655  24.805  1.00  0.00     0.120 C 
BRANCH   8  11
ATOM     11  C   UNL A   1      31.201  24.611  26.203  1.00  0.00     0.222 C 
ATOM     12  O   UNL A   1      30.808  24.095  27.250  1.00  0.00    -0.275 OA
BRANCH  11  13
ATOM     13  C   UNL A   1      30.658  25.954  25.755  1.00  0.00     0.101 C 
BRANCH  13  14
ATOM     14  C   UNL A   1      30.307  26.125  24.279  1.00  0.00     0.021 C 
BRANCH  14  15
ATOM     15  C   UNL A   1      30.188  27.569  23.762  1.00  0.00     0.075 C 
BRANCH  15  16
ATOM     16  S   UNL A   1      31.710  28.510  23.290  1.00  0.00    -0.126 SA
BRANCH  16  17
ATOM     17  C   UNL A   1      32.446  29.003  24.835  1.00  0.00     0.007 A 
ATOM     18  C   UNL A   1      33.654  28.463  25.294  1.00  0.00     0.015 A 
ATOM     19  C   UNL A   1      31.768  29.918  25.647  1.00  0.00     0.015 A 
ATOM     20  C   UNL A   1      34.210  28.898  26.506  1.00  0.00     0.001 A 
ATOM     21  C   UNL A   1      32.337  30.379  26.836  1.00  0.00     0.001 A 
ATOM     22  C   UNL A   1      33.563  29.877  27.261  1.00  0.00     0.000 A 
ENDBRANCH  16  17
ENDBRANCH  15  16
ENDBRANCH  14  15
ENDBRANCH  13  14
ENDBRANCH  11  13
ENDBRANCH   8  11
ENDBRANCH   1   5
BRANCH   3  23
ATOM     23  C   UNL A   1      35.636  20.330  25.001  1.00  0.00     0.116 C 
BRANCH  23  24
ATOM     24  C   UNL A   1      37.080  20.655  24.662  1.00  0.00     0.023 C 
BRANCH  24  25
ATOM     25  C   UNL A   1      38.075  19.550  25.002  1.00  0.00     0.023 C 
BRANCH  25  26
ATOM     26  C   UNL A   1      39.302  20.002  25.783  1.00  0.00     0.116 C 
BRANCH  26  27
ATOM     27  N   UNL A   1      40.341  18.983  25.851  1.00  0.00    -0.352 N 
ATOM     28  C   UNL A   1      41.689  19.131  26.067  1.00  0.00     0.251 C 
ATOM     29  H   UNL A   1      40.033  18.057  25.723  1.00  0.00     0.163 HD
ATOM     30  O   UNL A   1      42.447  18.174  25.952  1.00  0.00    -0.269 OA
BRANCH  28  31
ATOM     31  C   UNL A   1      42.217  20.466  26.403  1.00  0.00     0.039 A 
ATOM     32  C   UNL A   1      42.615  21.316  25.371  1.00  0.00     0.014 A 
ATOM     33  C   UNL A   1      42.262  20.889  27.734  1.00  0.00     0.014 A 
ATOM     34  C   UNL A   1      42.989  22.626  25.671  1.00  0.00     0.010 A 
ATOM     35  C   UNL A   1      42.538  22.220  28.017  1.00  0.00     0.010 A 
ATOM     36  C   UNL A   1      42.915  23.099  26.991  1.00  0.00    -0.014 A 
BRANCH  36  37
ATOM     37  C   UNL A   1      43.249  24.504  27.328  1.00  0.00     0.031 A 
ATOM     38  C   UNL A   1      44.682  24.960  27.284  1.00  0.00     0.074 A 
ATOM     39  C   UNL A   1      42.282  25.347  27.736  1.00  0.00     0.049 A 
ATOM     40  N   UNL A   1      45.193  26.118  27.612  1.00  0.00    -0.248 NA
ATOM     41  C   UNL A   1      45.677  23.968  26.843  1.00  0.00     0.031 C 
ATOM     42  C   UNL A   1      40.863  25.012  27.871  1.00  0.00     0.029 A 
ATOM     43  N   UNL A   1      42.348  26.663  28.122  1.00  0.00    -0.354 N 
ATOM     44  C   UNL A   1      46.565  25.987  27.435  1.00  0.00     0.074 A 
ATOM     45  C   UNL A   1      46.812  24.620  27.036  1.00  0.00     0.031 C 
ATOM     46  C   UNL A   1      40.190  26.100  28.278  1.00  0.00     0.029 A 
ATOM     47  C   UNL A   1      41.133  27.197  28.473  1.00  0.00     0.049 A 
ATOM     48  H   UNL A   1      43.189  27.175  28.146  1.00  0.00     0.167 HD
ATOM     49  C   UNL A   1      47.529  26.928  27.564  1.00  0.00     0.037 A 
ATOM     50  C   UNL A   1      40.816  28.432  28.905  1.00  0.00     0.037 A 
ATOM     51  C   UNL A   1      47.274  28.295  27.936  1.00  0.00     0.049 A 
ATOM     52  C   UNL A   1      41.905  29.461  29.045  1.00  0.00     0.074 A 
ATOM     53  C   UNL A   1      48.173  29.341  28.043  1.00  0.00     0.029 A 
ATOM     54  N   UNL A   1      46.026  28.803  28.262  1.00  0.00    -0.354 N 
ATOM     55  N   UNL A   1      43.190  29.342  28.811  1.00  0.00    -0.248 NA
ATOM     56  C   UNL A   1      41.499  30.797  29.500  1.00  0.00     0.031 C 
ATOM     57  C   UNL A   1      47.475  30.472  28.477  1.00  0.00     0.029 A 
ATOM     58  C   UNL A   1      46.133  30.145  28.587  1.00  0.00     0.049 A 
ATOM     59  H   UNL A   1      45.188  28.287  28.262  1.00  0.00     0.167 HD
ATOM     60  C   UNL A   1      43.739  30.596  29.054  1.00  0.00     0.074 A 
ATOM     61  C   UNL A   1      42.645  31.460  29.445  1.00  0.00     0.031 C 
ATOM     62  C   UNL A   1      45.031  30.994  28.960  1.00  0.00     0.037 A 
BRANCH  49  63
ATOM     63  C   UNL A   1      48.945  26.505  27.296  1.00  0.00     0.057 A 
ATOM     64  C   UNL A   1      49.753  25.950  28.298  1.00  0.00     0.134 A 
ATOM     65  C   UNL A   1      49.504  26.642  26.019  1.00  0.00     0.134 A 
ATOM     66  F   UNL A   1      49.285  25.805  29.547  1.00  0.00    -0.206 F 
ATOM     67  C   UNL A   1      51.075  25.579  28.049  1.00  0.00     0.040 A 
ATOM     68  C   UNL A   1      50.814  26.245  25.750  1.00  0.00     0.040 A 
ATOM     69  F   UNL A   1      48.784  27.161  25.012  1.00  0.00    -0.206 F 
ATOM     70  C   UNL A   1      51.607  25.720  26.769  1.00  0.00     0.006 A 
ENDBRANCH  49  63
BRANCH  50  71
ATOM     71  C   UNL A   1      39.403  28.777  29.206  1.00  0.00     0.057 A 
ATOM     72  C   UNL A   1      38.559  29.286  28.211  1.00  0.00     0.134 A 
ATOM     73  C   UNL A   1      38.866  28.617  30.487  1.00  0.00     0.134 A 
ATOM     74  F   UNL A   1      39.022  29.479  26.967  1.00  0.00    -0.206 F 
ATOM     75  C   UNL A   1      37.238  29.645  28.486  1.00  0.00     0.040 A 
ATOM     76  C   UNL A   1      37.538  28.947  30.770  1.00  0.00     0.040 A 
ATOM     77  F   UNL A   1      39.618  28.126  31.483  1.00  0.00    -0.206 F 
ATOM     78  C   UNL A   1      36.723  29.471  29.768  1.00  0.00     0.006 A 
ENDBRANCH  50  71
BRANCH  62  79
ATOM     79  C   UNL A   1      45.326  32.441  29.233  1.00  0.00     0.057 A 
ATOM     80  C   UNL A   1      45.699  32.897  30.503  1.00  0.00     0.134 A 
ATOM     81  C   UNL A   1      45.274  33.382  28.197  1.00  0.00     0.134 A 
ATOM     82  F   UNL A   1      45.756  32.049  31.541  1.00  0.00    -0.206 F 
ATOM     83  C   UNL A   1      45.985  34.243  30.739  1.00  0.00     0.040 A 
ATOM     84  C   UNL A   1      45.586  34.724  28.412  1.00  0.00     0.040 A 
ATOM     85  F   UNL A   1      44.934  33.009  26.953  1.00  0.00    -0.206 F 
ATOM     86  C   UNL A   1      45.937  35.159  29.689  1.00  0.00     0.006 A 
ENDBRANCH  62  79
ENDBRANCH  36  37
ENDBRANCH  28  31
ENDBRANCH  26  27
ENDBRANCH  25  26
ENDBRANCH  24  25
ENDBRANCH  23  24
ENDBRANCH   3  23
TORSDOF 17
ENDMDL
MODEL 3
REMARK VINA RESULT:     -10.9      5.142      9.719
REMARK SMILES C[C@@H]1[C@@H](C(=O)NCCCCNC(=O)c2ccc(-c3c4nc(c(-c5c(F)cccc5F)c5ccc([nH]5)c(-c5c(F)cccc5F)c5nc(c(-c6c(F)cccc6F)c6ccc3[nH]6)C=C5)C=C4)cc2)CCN1C(=O)CCCSc1ccccc1
REMARK SMILES IDX 4 1 5 2 6 3 3 5 1 6 2 7 70 8 68 9 69 10 71 11 72 12 73 13
REMARK SMILES IDX 74 14 75 15 76 16 77 17 78 18 82 19 79 20 81 21 80 22 7 23
REMARK SMILES IDX 8 24 9 25 10 26 11 27 12 28 13 30 14 31 15 32 67 33 16 34
REMARK SMILES IDX 66 35 17 36 18 37 19 38 60 39 20 40 65 41 59 42 61 43 21 44
REMARK SMILES IDX 64 45 58 46 57 47 22 49 48 50 31 51 47 52 32 53 35 54 46 55
REMARK SMILES IDX 62 56 33 57 34 58 45 60 63 61 36 62 23 63 24 64 29 65 25 66
REMARK SMILES IDX 26 67 28 68 30 69 27 70 49 71 50 72 55 73 51 74 52 75 54 76
REMARK SMILES IDX 56 77 53 78 37 79 38 80 43 81 39 82 40 83 42 84 44 85 41 86
REMARK H PARENT 6 4 11 29 61 48 35 59
REMARK Flexibility Score: inf
ROOT
ATOM      1  C   UNL A   1      34.457  22.431  26.400  1.00  0.00     0.225 C 
ATOM      2  O   UNL A   1      34.136  22.917  27.483  1.00  0.00    -0.275 OA
ATOM      3  N   UNL A   1      35.218  21.299  26.396  1.00  0.00    -0.356 N 
ATOM      4  H   UNL A   1      35.455  20.931  27.277  1.00  0.00     0.163 HD
ENDROOT
BRANCH   1   5
ATOM      5  C   UNL A   1      34.106  23.057  25.055  1.00  0.00     0.102 C 
ATOM      6  C   UNL A   1      33.651  25.285  24.006  1.00  0.00     0.032 C 
ATOM      7  C   UNL A   1      33.415  24.410  25.234  1.00  0.00     0.094 C 
ATOM      8  N   UNL A   1      32.008  24.054  25.414  1.00  0.00    -0.339 N 
ATOM      9  C   UNL A   1      33.043  22.267  24.281  1.00  0.00     0.037 C 
ATOM     10  C   UNL A   1      31.734  22.726  24.906  1.00  0.00     0.120 C 
BRANCH   8  11
ATOM     11  C   UNL A   1      31.099  24.682  26.244  1.00  0.00     0.222 C 
ATOM     12  O   UNL A   1      30.652  24.139  27.255  1.00  0.00    -0.275 OA
BRANCH  11  13
ATOM     13  C   UNL A   1      30.566  26.030  25.796  1.00  0.00     0.101 C 
BRANCH  13  14
ATOM     14  C   UNL A   1      30.257  26.217  24.313  1.00  0.00     0.021 C 
BRANCH  14  15
ATOM     15  C   UNL A   1      30.163  27.666  23.807  1.00  0.00     0.075 C 
BRANCH  15  16
ATOM     16  S   UNL A   1      31.698  28.575  23.314  1.00  0.00    -0.126 SA
BRANCH  16  17
ATOM     17  C   UNL A   1      32.461  29.060  24.848  1.00  0.00     0.007 A 
ATOM     18  C   UNL A   1      33.664  28.499  25.295  1.00  0.00     0.015 A 
ATOM     19  C   UNL A   1      31.809  29.991  25.663  1.00  0.00     0.015 A 
ATOM     20  C   UNL A   1      34.241  28.929  26.499  1.00  0.00     0.001 A 
ATOM     21  C   UNL A   1      32.400  30.446  26.844  1.00  0.00     0.001 A 
ATOM     22  C   UNL A   1      33.622  29.922  27.258  1.00  0.00     0.000 A 
ENDBRANCH  16  17
ENDBRANCH  15  16
ENDBRANCH  14  15
ENDBRANCH  13  14
ENDBRANCH  11  13
ENDBRANCH   8  11
ENDBRANCH   1   5
BRANCH   3  23
ATOM     23  C   UNL A   1      35.714  20.579  25.243  1.00  0.00     0.116 C 
BRANCH  23  24
ATOM     24  C   UNL A   1      37.099  21.031  24.814  1.00  0.00     0.023 C 
BRANCH  24  25
ATOM     25  C   UNL A   1      38.167  19.943  24.873  1.00  0.00     0.023 C 
BRANCH  25  26
ATOM     26  C   UNL A   1      39.368  20.264  25.752  1.00  0.00     0.116 C 
BRANCH  26  27
ATOM     27  N   UNL A   1      40.294  19.146  25.882  1.00  0.00    -0.352 N 
ATOM     28  C   UNL A   1      41.645  19.162  26.124  1.00  0.00     0.251 C 
ATOM     29  H   UNL A   1      39.893  18.252  25.779  1.00  0.00     0.163 HD
ATOM     30  O   UNL A   1      42.301  18.127  26.061  1.00  0.00    -0.269 OA
BRANCH  28  31
ATOM     31  C   UNL A   1      42.302  20.446  26.425  1.00  0.00     0.039 A 
ATOM     32  C   UNL A   1      42.854  21.186  25.379  1.00  0.00     0.014 A 
ATOM     33  C   UNL A   1      42.319  20.938  27.733  1.00  0.00     0.014 A 
ATOM     34  C   UNL A   1      43.358  22.461  25.635  1.00  0.00     0.010 A 
ATOM     35  C   UNL A   1      42.730  22.243  27.966  1.00  0.00     0.010 A 
ATOM     36  C   UNL A   1      43.263  23.014  26.923  1.00  0.00    -0.014 A 
BRANCH  36  37
ATOM     37  C   UNL A   1      43.737  24.390  27.209  1.00  0.00     0.031 A 
ATOM     38  C   UNL A   1      42.750  25.447  27.622  1.00  0.00     0.074 A 
ATOM     39  C   UNL A   1      45.034  24.706  27.034  1.00  0.00     0.049 A 
ATOM     40  N   UNL A   1      42.945  26.721  27.844  1.00  0.00    -0.248 NA
ATOM     41  C   UNL A   1      41.349  25.019  27.773  1.00  0.00     0.031 C 
ATOM     42  C   UNL A   1      46.081  23.784  26.587  1.00  0.00     0.029 A 
ATOM     43  N   UNL A   1      45.694  25.897  27.203  1.00  0.00    -0.354 N 
ATOM     44  C   UNL A   1      41.694  27.247  28.141  1.00  0.00     0.074 A 
ATOM     45  C   UNL A   1      40.739  26.171  28.007  1.00  0.00     0.031 C 
ATOM     46  C   UNL A   1      47.254  24.435  26.548  1.00  0.00     0.029 A 
ATOM     47  C   UNL A   1      47.038  25.828  26.926  1.00  0.00     0.049 A 
ATOM     48  H   UNL A   1      45.246  26.724  27.496  1.00  0.00     0.167 HD
ATOM     49  C   UNL A   1      41.373  28.505  28.523  1.00  0.00     0.037 A 
ATOM     50  C   UNL A   1      47.986  26.782  26.970  1.00  0.00     0.037 A 
ATOM     51  C   UNL A   1      42.331  29.567  28.681  1.00  0.00     0.049 A 
ATOM     52  C   UNL A   1      47.605  28.175  27.392  1.00  0.00     0.074 A 
ATOM     53  C   UNL A   1      42.118  30.864  29.114  1.00  0.00     0.029 A 
ATOM     54  N   UNL A   1      43.687  29.451  28.412  1.00  0.00    -0.354 N 
ATOM     55  N   UNL A   1      46.429  28.643  27.734  1.00  0.00    -0.248 NA
ATOM     56  C   UNL A   1      48.685  29.170  27.442  1.00  0.00     0.031 C 
ATOM     57  C   UNL A   1      43.337  31.546  29.063  1.00  0.00     0.029 A 
ATOM     58  C   UNL A   1      44.320  30.659  28.652  1.00  0.00     0.049 A 
ATOM     59  H   UNL A   1      44.133  28.632  28.096  1.00  0.00     0.167 HD
ATOM     60  C   UNL A   1      46.634  29.975  28.076  1.00  0.00     0.074 A 
ATOM     61  C   UNL A   1      48.048  30.235  27.907  1.00  0.00     0.031 C 
ATOM     62  C   UNL A   1      45.732  30.896  28.494  1.00  0.00     0.037 A 
BRANCH  49  63
ATOM     63  C   UNL A   1      39.924  28.794  28.795  1.00  0.00     0.057 A 
ATOM     64  C   UNL A   1      39.378  28.683  30.082  1.00  0.00     0.134 A 
ATOM     65  C   UNL A   1      39.068  29.201  27.765  1.00  0.00     0.134 A 
ATOM     66  F   UNL A   1      40.139  28.283  31.112  1.00  0.00    -0.206 F 
ATOM     67  C   UNL A   1      38.026  28.931  30.326  1.00  0.00     0.040 A 
ATOM     68  C   UNL A   1      37.722  29.482  28.002  1.00  0.00     0.040 A 
ATOM     69  F   UNL A   1      39.527  29.333  26.510  1.00  0.00    -0.206 F 
ATOM     70  C   UNL A   1      37.195  29.339  29.285  1.00  0.00     0.006 A 
ENDBRANCH  49  63
BRANCH  50  71
ATOM     71  C   UNL A   1      49.395  26.449  26.637  1.00  0.00     0.057 A 
ATOM     72  C   UNL A   1      49.886  26.617  25.337  1.00  0.00     0.134 A 
ATOM     73  C   UNL A   1      50.278  25.948  27.600  1.00  0.00     0.134 A 
ATOM     74  F   UNL A   1      49.083  27.077  24.366  1.00  0.00    -0.206 F 
ATOM     75  C   UNL A   1      51.198  26.279  25.001  1.00  0.00     0.040 A 
ATOM     76  C   UNL A   1      51.601  25.630  27.284  1.00  0.00     0.040 A 
ATOM     77  F   UNL A   1      49.872  25.773  28.866  1.00  0.00    -0.206 F 
ATOM     78  C   UNL A   1      52.061  25.788  25.978  1.00  0.00     0.006 A 
ENDBRANCH  50  71
BRANCH  62  79
ATOM     79  C   UNL A   1      46.255  32.259  28.848  1.00  0.00     0.057 A 
ATOM     80  C   UNL A   1      46.708  32.569  30.137  1.00  0.00     0.134 A 
ATOM     81  C   UNL A   1      46.344  33.259  27.872  1.00  0.00     0.134 A 
ATOM     82  F   UNL A   1      46.639  31.659  31.120  1.00  0.00    -0.206 F 
ATOM     83  C   UNL A   1      47.206  33.836  30.448  1.00  0.00     0.040 A 
ATOM     84  C   UNL A   1      46.868  34.519  28.162  1.00  0.00     0.040 A 
ATOM     85  F   UNL A   1      45.938  33.024  26.615  1.00  0.00    -0.206 F 
ATOM     86  C   UNL A   1      47.295  34.812  29.457  1.00  0.00     0.006 A 
ENDBRANCH  62  79
ENDBRANCH  36  37
ENDBRANCH  28  31
ENDBRANCH  26  27
ENDBRANCH  25  26
ENDBRANCH  24  25
ENDBRANCH  23  24
ENDBRANCH   3  23
TORSDOF 17
ENDMDL
