MODEL 1
REMARK VINA RESULT:     -11.4      0.000      0.000
REMARK SMILES CC[C@@](C)(NC(=O)Nc1c(C)cccc1Cl)C(=O)NCCCCNC(=O)c1ccc(-c2c3nc(c(-c4c(F)cccc4F)c4ccc([nH]4)c(-c4c(F)cccc4F)c4nc(c(-c5c(F)cccc5F)c5ccc2[nH]5)C=C4)C=C3)cc1
REMARK SMILES IDX 21 1 20 2 19 3 17 4 18 5 3 7 4 8 2 9 1 10 5 11 6 12 7 14
REMARK SMILES IDX 8 15 9 17 10 18 15 19 11 20 12 21 14 22 16 23 13 24 22 25
REMARK SMILES IDX 23 26 24 27 25 28 26 30 27 31 28 32 80 33 29 34 79 35 30 36
REMARK SMILES IDX 31 37 32 38 73 39 33 40 78 41 72 42 74 43 34 44 77 45 71 46
REMARK SMILES IDX 70 47 35 49 61 50 44 51 60 52 45 53 48 54 59 55 75 56 46 57
REMARK SMILES IDX 47 58 58 60 76 61 49 62 36 63 37 64 42 65 38 66 39 67 41 68
REMARK SMILES IDX 43 69 40 70 62 71 63 72 68 73 64 74 65 75 67 76 69 77 66 78
REMARK SMILES IDX 50 79 51 80 56 81 52 82 53 83 55 84 57 85 54 86
REMARK H PARENT 19 6 5 13 8 16 24 29 74 48 48 59
REMARK Flexibility Score: inf
ROOT
ATOM      1  C   UNL A   1      31.705  30.491  26.578  1.00  0.00     0.023 C 
ENDROOT
BRANCH   1   2
ATOM      2  C   UNL A   1      33.115  29.880  26.761  1.00  0.00     0.116 C 
BRANCH   2   3
ATOM      3  N   UNL A   1      33.816  29.508  25.542  1.00  0.00    -0.354 N 
ATOM      4  C   UNL A   1      33.406  28.773  24.423  1.00  0.00     0.245 C 
ATOM      5  O   UNL A   1      33.399  29.276  23.299  1.00  0.00    -0.272 OA
ATOM      6  H   UNL A   1      34.745  29.830  25.496  1.00  0.00     0.163 HD
BRANCH   4   7
ATOM      7  C   UNL A   1      32.904  27.339  24.653  1.00  0.00     0.117 C 
ATOM      8  C   UNL A   1      33.824  26.866  25.811  1.00  0.00     0.045 C 
BRANCH   7   9
ATOM      9  C   UNL A   1      31.448  26.992  25.061  1.00  0.00     0.035 C 
ATOM     10  C   UNL A   1      31.139  26.688  26.510  1.00  0.00     0.007 C 
ENDBRANCH   7   9
BRANCH   7  11
ATOM     11  N   UNL A   1      33.176  26.661  23.396  1.00  0.00    -0.324 N 
ATOM     12  C   UNL A   1      33.452  25.395  23.099  1.00  0.00     0.320 C 
ATOM     13  H   UNL A   1      33.152  27.256  22.612  1.00  0.00     0.166 HD
ATOM     14  O   UNL A   1      33.789  25.217  21.916  1.00  0.00    -0.248 OA
ATOM     15  N   UNL A   1      33.482  24.290  23.853  1.00  0.00    -0.306 N 
ATOM     16  H   UNL A   1      33.694  23.578  23.207  1.00  0.00     0.171 HD
BRANCH  15  17
ATOM     17  C   UNL A   1      33.369  23.587  25.102  1.00  0.00     0.064 A 
ATOM     18  C   UNL A   1      32.321  23.267  26.016  1.00  0.00    -0.026 A 
ATOM     19  C   UNL A   1      34.621  22.959  25.417  1.00  0.00     0.064 A 
ATOM     20  C   UNL A   1      30.855  22.949  25.747  1.00  0.00     0.046 C 
ATOM     21  C   UNL A   1      32.654  22.712  27.290  1.00  0.00     0.005 A 
ATOM     22  C   UNL A   1      34.881  22.272  26.606  1.00  0.00     0.023 A 
ATOM     23  Cl  UNL A   1      35.948  22.972  24.275  1.00  0.00    -0.082 Cl
ATOM     24  C   UNL A   1      33.910  22.208  27.578  1.00  0.00     0.002 A 
ENDBRANCH  15  17
ENDBRANCH   7  11
ENDBRANCH   4   7
ENDBRANCH   2   3
ENDBRANCH   1   2
BRANCH   1  25
ATOM     25  C   UNL A   1      31.447  31.988  26.821  1.00  0.00     0.023 C 
BRANCH  25  26
ATOM     26  C   UNL A   1      32.633  32.948  26.850  1.00  0.00     0.116 C 
BRANCH  26  27
ATOM     27  N   UNL A   1      32.420  34.144  27.633  1.00  0.00    -0.352 N 
ATOM     28  C   UNL A   1      33.144  34.683  28.659  1.00  0.00     0.251 C 
ATOM     29  H   UNL A   1      31.616  34.657  27.386  1.00  0.00     0.163 HD
ATOM     30  O   UNL A   1      32.754  35.751  29.159  1.00  0.00    -0.269 OA
BRANCH  28  31
ATOM     31  C   UNL A   1      34.346  34.031  29.232  1.00  0.00     0.039 A 
ATOM     32  C   UNL A   1      34.143  33.027  30.188  1.00  0.00     0.014 A 
ATOM     33  C   UNL A   1      35.654  34.417  28.918  1.00  0.00     0.014 A 
ATOM     34  C   UNL A   1      35.230  32.380  30.784  1.00  0.00     0.010 A 
ATOM     35  C   UNL A   1      36.743  33.733  29.479  1.00  0.00     0.010 A 
ATOM     36  C   UNL A   1      36.543  32.702  30.414  1.00  0.00    -0.014 A 
BRANCH  36  37
ATOM     37  C   UNL A   1      37.698  31.949  30.984  1.00  0.00     0.031 A 
ATOM     38  C   UNL A   1      38.220  32.252  32.363  1.00  0.00     0.074 A 
ATOM     39  C   UNL A   1      38.303  30.998  30.243  1.00  0.00     0.049 A 
ATOM     40  N   UNL A   1      39.238  31.723  32.998  1.00  0.00    -0.248 NA
ATOM     41  C   UNL A   1      37.519  33.296  33.122  1.00  0.00     0.031 C 
ATOM     42  C   UNL A   1      37.920  30.619  28.882  1.00  0.00     0.029 A 
ATOM     43  N   UNL A   1      39.374  30.183  30.524  1.00  0.00    -0.354 N 
ATOM     44  C   UNL A   1      39.303  32.372  34.224  1.00  0.00     0.074 A 
ATOM     45  C   UNL A   1      38.249  33.366  34.226  1.00  0.00     0.031 C 
ATOM     46  C   UNL A   1      38.731  29.640  28.453  1.00  0.00     0.029 A 
ATOM     47  C   UNL A   1      39.717  29.346  29.490  1.00  0.00     0.049 A 
ATOM     48  H   UNL A   1      39.850  30.199  31.385  1.00  0.00     0.167 HD
ATOM     49  C   UNL A   1      40.148  32.150  35.263  1.00  0.00     0.037 A 
ATOM     50  C   UNL A   1      40.718  28.451  29.377  1.00  0.00     0.037 A 
ATOM     51  C   UNL A   1      41.191  31.155  35.269  1.00  0.00     0.049 A 
ATOM     52  C   UNL A   1      41.659  28.244  30.532  1.00  0.00     0.074 A 
ATOM     53  C   UNL A   1      42.066  30.831  36.293  1.00  0.00     0.029 A 
ATOM     54  N   UNL A   1      41.502  30.326  34.202  1.00  0.00    -0.354 N 
ATOM     55  N   UNL A   1      41.671  28.828  31.705  1.00  0.00    -0.248 NA
ATOM     56  C   UNL A   1      42.725  27.247  30.348  1.00  0.00     0.031 C 
ATOM     57  C   UNL A   1      42.939  29.840  35.828  1.00  0.00     0.029 A 
ATOM     58  C   UNL A   1      42.572  29.508  34.535  1.00  0.00     0.049 A 
ATOM     59  H   UNL A   1      41.033  30.319  33.336  1.00  0.00     0.167 HD
ATOM     60  C   UNL A   1      42.722  28.250  32.408  1.00  0.00     0.074 A 
ATOM     61  C   UNL A   1      43.315  27.260  31.535  1.00  0.00     0.031 C 
ATOM     62  C   UNL A   1      43.154  28.519  33.664  1.00  0.00     0.037 A 
BRANCH  49  63
ATOM     63  C   UNL A   1      39.983  33.007  36.487  1.00  0.00     0.057 A 
ATOM     64  C   UNL A   1      40.735  34.174  36.678  1.00  0.00     0.134 A 
ATOM     65  C   UNL A   1      39.029  32.690  37.462  1.00  0.00     0.134 A 
ATOM     66  F   UNL A   1      41.670  34.534  35.785  1.00  0.00    -0.206 F 
ATOM     67  C   UNL A   1      40.564  34.978  37.806  1.00  0.00     0.040 A 
ATOM     68  C   UNL A   1      38.829  33.500  38.581  1.00  0.00     0.040 A 
ATOM     69  F   UNL A   1      38.264  31.594  37.338  1.00  0.00    -0.206 F 
ATOM     70  C   UNL A   1      39.604  34.645  38.760  1.00  0.00     0.006 A 
ENDBRANCH  49  63
BRANCH  50  71
ATOM     71  C   UNL A   1      40.883  27.675  28.122  1.00  0.00     0.057 A 
ATOM     72  C   UNL A   1      41.634  28.177  27.052  1.00  0.00     0.134 A 
ATOM     73  C   UNL A   1      40.280  26.422  27.953  1.00  0.00     0.134 A 
ATOM     74  F   UNL A   1      42.217  29.381  27.144  1.00  0.00    -0.206 F 
ATOM     75  C   UNL A   1      41.765  27.471  25.855  1.00  0.00     0.040 A 
ATOM     76  C   UNL A   1      40.425  25.693  26.772  1.00  0.00     0.040 A 
ATOM     77  F   UNL A   1      39.550  25.883  28.941  1.00  0.00    -0.206 F 
ATOM     78  C   UNL A   1      41.162  26.222  25.715  1.00  0.00     0.006 A 
ENDBRANCH  50  71
BRANCH  62  79
ATOM     79  C   UNL A   1      44.303  27.704  34.187  1.00  0.00     0.057 A 
ATOM     80  C   UNL A   1      44.121  26.420  34.717  1.00  0.00     0.134 A 
ATOM     81  C   UNL A   1      45.612  28.199  34.128  1.00  0.00     0.134 A 
ATOM     82  F   UNL A   1      42.892  25.892  34.816  1.00  0.00    -0.206 F 
ATOM     83  C   UNL A   1      45.198  25.667  35.190  1.00  0.00     0.040 A 
ATOM     84  C   UNL A   1      46.700  27.444  34.571  1.00  0.00     0.040 A 
ATOM     85  F   UNL A   1      45.859  29.418  33.625  1.00  0.00    -0.206 F 
ATOM     86  C   UNL A   1      46.493  26.177  35.111  1.00  0.00     0.006 A 
ENDBRANCH  62  79
ENDBRANCH  36  37
ENDBRANCH  28  31
ENDBRANCH  26  27
ENDBRANCH  25  26
ENDBRANCH   1  25
TORSDOF 14
ENDMDL
MODEL 2
REMARK VINA RESULT:     -11.4      4.714      8.997
REMARK SMILES CC[C@@](C)(NC(=O)Nc1c(C)cccc1Cl)C(=O)NCCCCNC(=O)c1ccc(-c2c3nc(c(-c4c(F)cccc4F)c4ccc([nH]4)c(-c4c(F)cccc4F)c4nc(c(-c5c(F)cccc5F)c5ccc2[nH]5)C=C4)C=C3)cc1
REMARK SMILES IDX 21 1 20 2 19 3 17 4 18 5 3 7 4 8 2 9 1 10 5 11 6 12 7 14
REMARK SMILES IDX 8 15 9 17 10 18 15 19 11 20 12 21 14 22 16 23 13 24 22 25
REMARK SMILES IDX 23 26 24 27 25 28 26 30 27 31 28 32 80 33 29 34 79 35 30 36
REMARK SMILES IDX 31 37 32 38 73 39 33 40 78 41 72 42 74 43 34 44 77 45 71 46
REMARK SMILES IDX 70 47 35 49 61 50 44 51 60 52 45 53 48 54 59 55 75 56 46 57
REMARK SMILES IDX 47 58 58 60 76 61 49 62 36 63 37 64 42 65 38 66 39 67 41 68
REMARK SMILES IDX 43 69 40 70 62 71 63 72 68 73 64 74 65 75 67 76 69 77 66 78
REMARK SMILES IDX 50 79 51 80 56 81 52 82 53 83 55 84 57 85 54 86
REMARK H PARENT 19 6 5 13 8 16 24 29 74 48 48 59
REMARK Flexibility Score: inf
ROOT
ATOM      1  C   UNL A   1      36.368  20.344  24.970  1.00  0.00     0.023 C 
ENDROOT
BRANCH   1   2
ATOM      2  C   UNL A   1      36.236  21.858  25.262  1.00  0.00     0.116 C 
BRANCH   2   3
ATOM      3  N   UNL A   1      35.547  22.215  26.492  1.00  0.00    -0.354 N 
ATOM      4  C   UNL A   1      34.190  22.183  26.839  1.00  0.00     0.245 C 
ATOM      5  O   UNL A   1      33.789  21.488  27.774  1.00  0.00    -0.272 OA
ATOM      6  H   UNL A   1      36.139  22.539  27.208  1.00  0.00     0.163 HD
BRANCH   4   7
ATOM      7  C   UNL A   1      33.211  22.991  25.974  1.00  0.00     0.117 C 
ATOM      8  C   UNL A   1      33.745  24.437  26.164  1.00  0.00     0.045 C 
BRANCH   7   9
ATOM      9  C   UNL A   1      33.027  22.772  24.449  1.00  0.00     0.035 C 
ATOM     10  C   UNL A   1      32.738  21.381  23.932  1.00  0.00     0.007 C 
ENDBRANCH   7   9
BRANCH   7  11
ATOM     11  N   UNL A   1      31.918  22.774  26.603  1.00  0.00    -0.324 N 
ATOM     12  C   UNL A   1      30.841  23.542  26.733  1.00  0.00     0.320 C 
ATOM     13  H   UNL A   1      31.822  21.884  27.014  1.00  0.00     0.166 HD
ATOM     14  O   UNL A   1      29.971  23.068  27.482  1.00  0.00    -0.248 OA
ATOM     15  N   UNL A   1      30.547  24.752  26.242  1.00  0.00    -0.306 N 
ATOM     16  H   UNL A   1      29.629  24.911  26.562  1.00  0.00     0.171 HD
BRANCH  15  17
ATOM     17  C   UNL A   1      30.855  25.943  25.499  1.00  0.00     0.064 A 
ATOM     18  C   UNL A   1      31.384  27.235  25.791  1.00  0.00    -0.026 A 
ATOM     19  C   UNL A   1      30.690  25.691  24.094  1.00  0.00     0.064 A 
ATOM     20  C   UNL A   1      32.430  27.651  26.820  1.00  0.00     0.046 C 
ATOM     21  C   UNL A   1      31.347  28.247  24.783  1.00  0.00     0.005 A 
ATOM     22  C   UNL A   1      30.821  26.664  23.099  1.00  0.00     0.023 A 
ATOM     23  Cl  UNL A   1      30.343  24.081  23.503  1.00  0.00    -0.082 Cl
ATOM     24  C   UNL A   1      31.084  27.966  23.455  1.00  0.00     0.002 A 
ENDBRANCH  15  17
ENDBRANCH   7  11
ENDBRANCH   4   7
ENDBRANCH   2   3
ENDBRANCH   1   2
BRANCH   1  25
ATOM     25  C   UNL A   1      37.746  19.673  24.836  1.00  0.00     0.023 C 
BRANCH  25  26
ATOM     26  C   UNL A   1      38.850  20.049  25.820  1.00  0.00     0.116 C 
BRANCH  26  27
ATOM     27  N   UNL A   1      40.053  19.256  25.707  1.00  0.00    -0.352 N 
ATOM     28  C   UNL A   1      41.342  19.530  26.068  1.00  0.00     0.251 C 
ATOM     29  H   UNL A   1      39.922  18.370  25.299  1.00  0.00     0.163 HD
ATOM     30  O   UNL A   1      42.205  18.656  25.881  1.00  0.00    -0.269 OA
BRANCH  28  31
ATOM     31  C   UNL A   1      41.767  20.834  26.630  1.00  0.00     0.039 A 
ATOM     32  C   UNL A   1      42.159  21.830  25.726  1.00  0.00     0.014 A 
ATOM     33  C   UNL A   1      41.859  21.087  28.003  1.00  0.00     0.014 A 
ATOM     34  C   UNL A   1      42.588  23.080  26.184  1.00  0.00     0.010 A 
ATOM     35  C   UNL A   1      42.241  22.357  28.461  1.00  0.00     0.010 A 
ATOM     36  C   UNL A   1      42.605  23.370  27.557  1.00  0.00    -0.014 A 
BRANCH  36  37
ATOM     37  C   UNL A   1      42.976  24.732  28.039  1.00  0.00     0.031 A 
ATOM     38  C   UNL A   1      41.927  25.780  28.297  1.00  0.00     0.074 A 
ATOM     39  C   UNL A   1      44.276  25.041  28.222  1.00  0.00     0.049 A 
ATOM     40  N   UNL A   1      42.075  27.025  28.679  1.00  0.00    -0.248 NA
ATOM     41  C   UNL A   1      40.529  25.383  28.081  1.00  0.00     0.031 C 
ATOM     42  C   UNL A   1      45.400  24.133  27.986  1.00  0.00     0.029 A 
ATOM     43  N   UNL A   1      44.875  26.206  28.639  1.00  0.00    -0.354 N 
ATOM     44  C   UNL A   1      40.795  27.560  28.744  1.00  0.00     0.074 A 
ATOM     45  C   UNL A   1      39.884  26.518  28.317  1.00  0.00     0.031 C 
ATOM     46  C   UNL A   1      46.547  24.769  28.274  1.00  0.00     0.029 A 
ATOM     47  C   UNL A   1      46.247  26.139  28.678  1.00  0.00     0.049 A 
ATOM     48  H   UNL A   1      44.367  27.013  28.887  1.00  0.00     0.167 HD
ATOM     49  C   UNL A   1      40.408  28.799  29.141  1.00  0.00     0.037 A 
ATOM     50  C   UNL A   1      47.165  27.075  28.990  1.00  0.00     0.037 A 
ATOM     51  C   UNL A   1      41.310  29.836  29.576  1.00  0.00     0.049 A 
ATOM     52  C   UNL A   1      46.712  28.450  29.399  1.00  0.00     0.074 A 
ATOM     53  C   UNL A   1      41.004  31.106  30.036  1.00  0.00     0.029 A 
ATOM     54  N   UNL A   1      42.692  29.725  29.603  1.00  0.00    -0.354 N 
ATOM     55  N   UNL A   1      45.494  28.922  29.508  1.00  0.00    -0.248 NA
ATOM     56  C   UNL A   1      47.764  29.422  29.734  1.00  0.00     0.031 C 
ATOM     57  C   UNL A   1      42.203  31.781  30.295  1.00  0.00     0.029 A 
ATOM     58  C   UNL A   1      43.253  30.914  30.049  1.00  0.00     0.049 A 
ATOM     59  H   UNL A   1      43.200  28.923  29.344  1.00  0.00     0.167 HD
ATOM     60  C   UNL A   1      45.631  30.232  29.951  1.00  0.00     0.074 A 
ATOM     61  C   UNL A   1      47.049  30.475  30.105  1.00  0.00     0.031 C 
ATOM     62  C   UNL A   1      44.666  31.147  30.206  1.00  0.00     0.037 A 
BRANCH  49  63
ATOM     63  C   UNL A   1      38.937  29.108  29.118  1.00  0.00     0.057 A 
ATOM     64  C   UNL A   1      38.146  29.014  30.271  1.00  0.00     0.134 A 
ATOM     65  C   UNL A   1      38.314  29.550  27.945  1.00  0.00     0.134 A 
ATOM     66  F   UNL A   1      38.678  28.592  31.429  1.00  0.00    -0.206 F 
ATOM     67  C   UNL A   1      36.785  29.321  30.251  1.00  0.00     0.040 A 
ATOM     68  C   UNL A   1      36.959  29.887  27.918  1.00  0.00     0.040 A 
ATOM     69  F   UNL A   1      39.013  29.676  26.806  1.00  0.00    -0.206 F 
ATOM     70  C   UNL A   1      36.188  29.766  29.072  1.00  0.00     0.006 A 
ENDBRANCH  49  63
BRANCH  50  71
ATOM     71  C   UNL A   1      48.612  26.744  28.932  1.00  0.00     0.057 A 
ATOM     72  C   UNL A   1      49.369  26.996  27.781  1.00  0.00     0.134 A 
ATOM     73  C   UNL A   1      49.269  26.152  30.018  1.00  0.00     0.134 A 
ATOM     74  F   UNL A   1      48.791  27.539  26.700  1.00  0.00    -0.206 F 
ATOM     75  C   UNL A   1      50.719  26.655  27.705  1.00  0.00     0.040 A 
ATOM     76  C   UNL A   1      50.627  25.832  29.966  1.00  0.00     0.040 A 
ATOM     77  F   UNL A   1      48.602  25.889  31.152  1.00  0.00    -0.206 F 
ATOM     78  C   UNL A   1      51.354  26.075  28.802  1.00  0.00     0.006 A 
ENDBRANCH  50  71
BRANCH  62  79
ATOM     79  C   UNL A   1      45.107  32.490  30.717  1.00  0.00     0.057 A 
ATOM     80  C   UNL A   1      45.367  33.563  29.855  1.00  0.00     0.134 A 
ATOM     81  C   UNL A   1      45.239  32.720  32.092  1.00  0.00     0.134 A 
ATOM     82  F   UNL A   1      45.273  33.407  28.526  1.00  0.00    -0.206 F 
ATOM     83  C   UNL A   1      45.766  34.810  30.342  1.00  0.00     0.040 A 
ATOM     84  C   UNL A   1      45.610  33.970  32.592  1.00  0.00     0.040 A 
ATOM     85  F   UNL A   1      44.998  31.739  32.975  1.00  0.00    -0.206 F 
ATOM     86  C   UNL A   1      45.881  35.018  31.716  1.00  0.00     0.006 A 
ENDBRANCH  62  79
ENDBRANCH  36  37
ENDBRANCH  28  31
ENDBRANCH  26  27
ENDBRANCH  25  26
ENDBRANCH   1  25
TORSDOF 14
ENDMDL
MODEL 3
REMARK VINA RESULT:     -11.4      0.466      6.213
REMARK SMILES CC[C@@](C)(NC(=O)Nc1c(C)cccc1Cl)C(=O)NCCCCNC(=O)c1ccc(-c2c3nc(c(-c4c(F)cccc4F)c4ccc([nH]4)c(-c4c(F)cccc4F)c4nc(c(-c5c(F)cccc5F)c5ccc2[nH]5)C=C4)C=C3)cc1
REMARK SMILES IDX 21 1 20 2 19 3 17 4 18 5 3 7 4 8 2 9 1 10 5 11 6 12 7 14
REMARK SMILES IDX 8 15 9 17 10 18 15 19 11 20 12 21 14 22 16 23 13 24 22 25
REMARK SMILES IDX 23 26 24 27 25 28 26 30 27 31 28 32 80 33 29 34 79 35 30 36
REMARK SMILES IDX 31 37 32 38 73 39 33 40 78 41 72 42 74 43 34 44 77 45 71 46
REMARK SMILES IDX 70 47 35 49 61 50 44 51 60 52 45 53 48 54 59 55 75 56 46 57
REMARK SMILES IDX 47 58 58 60 76 61 49 62 36 63 37 64 42 65 38 66 39 67 41 68
REMARK SMILES IDX 43 69 40 70 62 71 63 72 68 73 64 74 65 75 67 76 69 77 66 78
REMARK SMILES IDX 50 79 51 80 56 81 52 82 53 83 55 84 57 85 54 86
REMARK H PARENT 19 6 5 13 8 16 24 29 74 48 48 59
REMARK Flexibility Score: inf
ROOT
ATOM      1  C   UNL A   1      31.631  30.491  26.509  1.00  0.00     0.023 C 
ENDROOT
BRANCH   1   2
ATOM      2  C   UNL A   1      33.032  29.864  26.705  1.00  0.00     0.116 C 
BRANCH   2   3
ATOM      3  N   UNL A   1      33.738  29.480  25.492  1.00  0.00    -0.354 N 
ATOM      4  C   UNL A   1      33.363  28.661  24.420  1.00  0.00     0.245 C 
ATOM      5  O   UNL A   1      33.300  29.103  23.272  1.00  0.00    -0.272 OA
ATOM      6  H   UNL A   1      34.640  29.865  25.410  1.00  0.00     0.163 HD
BRANCH   4   7
ATOM      7  C   UNL A   1      32.971  27.209  24.733  1.00  0.00     0.117 C 
ATOM      8  C   UNL A   1      34.028  26.822  25.803  1.00  0.00     0.045 C 
BRANCH   7   9
ATOM      9  C   UNL A   1      31.586  26.793  25.293  1.00  0.00     0.035 C 
ATOM     10  C   UNL A   1      30.363  26.927  24.414  1.00  0.00     0.007 C 
ENDBRANCH   7   9
BRANCH   7  11
ATOM     11  N   UNL A   1      33.156  26.511  23.471  1.00  0.00    -0.324 N 
ATOM     12  C   UNL A   1      33.388  25.236  23.174  1.00  0.00     0.320 C 
ATOM     13  H   UNL A   1      33.099  27.097  22.682  1.00  0.00     0.166 HD
ATOM     14  O   UNL A   1      33.652  25.037  21.977  1.00  0.00    -0.248 OA
ATOM     15  N   UNL A   1      33.437  24.139  23.939  1.00  0.00    -0.306 N 
ATOM     16  H   UNL A   1      33.597  23.415  23.292  1.00  0.00     0.171 HD
BRANCH  15  17
ATOM     17  C   UNL A   1      33.381  23.453  25.202  1.00  0.00     0.064 A 
ATOM     18  C   UNL A   1      32.432  23.305  26.256  1.00  0.00    -0.026 A 
ATOM     19  C   UNL A   1      34.541  22.619  25.349  1.00  0.00     0.064 A 
ATOM     20  C   UNL A   1      30.910  23.242  26.197  1.00  0.00     0.046 C 
ATOM     21  C   UNL A   1      32.839  22.690  27.480  1.00  0.00     0.005 A 
ATOM     22  C   UNL A   1      34.844  21.887  26.501  1.00  0.00     0.023 A 
ATOM     23  Cl  UNL A   1      35.680  22.419  24.035  1.00  0.00    -0.082 Cl
ATOM     24  C   UNL A   1      34.020  21.978  27.598  1.00  0.00     0.002 A 
ENDBRANCH  15  17
ENDBRANCH   7  11
ENDBRANCH   4   7
ENDBRANCH   2   3
ENDBRANCH   1   2
BRANCH   1  25
ATOM     25  C   UNL A   1      31.400  32.002  26.688  1.00  0.00     0.023 C 
BRANCH  25  26
ATOM     26  C   UNL A   1      32.607  32.916  26.876  1.00  0.00     0.116 C 
BRANCH  26  27
ATOM     27  N   UNL A   1      32.334  34.127  27.618  1.00  0.00    -0.352 N 
ATOM     28  C   UNL A   1      33.015  34.720  28.644  1.00  0.00     0.251 C 
ATOM     29  H   UNL A   1      31.520  34.604  27.337  1.00  0.00     0.163 HD
ATOM     30  O   UNL A   1      32.577  35.788  29.102  1.00  0.00    -0.269 OA
BRANCH  28  31
ATOM     31  C   UNL A   1      34.224  34.127  29.265  1.00  0.00     0.039 A 
ATOM     32  C   UNL A   1      34.031  33.142  30.242  1.00  0.00     0.014 A 
ATOM     33  C   UNL A   1      35.525  34.551  28.972  1.00  0.00     0.014 A 
ATOM     34  C   UNL A   1      35.124  32.550  30.883  1.00  0.00     0.010 A 
ATOM     35  C   UNL A   1      36.622  33.921  29.578  1.00  0.00     0.010 A 
ATOM     36  C   UNL A   1      36.435  32.910  30.537  1.00  0.00    -0.014 A 
BRANCH  36  37
ATOM     37  C   UNL A   1      37.600  32.214  31.156  1.00  0.00     0.031 A 
ATOM     38  C   UNL A   1      38.320  31.107  30.433  1.00  0.00     0.074 A 
ATOM     39  C   UNL A   1      38.001  32.561  32.396  1.00  0.00     0.049 A 
ATOM     40  N   UNL A   1      39.325  30.369  30.838  1.00  0.00    -0.248 NA
ATOM     41  C   UNL A   1      37.839  30.775  29.085  1.00  0.00     0.031 C 
ATOM     42  C   UNL A   1      37.379  33.597  33.223  1.00  0.00     0.029 A 
ATOM     43  N   UNL A   1      39.018  32.077  33.183  1.00  0.00    -0.354 N 
ATOM     44  C   UNL A   1      39.591  29.483  29.801  1.00  0.00     0.074 A 
ATOM     45  C   UNL A   1      38.612  29.746  28.766  1.00  0.00     0.031 C 
ATOM     46  C   UNL A   1      38.035  33.679  34.391  1.00  0.00     0.029 A 
ATOM     47  C   UNL A   1      39.098  32.679  34.415  1.00  0.00     0.049 A 
ATOM     48  H   UNL A   1      39.632  31.365  32.890  1.00  0.00     0.167 HD
ATOM     49  C   UNL A   1      40.572  28.549  29.709  1.00  0.00     0.037 A 
ATOM     50  C   UNL A   1      39.923  32.448  35.455  1.00  0.00     0.037 A 
ATOM     51  C   UNL A   1      41.554  28.292  30.732  1.00  0.00     0.049 A 
ATOM     52  C   UNL A   1      40.983  31.388  35.339  1.00  0.00     0.074 A 
ATOM     53  C   UNL A   1      42.609  27.395  30.706  1.00  0.00     0.029 A 
ATOM     54  N   UNL A   1      41.601  28.927  31.964  1.00  0.00    -0.354 N 
ATOM     55  N   UNL A   1      41.256  30.597  34.329  1.00  0.00    -0.248 NA
ATOM     56  C   UNL A   1      41.856  31.191  36.507  1.00  0.00     0.031 C 
ATOM     57  C   UNL A   1      43.265  27.452  31.942  1.00  0.00     0.029 A 
ATOM     58  C   UNL A   1      42.653  28.423  32.715  1.00  0.00     0.049 A 
ATOM     59  H   UNL A   1      40.979  29.630  32.261  1.00  0.00     0.167 HD
ATOM     60  C   UNL A   1      42.346  29.833  34.727  1.00  0.00     0.074 A 
ATOM     61  C   UNL A   1      42.694  30.264  36.065  1.00  0.00     0.031 C 
ATOM     62  C   UNL A   1      42.998  28.861  34.044  1.00  0.00     0.037 A 
BRANCH  49  63
ATOM     63  C   UNL A   1      40.630  27.727  28.451  1.00  0.00     0.057 A 
ATOM     64  C   UNL A   1      41.392  28.124  27.345  1.00  0.00     0.134 A 
ATOM     65  C   UNL A   1      39.959  26.501  28.364  1.00  0.00     0.134 A 
ATOM     66  F   UNL A   1      42.056  29.290  27.359  1.00  0.00    -0.206 F 
ATOM     67  C   UNL A   1      41.460  27.347  26.187  1.00  0.00     0.040 A 
ATOM     68  C   UNL A   1      40.042  25.701  27.223  1.00  0.00     0.040 A 
ATOM     69  F   UNL A   1      39.221  26.051  29.391  1.00  0.00    -0.206 F 
ATOM     70  C   UNL A   1      40.789  26.127  26.126  1.00  0.00     0.006 A 
ENDBRANCH  49  63
BRANCH  50  71
ATOM     71  C   UNL A   1      39.784  33.241  36.704  1.00  0.00     0.057 A 
ATOM     72  C   UNL A   1      38.880  32.865  37.705  1.00  0.00     0.134 A 
ATOM     73  C   UNL A   1      40.537  34.402  36.920  1.00  0.00     0.134 A 
ATOM     74  F   UNL A   1      38.114  31.776  37.547  1.00  0.00    -0.206 F 
ATOM     75  C   UNL A   1      38.716  33.623  38.865  1.00  0.00     0.040 A 
ATOM     76  C   UNL A   1      40.403  35.154  38.088  1.00  0.00     0.040 A 
ATOM     77  F   UNL A   1      41.424  34.814  36.002  1.00  0.00    -0.206 F 
ATOM     78  C   UNL A   1      39.483  34.770  39.061  1.00  0.00     0.006 A 
ENDBRANCH  50  71
BRANCH  62  79
ATOM     79  C   UNL A   1      44.180  28.221  34.714  1.00  0.00     0.057 A 
ATOM     80  C   UNL A   1      44.059  27.051  35.475  1.00  0.00     0.134 A 
ATOM     81  C   UNL A   1      45.463  28.765  34.567  1.00  0.00     0.134 A 
ATOM     82  F   UNL A   1      42.858  26.486  35.668  1.00  0.00    -0.206 F 
ATOM     83  C   UNL A   1      45.168  26.458  36.084  1.00  0.00     0.040 A 
ATOM     84  C   UNL A   1      46.583  28.166  35.147  1.00  0.00     0.040 A 
ATOM     85  F   UNL A   1      45.652  29.880  33.845  1.00  0.00    -0.206 F 
ATOM     86  C   UNL A   1      46.435  27.013  35.914  1.00  0.00     0.006 A 
ENDBRANCH  62  79
ENDBRANCH  36  37
ENDBRANCH  28  31
ENDBRANCH  26  27
ENDBRANCH  25  26
ENDBRANCH   1  25
TORSDOF 14
ENDMDL
