MODEL 1
REMARK VINA RESULT:     -12.9      0.000      0.000
REMARK SMILES CC(C)=C1[C@H]2CC[C@@H]1[C@@H](C(=O)Nc1cc(C)cc(C)c1)[C@@H]2C(=O)NCCCCNC(=O)c1ccc(-c2c3nc(c(-c4c(F)cccc4F)c4ccc([nH]4)c(-c4c(F)cccc4F)c4nc(c(-c5c(F)cccc5F)c5ccc2[nH]5)C=C4)C=C3)cc1
REMARK SMILES IDX 26 1 25 2 24 3 22 4 23 5 21 7 1 8 2 9 3 10 4 11 5 12 8 13
REMARK SMILES IDX 6 14 7 15 9 16 10 17 11 18 12 19 13 21 14 22 20 23 15 24
REMARK SMILES IDX 18 25 16 26 17 27 19 28 27 29 28 30 29 31 30 32 31 34 32 35
REMARK SMILES IDX 33 36 85 37 34 38 84 39 35 40 36 41 37 42 78 43 38 44 83 45
REMARK SMILES IDX 77 46 79 47 39 48 82 49 76 50 75 51 40 53 66 54 49 55 65 56
REMARK SMILES IDX 50 57 53 58 64 59 80 60 51 61 52 62 63 64 81 65 54 66 41 67
REMARK SMILES IDX 42 68 47 69 43 70 44 71 46 72 48 73 45 74 67 75 68 76 73 77
REMARK SMILES IDX 69 78 70 79 72 80 74 81 71 82 55 83 56 84 61 85 57 86 58 87
REMARK SMILES IDX 60 88 62 89 59 90
REMARK H PARENT 24 6 12 20 29 33 79 52 53 63
REMARK Flexibility Score: inf
ROOT
ATOM      1  C   UNL A   1      36.694  23.006  24.152  1.00  0.00     0.023 C 
ENDROOT
BRANCH   1   2
ATOM      2  C   UNL A   1      35.705  24.056  24.621  1.00  0.00     0.116 C 
BRANCH   2   3
ATOM      3  N   UNL A   1      35.113  23.867  25.914  1.00  0.00    -0.356 N 
ATOM      4  C   UNL A   1      33.879  24.235  26.351  1.00  0.00     0.224 C 
ATOM      5  O   UNL A   1      33.487  23.676  27.384  1.00  0.00    -0.275 OA
ATOM      6  H   UNL A   1      35.679  23.407  26.576  1.00  0.00     0.163 HD
BRANCH   4   7
ATOM      7  C   UNL A   1      32.973  25.286  25.689  1.00  0.00     0.098 C 
ATOM      8  C   UNL A   1      30.905  29.318  24.118  1.00  0.00     0.039 C 
ATOM      9  C   UNL A   1      32.072  28.376  23.981  1.00  0.00    -0.077 C 
ATOM     10  C   UNL A   1      33.055  28.698  22.894  1.00  0.00     0.039 C 
ATOM     11  C   UNL A   1      32.317  27.429  24.906  1.00  0.00    -0.064 C 
ATOM     12  C   UNL A   1      33.570  26.626  25.190  1.00  0.00     0.028 C 
ATOM     13  C   UNL A   1      31.619  27.222  26.220  1.00  0.00     0.028 C 
ATOM     14  C   UNL A   1      34.035  27.570  26.304  1.00  0.00     0.009 C 
ATOM     15  C   UNL A   1      32.712  27.965  27.026  1.00  0.00     0.009 C 
ATOM     16  C   UNL A   1      31.695  25.690  26.429  1.00  0.00     0.099 C 
BRANCH  16  17
ATOM     17  C   UNL A   1      30.387  24.935  26.113  1.00  0.00     0.228 C 
ATOM     18  O   UNL A   1      29.345  25.342  26.651  1.00  0.00    -0.274 OA
ATOM     19  N   UNL A   1      30.234  23.950  25.186  1.00  0.00    -0.326 N 
ATOM     20  H   UNL A   1      29.303  23.816  24.893  1.00  0.00     0.169 HD
BRANCH  19  21
ATOM     21  C   UNL A   1      31.153  23.094  24.578  1.00  0.00     0.041 A 
ATOM     22  C   UNL A   1      31.521  21.884  25.154  1.00  0.00     0.029 A 
ATOM     23  C   UNL A   1      31.654  23.439  23.323  1.00  0.00     0.029 A 
ATOM     24  C   UNL A   1      32.544  21.108  24.600  1.00  0.00    -0.049 A 
ATOM     25  C   UNL A   1      32.664  22.665  22.734  1.00  0.00    -0.049 A 
ATOM     26  C   UNL A   1      33.088  19.938  25.366  1.00  0.00     0.044 C 
ATOM     27  C   UNL A   1      33.126  21.519  23.397  1.00  0.00     0.007 A 
ATOM     28  C   UNL A   1      33.330  23.112  21.466  1.00  0.00     0.044 C 
ENDBRANCH  19  21
ENDBRANCH  16  17
ENDBRANCH   4   7
ENDBRANCH   2   3
ENDBRANCH   1   2
BRANCH   1  29
ATOM     29  C   UNL A   1      36.945  21.873  25.134  1.00  0.00     0.023 C 
BRANCH  29  30
ATOM     30  C   UNL A   1      38.365  21.754  25.683  1.00  0.00     0.116 C 
BRANCH  30  31
ATOM     31  N   UNL A   1      38.994  20.450  25.493  1.00  0.00    -0.352 N 
ATOM     32  C   UNL A   1      40.255  20.041  25.883  1.00  0.00     0.251 C 
ATOM     33  H   UNL A   1      38.449  19.775  25.028  1.00  0.00     0.163 HD
ATOM     34  O   UNL A   1      40.659  18.916  25.656  1.00  0.00    -0.269 OA
BRANCH  32  35
ATOM     35  C   UNL A   1      41.130  21.040  26.529  1.00  0.00     0.039 A 
ATOM     36  C   UNL A   1      41.845  21.921  25.715  1.00  0.00     0.014 A 
ATOM     37  C   UNL A   1      41.084  21.214  27.914  1.00  0.00     0.014 A 
ATOM     38  C   UNL A   1      42.408  23.062  26.282  1.00  0.00     0.010 A 
ATOM     39  C   UNL A   1      41.573  22.393  28.460  1.00  0.00     0.010 A 
ATOM     40  C   UNL A   1      42.208  23.344  27.644  1.00  0.00    -0.014 A 
BRANCH  40  41
ATOM     41  C   UNL A   1      42.589  24.655  28.224  1.00  0.00     0.031 A 
ATOM     42  C   UNL A   1      41.556  25.725  28.411  1.00  0.00     0.074 A 
ATOM     43  C   UNL A   1      43.888  24.914  28.486  1.00  0.00     0.049 A 
ATOM     44  N   UNL A   1      41.712  26.966  28.797  1.00  0.00    -0.248 NA
ATOM     45  C   UNL A   1      40.166  25.364  28.088  1.00  0.00     0.031 C 
ATOM     46  C   UNL A   1      44.998  23.979  28.288  1.00  0.00     0.029 A 
ATOM     47  N   UNL A   1      44.496  26.051  28.960  1.00  0.00    -0.354 N 
ATOM     48  C   UNL A   1      40.448  27.536  28.747  1.00  0.00     0.074 A 
ATOM     49  C   UNL A   1      39.544  26.523  28.246  1.00  0.00     0.031 C 
ATOM     50  C   UNL A   1      46.145  24.571  28.659  1.00  0.00     0.029 A 
ATOM     51  C   UNL A   1      45.860  25.938  29.079  1.00  0.00     0.049 A 
ATOM     52  H   UNL A   1      44.000  26.869  29.192  1.00  0.00     0.167 HD
ATOM     53  C   UNL A   1      40.070  28.783  29.110  1.00  0.00     0.037 A 
ATOM     54  C   UNL A   1      46.780  26.841  29.471  1.00  0.00     0.037 A 
ATOM     55  C   UNL A   1      40.963  29.778  29.638  1.00  0.00     0.049 A 
ATOM     56  C   UNL A   1      46.335  28.223  29.859  1.00  0.00     0.074 A 
ATOM     57  C   UNL A   1      40.661  31.041  30.117  1.00  0.00     0.029 A 
ATOM     58  N   UNL A   1      42.336  29.624  29.751  1.00  0.00    -0.354 N 
ATOM     59  N   UNL A   1      45.124  28.722  29.885  1.00  0.00    -0.248 NA
ATOM     60  C   UNL A   1      47.386  29.167  30.268  1.00  0.00     0.031 C 
ATOM     61  C   UNL A   1      41.857  31.667  30.484  1.00  0.00     0.029 A 
ATOM     62  C   UNL A   1      42.899  30.781  30.266  1.00  0.00     0.049 A 
ATOM     63  H   UNL A   1      42.837  28.815  29.504  1.00  0.00     0.167 HD
ATOM     64  C   UNL A   1      45.263  30.033  30.322  1.00  0.00     0.074 A 
ATOM     65  C   UNL A   1      46.674  30.244  30.570  1.00  0.00     0.031 C 
ATOM     66  C   UNL A   1      44.308  30.977  30.499  1.00  0.00     0.037 A 
BRANCH  53  67
ATOM     67  C   UNL A   1      38.620  29.135  28.956  1.00  0.00     0.057 A 
ATOM     68  C   UNL A   1      37.724  29.049  30.028  1.00  0.00     0.134 A 
ATOM     69  C   UNL A   1      38.121  29.591  27.729  1.00  0.00     0.134 A 
ATOM     70  F   UNL A   1      38.137  28.605  31.225  1.00  0.00    -0.206 F 
ATOM     71  C   UNL A   1      36.376  29.379  29.881  1.00  0.00     0.040 A 
ATOM     72  C   UNL A   1      36.781  29.947  27.576  1.00  0.00     0.040 A 
ATOM     73  F   UNL A   1      38.928  29.699  26.663  1.00  0.00    -0.206 F 
ATOM     74  C   UNL A   1      35.903  29.837  28.653  1.00  0.00     0.006 A 
ENDBRANCH  53  67
BRANCH  54  75
ATOM     75  C   UNL A   1      48.215  26.466  29.525  1.00  0.00     0.057 A 
ATOM     76  C   UNL A   1      48.756  25.850  30.660  1.00  0.00     0.134 A 
ATOM     77  C   UNL A   1      49.081  26.720  28.454  1.00  0.00     0.134 A 
ATOM     78  F   UNL A   1      47.980  25.600  31.725  1.00  0.00    -0.206 F 
ATOM     79  C   UNL A   1      50.108  25.513  30.735  1.00  0.00     0.040 A 
ATOM     80  C   UNL A   1      50.431  26.368  28.508  1.00  0.00     0.040 A 
ATOM     81  F   UNL A   1      48.624  27.303  27.337  1.00  0.00    -0.206 F 
ATOM     82  C   UNL A   1      50.949  25.768  29.653  1.00  0.00     0.006 A 
ENDBRANCH  54  75
BRANCH  66  83
ATOM     83  C   UNL A   1      44.756  32.321  30.986  1.00  0.00     0.057 A 
ATOM     84  C   UNL A   1      44.887  32.599  32.352  1.00  0.00     0.134 A 
ATOM     85  C   UNL A   1      45.103  33.332  30.081  1.00  0.00     0.134 A 
ATOM     86  F   UNL A   1      44.557  31.676  33.267  1.00  0.00    -0.206 F 
ATOM     87  C   UNL A   1      45.335  33.841  32.802  1.00  0.00     0.040 A 
ATOM     88  C   UNL A   1      45.574  34.571  30.518  1.00  0.00     0.040 A 
ATOM     89  F   UNL A   1      45.005  33.126  28.759  1.00  0.00    -0.206 F 
ATOM     90  C   UNL A   1      45.687  34.829  31.883  1.00  0.00     0.006 A 
ENDBRANCH  66  83
ENDBRANCH  40  41
ENDBRANCH  32  35
ENDBRANCH  30  31
ENDBRANCH  29  30
ENDBRANCH   1  29
TORSDOF 13
ENDMDL
MODEL 2
REMARK VINA RESULT:     -12.8      1.223      6.681
REMARK SMILES CC(C)=C1[C@H]2CC[C@@H]1[C@@H](C(=O)Nc1cc(C)cc(C)c1)[C@@H]2C(=O)NCCCCNC(=O)c1ccc(-c2c3nc(c(-c4c(F)cccc4F)c4ccc([nH]4)c(-c4c(F)cccc4F)c4nc(c(-c5c(F)cccc5F)c5ccc2[nH]5)C=C4)C=C3)cc1
REMARK SMILES IDX 26 1 25 2 24 3 22 4 23 5 21 7 1 8 2 9 3 10 4 11 5 12 8 13
REMARK SMILES IDX 6 14 7 15 9 16 10 17 11 18 12 19 13 21 14 22 20 23 15 24
REMARK SMILES IDX 18 25 16 26 17 27 19 28 27 29 28 30 29 31 30 32 31 34 32 35
REMARK SMILES IDX 33 36 85 37 34 38 84 39 35 40 36 41 37 42 78 43 38 44 83 45
REMARK SMILES IDX 77 46 79 47 39 48 82 49 76 50 75 51 40 53 66 54 49 55 65 56
REMARK SMILES IDX 50 57 53 58 64 59 80 60 51 61 52 62 63 64 81 65 54 66 41 67
REMARK SMILES IDX 42 68 47 69 43 70 44 71 46 72 48 73 45 74 67 75 68 76 73 77
REMARK SMILES IDX 69 78 70 79 72 80 74 81 71 82 55 83 56 84 61 85 57 86 58 87
REMARK SMILES IDX 60 88 62 89 59 90
REMARK H PARENT 24 6 12 20 29 33 79 52 53 63
REMARK Flexibility Score: inf
ROOT
ATOM      1  C   UNL A   1      37.351  22.850  24.520  1.00  0.00     0.023 C 
ENDROOT
BRANCH   1   2
ATOM      2  C   UNL A   1      36.724  23.734  25.579  1.00  0.00     0.116 C 
BRANCH   2   3
ATOM      3  N   UNL A   1      35.926  23.089  26.583  1.00  0.00    -0.356 N 
ATOM      4  C   UNL A   1      34.575  22.946  26.639  1.00  0.00     0.224 C 
ATOM      5  O   UNL A   1      34.159  22.079  27.420  1.00  0.00    -0.275 OA
ATOM      6  H   UNL A   1      36.427  22.696  27.335  1.00  0.00     0.163 HD
BRANCH   4   7
ATOM      7  C   UNL A   1      33.554  23.778  25.846  1.00  0.00     0.098 C 
ATOM      8  C   UNL A   1      29.593  25.785  24.033  1.00  0.00     0.039 C 
ATOM      9  C   UNL A   1      30.524  25.701  25.214  1.00  0.00    -0.077 C 
ATOM     10  C   UNL A   1      30.220  26.620  26.360  1.00  0.00     0.039 C 
ATOM     11  C   UNL A   1      31.442  24.721  25.311  1.00  0.00    -0.064 C 
ATOM     12  C   UNL A   1      32.221  24.211  26.506  1.00  0.00     0.028 C 
ATOM     13  C   UNL A   1      31.622  23.533  24.408  1.00  0.00     0.028 C 
ATOM     14  C   UNL A   1      31.240  23.064  26.774  1.00  0.00     0.009 C 
ATOM     15  C   UNL A   1      30.843  22.582  25.347  1.00  0.00     0.009 C 
ATOM     16  C   UNL A   1      33.146  23.271  24.461  1.00  0.00     0.099 C 
BRANCH  16  17
ATOM     17  C   UNL A   1      33.926  23.775  23.229  1.00  0.00     0.228 C 
ATOM     18  O   UNL A   1      34.547  22.934  22.560  1.00  0.00    -0.274 OA
ATOM     19  N   UNL A   1      33.885  25.034  22.714  1.00  0.00    -0.326 N 
ATOM     20  H   UNL A   1      34.169  25.093  21.773  1.00  0.00     0.169 HD
BRANCH  19  21
ATOM     21  C   UNL A   1      33.516  26.257  23.275  1.00  0.00     0.041 A 
ATOM     22  C   UNL A   1      34.055  26.705  24.476  1.00  0.00     0.029 A 
ATOM     23  C   UNL A   1      32.637  27.076  22.568  1.00  0.00     0.029 A 
ATOM     24  C   UNL A   1      33.570  27.864  25.091  1.00  0.00    -0.049 A 
ATOM     25  C   UNL A   1      32.153  28.256  23.152  1.00  0.00    -0.049 A 
ATOM     26  C   UNL A   1      33.991  28.193  26.494  1.00  0.00     0.044 C 
ATOM     27  C   UNL A   1      32.602  28.624  24.429  1.00  0.00     0.007 A 
ATOM     28  C   UNL A   1      31.083  29.062  22.477  1.00  0.00     0.044 C 
ENDBRANCH  19  21
ENDBRANCH  16  17
ENDBRANCH   4   7
ENDBRANCH   2   3
ENDBRANCH   1   2
BRANCH   1  29
ATOM     29  C   UNL A   1      37.738  21.456  24.990  1.00  0.00     0.023 C 
BRANCH  29  30
ATOM     30  C   UNL A   1      38.992  21.356  25.856  1.00  0.00     0.116 C 
BRANCH  30  31
ATOM     31  N   UNL A   1      39.749  20.117  25.706  1.00  0.00    -0.352 N 
ATOM     32  C   UNL A   1      41.067  19.872  26.039  1.00  0.00     0.251 C 
ATOM     33  H   UNL A   1      39.256  19.357  25.319  1.00  0.00     0.163 HD
ATOM     34  O   UNL A   1      41.579  18.783  25.856  1.00  0.00    -0.269 OA
BRANCH  32  35
ATOM     35  C   UNL A   1      41.862  20.999  26.565  1.00  0.00     0.039 A 
ATOM     36  C   UNL A   1      42.406  21.909  25.656  1.00  0.00     0.014 A 
ATOM     37  C   UNL A   1      41.897  21.245  27.940  1.00  0.00     0.014 A 
ATOM     38  C   UNL A   1      42.869  23.138  26.121  1.00  0.00     0.010 A 
ATOM     39  C   UNL A   1      42.281  22.501  28.389  1.00  0.00     0.010 A 
ATOM     40  C   UNL A   1      42.737  23.471  27.480  1.00  0.00    -0.014 A 
BRANCH  40  41
ATOM     41  C   UNL A   1      43.001  24.848  27.966  1.00  0.00     0.031 A 
ATOM     42  C   UNL A   1      44.388  25.253  28.368  1.00  0.00     0.074 A 
ATOM     43  C   UNL A   1      41.969  25.700  28.140  1.00  0.00     0.049 A 
ATOM     44  N   UNL A   1      44.796  26.368  28.917  1.00  0.00    -0.248 NA
ATOM     45  C   UNL A   1      45.453  24.259  28.157  1.00  0.00     0.031 C 
ATOM     46  C   UNL A   1      40.564  25.406  27.846  1.00  0.00     0.029 A 
ATOM     47  N   UNL A   1      41.941  26.985  28.626  1.00  0.00    -0.354 N 
ATOM     48  C   UNL A   1      46.157  26.204  29.132  1.00  0.00     0.074 A 
ATOM     49  C   UNL A   1      46.496  24.864  28.702  1.00  0.00     0.031 C 
ATOM     50  C   UNL A   1      39.818  26.485  28.136  1.00  0.00     0.029 A 
ATOM     51  C   UNL A   1      40.681  27.530  28.674  1.00  0.00     0.049 A 
ATOM     52  H   UNL A   1      42.749  27.469  28.913  1.00  0.00     0.167 HD
ATOM     53  C   UNL A   1      47.048  27.097  29.621  1.00  0.00     0.037 A 
ATOM     54  C   UNL A   1      40.266  28.733  29.115  1.00  0.00     0.037 A 
ATOM     55  C   UNL A   1      46.715  28.438  30.017  1.00  0.00     0.049 A 
ATOM     56  C   UNL A   1      41.274  29.703  29.663  1.00  0.00     0.074 A 
ATOM     57  C   UNL A   1      47.562  29.448  30.441  1.00  0.00     0.029 A 
ATOM     58  N   UNL A   1      45.429  28.956  30.044  1.00  0.00    -0.354 N 
ATOM     59  N   UNL A   1      42.572  29.563  29.784  1.00  0.00    -0.248 NA
ATOM     60  C   UNL A   1      40.759  30.996  30.139  1.00  0.00     0.031 C 
ATOM     61  C   UNL A   1      46.783  30.565  30.763  1.00  0.00     0.029 A 
ATOM     62  C   UNL A   1      45.456  30.263  30.505  1.00  0.00     0.049 A 
ATOM     63  H   UNL A   1      44.617  28.470  29.775  1.00  0.00     0.167 HD
ATOM     64  C   UNL A   1      43.031  30.751  30.338  1.00  0.00     0.074 A 
ATOM     65  C   UNL A   1      41.876  31.607  30.510  1.00  0.00     0.031 C 
ATOM     66  C   UNL A   1      44.295  31.098  30.677  1.00  0.00     0.037 A 
BRANCH  53  67
ATOM     67  C   UNL A   1      48.474  26.651  29.742  1.00  0.00     0.057 A 
ATOM     68  C   UNL A   1      49.409  26.888  28.726  1.00  0.00     0.134 A 
ATOM     69  C   UNL A   1      48.925  26.001  30.898  1.00  0.00     0.134 A 
ATOM     70  F   UNL A   1      49.036  27.493  27.588  1.00  0.00    -0.206 F 
ATOM     71  C   UNL A   1      50.736  26.472  28.844  1.00  0.00     0.040 A 
ATOM     72  C   UNL A   1      50.254  25.602  31.037  1.00  0.00     0.040 A 
ATOM     73  F   UNL A   1      48.081  25.746  31.909  1.00  0.00    -0.206 F 
ATOM     74  C   UNL A   1      51.163  25.833  30.006  1.00  0.00     0.006 A 
ENDBRANCH  53  67
BRANCH  54  75
ATOM     75  C   UNL A   1      38.827  29.094  29.051  1.00  0.00     0.057 A 
ATOM     76  C   UNL A   1      38.257  29.570  27.864  1.00  0.00     0.134 A 
ATOM     77  C   UNL A   1      37.992  28.981  30.168  1.00  0.00     0.134 A 
ATOM     78  F   UNL A   1      39.012  29.718  26.766  1.00  0.00    -0.206 F 
ATOM     79  C   UNL A   1      36.912  29.935  27.794  1.00  0.00     0.040 A 
ATOM     80  C   UNL A   1      36.639  29.323  30.107  1.00  0.00     0.040 A 
ATOM     81  F   UNL A   1      38.476  28.527  31.334  1.00  0.00    -0.206 F 
ATOM     82  C   UNL A   1      36.098  29.807  28.918  1.00  0.00     0.006 A 
ENDBRANCH  54  75
BRANCH  66  83
ATOM     83  C   UNL A   1      44.496  32.462  31.264  1.00  0.00     0.057 A 
ATOM     84  C   UNL A   1      44.699  33.586  30.454  1.00  0.00     0.134 A 
ATOM     85  C   UNL A   1      44.440  32.662  32.649  1.00  0.00     0.134 A 
ATOM     86  F   UNL A   1      44.776  33.457  29.121  1.00  0.00    -0.206 F 
ATOM     87  C   UNL A   1      44.854  34.859  31.001  1.00  0.00     0.040 A 
ATOM     88  C   UNL A   1      44.571  33.934  33.207  1.00  0.00     0.040 A 
ATOM     89  F   UNL A   1      44.241  31.627  33.479  1.00  0.00    -0.206 F 
ATOM     90  C   UNL A   1      44.783  35.037  32.382  1.00  0.00     0.006 A 
ENDBRANCH  66  83
ENDBRANCH  40  41
ENDBRANCH  32  35
ENDBRANCH  30  31
ENDBRANCH  29  30
ENDBRANCH   1  29
TORSDOF 13
ENDMDL
MODEL 3
REMARK VINA RESULT:     -12.8      0.430      5.958
REMARK SMILES CC(C)=C1[C@H]2CC[C@@H]1[C@@H](C(=O)Nc1cc(C)cc(C)c1)[C@@H]2C(=O)NCCCCNC(=O)c1ccc(-c2c3nc(c(-c4c(F)cccc4F)c4ccc([nH]4)c(-c4c(F)cccc4F)c4nc(c(-c5c(F)cccc5F)c5ccc2[nH]5)C=C4)C=C3)cc1
REMARK SMILES IDX 26 1 25 2 24 3 22 4 23 5 21 7 1 8 2 9 3 10 4 11 5 12 8 13
REMARK SMILES IDX 6 14 7 15 9 16 10 17 11 18 12 19 13 21 14 22 20 23 15 24
REMARK SMILES IDX 18 25 16 26 17 27 19 28 27 29 28 30 29 31 30 32 31 34 32 35
REMARK SMILES IDX 33 36 85 37 34 38 84 39 35 40 36 41 37 42 78 43 38 44 83 45
REMARK SMILES IDX 77 46 79 47 39 48 82 49 76 50 75 51 40 53 66 54 49 55 65 56
REMARK SMILES IDX 50 57 53 58 64 59 80 60 51 61 52 62 63 64 81 65 54 66 41 67
REMARK SMILES IDX 42 68 47 69 43 70 44 71 46 72 48 73 45 74 67 75 68 76 73 77
REMARK SMILES IDX 69 78 70 79 72 80 74 81 71 82 55 83 56 84 61 85 57 86 58 87
REMARK SMILES IDX 60 88 62 89 59 90
REMARK H PARENT 24 6 12 20 29 33 79 52 53 63
REMARK Flexibility Score: inf
ROOT
ATOM      1  C   UNL A   1      36.686  22.851  23.934  1.00  0.00     0.023 C 
ENDROOT
BRANCH   1   2
ATOM      2  C   UNL A   1      35.626  23.836  24.387  1.00  0.00     0.116 C 
BRANCH   2   3
ATOM      3  N   UNL A   1      35.141  23.704  25.731  1.00  0.00    -0.356 N 
ATOM      4  C   UNL A   1      33.962  24.128  26.260  1.00  0.00     0.224 C 
ATOM      5  O   UNL A   1      33.641  23.613  27.338  1.00  0.00    -0.275 OA
ATOM      6  H   UNL A   1      35.746  23.242  26.357  1.00  0.00     0.163 HD
BRANCH   4   7
ATOM      7  C   UNL A   1      33.038  25.193  25.645  1.00  0.00     0.098 C 
ATOM      8  C   UNL A   1      30.941  29.256  24.198  1.00  0.00     0.039 C 
ATOM      9  C   UNL A   1      32.094  28.306  24.005  1.00  0.00    -0.077 C 
ATOM     10  C   UNL A   1      33.035  28.632  22.883  1.00  0.00     0.039 C 
ATOM     11  C   UNL A   1      32.369  27.349  24.910  1.00  0.00    -0.064 C 
ATOM     12  C   UNL A   1      33.625  26.533  25.136  1.00  0.00     0.028 C 
ATOM     13  C   UNL A   1      31.722  27.133  26.249  1.00  0.00     0.028 C 
ATOM     14  C   UNL A   1      34.142  27.463  26.239  1.00  0.00     0.009 C 
ATOM     15  C   UNL A   1      32.852  27.859  27.018  1.00  0.00     0.009 C 
ATOM     16  C   UNL A   1      31.794  25.599  26.439  1.00  0.00     0.099 C 
BRANCH  16  17
ATOM     17  C   UNL A   1      30.469  24.857  26.169  1.00  0.00     0.228 C 
ATOM     18  O   UNL A   1      29.452  25.267  26.750  1.00  0.00    -0.274 OA
ATOM     19  N   UNL A   1      30.271  23.880  25.240  1.00  0.00    -0.326 N 
ATOM     20  H   UNL A   1      29.329  23.757  24.982  1.00  0.00     0.169 HD
BRANCH  19  21
ATOM     21  C   UNL A   1      31.159  23.023  24.589  1.00  0.00     0.041 A 
ATOM     22  C   UNL A   1      31.523  21.795  25.131  1.00  0.00     0.029 A 
ATOM     23  C   UNL A   1      31.632  23.386  23.329  1.00  0.00     0.029 A 
ATOM     24  C   UNL A   1      32.517  21.015  24.532  1.00  0.00    -0.049 A 
ATOM     25  C   UNL A   1      32.612  22.608  22.696  1.00  0.00    -0.049 A 
ATOM     26  C   UNL A   1      33.062  19.820  25.260  1.00  0.00     0.044 C 
ATOM     27  C   UNL A   1      33.072  21.441  23.322  1.00  0.00     0.007 A 
ATOM     28  C   UNL A   1      33.251  23.071  21.419  1.00  0.00     0.044 C 
ENDBRANCH  19  21
ENDBRANCH  16  17
ENDBRANCH   4   7
ENDBRANCH   2   3
ENDBRANCH   1   2
BRANCH   1  29
ATOM     29  C   UNL A   1      36.936  21.690  24.884  1.00  0.00     0.023 C 
BRANCH  29  30
ATOM     30  C   UNL A   1      38.318  21.632  25.533  1.00  0.00     0.116 C 
BRANCH  30  31
ATOM     31  N   UNL A   1      38.994  20.341  25.431  1.00  0.00    -0.352 N 
ATOM     32  C   UNL A   1      40.253  19.995  25.883  1.00  0.00     0.251 C 
ATOM     33  H   UNL A   1      38.487  19.625  24.984  1.00  0.00     0.163 HD
ATOM     34  O   UNL A   1      40.700  18.874  25.727  1.00  0.00    -0.269 OA
BRANCH  32  35
ATOM     35  C   UNL A   1      41.074  21.054  26.503  1.00  0.00     0.039 A 
ATOM     36  C   UNL A   1      41.820  21.889  25.671  1.00  0.00     0.014 A 
ATOM     37  C   UNL A   1      40.945  21.324  27.868  1.00  0.00     0.014 A 
ATOM     38  C   UNL A   1      42.331  23.079  26.185  1.00  0.00     0.010 A 
ATOM     39  C   UNL A   1      41.383  22.548  28.355  1.00  0.00     0.010 A 
ATOM     40  C   UNL A   1      42.049  23.451  27.510  1.00  0.00    -0.014 A 
BRANCH  40  41
ATOM     41  C   UNL A   1      42.375  24.808  28.016  1.00  0.00     0.031 A 
ATOM     42  C   UNL A   1      43.768  25.127  28.472  1.00  0.00     0.074 A 
ATOM     43  C   UNL A   1      41.389  25.718  28.161  1.00  0.00     0.049 A 
ATOM     44  N   UNL A   1      44.221  26.213  29.045  1.00  0.00    -0.248 NA
ATOM     45  C   UNL A   1      44.779  24.074  28.292  1.00  0.00     0.031 C 
ATOM     46  C   UNL A   1      39.982  25.509  27.814  1.00  0.00     0.029 A 
ATOM     47  N   UNL A   1      41.419  26.999  28.655  1.00  0.00    -0.354 N 
ATOM     48  C   UNL A   1      45.561  25.968  29.307  1.00  0.00     0.074 A 
ATOM     49  C   UNL A   1      45.836  24.613  28.879  1.00  0.00     0.031 C 
ATOM     50  C   UNL A   1      39.289  26.628  28.085  1.00  0.00     0.029 A 
ATOM     51  C   UNL A   1      40.193  27.617  28.663  1.00  0.00     0.049 A 
ATOM     52  H   UNL A   1      42.243  27.433  28.976  1.00  0.00     0.167 HD
ATOM     53  C   UNL A   1      46.484  26.804  29.835  1.00  0.00     0.037 A 
ATOM     54  C   UNL A   1      39.832  28.839  29.098  1.00  0.00     0.037 A 
ATOM     55  C   UNL A   1      46.216  28.160  30.230  1.00  0.00     0.049 A 
ATOM     56  C   UNL A   1      40.875  29.745  29.690  1.00  0.00     0.074 A 
ATOM     57  C   UNL A   1      47.104  29.115  30.693  1.00  0.00     0.029 A 
ATOM     58  N   UNL A   1      44.962  28.753  30.215  1.00  0.00    -0.354 N 
ATOM     59  N   UNL A   1      42.157  29.528  29.857  1.00  0.00    -0.248 NA
ATOM     60  C   UNL A   1      40.420  31.063  30.158  1.00  0.00     0.031 C 
ATOM     61  C   UNL A   1      46.381  30.274  30.995  1.00  0.00     0.029 A 
ATOM     62  C   UNL A   1      45.049  30.052  30.687  1.00  0.00     0.049 A 
ATOM     63  H   UNL A   1      44.134  28.317  29.912  1.00  0.00     0.167 HD
ATOM     64  C   UNL A   1      42.664  30.684  30.437  1.00  0.00     0.074 A 
ATOM     65  C   UNL A   1      41.556  31.606  30.574  1.00  0.00     0.031 C 
ATOM     66  C   UNL A   1      43.934  30.954  30.824  1.00  0.00     0.037 A 
BRANCH  53  67
ATOM     67  C   UNL A   1      47.876  26.274  30.004  1.00  0.00     0.057 A 
ATOM     68  C   UNL A   1      48.317  25.736  31.220  1.00  0.00     0.134 A 
ATOM     69  C   UNL A   1      48.777  26.276  28.932  1.00  0.00     0.134 A 
ATOM     70  F   UNL A   1      47.506  25.720  32.289  1.00  0.00    -0.206 F 
ATOM     71  C   UNL A   1      49.614  25.242  31.372  1.00  0.00     0.040 A 
ATOM     72  C   UNL A   1      50.068  25.762  29.065  1.00  0.00     0.040 A 
ATOM     73  F   UNL A   1      48.417  26.773  27.739  1.00  0.00    -0.206 F 
ATOM     74  C   UNL A   1      50.491  25.248  30.290  1.00  0.00     0.006 A 
ENDBRANCH  53  67
BRANCH  54  75
ATOM     75  C   UNL A   1      38.421  29.285  28.985  1.00  0.00     0.057 A 
ATOM     76  C   UNL A   1      37.563  29.248  30.091  1.00  0.00     0.134 A 
ATOM     77  C   UNL A   1      37.892  29.747  27.774  1.00  0.00     0.134 A 
ATOM     78  F   UNL A   1      38.007  28.796  31.272  1.00  0.00    -0.206 F 
ATOM     79  C   UNL A   1      36.228  29.641  29.994  1.00  0.00     0.040 A 
ATOM     80  C   UNL A   1      36.564  30.164  27.668  1.00  0.00     0.040 A 
ATOM     81  F   UNL A   1      38.663  29.811  26.678  1.00  0.00    -0.206 F 
ATOM     82  C   UNL A   1      35.726  30.105  28.780  1.00  0.00     0.006 A 
ENDBRANCH  54  75
BRANCH  66  83
ATOM     83  C   UNL A   1      44.192  32.300  31.430  1.00  0.00     0.057 A 
ATOM     84  C   UNL A   1      44.138  32.503  32.814  1.00  0.00     0.134 A 
ATOM     85  C   UNL A   1      44.543  33.392  30.626  1.00  0.00     0.134 A 
ATOM     86  F   UNL A   1      43.794  31.500  33.635  1.00  0.00    -0.206 F 
ATOM     87  C   UNL A   1      44.410  33.750  33.378  1.00  0.00     0.040 A 
ATOM     88  C   UNL A   1      44.839  34.638  31.180  1.00  0.00     0.040 A 
ATOM     89  F   UNL A   1      44.619  33.261  29.294  1.00  0.00    -0.206 F 
ATOM     90  C   UNL A   1      44.770  34.820  32.559  1.00  0.00     0.006 A 
ENDBRANCH  66  83
ENDBRANCH  40  41
ENDBRANCH  32  35
ENDBRANCH  30  31
ENDBRANCH  29  30
ENDBRANCH   1  29
TORSDOF 13
ENDMDL
