MODEL 1
REMARK VINA RESULT:     -13.2      0.000      0.000
REMARK SMILES [NH2+]=C1S[C@@H](C(=O)Nc2ccc(C(=O)NCCCCNC(=O)c3ccc(-c4c5nc(c(-c6c(F)cccc6F)c6ccc([nH]6)c(-c6c(F)cccc6F)c6nc(c(-c7c(F)cccc7F)c7ccc4[nH]7)C=C6)C=C5)cc3)cc2)CC(=O)N1/N=C/c1ccc(Cl)cc1
REMARK SMILES IDX 15 1 14 2 12 3 13 4 11 6 8 7 9 8 77 9 10 10 76 11 7 12 5 13
REMARK SMILES IDX 6 14 4 16 1 17 2 18 3 21 81 22 79 23 78 24 80 25 82 26 83 27
REMARK SMILES IDX 84 28 85 29 90 30 86 31 89 32 87 33 88 34 16 35 17 36 18 37
REMARK SMILES IDX 19 38 20 39 21 41 22 42 23 43 75 44 24 45 74 46 25 47 26 48
REMARK SMILES IDX 27 49 68 50 28 51 73 52 67 53 69 54 29 55 72 56 66 57 65 58
REMARK SMILES IDX 30 60 56 61 39 62 55 63 40 64 43 65 54 66 70 67 41 68 42 69
REMARK SMILES IDX 53 71 71 72 44 73 31 74 32 75 37 76 33 77 34 78 36 79 38 80
REMARK SMILES IDX 35 81 57 82 58 83 63 84 59 85 60 86 62 87 64 88 61 89 45 90
REMARK SMILES IDX 46 91 51 92 47 93 48 94 50 95 52 96 49 97
REMARK H PARENT 14 5 7 15 1 19 1 20 19 40 69 59 43 70
REMARK Flexibility Score: inf
ROOT
ATOM      1  C   UNL A   1      36.153  22.261  25.769  1.00  0.00     0.116 C 
ENDROOT
BRANCH   1   2
ATOM      2  N   UNL A   1      35.190  21.835  26.777  1.00  0.00    -0.352 N 
ATOM      3  C   UNL A   1      34.012  22.410  27.183  1.00  0.00     0.251 C 
ATOM      4  O   UNL A   1      33.243  21.762  27.891  1.00  0.00    -0.269 OA
ATOM      5  H   UNL A   1      35.423  21.000  27.242  1.00  0.00     0.163 HD
BRANCH   3   6
ATOM      6  C   UNL A   1      33.606  23.753  26.713  1.00  0.00     0.039 A 
ATOM      7  C   UNL A   1      32.715  26.146  25.613  1.00  0.00     0.041 A 
ATOM      8  C   UNL A   1      31.815  25.326  26.291  1.00  0.00     0.027 A 
ATOM      9  C   UNL A   1      34.077  25.857  25.630  1.00  0.00     0.027 A 
ATOM     10  C   UNL A   1      32.256  24.109  26.812  1.00  0.00     0.016 A 
ATOM     11  C   UNL A   1      34.527  24.668  26.202  1.00  0.00     0.016 A 
BRANCH   7  12
ATOM     12  N   UNL A   1      32.237  27.297  24.999  1.00  0.00    -0.325 N 
ATOM     13  C   UNL A   1      32.444  27.764  23.734  1.00  0.00     0.238 C 
ATOM     14  O   UNL A   1      32.266  28.975  23.550  1.00  0.00    -0.273 OA
ATOM     15  H   UNL A   1      31.660  27.862  25.563  1.00  0.00     0.169 HD
BRANCH  13  16
ATOM     16  C   UNL A   1      32.659  26.838  22.520  1.00  0.00     0.160 C 
ATOM     17  N   UNL A   1      30.032  24.367  23.574  1.00  0.00    -0.279 N 
ATOM     18  C   UNL A   1      31.150  24.659  23.004  1.00  0.00     0.338 C 
ATOM     19  H   UNL A   1      29.250  24.954  23.454  1.00  0.00     0.302 HD
ATOM     20  H   UNL A   1      29.959  23.559  24.130  1.00  0.00     0.302 HD
ATOM     21  S   UNL A   1      31.110  26.078  22.010  1.00  0.00    -0.022 SA
ATOM     22  N   UNL A   1      32.333  23.922  23.087  1.00  0.00    -0.057 N 
ATOM     23  C   UNL A   1      33.594  24.394  22.688  1.00  0.00     0.337 C 
ATOM     24  C   UNL A   1      33.809  25.876  22.428  1.00  0.00     0.155 C 
ATOM     25  O   UNL A   1      34.581  23.658  22.532  1.00  0.00    -0.244 OA
BRANCH  22  26
ATOM     26  N   UNL A   1      32.379  22.575  23.523  1.00  0.00    -0.082 NA
ATOM     27  C   UNL A   1      32.150  21.577  22.738  1.00  0.00     0.167 C 
BRANCH  27  28
ATOM     28  C   UNL A   1      32.348  20.187  23.201  1.00  0.00    -0.003 A 
ATOM     29  C   UNL A   1      32.574  19.980  24.565  1.00  0.00     0.011 A 
ATOM     30  C   UNL A   1      32.376  19.114  22.311  1.00  0.00     0.011 A 
ATOM     31  C   UNL A   1      32.800  18.687  25.042  1.00  0.00     0.021 A 
ATOM     32  C   UNL A   1      32.590  17.817  22.793  1.00  0.00     0.021 A 
ATOM     33  C   UNL A   1      32.800  17.610  24.156  1.00  0.00     0.041 A 
ATOM     34  Cl  UNL A   1      33.077  16.019  24.747  1.00  0.00    -0.084 Cl
ENDBRANCH  27  28
ENDBRANCH  22  26
ENDBRANCH  13  16
ENDBRANCH   7  12
ENDBRANCH   3   6
ENDBRANCH   1   2
BRANCH   1  35
ATOM     35  C   UNL A   1      36.211  21.258  24.622  1.00  0.00     0.023 C 
BRANCH  35  36
ATOM     36  C   UNL A   1      37.250  20.158  24.846  1.00  0.00     0.023 C 
BRANCH  36  37
ATOM     37  C   UNL A   1      38.527  20.642  25.532  1.00  0.00     0.116 C 
BRANCH  37  38
ATOM     38  N   UNL A   1      39.533  19.592  25.629  1.00  0.00    -0.352 N 
ATOM     39  C   UNL A   1      40.857  19.670  25.976  1.00  0.00     0.251 C 
ATOM     40  H   UNL A   1      39.212  18.687  25.413  1.00  0.00     0.163 HD
ATOM     41  O   UNL A   1      41.603  18.708  25.797  1.00  0.00    -0.269 OA
BRANCH  39  42
ATOM     42  C   UNL A   1      41.402  20.916  26.556  1.00  0.00     0.039 A 
ATOM     43  C   UNL A   1      41.964  21.873  25.707  1.00  0.00     0.014 A 
ATOM     44  C   UNL A   1      41.370  21.135  27.935  1.00  0.00     0.014 A 
ATOM     45  C   UNL A   1      42.422  23.083  26.234  1.00  0.00     0.010 A 
ATOM     46  C   UNL A   1      41.753  22.371  28.449  1.00  0.00     0.010 A 
ATOM     47  C   UNL A   1      42.280  23.359  27.604  1.00  0.00    -0.014 A 
BRANCH  47  48
ATOM     48  C   UNL A   1      42.665  24.676  28.175  1.00  0.00     0.031 A 
ATOM     49  C   UNL A   1      41.628  25.743  28.385  1.00  0.00     0.074 A 
ATOM     50  C   UNL A   1      43.962  24.938  28.430  1.00  0.00     0.049 A 
ATOM     51  N   UNL A   1      41.783  26.983  28.774  1.00  0.00    -0.248 NA
ATOM     52  C   UNL A   1      40.233  25.376  28.092  1.00  0.00     0.031 C 
ATOM     53  C   UNL A   1      45.071  24.002  28.232  1.00  0.00     0.029 A 
ATOM     54  N   UNL A   1      44.571  26.078  28.896  1.00  0.00    -0.354 N 
ATOM     55  C   UNL A   1      40.513  27.546  28.758  1.00  0.00     0.074 A 
ATOM     56  C   UNL A   1      39.606  26.529  28.272  1.00  0.00     0.031 C 
ATOM     57  C   UNL A   1      46.220  24.599  28.590  1.00  0.00     0.029 A 
ATOM     58  C   UNL A   1      45.937  25.972  28.996  1.00  0.00     0.049 A 
ATOM     59  H   UNL A   1      44.075  26.894  29.134  1.00  0.00     0.167 HD
ATOM     60  C   UNL A   1      40.134  28.791  29.134  1.00  0.00     0.037 A 
ATOM     61  C   UNL A   1      46.861  26.882  29.359  1.00  0.00     0.037 A 
ATOM     62  C   UNL A   1      41.036  29.795  29.634  1.00  0.00     0.049 A 
ATOM     63  C   UNL A   1      46.416  28.266  29.746  1.00  0.00     0.074 A 
ATOM     64  C   UNL A   1      40.740  31.066  30.095  1.00  0.00     0.029 A 
ATOM     65  N   UNL A   1      42.411  29.645  29.733  1.00  0.00    -0.354 N 
ATOM     66  N   UNL A   1      45.205  28.764  29.790  1.00  0.00    -0.248 NA
ATOM     67  C   UNL A   1      47.469  29.216  30.136  1.00  0.00     0.031 C 
ATOM     68  C   UNL A   1      41.941  31.704  30.420  1.00  0.00     0.029 A 
ATOM     69  C   UNL A   1      42.979  30.809  30.221  1.00  0.00     0.049 A 
ATOM     70  H   UNL A   1      42.909  28.829  29.492  1.00  0.00     0.167 HD
ATOM     71  C   UNL A   1      45.345  30.070  30.244  1.00  0.00     0.074 A 
ATOM     72  C   UNL A   1      46.759  30.283  30.472  1.00  0.00     0.031 C 
ATOM     73  C   UNL A   1      44.388  31.006  30.455  1.00  0.00     0.037 A 
BRANCH  60  74
ATOM     74  C   UNL A   1      38.677  29.139  29.016  1.00  0.00     0.057 A 
ATOM     75  C   UNL A   1      37.802  29.044  30.106  1.00  0.00     0.134 A 
ATOM     76  C   UNL A   1      38.150  29.611  27.806  1.00  0.00     0.134 A 
ATOM     77  F   UNL A   1      38.238  28.589  31.291  1.00  0.00    -0.206 F 
ATOM     78  C   UNL A   1      36.452  29.378  29.991  1.00  0.00     0.040 A 
ATOM     79  C   UNL A   1      36.808  29.979  27.687  1.00  0.00     0.040 A 
ATOM     80  F   UNL A   1      38.933  29.736  26.724  1.00  0.00    -0.206 F 
ATOM     81  C   UNL A   1      35.953  29.854  28.780  1.00  0.00     0.006 A 
ENDBRANCH  60  74
BRANCH  61  82
ATOM     82  C   UNL A   1      48.299  26.514  29.384  1.00  0.00     0.057 A 
ATOM     83  C   UNL A   1      48.870  25.908  30.509  1.00  0.00     0.134 A 
ATOM     84  C   UNL A   1      49.141  26.770  28.295  1.00  0.00     0.134 A 
ATOM     85  F   UNL A   1      48.121  25.654  31.592  1.00  0.00    -0.206 F 
ATOM     86  C   UNL A   1      50.227  25.588  30.559  1.00  0.00     0.040 A 
ATOM     87  C   UNL A   1      50.495  26.430  28.319  1.00  0.00     0.040 A 
ATOM     88  F   UNL A   1      48.656  27.342  27.183  1.00  0.00    -0.206 F 
ATOM     89  C   UNL A   1      51.043  25.845  29.459  1.00  0.00     0.006 A 
ENDBRANCH  61  82
BRANCH  73  90
ATOM     90  C   UNL A   1      44.827  32.334  31.002  1.00  0.00     0.057 A 
ATOM     91  C   UNL A   1      44.943  32.570  32.378  1.00  0.00     0.134 A 
ATOM     92  C   UNL A   1      45.188  33.374  30.135  1.00  0.00     0.134 A 
ATOM     93  F   UNL A   1      44.601  31.621  33.262  1.00  0.00    -0.206 F 
ATOM     94  C   UNL A   1      45.386  33.798  32.871  1.00  0.00     0.040 A 
ATOM     95  C   UNL A   1      45.659  34.595  30.616  1.00  0.00     0.040 A 
ATOM     96  F   UNL A   1      45.107  33.211  28.805  1.00  0.00    -0.206 F 
ATOM     97  C   UNL A   1      45.755  34.812  31.989  1.00  0.00     0.006 A 
ENDBRANCH  73  90
ENDBRANCH  47  48
ENDBRANCH  39  42
ENDBRANCH  37  38
ENDBRANCH  36  37
ENDBRANCH  35  36
ENDBRANCH   1  35
TORSDOF 15
ENDMDL
MODEL 2
REMARK VINA RESULT:     -13.1      0.432      5.985
REMARK SMILES [NH2+]=C1S[C@@H](C(=O)Nc2ccc(C(=O)NCCCCNC(=O)c3ccc(-c4c5nc(c(-c6c(F)cccc6F)c6ccc([nH]6)c(-c6c(F)cccc6F)c6nc(c(-c7c(F)cccc7F)c7ccc4[nH]7)C=C6)C=C5)cc3)cc2)CC(=O)N1/N=C/c1ccc(Cl)cc1
REMARK SMILES IDX 15 1 14 2 12 3 13 4 11 6 8 7 9 8 77 9 10 10 76 11 7 12 5 13
REMARK SMILES IDX 6 14 4 16 1 17 2 18 3 21 81 22 79 23 78 24 80 25 82 26 83 27
REMARK SMILES IDX 84 28 85 29 90 30 86 31 89 32 87 33 88 34 16 35 17 36 18 37
REMARK SMILES IDX 19 38 20 39 21 41 22 42 23 43 75 44 24 45 74 46 25 47 26 48
REMARK SMILES IDX 27 49 68 50 28 51 73 52 67 53 69 54 29 55 72 56 66 57 65 58
REMARK SMILES IDX 30 60 56 61 39 62 55 63 40 64 43 65 54 66 70 67 41 68 42 69
REMARK SMILES IDX 53 71 71 72 44 73 31 74 32 75 37 76 33 77 34 78 36 79 38 80
REMARK SMILES IDX 35 81 57 82 58 83 63 84 59 85 60 86 62 87 64 88 61 89 45 90
REMARK SMILES IDX 46 91 51 92 47 93 48 94 50 95 52 96 49 97
REMARK H PARENT 14 5 7 15 1 19 1 20 19 40 69 59 43 70
REMARK Flexibility Score: inf
ROOT
ATOM      1  C   UNL A   1      36.108  21.943  25.746  1.00  0.00     0.116 C 
ENDROOT
BRANCH   1   2
ATOM      2  N   UNL A   1      35.181  21.569  26.807  1.00  0.00    -0.352 N 
ATOM      3  C   UNL A   1      34.042  22.189  27.255  1.00  0.00     0.251 C 
ATOM      4  O   UNL A   1      33.288  21.581  28.012  1.00  0.00    -0.269 OA
ATOM      5  H   UNL A   1      35.410  20.736  27.279  1.00  0.00     0.163 HD
BRANCH   3   6
ATOM      6  C   UNL A   1      33.656  23.534  26.776  1.00  0.00     0.039 A 
ATOM      7  C   UNL A   1      32.805  25.933  25.656  1.00  0.00     0.041 A 
ATOM      8  C   UNL A   1      31.887  25.123  26.321  1.00  0.00     0.027 A 
ATOM      9  C   UNL A   1      34.165  25.632  25.696  1.00  0.00     0.027 A 
ATOM     10  C   UNL A   1      32.308  23.903  26.851  1.00  0.00     0.016 A 
ATOM     11  C   UNL A   1      34.594  24.440  26.278  1.00  0.00     0.016 A 
BRANCH   7  12
ATOM     12  N   UNL A   1      32.348  27.087  25.031  1.00  0.00    -0.325 N 
ATOM     13  C   UNL A   1      32.580  27.549  23.770  1.00  0.00     0.238 C 
ATOM     14  O   UNL A   1      32.417  28.761  23.580  1.00  0.00    -0.273 OA
ATOM     15  H   UNL A   1      31.767  27.659  25.585  1.00  0.00     0.169 HD
BRANCH  13  16
ATOM     16  C   UNL A   1      32.806  26.619  22.561  1.00  0.00     0.160 C 
ATOM     17  N   UNL A   1      30.231  24.106  23.647  1.00  0.00    -0.279 N 
ATOM     18  C   UNL A   1      31.341  24.415  23.068  1.00  0.00     0.338 C 
ATOM     19  H   UNL A   1      29.438  24.678  23.526  1.00  0.00     0.302 HD
ATOM     20  H   UNL A   1      30.176  23.301  24.209  1.00  0.00     0.302 HD
ATOM     21  S   UNL A   1      31.269  25.825  22.064  1.00  0.00    -0.022 SA
ATOM     22  N   UNL A   1      32.538  23.701  23.151  1.00  0.00    -0.057 N 
ATOM     23  C   UNL A   1      33.788  24.194  22.742  1.00  0.00     0.337 C 
ATOM     24  C   UNL A   1      33.974  25.678  22.470  1.00  0.00     0.155 C 
ATOM     25  O   UNL A   1      34.788  23.475  22.587  1.00  0.00    -0.244 OA
BRANCH  22  26
ATOM     26  N   UNL A   1      32.612  22.358  23.597  1.00  0.00    -0.082 NA
ATOM     27  C   UNL A   1      32.128  21.370  22.923  1.00  0.00     0.167 C 
BRANCH  27  28
ATOM     28  C   UNL A   1      32.352  19.974  23.358  1.00  0.00    -0.003 A 
ATOM     29  C   UNL A   1      32.529  19.738  24.724  1.00  0.00     0.011 A 
ATOM     30  C   UNL A   1      32.452  18.928  22.442  1.00  0.00     0.011 A 
ATOM     31  C   UNL A   1      32.778  18.440  25.176  1.00  0.00     0.021 A 
ATOM     32  C   UNL A   1      32.689  17.626  22.898  1.00  0.00     0.021 A 
ATOM     33  C   UNL A   1      32.850  17.388  24.262  1.00  0.00     0.041 A 
ATOM     34  Cl  UNL A   1      33.154  15.791  24.823  1.00  0.00    -0.084 Cl
ENDBRANCH  27  28
ENDBRANCH  22  26
ENDBRANCH  13  16
ENDBRANCH   7  12
ENDBRANCH   3   6
ENDBRANCH   1   2
BRANCH   1  35
ATOM     35  C   UNL A   1      36.167  20.860  24.675  1.00  0.00     0.023 C 
BRANCH  35  36
ATOM     36  C   UNL A   1      37.267  19.828  24.932  1.00  0.00     0.023 C 
BRANCH  36  37
ATOM     37  C   UNL A   1      38.555  20.424  25.499  1.00  0.00     0.116 C 
BRANCH  37  38
ATOM     38  N   UNL A   1      39.600  19.422  25.666  1.00  0.00    -0.352 N 
ATOM     39  C   UNL A   1      40.912  19.570  26.037  1.00  0.00     0.251 C 
ATOM     40  H   UNL A   1      39.320  18.496  25.485  1.00  0.00     0.163 HD
ATOM     41  O   UNL A   1      41.699  18.632  25.918  1.00  0.00    -0.269 OA
BRANCH  39  42
ATOM     42  C   UNL A   1      41.392  20.862  26.570  1.00  0.00     0.039 A 
ATOM     43  C   UNL A   1      42.025  21.762  25.708  1.00  0.00     0.014 A 
ATOM     44  C   UNL A   1      41.231  21.181  27.921  1.00  0.00     0.014 A 
ATOM     45  C   UNL A   1      42.424  23.013  26.183  1.00  0.00     0.010 A 
ATOM     46  C   UNL A   1      41.556  22.457  28.374  1.00  0.00     0.010 A 
ATOM     47  C   UNL A   1      42.154  23.387  27.510  1.00  0.00    -0.014 A 
BRANCH  47  48
ATOM     48  C   UNL A   1      42.476  24.747  28.015  1.00  0.00     0.031 A 
ATOM     49  C   UNL A   1      43.872  25.077  28.462  1.00  0.00     0.074 A 
ATOM     50  C   UNL A   1      41.493  25.659  28.147  1.00  0.00     0.049 A 
ATOM     51  N   UNL A   1      44.325  26.169  29.025  1.00  0.00    -0.248 NA
ATOM     52  C   UNL A   1      44.891  24.032  28.277  1.00  0.00     0.031 C 
ATOM     53  C   UNL A   1      40.089  25.450  27.787  1.00  0.00     0.029 A 
ATOM     54  N   UNL A   1      41.522  26.942  28.636  1.00  0.00    -0.354 N 
ATOM     55  C   UNL A   1      45.672  25.937  29.274  1.00  0.00     0.074 A 
ATOM     56  C   UNL A   1      45.951  24.582  28.849  1.00  0.00     0.031 C 
ATOM     57  C   UNL A   1      39.395  26.569  28.051  1.00  0.00     0.029 A 
ATOM     58  C   UNL A   1      40.293  27.557  28.642  1.00  0.00     0.049 A 
ATOM     59  H   UNL A   1      42.344  27.380  28.953  1.00  0.00     0.167 HD
ATOM     60  C   UNL A   1      46.595  26.782  29.790  1.00  0.00     0.037 A 
ATOM     61  C   UNL A   1      39.926  28.774  29.087  1.00  0.00     0.037 A 
ATOM     62  C   UNL A   1      46.318  28.135  30.195  1.00  0.00     0.049 A 
ATOM     63  C   UNL A   1      40.966  29.684  29.682  1.00  0.00     0.074 A 
ATOM     64  C   UNL A   1      47.198  29.088  30.677  1.00  0.00     0.029 A 
ATOM     65  N   UNL A   1      45.062  28.726  30.174  1.00  0.00    -0.354 N 
ATOM     66  N   UNL A   1      42.249  29.475  29.850  1.00  0.00    -0.248 NA
ATOM     67  C   UNL A   1      40.507  31.001  30.147  1.00  0.00     0.031 C 
ATOM     68  C   UNL A   1      46.467  30.237  30.997  1.00  0.00     0.029 A 
ATOM     69  C   UNL A   1      45.142  30.020  30.658  1.00  0.00     0.049 A 
ATOM     70  H   UNL A   1      44.238  28.288  29.859  1.00  0.00     0.167 HD
ATOM     71  C   UNL A   1      42.756  30.643  30.406  1.00  0.00     0.074 A 
ATOM     72  C   UNL A   1      41.643  31.560  30.538  1.00  0.00     0.031 C 
ATOM     73  C   UNL A   1      44.029  30.929  30.773  1.00  0.00     0.037 A 
BRANCH  60  74
ATOM     74  C   UNL A   1      47.997  26.265  29.949  1.00  0.00     0.057 A 
ATOM     75  C   UNL A   1      48.933  26.327  28.908  1.00  0.00     0.134 A 
ATOM     76  C   UNL A   1      48.429  25.734  31.172  1.00  0.00     0.134 A 
ATOM     77  F   UNL A   1      48.583  26.815  27.708  1.00  0.00    -0.206 F 
ATOM     78  C   UNL A   1      50.236  25.855  29.067  1.00  0.00     0.040 A 
ATOM     79  C   UNL A   1      49.739  25.286  31.353  1.00  0.00     0.040 A 
ATOM     80  F   UNL A   1      47.589  25.653  32.215  1.00  0.00    -0.206 F 
ATOM     81  C   UNL A   1      50.645  25.339  30.295  1.00  0.00     0.006 A 
ENDBRANCH  60  74
BRANCH  61  82
ATOM     82  C   UNL A   1      38.510  29.211  28.980  1.00  0.00     0.057 A 
ATOM     83  C   UNL A   1      37.989  29.682  27.770  1.00  0.00     0.134 A 
ATOM     84  C   UNL A   1      37.649  29.181  30.084  1.00  0.00     0.134 A 
ATOM     85  F   UNL A   1      38.769  29.753  26.682  1.00  0.00    -0.206 F 
ATOM     86  C   UNL A   1      36.671  30.127  27.665  1.00  0.00     0.040 A 
ATOM     87  C   UNL A   1      36.319  29.597  29.986  1.00  0.00     0.040 A 
ATOM     88  F   UNL A   1      38.083  28.734  31.271  1.00  0.00    -0.206 F 
ATOM     89  C   UNL A   1      35.830  30.081  28.775  1.00  0.00     0.006 A 
ENDBRANCH  61  82
BRANCH  73  90
ATOM     90  C   UNL A   1      44.303  32.305  31.310  1.00  0.00     0.057 A 
ATOM     91  C   UNL A   1      44.607  33.384  30.471  1.00  0.00     0.134 A 
ATOM     92  C   UNL A   1      44.207  32.561  32.684  1.00  0.00     0.134 A 
ATOM     93  F   UNL A   1      44.726  33.203  29.147  1.00  0.00    -0.206 F 
ATOM     94  C   UNL A   1      44.823  34.664  30.981  1.00  0.00     0.040 A 
ATOM     95  C   UNL A   1      44.394  33.842  33.202  1.00  0.00     0.040 A 
ATOM     96  F   UNL A   1      43.911  31.574  33.543  1.00  0.00    -0.206 F 
ATOM     97  C   UNL A   1      44.708  34.899  32.350  1.00  0.00     0.006 A 
ENDBRANCH  73  90
ENDBRANCH  47  48
ENDBRANCH  39  42
ENDBRANCH  37  38
ENDBRANCH  36  37
ENDBRANCH  35  36
ENDBRANCH   1  35
TORSDOF 15
ENDMDL
MODEL 3
REMARK VINA RESULT:     -12.9      4.296      9.131
REMARK SMILES [NH2+]=C1S[C@@H](C(=O)Nc2ccc(C(=O)NCCCCNC(=O)c3ccc(-c4c5nc(c(-c6c(F)cccc6F)c6ccc([nH]6)c(-c6c(F)cccc6F)c6nc(c(-c7c(F)cccc7F)c7ccc4[nH]7)C=C6)C=C5)cc3)cc2)CC(=O)N1/N=C/c1ccc(Cl)cc1
REMARK SMILES IDX 15 1 14 2 12 3 13 4 11 6 8 7 9 8 77 9 10 10 76 11 7 12 5 13
REMARK SMILES IDX 6 14 4 16 1 17 2 18 3 21 81 22 79 23 78 24 80 25 82 26 83 27
REMARK SMILES IDX 84 28 85 29 90 30 86 31 89 32 87 33 88 34 16 35 17 36 18 37
REMARK SMILES IDX 19 38 20 39 21 41 22 42 23 43 75 44 24 45 74 46 25 47 26 48
REMARK SMILES IDX 27 49 68 50 28 51 73 52 67 53 69 54 29 55 72 56 66 57 65 58
REMARK SMILES IDX 30 60 56 61 39 62 55 63 40 64 43 65 54 66 70 67 41 68 42 69
REMARK SMILES IDX 53 71 71 72 44 73 31 74 32 75 37 76 33 77 34 78 36 79 38 80
REMARK SMILES IDX 35 81 57 82 58 83 63 84 59 85 60 86 62 87 64 88 61 89 45 90
REMARK SMILES IDX 46 91 51 92 47 93 48 94 50 95 52 96 49 97
REMARK H PARENT 14 5 7 15 1 19 1 20 19 40 69 59 43 70
REMARK Flexibility Score: inf
ROOT
ATOM      1  C   UNL A   1      29.243  31.437  24.531  1.00  0.00     0.116 C 
ENDROOT
BRANCH   1   2
ATOM      2  N   UNL A   1      29.510  31.007  23.164  1.00  0.00    -0.352 N 
ATOM      3  C   UNL A   1      29.905  29.788  22.674  1.00  0.00     0.251 C 
ATOM      4  O   UNL A   1      29.853  29.584  21.463  1.00  0.00    -0.269 OA
ATOM      5  H   UNL A   1      29.385  31.705  22.481  1.00  0.00     0.163 HD
BRANCH   3   6
ATOM      6  C   UNL A   1      30.305  28.687  23.577  1.00  0.00     0.039 A 
ATOM      7  C   UNL A   1      30.825  26.678  25.429  1.00  0.00     0.041 A 
ATOM      8  C   UNL A   1      29.814  26.497  24.487  1.00  0.00     0.027 A 
ATOM      9  C   UNL A   1      31.678  27.776  25.341  1.00  0.00     0.027 A 
ATOM     10  C   UNL A   1      29.531  27.520  23.582  1.00  0.00     0.016 A 
ATOM     11  C   UNL A   1      31.431  28.772  24.398  1.00  0.00     0.016 A 
BRANCH   7  12
ATOM     12  N   UNL A   1      31.017  25.701  26.398  1.00  0.00    -0.325 N 
ATOM     13  C   UNL A   1      31.198  24.357  26.262  1.00  0.00     0.238 C 
ATOM     14  O   UNL A   1      30.939  23.655  27.249  1.00  0.00    -0.273 OA
ATOM     15  H   UNL A   1      31.026  26.031  27.327  1.00  0.00     0.169 HD
BRANCH  13  16
ATOM     16  C   UNL A   1      31.902  23.721  25.047  1.00  0.00     0.160 C 
ATOM     17  N   UNL A   1      33.282  20.822  26.999  1.00  0.00    -0.279 N 
ATOM     18  C   UNL A   1      33.359  21.686  26.045  1.00  0.00     0.338 C 
ATOM     19  H   UNL A   1      32.424  20.382  27.196  1.00  0.00     0.302 HD
ATOM     20  H   UNL A   1      34.081  20.602  27.529  1.00  0.00     0.302 HD
ATOM     21  S   UNL A   1      31.887  21.925  25.162  1.00  0.00    -0.022 SA
ATOM     22  N   UNL A   1      34.504  22.383  25.657  1.00  0.00    -0.057 N 
ATOM     23  C   UNL A   1      34.505  23.503  24.810  1.00  0.00     0.337 C 
ATOM     24  C   UNL A   1      33.207  24.234  24.506  1.00  0.00     0.155 C 
ATOM     25  O   UNL A   1      35.530  23.955  24.276  1.00  0.00    -0.244 OA
BRANCH  22  26
ATOM     26  N   UNL A   1      35.815  21.989  26.024  1.00  0.00    -0.082 NA
ATOM     27  C   UNL A   1      36.592  21.324  25.236  1.00  0.00     0.167 C 
BRANCH  27  28
ATOM     28  C   UNL A   1      37.998  21.058  25.607  1.00  0.00    -0.003 A 
ATOM     29  C   UNL A   1      38.747  22.117  26.126  1.00  0.00     0.011 A 
ATOM     30  C   UNL A   1      38.590  19.814  25.391  1.00  0.00     0.011 A 
ATOM     31  C   UNL A   1      40.090  21.920  26.457  1.00  0.00     0.021 A 
ATOM     32  C   UNL A   1      39.932  19.614  25.736  1.00  0.00     0.021 A 
ATOM     33  C   UNL A   1      40.675  20.667  26.268  1.00  0.00     0.041 A 
ATOM     34  Cl  UNL A   1      42.327  20.427  26.679  1.00  0.00    -0.084 Cl
ENDBRANCH  27  28
ENDBRANCH  22  26
ENDBRANCH  13  16
ENDBRANCH   7  12
ENDBRANCH   3   6
ENDBRANCH   1   2
BRANCH   1  35
ATOM     35  C   UNL A   1      30.355  32.352  25.035  1.00  0.00     0.023 C 
BRANCH  35  36
ATOM     36  C   UNL A   1      30.892  31.936  26.406  1.00  0.00     0.023 C 
BRANCH  36  37
ATOM     37  C   UNL A   1      32.283  32.485  26.718  1.00  0.00     0.116 C 
BRANCH  37  38
ATOM     38  N   UNL A   1      32.233  33.834  27.268  1.00  0.00    -0.352 N 
ATOM     39  C   UNL A   1      32.973  34.404  28.273  1.00  0.00     0.251 C 
ATOM     40  H   UNL A   1      31.566  34.427  26.854  1.00  0.00     0.163 HD
ATOM     41  O   UNL A   1      32.643  35.492  28.744  1.00  0.00    -0.269 OA
BRANCH  39  42
ATOM     42  C   UNL A   1      34.163  33.709  28.806  1.00  0.00     0.039 A 
ATOM     43  C   UNL A   1      35.430  34.245  28.563  1.00  0.00     0.014 A 
ATOM     44  C   UNL A   1      34.030  32.523  29.533  1.00  0.00     0.014 A 
ATOM     45  C   UNL A   1      36.558  33.635  29.117  1.00  0.00     0.010 A 
ATOM     46  C   UNL A   1      35.145  31.962  30.150  1.00  0.00     0.010 A 
ATOM     47  C   UNL A   1      36.420  32.513  29.951  1.00  0.00    -0.014 A 
BRANCH  47  48
ATOM     48  C   UNL A   1      37.590  31.904  30.634  1.00  0.00     0.031 A 
ATOM     49  C   UNL A   1      38.391  30.829  29.953  1.00  0.00     0.074 A 
ATOM     50  C   UNL A   1      37.884  32.262  31.900  1.00  0.00     0.049 A 
ATOM     51  N   UNL A   1      39.378  30.109  30.423  1.00  0.00    -0.248 NA
ATOM     52  C   UNL A   1      38.015  30.502  28.569  1.00  0.00     0.031 C 
ATOM     53  C   UNL A   1      37.161  33.263  32.687  1.00  0.00     0.029 A 
ATOM     54  N   UNL A   1      38.860  31.811  32.755  1.00  0.00    -0.354 N 
ATOM     55  C   UNL A   1      39.729  29.236  29.401  1.00  0.00     0.074 A 
ATOM     56  C   UNL A   1      38.816  29.480  28.305  1.00  0.00     0.031 C 
ATOM     57  C   UNL A   1      37.727  33.362  33.901  1.00  0.00     0.029 A 
ATOM     58  C   UNL A   1      38.821  32.401  33.995  1.00  0.00     0.049 A 
ATOM     59  H   UNL A   1      39.523  31.129  32.504  1.00  0.00     0.167 HD
ATOM     60  C   UNL A   1      40.732  28.328  29.370  1.00  0.00     0.037 A 
ATOM     61  C   UNL A   1      39.571  32.182  35.092  1.00  0.00     0.037 A 
ATOM     62  C   UNL A   1      41.651  28.099  30.456  1.00  0.00     0.049 A 
ATOM     63  C   UNL A   1      40.663  31.147  35.041  1.00  0.00     0.074 A 
ATOM     64  C   UNL A   1      42.736  27.241  30.499  1.00  0.00     0.029 A 
ATOM     65  N   UNL A   1      41.586  28.726  31.691  1.00  0.00    -0.354 N 
ATOM     66  N   UNL A   1      41.026  30.376  34.046  1.00  0.00    -0.248 NA
ATOM     67  C   UNL A   1      41.452  30.955  36.267  1.00  0.00     0.031 C 
ATOM     68  C   UNL A   1      43.295  27.309  31.779  1.00  0.00     0.029 A 
ATOM     69  C   UNL A   1      42.596  28.254  32.512  1.00  0.00     0.049 A 
ATOM     70  H   UNL A   1      40.921  29.406  31.945  1.00  0.00     0.167 HD
ATOM     71  C   UNL A   1      42.104  29.634  34.512  1.00  0.00     0.074 A 
ATOM     72  C   UNL A   1      42.342  30.055  35.877  1.00  0.00     0.031 C 
ATOM     73  C   UNL A   1      42.831  28.690  33.866  1.00  0.00     0.037 A 
BRANCH  60  74
ATOM     74  C   UNL A   1      40.890  27.508  28.120  1.00  0.00     0.057 A 
ATOM     75  C   UNL A   1      40.189  26.310  27.927  1.00  0.00     0.134 A 
ATOM     76  C   UNL A   1      41.725  27.941  27.082  1.00  0.00     0.134 A 
ATOM     77  F   UNL A   1      39.381  25.832  28.885  1.00  0.00    -0.206 F 
ATOM     78  C   UNL A   1      40.333  25.560  26.759  1.00  0.00     0.040 A 
ATOM     79  C   UNL A   1      41.854  27.215  25.896  1.00  0.00     0.040 A 
ATOM     80  F   UNL A   1      42.419  29.083  27.196  1.00  0.00    -0.206 F 
ATOM     81  C   UNL A   1      41.163  26.015  25.736  1.00  0.00     0.006 A 
ENDBRANCH  60  74
BRANCH  61  82
ATOM     82  C   UNL A   1      39.326  32.963  36.331  1.00  0.00     0.057 A 
ATOM     83  C   UNL A   1      39.958  34.192  36.548  1.00  0.00     0.134 A 
ATOM     84  C   UNL A   1      38.466  32.496  37.333  1.00  0.00     0.134 A 
ATOM     85  F   UNL A   1      40.808  34.683  35.634  1.00  0.00    -0.206 F 
ATOM     86  C   UNL A   1      39.763  34.919  37.722  1.00  0.00     0.040 A 
ATOM     87  C   UNL A   1      38.238  33.226  38.502  1.00  0.00     0.040 A 
ATOM     88  F   UNL A   1      37.823  31.329  37.185  1.00  0.00    -0.206 F 
ATOM     89  C   UNL A   1      38.896  34.438  38.702  1.00  0.00     0.006 A 
ENDBRANCH  61  82
BRANCH  73  90
ATOM     90  C   UNL A   1      43.985  28.076  34.607  1.00  0.00     0.057 A 
ATOM     91  C   UNL A   1      45.260  28.655  34.608  1.00  0.00     0.134 A 
ATOM     92  C   UNL A   1      43.799  26.919  35.375  1.00  0.00     0.134 A 
ATOM     93  F   UNL A   1      45.508  29.757  33.883  1.00  0.00    -0.206 F 
ATOM     94  C   UNL A   1      46.314  28.094  35.330  1.00  0.00     0.040 A 
ATOM     95  C   UNL A   1      44.838  26.365  36.123  1.00  0.00     0.040 A 
ATOM     96  F   UNL A   1      42.600  26.319  35.425  1.00  0.00    -0.206 F 
ATOM     97  C   UNL A   1      46.102  26.950  36.098  1.00  0.00     0.006 A 
ENDBRANCH  73  90
ENDBRANCH  47  48
ENDBRANCH  39  42
ENDBRANCH  37  38
ENDBRANCH  36  37
ENDBRANCH  35  36
ENDBRANCH   1  35
TORSDOF 15
ENDMDL
