MODEL 1
REMARK VINA RESULT:     -11.9      0.000      0.000
REMARK SMILES C[C@H](NC(=O)N1CC[C@H](C(=O)NCCCCNC(=O)c2ccc(-c3c4nc(c(-c5c(F)cccc5F)c5ccc([nH]5)c(-c5c(F)cccc5F)c5nc(c(-c6c(F)cccc6F)c6ccc3[nH]6)C=C5)C=C4)cc2)[C@H]1C)c1ccsc1
REMARK SMILES IDX 14 1 13 2 12 3 10 4 11 5 9 7 6 8 7 9 74 10 8 11 75 12 4 13
REMARK SMILES IDX 3 14 5 16 2 17 1 18 76 19 77 20 80 21 78 22 79 23 15 24
REMARK SMILES IDX 16 25 17 26 18 27 19 29 20 30 21 31 73 32 22 33 72 34 23 35
REMARK SMILES IDX 24 36 25 37 66 38 26 39 71 40 65 41 67 42 27 43 70 44 64 45
REMARK SMILES IDX 63 46 28 48 54 49 37 50 53 51 38 52 41 53 52 54 68 55 39 56
REMARK SMILES IDX 40 57 51 59 69 60 42 61 29 62 30 63 35 64 31 65 32 66 34 67
REMARK SMILES IDX 36 68 33 69 55 70 56 71 61 72 57 73 58 74 60 75 62 76 59 77
REMARK SMILES IDX 43 78 44 79 49 80 45 81 46 82 48 83 50 84 47 85
REMARK H PARENT 12 6 3 15 17 28 67 47 41 58
REMARK Flexibility Score: inf
ROOT
ATOM      1  C   UNL A   1      31.778  30.432  26.434  1.00  0.00     0.023 C 
ENDROOT
BRANCH   1   2
ATOM      2  C   UNL A   1      33.215  30.087  26.049  1.00  0.00     0.116 C 
BRANCH   2   3
ATOM      3  N   UNL A   1      33.301  29.726  24.645  1.00  0.00    -0.356 N 
ATOM      4  C   UNL A   1      33.431  28.501  24.057  1.00  0.00     0.225 C 
ATOM      5  O   UNL A   1      33.645  28.465  22.847  1.00  0.00    -0.275 OA
ATOM      6  H   UNL A   1      33.260  30.484  24.019  1.00  0.00     0.163 HD
BRANCH   4   7
ATOM      7  C   UNL A   1      33.228  27.251  24.895  1.00  0.00     0.102 C 
ATOM      8  N   UNL A   1      32.866  25.351  23.495  1.00  0.00    -0.321 N 
ATOM      9  C   UNL A   1      31.573  25.986  23.738  1.00  0.00     0.122 C 
ATOM     10  C   UNL A   1      33.906  25.993  24.308  1.00  0.00     0.096 C 
ATOM     11  C   UNL A   1      31.750  26.873  24.953  1.00  0.00     0.037 C 
ATOM     12  C   UNL A   1      34.355  25.158  25.515  1.00  0.00     0.032 C 
BRANCH   8  13
ATOM     13  C   UNL A   1      32.972  24.676  22.320  1.00  0.00     0.318 C 
ATOM     14  N   UNL A   1      32.919  23.351  22.177  1.00  0.00    -0.331 N 
ATOM     15  H   UNL A   1      33.397  23.084  21.359  1.00  0.00     0.165 HD
ATOM     16  O   UNL A   1      33.104  25.284  21.249  1.00  0.00    -0.249 OA
BRANCH  14  17
ATOM     17  C   UNL A   1      32.381  22.175  22.840  1.00  0.00     0.112 C 
ATOM     18  C   UNL A   1      31.935  21.021  21.956  1.00  0.00     0.036 C 
BRANCH  17  19
ATOM     19  C   UNL A   1      33.142  21.823  24.103  1.00  0.00    -0.015 A 
ATOM     20  C   UNL A   1      34.569  21.733  24.274  1.00  0.00     0.017 A 
ATOM     21  C   UNL A   1      32.521  21.589  25.322  1.00  0.00     0.070 A 
ATOM     22  C   UNL A   1      34.950  21.383  25.550  1.00  0.00     0.065 A 
ATOM     23  S   UNL A   1      33.608  21.218  26.588  1.00  0.00    -0.152 S 
ENDBRANCH  17  19
ENDBRANCH  14  17
ENDBRANCH   8  13
ENDBRANCH   4   7
ENDBRANCH   2   3
ENDBRANCH   1   2
BRANCH   1  24
ATOM     24  C   UNL A   1      31.527  31.928  26.641  1.00  0.00     0.023 C 
BRANCH  24  25
ATOM     25  C   UNL A   1      32.678  32.694  27.286  1.00  0.00     0.116 C 
BRANCH  25  26
ATOM     26  N   UNL A   1      32.353  34.084  27.567  1.00  0.00    -0.352 N 
ATOM     27  C   UNL A   1      32.941  34.946  28.462  1.00  0.00     0.251 C 
ATOM     28  H   UNL A   1      31.608  34.460  27.044  1.00  0.00     0.163 HD
ATOM     29  O   UNL A   1      32.465  36.056  28.655  1.00  0.00    -0.269 OA
BRANCH  27  30
ATOM     30  C   UNL A   1      34.132  34.504  29.217  1.00  0.00     0.039 A 
ATOM     31  C   UNL A   1      33.952  33.941  30.481  1.00  0.00     0.014 A 
ATOM     32  C   UNL A   1      35.412  34.614  28.666  1.00  0.00     0.014 A 
ATOM     33  C   UNL A   1      35.051  33.422  31.166  1.00  0.00     0.010 A 
ATOM     34  C   UNL A   1      36.494  34.032  29.318  1.00  0.00     0.010 A 
ATOM     35  C   UNL A   1      36.324  33.427  30.572  1.00  0.00    -0.014 A 
BRANCH  35  36
ATOM     36  C   UNL A   1      37.481  32.781  31.239  1.00  0.00     0.031 A 
ATOM     37  C   UNL A   1      38.145  31.584  30.621  1.00  0.00     0.074 A 
ATOM     38  C   UNL A   1      37.884  33.231  32.443  1.00  0.00     0.049 A 
ATOM     39  N   UNL A   1      39.135  30.861  31.080  1.00  0.00    -0.248 NA
ATOM     40  C   UNL A   1      37.606  31.119  29.334  1.00  0.00     0.031 C 
ATOM     41  C   UNL A   1      37.275  34.340  33.179  1.00  0.00     0.029 A 
ATOM     42  N   UNL A   1      38.892  32.798  33.267  1.00  0.00    -0.354 N 
ATOM     43  C   UNL A   1      39.325  29.848  30.150  1.00  0.00     0.074 A 
ATOM     44  C   UNL A   1      38.316  30.020  29.127  1.00  0.00     0.031 C 
ATOM     45  C   UNL A   1      37.932  34.513  34.336  1.00  0.00     0.029 A 
ATOM     46  C   UNL A   1      38.986  33.509  34.439  1.00  0.00     0.049 A 
ATOM     47  H   UNL A   1      39.491  32.051  33.041  1.00  0.00     0.167 HD
ATOM     48  C   UNL A   1      40.267  28.875  30.139  1.00  0.00     0.037 A 
ATOM     49  C   UNL A   1      39.824  33.363  35.484  1.00  0.00     0.037 A 
ATOM     50  C   UNL A   1      41.285  28.724  31.146  1.00  0.00     0.049 A 
ATOM     51  C   UNL A   1      40.875  32.292  35.438  1.00  0.00     0.074 A 
ATOM     52  C   UNL A   1      42.340  27.830  31.178  1.00  0.00     0.029 A 
ATOM     53  N   UNL A   1      41.369  29.482  32.305  1.00  0.00    -0.354 N 
ATOM     54  N   UNL A   1      41.106  31.401  34.506  1.00  0.00    -0.248 NA
ATOM     55  C   UNL A   1      41.788  32.212  36.587  1.00  0.00     0.031 C 
ATOM     56  C   UNL A   1      43.032  28.011  32.380  1.00  0.00     0.029 A 
ATOM     57  C   UNL A   1      42.439  29.055  33.073  1.00  0.00     0.049 A 
ATOM     58  H   UNL A   1      40.757  30.215  32.545  1.00  0.00     0.167 HD
ATOM     59  C   UNL A   1      42.200  30.665  34.944  1.00  0.00     0.074 A 
ATOM     60  C   UNL A   1      42.598  31.229  36.217  1.00  0.00     0.031 C 
ATOM     61  C   UNL A   1      42.819  29.618  34.344  1.00  0.00     0.037 A 
BRANCH  48  62
ATOM     62  C   UNL A   1      40.236  27.896  29.001  1.00  0.00     0.057 A 
ATOM     63  C   UNL A   1      40.941  28.119  27.810  1.00  0.00     0.134 A 
ATOM     64  C   UNL A   1      39.506  26.705  29.104  1.00  0.00     0.134 A 
ATOM     65  F   UNL A   1      41.650  29.245  27.641  1.00  0.00    -0.206 F 
ATOM     66  C   UNL A   1      40.895  27.209  26.752  1.00  0.00     0.040 A 
ATOM     67  C   UNL A   1      39.476  25.774  28.064  1.00  0.00     0.040 A 
ATOM     68  F   UNL A   1      38.813  26.425  30.219  1.00  0.00    -0.206 F 
ATOM     69  C   UNL A   1      40.165  26.029  26.881  1.00  0.00     0.006 A 
ENDBRANCH  48  62
BRANCH  49  70
ATOM     70  C   UNL A   1      39.709  34.275  36.649  1.00  0.00     0.057 A 
ATOM     71  C   UNL A   1      38.964  33.915  37.777  1.00  0.00     0.134 A 
ATOM     72  C   UNL A   1      40.356  35.517  36.671  1.00  0.00     0.134 A 
ATOM     73  F   UNL A   1      38.309  32.746  37.808  1.00  0.00    -0.206 F 
ATOM     74  C   UNL A   1      38.855  34.762  38.881  1.00  0.00     0.040 A 
ATOM     75  C   UNL A   1      40.275  36.363  37.777  1.00  0.00     0.040 A 
ATOM     76  F   UNL A   1      41.094  35.914  35.624  1.00  0.00    -0.206 F 
ATOM     77  C   UNL A   1      39.518  35.987  38.886  1.00  0.00     0.006 A 
ENDBRANCH  49  70
BRANCH  61  78
ATOM     78  C   UNL A   1      44.000  29.024  35.054  1.00  0.00     0.057 A 
ATOM     79  C   UNL A   1      45.300  29.504  34.853  1.00  0.00     0.134 A 
ATOM     80  C   UNL A   1      43.830  27.983  35.975  1.00  0.00     0.134 A 
ATOM     81  F   UNL A   1      45.532  30.491  33.973  1.00  0.00    -0.206 F 
ATOM     82  C   UNL A   1      46.393  28.954  35.525  1.00  0.00     0.040 A 
ATOM     83  C   UNL A   1      44.910  27.443  36.674  1.00  0.00     0.040 A 
ATOM     84  F   UNL A   1      42.610  27.482  36.221  1.00  0.00    -0.206 F 
ATOM     85  C   UNL A   1      46.198  27.924  36.444  1.00  0.00     0.006 A 
ENDBRANCH  61  78
ENDBRANCH  35  36
ENDBRANCH  27  30
ENDBRANCH  25  26
ENDBRANCH  24  25
ENDBRANCH   1  24
TORSDOF 14
ENDMDL
MODEL 2
REMARK VINA RESULT:     -11.8      0.796      6.365
REMARK SMILES C[C@H](NC(=O)N1CC[C@H](C(=O)NCCCCNC(=O)c2ccc(-c3c4nc(c(-c5c(F)cccc5F)c5ccc([nH]5)c(-c5c(F)cccc5F)c5nc(c(-c6c(F)cccc6F)c6ccc3[nH]6)C=C5)C=C4)cc2)[C@H]1C)c1ccsc1
REMARK SMILES IDX 14 1 13 2 12 3 10 4 11 5 9 7 6 8 7 9 74 10 8 11 75 12 4 13
REMARK SMILES IDX 3 14 5 16 2 17 1 18 76 19 77 20 80 21 78 22 79 23 15 24
REMARK SMILES IDX 16 25 17 26 18 27 19 29 20 30 21 31 73 32 22 33 72 34 23 35
REMARK SMILES IDX 24 36 25 37 66 38 26 39 71 40 65 41 67 42 27 43 70 44 64 45
REMARK SMILES IDX 63 46 28 48 54 49 37 50 53 51 38 52 41 53 52 54 68 55 39 56
REMARK SMILES IDX 40 57 51 59 69 60 42 61 29 62 30 63 35 64 31 65 32 66 34 67
REMARK SMILES IDX 36 68 33 69 55 70 56 71 61 72 57 73 58 74 60 75 62 76 59 77
REMARK SMILES IDX 43 78 44 79 49 80 45 81 46 82 48 83 50 84 47 85
REMARK H PARENT 12 6 3 15 17 28 67 47 41 58
REMARK Flexibility Score: inf
ROOT
ATOM      1  C   UNL A   1      31.638  30.489  26.224  1.00  0.00     0.023 C 
ENDROOT
BRANCH   1   2
ATOM      2  C   UNL A   1      33.085  30.073  25.969  1.00  0.00     0.116 C 
BRANCH   2   3
ATOM      3  N   UNL A   1      33.279  29.703  24.578  1.00  0.00    -0.356 N 
ATOM      4  C   UNL A   1      33.496  28.479  24.014  1.00  0.00     0.225 C 
ATOM      5  O   UNL A   1      33.792  28.441  22.821  1.00  0.00    -0.275 OA
ATOM      6  H   UNL A   1      33.249  30.453  23.942  1.00  0.00     0.163 HD
BRANCH   4   7
ATOM      7  C   UNL A   1      33.288  27.230  24.851  1.00  0.00     0.102 C 
ATOM      8  N   UNL A   1      32.889  25.337  23.450  1.00  0.00    -0.321 N 
ATOM      9  C   UNL A   1      31.607  25.986  23.708  1.00  0.00     0.122 C 
ATOM     10  C   UNL A   1      33.945  25.966  24.254  1.00  0.00     0.096 C 
ATOM     11  C   UNL A   1      31.806  26.869  24.924  1.00  0.00     0.037 C 
ATOM     12  C   UNL A   1      34.397  25.123  25.455  1.00  0.00     0.032 C 
BRANCH   8  13
ATOM     13  C   UNL A   1      32.976  24.664  22.273  1.00  0.00     0.318 C 
ATOM     14  N   UNL A   1      32.903  23.340  22.128  1.00  0.00    -0.331 N 
ATOM     15  H   UNL A   1      33.369  23.068  21.304  1.00  0.00     0.165 HD
ATOM     16  O   UNL A   1      33.106  25.273  21.202  1.00  0.00    -0.249 OA
BRANCH  14  17
ATOM     17  C   UNL A   1      32.354  22.170  22.792  1.00  0.00     0.112 C 
ATOM     18  C   UNL A   1      31.856  21.037  21.908  1.00  0.00     0.036 C 
BRANCH  17  19
ATOM     19  C   UNL A   1      33.140  21.786  24.029  1.00  0.00    -0.015 A 
ATOM     20  C   UNL A   1      34.571  21.737  24.184  1.00  0.00     0.017 A 
ATOM     21  C   UNL A   1      32.541  21.472  25.241  1.00  0.00     0.070 A 
ATOM     22  C   UNL A   1      34.977  21.341  25.438  1.00  0.00     0.065 A 
ATOM     23  S   UNL A   1      33.653  21.079  26.478  1.00  0.00    -0.152 S 
ENDBRANCH  17  19
ENDBRANCH  14  17
ENDBRANCH   8  13
ENDBRANCH   4   7
ENDBRANCH   2   3
ENDBRANCH   1   2
BRANCH   1  24
ATOM     24  C   UNL A   1      31.465  31.968  26.579  1.00  0.00     0.023 C 
BRANCH  24  25
ATOM     25  C   UNL A   1      32.676  32.621  27.239  1.00  0.00     0.116 C 
BRANCH  25  26
ATOM     26  N   UNL A   1      32.440  34.003  27.626  1.00  0.00    -0.352 N 
ATOM     27  C   UNL A   1      33.086  34.758  28.576  1.00  0.00     0.251 C 
ATOM     28  H   UNL A   1      31.717  34.462  27.141  1.00  0.00     0.163 HD
ATOM     29  O   UNL A   1      32.681  35.877  28.857  1.00  0.00    -0.269 OA
BRANCH  27  30
ATOM     30  C   UNL A   1      34.252  34.188  29.283  1.00  0.00     0.039 A 
ATOM     31  C   UNL A   1      34.029  33.391  30.407  1.00  0.00     0.014 A 
ATOM     32  C   UNL A   1      35.551  34.411  28.820  1.00  0.00     0.014 A 
ATOM     33  C   UNL A   1      35.107  32.759  31.027  1.00  0.00     0.010 A 
ATOM     34  C   UNL A   1      36.615  33.723  29.394  1.00  0.00     0.010 A 
ATOM     35  C   UNL A   1      36.403  32.887  30.500  1.00  0.00    -0.014 A 
BRANCH  35  36
ATOM     36  C   UNL A   1      37.542  32.134  31.080  1.00  0.00     0.031 A 
ATOM     37  C   UNL A   1      38.052  32.464  32.453  1.00  0.00     0.074 A 
ATOM     38  C   UNL A   1      38.164  31.200  30.335  1.00  0.00     0.049 A 
ATOM     39  N   UNL A   1      39.063  31.947  33.105  1.00  0.00    -0.248 NA
ATOM     40  C   UNL A   1      37.355  33.536  33.179  1.00  0.00     0.031 C 
ATOM     41  C   UNL A   1      37.807  30.839  28.962  1.00  0.00     0.029 A 
ATOM     42  N   UNL A   1      39.238  30.397  30.622  1.00  0.00    -0.354 N 
ATOM     43  C   UNL A   1      39.135  32.642  34.305  1.00  0.00     0.074 A 
ATOM     44  C   UNL A   1      38.097  33.650  34.270  1.00  0.00     0.031 C 
ATOM     45  C   UNL A   1      38.635  29.873  28.533  1.00  0.00     0.029 A 
ATOM     46  C   UNL A   1      39.600  29.571  29.586  1.00  0.00     0.049 A 
ATOM     47  H   UNL A   1      39.706  30.410  31.489  1.00  0.00     0.167 HD
ATOM     48  C   UNL A   1      39.975  32.444  35.348  1.00  0.00     0.037 A 
ATOM     49  C   UNL A   1      40.600  28.675  29.491  1.00  0.00     0.037 A 
ATOM     50  C   UNL A   1      40.989  31.422  35.388  1.00  0.00     0.049 A 
ATOM     51  C   UNL A   1      41.505  28.457  30.670  1.00  0.00     0.074 A 
ATOM     52  C   UNL A   1      41.828  31.082  36.433  1.00  0.00     0.029 A 
ATOM     53  N   UNL A   1      41.307  30.584  34.330  1.00  0.00    -0.354 N 
ATOM     54  N   UNL A   1      41.500  29.055  31.836  1.00  0.00    -0.248 NA
ATOM     55  C   UNL A   1      42.550  27.434  30.522  1.00  0.00     0.031 C 
ATOM     56  C   UNL A   1      42.689  30.071  35.992  1.00  0.00     0.029 A 
ATOM     57  C   UNL A   1      42.350  29.746  34.687  1.00  0.00     0.049 A 
ATOM     58  H   UNL A   1      40.856  30.583  33.455  1.00  0.00     0.167 HD
ATOM     59  C   UNL A   1      42.526  28.470  32.568  1.00  0.00     0.074 A 
ATOM     60  C   UNL A   1      43.118  27.457  31.720  1.00  0.00     0.031 C 
ATOM     61  C   UNL A   1      42.938  28.748  33.830  1.00  0.00     0.037 A 
BRANCH  48  62
ATOM     62  C   UNL A   1      39.833  33.358  36.531  1.00  0.00     0.057 A 
ATOM     63  C   UNL A   1      38.960  33.071  37.589  1.00  0.00     0.134 A 
ATOM     64  C   UNL A   1      40.594  34.530  36.623  1.00  0.00     0.134 A 
ATOM     65  F   UNL A   1      38.192  31.972  37.559  1.00  0.00    -0.206 F 
ATOM     66  C   UNL A   1      38.824  33.933  38.679  1.00  0.00     0.040 A 
ATOM     67  C   UNL A   1      40.489  35.385  37.722  1.00  0.00     0.040 A 
ATOM     68  F   UNL A   1      41.455  34.862  35.649  1.00  0.00    -0.206 F 
ATOM     69  C   UNL A   1      39.596  35.092  38.750  1.00  0.00     0.006 A 
ENDBRANCH  48  62
BRANCH  49  70
ATOM     70  C   UNL A   1      40.778  27.903  28.236  1.00  0.00     0.057 A 
ATOM     71  C   UNL A   1      41.567  28.397  27.191  1.00  0.00     0.134 A 
ATOM     72  C   UNL A   1      40.182  26.648  28.060  1.00  0.00     0.134 A 
ATOM     73  F   UNL A   1      42.150  29.599  27.295  1.00  0.00    -0.206 F 
ATOM     74  C   UNL A   1      41.746  27.677  26.009  1.00  0.00     0.040 A 
ATOM     75  C   UNL A   1      40.372  25.908  26.893  1.00  0.00     0.040 A 
ATOM     76  F   UNL A   1      39.424  26.117  29.029  1.00  0.00    -0.206 F 
ATOM     77  C   UNL A   1      41.154  26.424  25.861  1.00  0.00     0.006 A 
ENDBRANCH  49  70
BRANCH  61  78
ATOM     78  C   UNL A   1      44.075  27.934  34.372  1.00  0.00     0.057 A 
ATOM     79  C   UNL A   1      43.869  26.687  34.976  1.00  0.00     0.134 A 
ATOM     80  C   UNL A   1      45.396  28.387  34.258  1.00  0.00     0.134 A 
ATOM     81  F   UNL A   1      42.627  26.203  35.129  1.00  0.00    -0.206 F 
ATOM     82  C   UNL A   1      44.934  25.930  35.469  1.00  0.00     0.040 A 
ATOM     83  C   UNL A   1      46.471  27.627  34.721  1.00  0.00     0.040 A 
ATOM     84  F   UNL A   1      45.664  29.569  33.682  1.00  0.00    -0.206 F 
ATOM     85  C   UNL A   1      46.241  26.398  35.336  1.00  0.00     0.006 A 
ENDBRANCH  61  78
ENDBRANCH  35  36
ENDBRANCH  27  30
ENDBRANCH  25  26
ENDBRANCH  24  25
ENDBRANCH   1  24
TORSDOF 14
ENDMDL
MODEL 3
REMARK VINA RESULT:     -11.8      5.543     10.609
REMARK SMILES C[C@H](NC(=O)N1CC[C@H](C(=O)NCCCCNC(=O)c2ccc(-c3c4nc(c(-c5c(F)cccc5F)c5ccc([nH]5)c(-c5c(F)cccc5F)c5nc(c(-c6c(F)cccc6F)c6ccc3[nH]6)C=C5)C=C4)cc2)[C@H]1C)c1ccsc1
REMARK SMILES IDX 14 1 13 2 12 3 10 4 11 5 9 7 6 8 7 9 74 10 8 11 75 12 4 13
REMARK SMILES IDX 3 14 5 16 2 17 1 18 76 19 77 20 80 21 78 22 79 23 15 24
REMARK SMILES IDX 16 25 17 26 18 27 19 29 20 30 21 31 73 32 22 33 72 34 23 35
REMARK SMILES IDX 24 36 25 37 66 38 26 39 71 40 65 41 67 42 27 43 70 44 64 45
REMARK SMILES IDX 63 46 28 48 54 49 37 50 53 51 38 52 41 53 52 54 68 55 39 56
REMARK SMILES IDX 40 57 51 59 69 60 42 61 29 62 30 63 35 64 31 65 32 66 34 67
REMARK SMILES IDX 36 68 33 69 55 70 56 71 61 72 57 73 58 74 60 75 62 76 59 77
REMARK SMILES IDX 43 78 44 79 49 80 45 81 46 82 48 83 50 84 47 85
REMARK H PARENT 12 6 3 15 17 28 67 47 41 58
REMARK Flexibility Score: inf
ROOT
ATOM      1  C   UNL A   1      37.353  21.346  24.432  1.00  0.00     0.023 C 
ENDROOT
BRANCH   1   2
ATOM      2  C   UNL A   1      36.966  22.378  25.488  1.00  0.00     0.116 C 
BRANCH   2   3
ATOM      3  N   UNL A   1      36.002  21.824  26.424  1.00  0.00    -0.356 N 
ATOM      4  C   UNL A   1      34.638  21.808  26.377  1.00  0.00     0.225 C 
ATOM      5  O   UNL A   1      34.035  21.417  27.375  1.00  0.00    -0.275 OA
ATOM      6  H   UNL A   1      36.396  21.393  27.216  1.00  0.00     0.163 HD
BRANCH   4   7
ATOM      7  C   UNL A   1      33.936  22.191  25.087  1.00  0.00     0.102 C 
ATOM      8  N   UNL A   1      31.855  23.266  25.551  1.00  0.00    -0.321 N 
ATOM      9  C   UNL A   1      31.618  21.826  25.506  1.00  0.00     0.122 C 
ATOM     10  C   UNL A   1      33.234  23.565  25.147  1.00  0.00     0.096 C 
ATOM     11  C   UNL A   1      32.801  21.217  24.780  1.00  0.00     0.037 C 
ATOM     12  C   UNL A   1      33.354  24.157  23.735  1.00  0.00     0.032 C 
BRANCH   8  13
ATOM     13  C   UNL A   1      31.008  23.972  26.347  1.00  0.00     0.318 C 
ATOM     14  N   UNL A   1      30.748  25.276  26.240  1.00  0.00    -0.331 N 
ATOM     15  H   UNL A   1      30.450  25.628  27.110  1.00  0.00     0.165 HD
ATOM     16  O   UNL A   1      30.372  23.411  27.249  1.00  0.00    -0.249 OA
BRANCH  14  17
ATOM     17  C   UNL A   1      30.759  26.342  25.253  1.00  0.00     0.112 C 
ATOM     18  C   UNL A   1      29.535  26.476  24.360  1.00  0.00     0.036 C 
BRANCH  17  19
ATOM     19  C   UNL A   1      31.364  27.623  25.792  1.00  0.00    -0.015 A 
ATOM     20  C   UNL A   1      32.024  27.821  27.056  1.00  0.00     0.017 A 
ATOM     21  C   UNL A   1      31.405  28.805  25.067  1.00  0.00     0.070 A 
ATOM     22  C   UNL A   1      32.462  29.111  27.253  1.00  0.00     0.065 A 
ATOM     23  S   UNL A   1      32.147  30.099  25.901  1.00  0.00    -0.152 S 
ENDBRANCH  17  19
ENDBRANCH  14  17
ENDBRANCH   8  13
ENDBRANCH   4   7
ENDBRANCH   2   3
ENDBRANCH   1   2
BRANCH   1  24
ATOM     24  C   UNL A   1      37.990  20.075  25.002  1.00  0.00     0.023 C 
BRANCH  24  25
ATOM     25  C   UNL A   1      39.198  20.306  25.906  1.00  0.00     0.116 C 
BRANCH  25  26
ATOM     26  N   UNL A   1      40.141  19.199  25.894  1.00  0.00    -0.352 N 
ATOM     27  C   UNL A   1      41.504  19.223  26.064  1.00  0.00     0.251 C 
ATOM     28  H   UNL A   1      39.748  18.309  25.741  1.00  0.00     0.163 HD
ATOM     29  O   UNL A   1      42.165  18.206  25.908  1.00  0.00    -0.269 OA
BRANCH  27  30
ATOM     30  C   UNL A   1      42.170  20.499  26.401  1.00  0.00     0.039 A 
ATOM     31  C   UNL A   1      42.659  21.293  25.363  1.00  0.00     0.014 A 
ATOM     32  C   UNL A   1      42.279  20.922  27.729  1.00  0.00     0.014 A 
ATOM     33  C   UNL A   1      43.196  22.548  25.651  1.00  0.00     0.010 A 
ATOM     34  C   UNL A   1      42.748  22.202  28.007  1.00  0.00     0.010 A 
ATOM     35  C   UNL A   1      43.207  23.029  26.971  1.00  0.00    -0.014 A 
BRANCH  35  36
ATOM     36  C   UNL A   1      43.672  24.403  27.279  1.00  0.00     0.031 A 
ATOM     37  C   UNL A   1      42.692  25.463  27.693  1.00  0.00     0.074 A 
ATOM     38  C   UNL A   1      44.972  24.713  27.113  1.00  0.00     0.049 A 
ATOM     39  N   UNL A   1      42.906  26.728  27.956  1.00  0.00    -0.248 NA
ATOM     40  C   UNL A   1      41.282  25.059  27.794  1.00  0.00     0.031 C 
ATOM     41  C   UNL A   1      46.008  23.790  26.648  1.00  0.00     0.029 A 
ATOM     42  N   UNL A   1      45.640  25.897  27.300  1.00  0.00    -0.354 N 
ATOM     43  C   UNL A   1      41.660  27.272  28.234  1.00  0.00     0.074 A 
ATOM     44  C   UNL A   1      40.689  26.213  28.059  1.00  0.00     0.031 C 
ATOM     45  C   UNL A   1      47.185  24.435  26.604  1.00  0.00     0.029 A 
ATOM     46  C   UNL A   1      46.980  25.824  27.004  1.00  0.00     0.049 A 
ATOM     47  H   UNL A   1      45.202  26.720  27.615  1.00  0.00     0.167 HD
ATOM     48  C   UNL A   1      41.354  28.534  28.621  1.00  0.00     0.037 A 
ATOM     49  C   UNL A   1      47.936  26.771  27.045  1.00  0.00     0.037 A 
ATOM     50  C   UNL A   1      42.327  29.577  28.818  1.00  0.00     0.049 A 
ATOM     51  C   UNL A   1      47.577  28.158  27.498  1.00  0.00     0.074 A 
ATOM     52  C   UNL A   1      42.130  30.860  29.295  1.00  0.00     0.029 A 
ATOM     53  N   UNL A   1      43.680  29.458  28.538  1.00  0.00    -0.354 N 
ATOM     54  N   UNL A   1      46.409  28.634  27.853  1.00  0.00    -0.248 NA
ATOM     55  C   UNL A   1      48.672  29.136  27.565  1.00  0.00     0.031 C 
ATOM     56  C   UNL A   1      43.355  31.535  29.257  1.00  0.00     0.029 A 
ATOM     57  C   UNL A   1      44.325  30.655  28.804  1.00  0.00     0.049 A 
ATOM     58  H   UNL A   1      44.118  28.643  28.200  1.00  0.00     0.167 HD
ATOM     59  C   UNL A   1      46.629  29.961  28.202  1.00  0.00     0.074 A 
ATOM     60  C   UNL A   1      48.046  30.206  28.036  1.00  0.00     0.031 C 
ATOM     61  C   UNL A   1      45.736  30.889  28.624  1.00  0.00     0.037 A 
BRANCH  48  62
ATOM     62  C   UNL A   1      39.905  28.854  28.850  1.00  0.00     0.057 A 
ATOM     63  C   UNL A   1      39.057  29.244  27.805  1.00  0.00     0.134 A 
ATOM     64  C   UNL A   1      39.346  28.752  30.130  1.00  0.00     0.134 A 
ATOM     65  F   UNL A   1      39.531  29.374  26.557  1.00  0.00    -0.206 F 
ATOM     66  C   UNL A   1      37.714  29.553  28.030  1.00  0.00     0.040 A 
ATOM     67  C   UNL A   1      37.998  29.030  30.363  1.00  0.00     0.040 A 
ATOM     68  F   UNL A   1      40.100  28.377  31.176  1.00  0.00    -0.206 F 
ATOM     69  C   UNL A   1      37.180  29.441  29.313  1.00  0.00     0.006 A 
ENDBRANCH  48  62
BRANCH  49  70
ATOM     70  C   UNL A   1      49.328  26.426  26.664  1.00  0.00     0.057 A 
ATOM     71  C   UNL A   1      49.801  26.659  25.368  1.00  0.00     0.134 A 
ATOM     72  C   UNL A   1      50.223  25.875  27.590  1.00  0.00     0.134 A 
ATOM     73  F   UNL A   1      48.986  27.170  24.434  1.00  0.00    -0.206 F 
ATOM     74  C   UNL A   1      51.110  26.344  25.001  1.00  0.00     0.040 A 
ATOM     75  C   UNL A   1      51.541  25.577  27.242  1.00  0.00     0.040 A 
ATOM     76  F   UNL A   1      49.832  25.638  28.850  1.00  0.00    -0.206 F 
ATOM     77  C   UNL A   1      51.987  25.808  25.942  1.00  0.00     0.006 A 
ENDBRANCH  49  70
BRANCH  61  78
ATOM     78  C   UNL A   1      46.270  32.253  28.948  1.00  0.00     0.057 A 
ATOM     79  C   UNL A   1      46.315  33.275  27.991  1.00  0.00     0.134 A 
ATOM     80  C   UNL A   1      46.713  32.559  30.241  1.00  0.00     0.134 A 
ATOM     81  F   UNL A   1      45.918  33.044  26.730  1.00  0.00    -0.206 F 
ATOM     82  C   UNL A   1      46.803  34.546  28.302  1.00  0.00     0.040 A 
ATOM     83  C   UNL A   1      47.177  33.833  30.572  1.00  0.00     0.040 A 
ATOM     84  F   UNL A   1      46.689  31.628  31.208  1.00  0.00    -0.206 F 
ATOM     85  C   UNL A   1      47.230  34.828  29.599  1.00  0.00     0.006 A 
ENDBRANCH  61  78
ENDBRANCH  35  36
ENDBRANCH  27  30
ENDBRANCH  25  26
ENDBRANCH  24  25
ENDBRANCH   1  24
TORSDOF 14
ENDMDL
