MODEL 1
REMARK VINA RESULT:     -11.3      0.000      0.000
REMARK SMILES Cc1cc(C(=O)N[C@H]2C=C[C@@H](C(=O)NCCCCNC(=O)c3ccc(-c4c5nc(c(-c6c(F)cccc6F)c6ccc([nH]6)c(-c6c(F)cccc6F)c6nc(c(-c7c(F)cccc7F)c7ccc4[nH]7)C=C6)C=C5)cc3)C2)no1
REMARK SMILES IDX 16 1 15 2 14 3 12 4 13 5 11 7 8 8 9 9 76 10 10 11 7 12 5 13
REMARK SMILES IDX 6 14 4 16 1 17 2 18 3 19 78 20 77 21 17 22 18 23 19 24 20 25
REMARK SMILES IDX 21 27 22 28 23 29 75 30 24 31 74 32 25 33 26 34 27 35 68 36
REMARK SMILES IDX 28 37 73 38 67 39 69 40 29 41 72 42 66 43 65 44 30 46 56 47
REMARK SMILES IDX 39 48 55 49 40 50 43 51 54 52 70 53 41 54 42 55 53 57 71 58
REMARK SMILES IDX 44 59 31 60 32 61 37 62 33 63 34 64 36 65 38 66 35 67 57 68
REMARK SMILES IDX 58 69 63 70 59 71 60 72 62 73 64 74 61 75 45 76 46 77 51 78
REMARK SMILES IDX 47 79 48 80 50 81 52 82 49 83
REMARK H PARENT 14 6 7 15 19 26 69 45 43 56
REMARK Flexibility Score: inf
ROOT
ATOM      1  C   UNL A   1      36.323  20.260  24.985  1.00  0.00     0.023 C 
ENDROOT
BRANCH   1   2
ATOM      2  C   UNL A   1      36.371  21.586  25.742  1.00  0.00     0.116 C 
BRANCH   2   3
ATOM      3  N   UNL A   1      35.407  21.620  26.824  1.00  0.00    -0.356 N 
ATOM      4  C   UNL A   1      34.236  22.300  26.962  1.00  0.00     0.227 C 
ATOM      5  O   UNL A   1      33.601  22.122  28.007  1.00  0.00    -0.274 OA
ATOM      6  H   UNL A   1      35.639  21.051  27.594  1.00  0.00     0.163 HD
BRANCH   4   7
ATOM      7  C   UNL A   1      33.687  23.244  25.888  1.00  0.00     0.103 C 
ATOM      8  C   UNL A   1      32.458  25.380  25.823  1.00  0.00     0.106 C 
ATOM      9  C   UNL A   1      33.926  25.559  25.608  1.00  0.00    -0.006 C 
ATOM     10  C   UNL A   1      32.336  23.891  26.211  1.00  0.00     0.047 C 
ATOM     11  C   UNL A   1      34.592  24.400  25.617  1.00  0.00    -0.016 C 
BRANCH   8  12
ATOM     12  N   UNL A   1      31.963  26.250  26.869  1.00  0.00    -0.344 N 
ATOM     13  C   UNL A   1      31.462  27.533  26.810  1.00  0.00     0.273 C 
ATOM     14  O   UNL A   1      31.062  28.033  27.862  1.00  0.00    -0.267 OA
ATOM     15  H   UNL A   1      31.987  25.861  27.773  1.00  0.00     0.164 HD
BRANCH  13  16
ATOM     16  C   UNL A   1      31.477  28.258  25.541  1.00  0.00     0.171 A 
ATOM     17  C   UNL A   1      30.653  29.404  22.148  1.00  0.00     0.091 C 
ATOM     18  C   UNL A   1      31.069  29.037  23.512  1.00  0.00     0.134 A 
ATOM     19  C   UNL A   1      30.463  28.379  24.553  1.00  0.00     0.082 A 
ATOM     20  O   UNL A   1      32.331  29.378  23.877  1.00  0.00    -0.361 OA
ATOM     21  N   UNL A   1      32.586  28.908  25.148  1.00  0.00    -0.074 NA
ENDBRANCH  13  16
ENDBRANCH   8  12
ENDBRANCH   4   7
ENDBRANCH   2   3
ENDBRANCH   1   2
BRANCH   1  22
ATOM     22  C   UNL A   1      37.677  19.561  24.819  1.00  0.00     0.023 C 
BRANCH  22  23
ATOM     23  C   UNL A   1      38.813  20.118  25.673  1.00  0.00     0.116 C 
BRANCH  23  24
ATOM     24  N   UNL A   1      39.955  19.225  25.760  1.00  0.00    -0.352 N 
ATOM     25  C   UNL A   1      41.246  19.497  26.136  1.00  0.00     0.251 C 
ATOM     26  H   UNL A   1      39.776  18.288  25.513  1.00  0.00     0.163 HD
ATOM     27  O   UNL A   1      42.103  18.622  26.048  1.00  0.00    -0.269 OA
BRANCH  25  28
ATOM     28  C   UNL A   1      41.624  20.844  26.615  1.00  0.00     0.039 A 
ATOM     29  C   UNL A   1      41.614  21.081  27.994  1.00  0.00     0.014 A 
ATOM     30  C   UNL A   1      41.942  21.878  25.729  1.00  0.00     0.014 A 
ATOM     31  C   UNL A   1      41.965  22.337  28.487  1.00  0.00     0.010 A 
ATOM     32  C   UNL A   1      42.334  23.121  26.224  1.00  0.00     0.010 A 
ATOM     33  C   UNL A   1      42.343  23.362  27.606  1.00  0.00    -0.014 A 
BRANCH  33  34
ATOM     34  C   UNL A   1      42.733  24.693  28.124  1.00  0.00     0.031 A 
ATOM     35  C   UNL A   1      41.692  25.742  28.381  1.00  0.00     0.074 A 
ATOM     36  C   UNL A   1      44.036  24.973  28.315  1.00  0.00     0.049 A 
ATOM     37  N   UNL A   1      41.844  26.966  28.819  1.00  0.00    -0.248 NA
ATOM     38  C   UNL A   1      40.299  25.376  28.082  1.00  0.00     0.031 C 
ATOM     39  C   UNL A   1      45.148  24.063  28.036  1.00  0.00     0.029 A 
ATOM     40  N   UNL A   1      44.643  26.112  28.780  1.00  0.00    -0.354 N 
ATOM     41  C   UNL A   1      40.575  27.528  28.817  1.00  0.00     0.074 A 
ATOM     42  C   UNL A   1      39.665  26.516  28.319  1.00  0.00     0.031 C 
ATOM     43  C   UNL A   1      46.302  24.675  28.346  1.00  0.00     0.029 A 
ATOM     44  C   UNL A   1      46.010  26.018  28.841  1.00  0.00     0.049 A 
ATOM     45  H   UNL A   1      44.145  26.918  29.045  1.00  0.00     0.167 HD
ATOM     46  C   UNL A   1      40.200  28.770  29.203  1.00  0.00     0.037 A 
ATOM     47  C   UNL A   1      46.924  26.912  29.260  1.00  0.00     0.037 A 
ATOM     48  C   UNL A   1      41.092  29.759  29.744  1.00  0.00     0.049 A 
ATOM     49  C   UNL A   1      46.472  28.239  29.793  1.00  0.00     0.074 A 
ATOM     50  C   UNL A   1      40.793  31.019  30.232  1.00  0.00     0.029 A 
ATOM     51  N   UNL A   1      42.461  29.592  29.876  1.00  0.00    -0.354 N 
ATOM     52  N   UNL A   1      45.259  28.732  29.854  1.00  0.00    -0.248 NA
ATOM     53  C   UNL A   1      47.512  29.126  30.333  1.00  0.00     0.031 C 
ATOM     54  C   UNL A   1      41.986  31.619  30.654  1.00  0.00     0.029 A 
ATOM     55  C   UNL A   1      43.022  30.725  30.440  1.00  0.00     0.049 A 
ATOM     56  H   UNL A   1      42.960  28.787  29.610  1.00  0.00     0.167 HD
ATOM     57  C   UNL A   1      45.386  29.977  30.452  1.00  0.00     0.074 A 
ATOM     58  C   UNL A   1      46.793  30.163  30.743  1.00  0.00     0.031 C 
ATOM     59  C   UNL A   1      44.422  30.887  30.732  1.00  0.00     0.037 A 
BRANCH  46  60
ATOM     60  C   UNL A   1      38.754  29.121  29.049  1.00  0.00     0.057 A 
ATOM     61  C   UNL A   1      37.856  29.022  30.117  1.00  0.00     0.134 A 
ATOM     62  C   UNL A   1      38.256  29.567  27.818  1.00  0.00     0.134 A 
ATOM     63  F   UNL A   1      38.271  28.583  31.316  1.00  0.00    -0.206 F 
ATOM     64  C   UNL A   1      36.504  29.335  29.963  1.00  0.00     0.040 A 
ATOM     65  C   UNL A   1      36.910  29.898  27.656  1.00  0.00     0.040 A 
ATOM     66  F   UNL A   1      39.067  29.681  26.757  1.00  0.00    -0.206 F 
ATOM     67  C   UNL A   1      36.029  29.777  28.730  1.00  0.00     0.006 A 
ENDBRANCH  46  60
BRANCH  47  68
ATOM     68  C   UNL A   1      48.358  26.551  29.242  1.00  0.00     0.057 A 
ATOM     69  C   UNL A   1      49.171  26.894  28.157  1.00  0.00     0.134 A 
ATOM     70  C   UNL A   1      48.951  25.876  30.314  1.00  0.00     0.134 A 
ATOM     71  F   UNL A   1      48.650  27.530  27.098  1.00  0.00    -0.206 F 
ATOM     72  C   UNL A   1      50.529  26.571  28.134  1.00  0.00     0.040 A 
ATOM     73  C   UNL A   1      50.309  25.556  30.309  1.00  0.00     0.040 A 
ATOM     74  F   UNL A   1      48.220  25.528  31.382  1.00  0.00    -0.206 F 
ATOM     75  C   UNL A   1      51.101  25.902  29.215  1.00  0.00     0.006 A 
ENDBRANCH  47  68
BRANCH  59  76
ATOM     76  C   UNL A   1      44.857  32.150  31.404  1.00  0.00     0.057 A 
ATOM     77  C   UNL A   1      44.910  32.255  32.798  1.00  0.00     0.134 A 
ATOM     78  C   UNL A   1      45.254  33.260  30.650  1.00  0.00     0.134 A 
ATOM     79  F   UNL A   1      44.530  31.227  33.572  1.00  0.00    -0.206 F 
ATOM     80  C   UNL A   1      45.334  33.428  33.422  1.00  0.00     0.040 A 
ATOM     81  C   UNL A   1      45.690  34.435  31.262  1.00  0.00     0.040 A 
ATOM     82  F   UNL A   1      45.223  33.218  29.309  1.00  0.00    -0.206 F 
ATOM     83  C   UNL A   1      45.728  34.522  32.653  1.00  0.00     0.006 A 
ENDBRANCH  59  76
ENDBRANCH  33  34
ENDBRANCH  25  28
ENDBRANCH  23  24
ENDBRANCH  22  23
ENDBRANCH   1  22
TORSDOF 13
ENDMDL
MODEL 2
REMARK VINA RESULT:     -11.3      4.111      8.955
REMARK SMILES Cc1cc(C(=O)N[C@H]2C=C[C@@H](C(=O)NCCCCNC(=O)c3ccc(-c4c5nc(c(-c6c(F)cccc6F)c6ccc([nH]6)c(-c6c(F)cccc6F)c6nc(c(-c7c(F)cccc7F)c7ccc4[nH]7)C=C6)C=C5)cc3)C2)no1
REMARK SMILES IDX 16 1 15 2 14 3 12 4 13 5 11 7 8 8 9 9 76 10 10 11 7 12 5 13
REMARK SMILES IDX 6 14 4 16 1 17 2 18 3 19 78 20 77 21 17 22 18 23 19 24 20 25
REMARK SMILES IDX 21 27 22 28 23 29 75 30 24 31 74 32 25 33 26 34 27 35 68 36
REMARK SMILES IDX 28 37 73 38 67 39 69 40 29 41 72 42 66 43 65 44 30 46 56 47
REMARK SMILES IDX 39 48 55 49 40 50 43 51 54 52 70 53 41 54 42 55 53 57 71 58
REMARK SMILES IDX 44 59 31 60 32 61 37 62 33 63 34 64 36 65 38 66 35 67 57 68
REMARK SMILES IDX 58 69 63 70 59 71 60 72 62 73 64 74 61 75 45 76 46 77 51 78
REMARK SMILES IDX 47 79 48 80 50 81 52 82 49 83
REMARK H PARENT 14 6 7 15 19 26 69 45 43 56
REMARK Flexibility Score: inf
ROOT
ATOM      1  C   UNL A   1      31.429  30.718  26.212  1.00  0.00     0.023 C 
ENDROOT
BRANCH   1   2
ATOM      2  C   UNL A   1      32.228  29.857  27.187  1.00  0.00     0.116 C 
BRANCH   2   3
ATOM      3  N   UNL A   1      31.652  28.533  27.330  1.00  0.00    -0.356 N 
ATOM      4  C   UNL A   1      32.029  27.330  26.819  1.00  0.00     0.227 C 
ATOM      5  O   UNL A   1      31.345  26.348  27.127  1.00  0.00    -0.274 OA
ATOM      6  H   UNL A   1      30.847  28.499  27.898  1.00  0.00     0.163 HD
BRANCH   4   7
ATOM      7  C   UNL A   1      33.248  27.154  25.909  1.00  0.00     0.103 C 
ATOM      8  C   UNL A   1      33.881  25.729  23.999  1.00  0.00     0.106 C 
ATOM      9  C   UNL A   1      33.425  27.088  23.572  1.00  0.00    -0.006 C 
ATOM     10  C   UNL A   1      33.566  25.709  25.509  1.00  0.00     0.047 C 
ATOM     11  C   UNL A   1      33.105  27.871  24.606  1.00  0.00    -0.016 C 
BRANCH   8  12
ATOM     12  N   UNL A   1      33.175  24.683  23.289  1.00  0.00    -0.344 N 
ATOM     13  C   UNL A   1      33.530  23.377  23.026  1.00  0.00     0.273 C 
ATOM     14  O   UNL A   1      32.710  22.677  22.431  1.00  0.00    -0.267 OA
ATOM     15  H   UNL A   1      32.296  24.948  22.935  1.00  0.00     0.164 HD
BRANCH  13  16
ATOM     16  C   UNL A   1      34.857  22.897  23.404  1.00  0.00     0.171 A 
ATOM     17  C   UNL A   1      37.679  21.543  25.330  1.00  0.00     0.091 C 
ATOM     18  C   UNL A   1      36.623  22.083  24.458  1.00  0.00     0.134 A 
ATOM     19  C   UNL A   1      35.252  22.092  24.507  1.00  0.00     0.082 A 
ATOM     20  O   UNL A   1      37.032  22.752  23.350  1.00  0.00    -0.361 OA
ATOM     21  N   UNL A   1      35.934  23.250  22.680  1.00  0.00    -0.074 NA
ENDBRANCH  13  16
ENDBRANCH   8  12
ENDBRANCH   4   7
ENDBRANCH   2   3
ENDBRANCH   1   2
BRANCH   1  22
ATOM     22  C   UNL A   1      31.340  32.202  26.584  1.00  0.00     0.023 C 
BRANCH  22  23
ATOM     23  C   UNL A   1      32.644  32.841  27.055  1.00  0.00     0.116 C 
BRANCH  23  24
ATOM     24  N   UNL A   1      32.445  34.089  27.769  1.00  0.00    -0.352 N 
ATOM     25  C   UNL A   1      33.154  34.612  28.821  1.00  0.00     0.251 C 
ATOM     26  H   UNL A   1      31.693  34.640  27.452  1.00  0.00     0.163 HD
ATOM     27  O   UNL A   1      32.767  35.645  29.362  1.00  0.00    -0.269 OA
BRANCH  25  28
ATOM     28  C   UNL A   1      34.360  33.927  29.333  1.00  0.00     0.039 A 
ATOM     29  C   UNL A   1      34.189  32.905  30.273  1.00  0.00     0.014 A 
ATOM     30  C   UNL A   1      35.646  34.307  28.938  1.00  0.00     0.014 A 
ATOM     31  C   UNL A   1      35.300  32.233  30.781  1.00  0.00     0.010 A 
ATOM     32  C   UNL A   1      36.754  33.608  29.413  1.00  0.00     0.010 A 
ATOM     33  C   UNL A   1      36.591  32.570  30.343  1.00  0.00    -0.014 A 
BRANCH  33  34
ATOM     34  C   UNL A   1      37.773  31.849  30.866  1.00  0.00     0.031 A 
ATOM     35  C   UNL A   1      38.291  32.140  32.244  1.00  0.00     0.074 A 
ATOM     36  C   UNL A   1      38.414  30.967  30.077  1.00  0.00     0.049 A 
ATOM     37  N   UNL A   1      39.319  31.622  32.865  1.00  0.00    -0.248 NA
ATOM     38  C   UNL A   1      37.573  33.167  33.015  1.00  0.00     0.031 C 
ATOM     39  C   UNL A   1      38.052  30.648  28.694  1.00  0.00     0.029 A 
ATOM     40  N   UNL A   1      39.512  30.184  30.324  1.00  0.00    -0.354 N 
ATOM     41  C   UNL A   1      39.394  32.281  34.085  1.00  0.00     0.074 A 
ATOM     42  C   UNL A   1      38.316  33.249  34.110  1.00  0.00     0.031 C 
ATOM     43  C   UNL A   1      38.906  29.728  28.220  1.00  0.00     0.029 A 
ATOM     44  C   UNL A   1      39.875  29.397  29.262  1.00  0.00     0.049 A 
ATOM     45  H   UNL A   1      39.993  30.187  31.183  1.00  0.00     0.167 HD
ATOM     46  C   UNL A   1      40.275  32.091  35.095  1.00  0.00     0.037 A 
ATOM     47  C   UNL A   1      40.870  28.499  29.145  1.00  0.00     0.037 A 
ATOM     48  C   UNL A   1      41.315  31.099  35.095  1.00  0.00     0.049 A 
ATOM     49  C   UNL A   1      41.761  28.224  30.320  1.00  0.00     0.074 A 
ATOM     50  C   UNL A   1      42.209  30.782  36.102  1.00  0.00     0.029 A 
ATOM     51  N   UNL A   1      41.592  30.255  34.031  1.00  0.00    -0.354 N 
ATOM     52  N   UNL A   1      41.775  28.803  31.496  1.00  0.00    -0.248 NA
ATOM     53  C   UNL A   1      42.759  27.157  30.160  1.00  0.00     0.031 C 
ATOM     54  C   UNL A   1      43.035  29.747  35.644  1.00  0.00     0.029 A 
ATOM     55  C   UNL A   1      42.643  29.414  34.358  1.00  0.00     0.049 A 
ATOM     56  H   UNL A   1      41.113  30.252  33.172  1.00  0.00     0.167 HD
ATOM     57  C   UNL A   1      42.770  28.164  32.221  1.00  0.00     0.074 A 
ATOM     58  C   UNL A   1      43.332  27.146  31.357  1.00  0.00     0.031 C 
ATOM     59  C   UNL A   1      43.181  28.401  33.490  1.00  0.00     0.037 A 
BRANCH  46  60
ATOM     60  C   UNL A   1      40.143  32.986  36.288  1.00  0.00     0.057 A 
ATOM     61  C   UNL A   1      39.224  32.719  37.308  1.00  0.00     0.134 A 
ATOM     62  C   UNL A   1      40.948  34.125  36.417  1.00  0.00     0.134 A 
ATOM     63  F   UNL A   1      38.413  31.652  37.230  1.00  0.00    -0.206 F 
ATOM     64  C   UNL A   1      39.093  33.566  38.410  1.00  0.00     0.040 A 
ATOM     65  C   UNL A   1      40.838  34.971  37.521  1.00  0.00     0.040 A 
ATOM     66  F   UNL A   1      41.846  34.434  35.471  1.00  0.00    -0.206 F 
ATOM     67  C   UNL A   1      39.905  34.694  38.519  1.00  0.00     0.006 A 
ENDBRANCH  46  60
BRANCH  47  68
ATOM     68  C   UNL A   1      41.038  27.756  27.877  1.00  0.00     0.057 A 
ATOM     69  C   UNL A   1      41.841  28.262  26.849  1.00  0.00     0.134 A 
ATOM     70  C   UNL A   1      40.418  26.519  27.672  1.00  0.00     0.134 A 
ATOM     71  F   UNL A   1      42.446  29.450  26.989  1.00  0.00    -0.206 F 
ATOM     72  C   UNL A   1      42.017  27.564  25.653  1.00  0.00     0.040 A 
ATOM     73  C   UNL A   1      40.595  25.806  26.486  1.00  0.00     0.040 A 
ATOM     74  F   UNL A   1      39.642  25.985  28.627  1.00  0.00    -0.206 F 
ATOM     75  C   UNL A   1      41.395  26.330  25.472  1.00  0.00     0.006 A 
ENDBRANCH  47  68
BRANCH  59  76
ATOM     76  C   UNL A   1      44.276  27.531  34.021  1.00  0.00     0.057 A 
ATOM     77  C   UNL A   1      45.619  27.913  33.934  1.00  0.00     0.134 A 
ATOM     78  C   UNL A   1      43.981  26.315  34.649  1.00  0.00     0.134 A 
ATOM     79  F   UNL A   1      45.961  29.062  33.332  1.00  0.00    -0.206 F 
ATOM     80  C   UNL A   1      46.637  27.108  34.446  1.00  0.00     0.040 A 
ATOM     81  C   UNL A   1      44.989  25.507  35.174  1.00  0.00     0.040 A 
ATOM     82  F   UNL A   1      42.710  25.898  34.760  1.00  0.00    -0.206 F 
ATOM     83  C   UNL A   1      46.322  25.902  35.071  1.00  0.00     0.006 A 
ENDBRANCH  59  76
ENDBRANCH  33  34
ENDBRANCH  25  28
ENDBRANCH  23  24
ENDBRANCH  22  23
ENDBRANCH   1  22
TORSDOF 13
ENDMDL
MODEL 3
REMARK VINA RESULT:     -11.3      1.655      6.639
REMARK SMILES Cc1cc(C(=O)N[C@H]2C=C[C@@H](C(=O)NCCCCNC(=O)c3ccc(-c4c5nc(c(-c6c(F)cccc6F)c6ccc([nH]6)c(-c6c(F)cccc6F)c6nc(c(-c7c(F)cccc7F)c7ccc4[nH]7)C=C6)C=C5)cc3)C2)no1
REMARK SMILES IDX 16 1 15 2 14 3 12 4 13 5 11 7 8 8 9 9 76 10 10 11 7 12 5 13
REMARK SMILES IDX 6 14 4 16 1 17 2 18 3 19 78 20 77 21 17 22 18 23 19 24 20 25
REMARK SMILES IDX 21 27 22 28 23 29 75 30 24 31 74 32 25 33 26 34 27 35 68 36
REMARK SMILES IDX 28 37 73 38 67 39 69 40 29 41 72 42 66 43 65 44 30 46 56 47
REMARK SMILES IDX 39 48 55 49 40 50 43 51 54 52 70 53 41 54 42 55 53 57 71 58
REMARK SMILES IDX 44 59 31 60 32 61 37 62 33 63 34 64 36 65 38 66 35 67 57 68
REMARK SMILES IDX 58 69 63 70 59 71 60 72 62 73 64 74 61 75 45 76 46 77 51 78
REMARK SMILES IDX 47 79 48 80 50 81 52 82 49 83
REMARK H PARENT 14 6 7 15 19 26 69 45 43 56
REMARK Flexibility Score: inf
ROOT
ATOM      1  C   UNL A   1      38.841  22.186  26.210  1.00  0.00     0.023 C 
ENDROOT
BRANCH   1   2
ATOM      2  C   UNL A   1      37.618  22.981  25.757  1.00  0.00     0.116 C 
BRANCH   2   3
ATOM      3  N   UNL A   1      37.432  22.905  24.321  1.00  0.00    -0.356 N 
ATOM      4  C   UNL A   1      36.318  23.045  23.552  1.00  0.00     0.227 C 
ATOM      5  O   UNL A   1      36.462  22.943  22.329  1.00  0.00    -0.274 OA
ATOM      6  H   UNL A   1      38.255  22.720  23.813  1.00  0.00     0.163 HD
BRANCH   4   7
ATOM      7  C   UNL A   1      34.931  23.333  24.135  1.00  0.00     0.103 C 
ATOM      8  C   UNL A   1      32.778  24.211  23.315  1.00  0.00     0.106 C 
ATOM      9  C   UNL A   1      32.794  22.718  23.392  1.00  0.00    -0.006 C 
ATOM     10  C   UNL A   1      34.245  24.596  23.604  1.00  0.00     0.047 C 
ATOM     11  C   UNL A   1      33.951  22.240  23.860  1.00  0.00    -0.016 C 
BRANCH   8  12
ATOM     12  N   UNL A   1      32.348  24.673  22.012  1.00  0.00    -0.344 N 
ATOM     13  C   UNL A   1      31.851  25.894  21.609  1.00  0.00     0.273 C 
ATOM     14  O   UNL A   1      31.601  26.035  20.411  1.00  0.00    -0.267 OA
ATOM     15  H   UNL A   1      32.422  24.004  21.294  1.00  0.00     0.164 HD
BRANCH  13  16
ATOM     16  C   UNL A   1      31.590  26.933  22.603  1.00  0.00     0.171 A 
ATOM     17  C   UNL A   1      32.046  29.526  25.166  1.00  0.00     0.091 C 
ATOM     18  C   UNL A   1      31.741  28.514  24.141  1.00  0.00     0.134 A 
ATOM     19  C   UNL A   1      32.468  27.910  23.147  1.00  0.00     0.082 A 
ATOM     20  O   UNL A   1      30.481  28.011  24.139  1.00  0.00    -0.361 OA
ATOM     21  N   UNL A   1      30.376  27.034  23.171  1.00  0.00    -0.074 NA
ENDBRANCH  13  16
ENDBRANCH   8  12
ENDBRANCH   4   7
ENDBRANCH   2   3
ENDBRANCH   1   2
BRANCH   1  22
ATOM     22  C   UNL A   1      39.093  20.890  25.434  1.00  0.00     0.023 C 
BRANCH  22  23
ATOM     23  C   UNL A   1      39.501  19.685  26.280  1.00  0.00     0.116 C 
BRANCH  23  24
ATOM     24  N   UNL A   1      40.760  19.093  25.864  1.00  0.00    -0.352 N 
ATOM     25  C   UNL A   1      42.017  19.640  25.855  1.00  0.00     0.251 C 
ATOM     26  H   UNL A   1      40.701  18.164  25.542  1.00  0.00     0.163 HD
ATOM     27  O   UNL A   1      42.952  19.010  25.368  1.00  0.00    -0.269 OA
BRANCH  25  28
ATOM     28  C   UNL A   1      42.255  20.995  26.396  1.00  0.00     0.039 A 
ATOM     29  C   UNL A   1      42.129  21.186  27.776  1.00  0.00     0.014 A 
ATOM     30  C   UNL A   1      42.554  22.078  25.564  1.00  0.00     0.014 A 
ATOM     31  C   UNL A   1      42.345  22.449  28.327  1.00  0.00     0.010 A 
ATOM     32  C   UNL A   1      42.812  23.331  26.119  1.00  0.00     0.010 A 
ATOM     33  C   UNL A   1      42.704  23.527  27.504  1.00  0.00    -0.014 A 
BRANCH  33  34
ATOM     34  C   UNL A   1      42.952  24.866  28.084  1.00  0.00     0.031 A 
ATOM     35  C   UNL A   1      44.334  25.263  28.513  1.00  0.00     0.074 A 
ATOM     36  C   UNL A   1      41.919  25.708  28.273  1.00  0.00     0.049 A 
ATOM     37  N   UNL A   1      44.740  26.383  29.054  1.00  0.00    -0.248 NA
ATOM     38  C   UNL A   1      45.394  24.259  28.335  1.00  0.00     0.031 C 
ATOM     39  C   UNL A   1      40.518  25.413  27.963  1.00  0.00     0.029 A 
ATOM     40  N   UNL A   1      41.888  26.981  28.782  1.00  0.00    -0.354 N 
ATOM     41  C   UNL A   1      46.092  26.209  29.312  1.00  0.00     0.074 A 
ATOM     42  C   UNL A   1      46.436  24.869  28.882  1.00  0.00     0.031 C 
ATOM     43  C   UNL A   1      39.767  26.480  28.278  1.00  0.00     0.029 A 
ATOM     44  C   UNL A   1      40.631  27.528  28.814  1.00  0.00     0.049 A 
ATOM     45  H   UNL A   1      42.692  27.456  29.094  1.00  0.00     0.167 HD
ATOM     46  C   UNL A   1      46.971  27.089  29.848  1.00  0.00     0.037 A 
ATOM     47  C   UNL A   1      40.224  28.745  29.219  1.00  0.00     0.037 A 
ATOM     48  C   UNL A   1      46.646  28.436  30.229  1.00  0.00     0.049 A 
ATOM     49  C   UNL A   1      41.235  29.742  29.701  1.00  0.00     0.074 A 
ATOM     50  C   UNL A   1      47.484  29.425  30.713  1.00  0.00     0.029 A 
ATOM     51  N   UNL A   1      45.375  28.985  30.160  1.00  0.00    -0.354 N 
ATOM     52  N   UNL A   1      42.525  29.590  29.872  1.00  0.00    -0.248 NA
ATOM     53  C   UNL A   1      40.737  31.086  30.028  1.00  0.00     0.031 C 
ATOM     54  C   UNL A   1      46.717  30.574  30.944  1.00  0.00     0.029 A 
ATOM     55  C   UNL A   1      45.406  30.301  30.590  1.00  0.00     0.049 A 
ATOM     56  H   UNL A   1      44.571  28.511  29.850  1.00  0.00     0.167 HD
ATOM     57  C   UNL A   1      42.998  30.819  30.310  1.00  0.00     0.074 A 
ATOM     58  C   UNL A   1      41.857  31.710  30.371  1.00  0.00     0.031 C 
ATOM     59  C   UNL A   1      44.264  31.175  30.634  1.00  0.00     0.037 A 
BRANCH  46  60
ATOM     60  C   UNL A   1      48.374  26.608  30.053  1.00  0.00     0.057 A 
ATOM     61  C   UNL A   1      48.761  25.951  31.225  1.00  0.00     0.134 A 
ATOM     62  C   UNL A   1      49.345  26.804  29.063  1.00  0.00     0.134 A 
ATOM     63  F   UNL A   1      47.879  25.752  32.216  1.00  0.00    -0.206 F 
ATOM     64  C   UNL A   1      50.075  25.520  31.417  1.00  0.00     0.040 A 
ATOM     65  C   UNL A   1      50.658  26.364  29.237  1.00  0.00     0.040 A 
ATOM     66  F   UNL A   1      49.034  27.429  27.918  1.00  0.00    -0.206 F 
ATOM     67  C   UNL A   1      51.027  25.725  30.419  1.00  0.00     0.006 A 
ENDBRANCH  46  60
BRANCH  47  68
ATOM     68  C   UNL A   1      38.790  29.101  29.132  1.00  0.00     0.057 A 
ATOM     69  C   UNL A   1      37.961  29.020  30.254  1.00  0.00     0.134 A 
ATOM     70  C   UNL A   1      38.225  29.548  27.933  1.00  0.00     0.134 A 
ATOM     71  F   UNL A   1      38.450  28.584  31.424  1.00  0.00    -0.206 F 
ATOM     72  C   UNL A   1      36.610  29.365  30.187  1.00  0.00     0.040 A 
ATOM     73  C   UNL A   1      36.879  29.906  27.855  1.00  0.00     0.040 A 
ATOM     74  F   UNL A   1      38.976  29.650  26.827  1.00  0.00    -0.206 F 
ATOM     75  C   UNL A   1      36.067  29.813  28.984  1.00  0.00     0.006 A 
ENDBRANCH  47  68
BRANCH  59  76
ATOM     76  C   UNL A   1      44.480  32.591  31.062  1.00  0.00     0.057 A 
ATOM     77  C   UNL A   1      44.761  33.600  30.134  1.00  0.00     0.134 A 
ATOM     78  C   UNL A   1      44.378  32.953  32.411  1.00  0.00     0.134 A 
ATOM     79  F   UNL A   1      44.883  33.309  28.831  1.00  0.00    -0.206 F 
ATOM     80  C   UNL A   1      44.944  34.924  30.535  1.00  0.00     0.040 A 
ATOM     81  C   UNL A   1      44.548  34.275  32.821  1.00  0.00     0.040 A 
ATOM     82  F   UNL A   1      44.111  32.028  33.345  1.00  0.00    -0.206 F 
ATOM     83  C   UNL A   1      44.835  35.264  31.883  1.00  0.00     0.006 A 
ENDBRANCH  59  76
ENDBRANCH  33  34
ENDBRANCH  25  28
ENDBRANCH  23  24
ENDBRANCH  22  23
ENDBRANCH   1  22
TORSDOF 13
ENDMDL
