MODEL 1
REMARK VINA RESULT:     -11.4      0.000      0.000
REMARK SMILES CC[NH2+][C@@]1(C(=O)NCCCCNC(=O)c2ccc(-c3c4nc(c(-c5c(F)cccc5F)c5ccc([nH]5)c(-c5c(F)cccc5F)c5nc(c(-c6c(F)cccc6F)c6ccc3[nH]6)C=C5)C=C4)cc2)CCC[C@@H]([N@@H+](C)C2CCCC2)C1
REMARK SMILES IDX 9 1 8 2 7 3 5 4 6 5 4 7 69 8 80 9 70 10 72 11 71 12 3 13
REMARK SMILES IDX 2 16 1 17 73 18 74 19 75 21 76 22 79 23 77 24 78 25 10 26
REMARK SMILES IDX 11 27 12 28 13 29 14 31 15 32 16 33 68 34 17 35 67 36 18 37
REMARK SMILES IDX 19 38 20 39 61 40 21 41 66 42 60 43 62 44 22 45 65 46 59 47
REMARK SMILES IDX 58 48 23 50 49 51 32 52 48 53 33 54 36 55 47 56 63 57 34 58
REMARK SMILES IDX 35 59 46 61 64 62 37 63 24 64 25 65 30 66 26 67 27 68 29 69
REMARK SMILES IDX 31 70 28 71 50 72 51 73 56 74 52 75 53 76 55 77 57 78 54 79
REMARK SMILES IDX 38 80 39 81 44 82 40 83 41 84 43 85 45 86 42 87
REMARK H PARENT 7 6 3 14 3 15 73 20 12 30 62 49 36 60
REMARK Flexibility Score: inf
ROOT
ATOM      1  C   UNL A   1      37.166  22.273  24.577  1.00  0.00     0.023 C 
ENDROOT
BRANCH   1   2
ATOM      2  C   UNL A   1      36.962  23.270  25.724  1.00  0.00     0.116 C 
BRANCH   2   3
ATOM      3  N   UNL A   1      35.957  22.795  26.648  1.00  0.00    -0.351 N 
ATOM      4  C   UNL A   1      34.637  23.028  26.851  1.00  0.00     0.281 C 
ATOM      5  O   UNL A   1      34.253  22.611  27.956  1.00  0.00    -0.268 OA
ATOM      6  H   UNL A   1      36.321  22.141  27.287  1.00  0.00     0.163 HD
BRANCH   4   7
ATOM      7  C   UNL A   1      33.620  23.745  25.845  1.00  0.00     0.181 C 
ATOM      8  C   UNL A   1      32.369  24.388  26.463  1.00  0.00     0.079 C 
ATOM      9  C   UNL A   1      33.240  22.810  24.675  1.00  0.00     0.144 C 
ATOM     10  C   UNL A   1      31.052  23.612  26.450  1.00  0.00     0.013 C 
ATOM     11  C   UNL A   1      32.243  21.722  25.065  1.00  0.00     0.190 C 
ATOM     12  C   UNL A   1      30.971  22.261  25.743  1.00  0.00     0.065 C 
BRANCH   7  13
ATOM     13  N   UNL A   1      34.418  24.840  25.179  1.00  0.00    -0.334 N 
ATOM     14  H   UNL A   1      34.210  25.715  25.662  1.00  0.00     0.347 HD
ATOM     15  H   UNL A   1      35.392  24.546  25.243  1.00  0.00     0.347 HD
BRANCH  13  16
ATOM     16  C   UNL A   1      34.166  25.048  23.754  1.00  0.00     0.257 C 
ATOM     17  C   UNL A   1      33.522  26.414  23.560  1.00  0.00     0.071 C 
ENDBRANCH  13  16
ENDBRANCH   7  13
BRANCH  11  18
ATOM     18  N   UNL A   1      32.025  20.678  24.037  1.00  0.00    -0.332 N 
ATOM     19  C   UNL A   1      32.309  21.168  22.684  1.00  0.00     0.333 C 
ATOM     20  H   UNL A   1      31.027  20.515  24.173  1.00  0.00     0.348 HD
BRANCH  18  21
ATOM     21  C   UNL A   1      32.548  19.321  24.231  1.00  0.00     0.184 C 
ATOM     22  C   UNL A   1      32.554  18.324  23.070  1.00  0.00     0.065 C 
ATOM     23  C   UNL A   1      33.974  19.245  24.815  1.00  0.00     0.065 C 
ATOM     24  C   UNL A   1      33.438  17.207  23.600  1.00  0.00     0.006 C 
ATOM     25  C   UNL A   1      34.594  17.972  24.229  1.00  0.00     0.006 C 
ENDBRANCH  18  21
ENDBRANCH  11  18
ENDBRANCH   4   7
ENDBRANCH   2   3
ENDBRANCH   1   2
BRANCH   1  26
ATOM     26  C   UNL A   1      37.726  20.918  24.984  1.00  0.00     0.023 C 
BRANCH  26  27
ATOM     27  C   UNL A   1      39.029  20.988  25.765  1.00  0.00     0.116 C 
BRANCH  27  28
ATOM     28  N   UNL A   1      39.863  19.796  25.661  1.00  0.00    -0.352 N 
ATOM     29  C   UNL A   1      41.188  19.680  26.022  1.00  0.00     0.251 C 
ATOM     30  H   UNL A   1      39.434  18.989  25.294  1.00  0.00     0.163 HD
ATOM     31  O   UNL A   1      41.810  18.638  25.857  1.00  0.00    -0.269 OA
BRANCH  29  32
ATOM     32  C   UNL A   1      41.855  20.882  26.558  1.00  0.00     0.039 A 
ATOM     33  C   UNL A   1      42.338  21.839  25.665  1.00  0.00     0.014 A 
ATOM     34  C   UNL A   1      41.821  21.131  27.932  1.00  0.00     0.014 A 
ATOM     35  C   UNL A   1      42.696  23.098  26.146  1.00  0.00     0.010 A 
ATOM     36  C   UNL A   1      42.093  22.411  28.394  1.00  0.00     0.010 A 
ATOM     37  C   UNL A   1      42.520  23.412  27.504  1.00  0.00    -0.014 A 
BRANCH  37  38
ATOM     38  C   UNL A   1      42.767  24.779  28.023  1.00  0.00     0.031 A 
ATOM     39  C   UNL A   1      44.152  25.169  28.456  1.00  0.00     0.074 A 
ATOM     40  C   UNL A   1      41.738  25.633  28.191  1.00  0.00     0.049 A 
ATOM     41  N   UNL A   1      44.555  26.263  29.050  1.00  0.00    -0.248 NA
ATOM     42  C   UNL A   1      45.217  24.179  28.228  1.00  0.00     0.031 C 
ATOM     43  C   UNL A   1      40.335  25.351  27.876  1.00  0.00     0.029 A 
ATOM     44  N   UNL A   1      41.713  26.914  28.685  1.00  0.00    -0.354 N 
ATOM     45  C   UNL A   1      45.910  26.079  29.289  1.00  0.00     0.074 A 
ATOM     46  C   UNL A   1      46.249  24.751  28.828  1.00  0.00     0.031 C 
ATOM     47  C   UNL A   1      39.592  26.434  28.162  1.00  0.00     0.029 A 
ATOM     48  C   UNL A   1      40.458  27.474  28.707  1.00  0.00     0.049 A 
ATOM     49  H   UNL A   1      42.519  27.387  28.995  1.00  0.00     0.167 HD
ATOM     50  C   UNL A   1      46.801  26.948  29.821  1.00  0.00     0.037 A 
ATOM     51  C   UNL A   1      40.056  28.691  29.119  1.00  0.00     0.037 A 
ATOM     52  C   UNL A   1      46.476  28.287  30.230  1.00  0.00     0.049 A 
ATOM     53  C   UNL A   1      41.075  29.660  29.650  1.00  0.00     0.074 A 
ATOM     54  C   UNL A   1      47.317  29.264  30.732  1.00  0.00     0.029 A 
ATOM     55  N   UNL A   1      45.207  28.841  30.168  1.00  0.00    -0.354 N 
ATOM     56  N   UNL A   1      42.363  29.490  29.825  1.00  0.00    -0.248 NA
ATOM     57  C   UNL A   1      40.587  30.994  30.033  1.00  0.00     0.031 C 
ATOM     58  C   UNL A   1      46.553  30.408  30.985  1.00  0.00     0.029 A 
ATOM     59  C   UNL A   1      45.243  30.149  30.616  1.00  0.00     0.049 A 
ATOM     60  H   UNL A   1      44.400  28.372  29.852  1.00  0.00     0.167 HD
ATOM     61  C   UNL A   1      42.843  30.697  30.313  1.00  0.00     0.074 A 
ATOM     62  C   UNL A   1      41.711  31.597  30.394  1.00  0.00     0.031 C 
ATOM     63  C   UNL A   1      44.107  31.032  30.667  1.00  0.00     0.037 A 
BRANCH  50  64
ATOM     64  C   UNL A   1      48.217  26.480  29.957  1.00  0.00     0.057 A 
ATOM     65  C   UNL A   1      48.654  25.793  31.098  1.00  0.00     0.134 A 
ATOM     66  C   UNL A   1      49.150  26.703  28.938  1.00  0.00     0.134 A 
ATOM     67  F   UNL A   1      47.812  25.565  32.118  1.00  0.00    -0.206 F 
ATOM     68  C   UNL A   1      49.976  25.367  31.230  1.00  0.00     0.040 A 
ATOM     69  C   UNL A   1      50.469  26.259  29.048  1.00  0.00     0.040 A 
ATOM     70  F   UNL A   1      48.795  27.354  27.820  1.00  0.00    -0.206 F 
ATOM     71  C   UNL A   1      50.886  25.595  30.200  1.00  0.00     0.006 A 
ENDBRANCH  50  64
BRANCH  51  72
ATOM     72  C   UNL A   1      38.627  29.081  29.019  1.00  0.00     0.057 A 
ATOM     73  C   UNL A   1      38.096  29.560  27.816  1.00  0.00     0.134 A 
ATOM     74  C   UNL A   1      37.769  29.011  30.122  1.00  0.00     0.134 A 
ATOM     75  F   UNL A   1      38.876  29.668  26.730  1.00  0.00    -0.206 F 
ATOM     76  C   UNL A   1      36.768  29.979  27.718  1.00  0.00     0.040 A 
ATOM     77  C   UNL A   1      36.433  29.406  30.033  1.00  0.00     0.040 A 
ATOM     78  F   UNL A   1      38.216  28.554  31.300  1.00  0.00    -0.206 F 
ATOM     79  C   UNL A   1      35.931  29.900  28.829  1.00  0.00     0.006 A 
ENDBRANCH  51  72
BRANCH  63  80
ATOM     80  C   UNL A   1      44.338  32.435  31.134  1.00  0.00     0.057 A 
ATOM     81  C   UNL A   1      44.272  32.779  32.489  1.00  0.00     0.134 A 
ATOM     82  C   UNL A   1      44.676  33.442  30.222  1.00  0.00     0.134 A 
ATOM     83  F   UNL A   1      43.939  31.860  33.409  1.00  0.00    -0.206 F 
ATOM     84  C   UNL A   1      44.520  34.083  32.920  1.00  0.00     0.040 A 
ATOM     85  C   UNL A   1      44.946  34.744  30.643  1.00  0.00     0.040 A 
ATOM     86  F   UNL A   1      44.762  33.173  28.911  1.00  0.00    -0.206 F 
ATOM     87  C   UNL A   1      44.864  35.068  31.996  1.00  0.00     0.006 A 
ENDBRANCH  63  80
ENDBRANCH  37  38
ENDBRANCH  29  32
ENDBRANCH  27  28
ENDBRANCH  26  27
ENDBRANCH   1  26
TORSDOF 15
ENDMDL
MODEL 2
REMARK VINA RESULT:     -11.3      4.651      9.477
REMARK SMILES CC[NH2+][C@@]1(C(=O)NCCCCNC(=O)c2ccc(-c3c4nc(c(-c5c(F)cccc5F)c5ccc([nH]5)c(-c5c(F)cccc5F)c5nc(c(-c6c(F)cccc6F)c6ccc3[nH]6)C=C5)C=C4)cc2)CCC[C@@H]([N@@H+](C)C2CCCC2)C1
REMARK SMILES IDX 9 1 8 2 7 3 5 4 6 5 4 7 69 8 80 9 70 10 72 11 71 12 3 13
REMARK SMILES IDX 2 16 1 17 73 18 74 19 75 21 76 22 79 23 77 24 78 25 10 26
REMARK SMILES IDX 11 27 12 28 13 29 14 31 15 32 16 33 68 34 17 35 67 36 18 37
REMARK SMILES IDX 19 38 20 39 61 40 21 41 66 42 60 43 62 44 22 45 65 46 59 47
REMARK SMILES IDX 58 48 23 50 49 51 32 52 48 53 33 54 36 55 47 56 63 57 34 58
REMARK SMILES IDX 35 59 46 61 64 62 37 63 24 64 25 65 30 66 26 67 27 68 29 69
REMARK SMILES IDX 31 70 28 71 50 72 51 73 56 74 52 75 53 76 55 77 57 78 54 79
REMARK SMILES IDX 38 80 39 81 44 82 40 83 41 84 43 85 45 86 42 87
REMARK H PARENT 7 6 3 14 3 15 73 20 12 30 62 49 36 60
REMARK Flexibility Score: inf
ROOT
ATOM      1  C   UNL A   1      31.550  30.166  26.088  1.00  0.00     0.023 C 
ENDROOT
BRANCH   1   2
ATOM      2  C   UNL A   1      33.044  29.825  26.041  1.00  0.00     0.116 C 
BRANCH   2   3
ATOM      3  N   UNL A   1      33.494  29.670  24.676  1.00  0.00    -0.351 N 
ATOM      4  C   UNL A   1      33.704  28.627  23.835  1.00  0.00     0.281 C 
ATOM      5  O   UNL A   1      34.379  28.954  22.845  1.00  0.00    -0.268 OA
ATOM      6  H   UNL A   1      33.700  30.534  24.253  1.00  0.00     0.163 HD
BRANCH   4   7
ATOM      7  C   UNL A   1      33.183  27.125  24.016  1.00  0.00     0.181 C 
ATOM      8  C   UNL A   1      33.721  26.080  23.027  1.00  0.00     0.079 C 
ATOM      9  C   UNL A   1      31.640  27.075  24.087  1.00  0.00     0.144 C 
ATOM     10  C   UNL A   1      32.873  25.699  21.813  1.00  0.00     0.013 C 
ATOM     11  C   UNL A   1      30.962  27.254  22.732  1.00  0.00     0.190 C 
ATOM     12  C   UNL A   1      31.470  26.283  21.651  1.00  0.00     0.065 C 
BRANCH   7  13
ATOM     13  N   UNL A   1      33.616  26.712  25.402  1.00  0.00    -0.334 N 
ATOM     14  H   UNL A   1      34.510  26.227  25.317  1.00  0.00     0.347 HD
ATOM     15  H   UNL A   1      33.657  27.575  25.944  1.00  0.00     0.347 HD
BRANCH  13  16
ATOM     16  C   UNL A   1      32.701  25.836  26.130  1.00  0.00     0.257 C 
ATOM     17  C   UNL A   1      33.312  24.444  26.216  1.00  0.00     0.071 C 
ENDBRANCH  13  16
ENDBRANCH   7  13
BRANCH  11  18
ATOM     18  N   UNL A   1      29.492  27.432  22.788  1.00  0.00    -0.332 N 
ATOM     19  C   UNL A   1      28.893  26.721  23.922  1.00  0.00     0.333 C 
ATOM     20  H   UNL A   1      29.237  27.001  21.899  1.00  0.00     0.348 HD
BRANCH  18  21
ATOM     21  C   UNL A   1      28.898  28.763  22.622  1.00  0.00     0.184 C 
ATOM     22  C   UNL A   1      27.510  29.064  23.193  1.00  0.00     0.065 C 
ATOM     23  C   UNL A   1      29.776  29.939  23.097  1.00  0.00     0.065 C 
ATOM     24  C   UNL A   1      27.430  30.578  23.082  1.00  0.00     0.006 C 
ATOM     25  C   UNL A   1      28.800  31.018  23.576  1.00  0.00     0.006 C 
ENDBRANCH  18  21
ENDBRANCH  11  18
ENDBRANCH   4   7
ENDBRANCH   2   3
ENDBRANCH   1   2
BRANCH   1  26
ATOM     26  C   UNL A   1      31.220  31.590  26.510  1.00  0.00     0.023 C 
BRANCH  26  27
ATOM     27  C   UNL A   1      32.408  32.538  26.497  1.00  0.00     0.116 C 
BRANCH  27  28
ATOM     28  N   UNL A   1      32.256  33.715  27.347  1.00  0.00    -0.352 N 
ATOM     29  C   UNL A   1      33.135  34.156  28.313  1.00  0.00     0.251 C 
ATOM     30  H   UNL A   1      31.440  34.249  27.217  1.00  0.00     0.163 HD
ATOM     31  O   UNL A   1      32.891  35.140  29.001  1.00  0.00    -0.269 OA
BRANCH  29  32
ATOM     32  C   UNL A   1      34.356  33.360  28.536  1.00  0.00     0.039 A 
ATOM     33  C   UNL A   1      35.580  34.022  28.645  1.00  0.00     0.014 A 
ATOM     34  C   UNL A   1      34.247  31.998  28.824  1.00  0.00     0.014 A 
ATOM     35  C   UNL A   1      36.684  33.332  29.146  1.00  0.00     0.010 A 
ATOM     36  C   UNL A   1      35.322  31.340  29.404  1.00  0.00     0.010 A 
ATOM     37  C   UNL A   1      36.547  32.004  29.583  1.00  0.00    -0.014 A 
BRANCH  37  38
ATOM     38  C   UNL A   1      37.666  31.284  30.240  1.00  0.00     0.031 A 
ATOM     39  C   UNL A   1      37.981  31.561  31.682  1.00  0.00     0.074 A 
ATOM     40  C   UNL A   1      38.451  30.457  29.520  1.00  0.00     0.049 A 
ATOM     41  N   UNL A   1      38.986  31.136  32.405  1.00  0.00    -0.248 NA
ATOM     42  C   UNL A   1      37.068  32.469  32.394  1.00  0.00     0.031 C 
ATOM     43  C   UNL A   1      38.293  30.158  28.094  1.00  0.00     0.029 A 
ATOM     44  N   UNL A   1      39.550  29.724  29.890  1.00  0.00    -0.354 N 
ATOM     45  C   UNL A   1      38.839  31.746  33.643  1.00  0.00     0.074 A 
ATOM     46  C   UNL A   1      37.683  32.611  33.558  1.00  0.00     0.031 C 
ATOM     47  C   UNL A   1      39.246  29.288  27.718  1.00  0.00     0.029 A 
ATOM     48  C   UNL A   1      40.097  28.990  28.865  1.00  0.00     0.049 A 
ATOM     49  H   UNL A   1      39.914  29.724  30.805  1.00  0.00     0.167 HD
ATOM     50  C   UNL A   1      39.582  31.581  34.762  1.00  0.00     0.037 A 
ATOM     51  C   UNL A   1      41.164  28.169  28.856  1.00  0.00     0.037 A 
ATOM     52  C   UNL A   1      40.698  30.682  34.863  1.00  0.00     0.049 A 
ATOM     53  C   UNL A   1      41.938  27.957  30.126  1.00  0.00     0.074 A 
ATOM     54  C   UNL A   1      41.485  30.403  35.966  1.00  0.00     0.029 A 
ATOM     55  N   UNL A   1      41.175  29.901  33.821  1.00  0.00    -0.354 N 
ATOM     56  N   UNL A   1      41.757  28.503  31.304  1.00  0.00    -0.248 NA
ATOM     57  C   UNL A   1      43.060  27.007  30.070  1.00  0.00     0.031 C 
ATOM     58  C   UNL A   1      42.447  29.460  35.588  1.00  0.00     0.029 A 
ATOM     59  C   UNL A   1      42.242  29.136  34.257  1.00  0.00     0.049 A 
ATOM     60  H   UNL A   1      40.809  29.894  32.906  1.00  0.00     0.167 HD
ATOM     61  C   UNL A   1      42.722  27.948  32.134  1.00  0.00     0.074 A 
ATOM     62  C   UNL A   1      43.478  27.011  31.328  1.00  0.00     0.031 C 
ATOM     63  C   UNL A   1      42.965  28.193  33.443  1.00  0.00     0.037 A 
BRANCH  50  64
ATOM     64  C   UNL A   1      39.186  32.372  35.970  1.00  0.00     0.057 A 
ATOM     65  C   UNL A   1      39.687  33.661  36.198  1.00  0.00     0.134 A 
ATOM     66  C   UNL A   1      38.288  31.850  36.908  1.00  0.00     0.134 A 
ATOM     67  F   UNL A   1      40.566  34.208  35.345  1.00  0.00    -0.206 F 
ATOM     68  C   UNL A   1      39.327  34.393  37.330  1.00  0.00     0.040 A 
ATOM     69  C   UNL A   1      37.901  32.583  38.032  1.00  0.00     0.040 A 
ATOM     70  F   UNL A   1      37.772  30.622  36.748  1.00  0.00    -0.206 F 
ATOM     71  C   UNL A   1      38.427  33.856  38.247  1.00  0.00     0.006 A 
ENDBRANCH  50  64
BRANCH  51  72
ATOM     72  C   UNL A   1      41.551  27.458  27.611  1.00  0.00     0.057 A 
ATOM     73  C   UNL A   1      42.371  28.072  26.657  1.00  0.00     0.134 A 
ATOM     74  C   UNL A   1      41.091  26.166  27.333  1.00  0.00     0.134 A 
ATOM     75  F   UNL A   1      42.826  29.318  26.861  1.00  0.00    -0.206 F 
ATOM     76  C   UNL A   1      42.702  27.437  25.460  1.00  0.00     0.040 A 
ATOM     77  C   UNL A   1      41.432  25.510  26.148  1.00  0.00     0.040 A 
ATOM     78  F   UNL A   1      40.308  25.522  28.209  1.00  0.00    -0.206 F 
ATOM     79  C   UNL A   1      42.234  26.150  25.203  1.00  0.00     0.006 A 
ENDBRANCH  51  72
BRANCH  63  80
ATOM     80  C   UNL A   1      44.062  27.411  34.095  1.00  0.00     0.057 A 
ATOM     81  C   UNL A   1      45.376  27.891  34.144  1.00  0.00     0.134 A 
ATOM     82  C   UNL A   1      43.790  26.188  34.718  1.00  0.00     0.134 A 
ATOM     83  F   UNL A   1      45.700  29.051  33.553  1.00  0.00    -0.206 F 
ATOM     84  C   UNL A   1      46.388  27.171  34.781  1.00  0.00     0.040 A 
ATOM     85  C   UNL A   1      44.789  25.469  35.375  1.00  0.00     0.040 A 
ATOM     86  F   UNL A   1      42.549  25.680  34.710  1.00  0.00    -0.206 F 
ATOM     87  C   UNL A   1      46.094  25.959  35.404  1.00  0.00     0.006 A 
ENDBRANCH  63  80
ENDBRANCH  37  38
ENDBRANCH  29  32
ENDBRANCH  27  28
ENDBRANCH  26  27
ENDBRANCH   1  26
TORSDOF 15
ENDMDL
MODEL 3
REMARK VINA RESULT:     -11.2      1.018      3.335
REMARK SMILES CC[NH2+][C@@]1(C(=O)NCCCCNC(=O)c2ccc(-c3c4nc(c(-c5c(F)cccc5F)c5ccc([nH]5)c(-c5c(F)cccc5F)c5nc(c(-c6c(F)cccc6F)c6ccc3[nH]6)C=C5)C=C4)cc2)CCC[C@@H]([N@@H+](C)C2CCCC2)C1
REMARK SMILES IDX 9 1 8 2 7 3 5 4 6 5 4 7 69 8 80 9 70 10 72 11 71 12 3 13
REMARK SMILES IDX 2 16 1 17 73 18 74 19 75 21 76 22 79 23 77 24 78 25 10 26
REMARK SMILES IDX 11 27 12 28 13 29 14 31 15 32 16 33 68 34 17 35 67 36 18 37
REMARK SMILES IDX 19 38 20 39 61 40 21 41 66 42 60 43 62 44 22 45 65 46 59 47
REMARK SMILES IDX 58 48 23 50 49 51 32 52 48 53 33 54 36 55 47 56 63 57 34 58
REMARK SMILES IDX 35 59 46 61 64 62 37 63 24 64 25 65 30 66 26 67 27 68 29 69
REMARK SMILES IDX 31 70 28 71 50 72 51 73 56 74 52 75 53 76 55 77 57 78 54 79
REMARK SMILES IDX 38 80 39 81 44 82 40 83 41 84 43 85 45 86 42 87
REMARK H PARENT 7 6 3 14 3 15 73 20 12 30 62 49 36 60
REMARK Flexibility Score: inf
ROOT
ATOM      1  C   UNL A   1      37.141  22.170  24.586  1.00  0.00     0.023 C 
ENDROOT
BRANCH   1   2
ATOM      2  C   UNL A   1      36.324  23.061  25.530  1.00  0.00     0.116 C 
BRANCH   2   3
ATOM      3  N   UNL A   1      35.533  22.260  26.437  1.00  0.00    -0.351 N 
ATOM      4  C   UNL A   1      34.244  21.841  26.491  1.00  0.00     0.281 C 
ATOM      5  O   UNL A   1      33.939  21.414  27.617  1.00  0.00    -0.268 OA
ATOM      6  H   UNL A   1      36.059  21.941  27.205  1.00  0.00     0.163 HD
BRANCH   4   7
ATOM      7  C   UNL A   1      33.177  21.857  25.300  1.00  0.00     0.181 C 
ATOM      8  C   UNL A   1      33.729  21.733  23.871  1.00  0.00     0.079 C 
ATOM      9  C   UNL A   1      32.225  23.068  25.420  1.00  0.00     0.144 C 
ATOM     10  C   UNL A   1      33.930  23.000  23.039  1.00  0.00     0.013 C 
ATOM     11  C   UNL A   1      32.863  24.389  25.000  1.00  0.00     0.190 C 
ATOM     12  C   UNL A   1      33.494  24.354  23.596  1.00  0.00     0.065 C 
BRANCH   7  13
ATOM     13  N   UNL A   1      32.276  20.671  25.550  1.00  0.00    -0.334 N 
ATOM     14  H   UNL A   1      32.417  20.372  26.515  1.00  0.00     0.347 HD
ATOM     15  H   UNL A   1      31.332  20.997  25.345  1.00  0.00     0.347 HD
BRANCH  13  16
ATOM     16  C   UNL A   1      32.484  19.509  24.689  1.00  0.00     0.257 C 
ATOM     17  C   UNL A   1      32.792  18.298  25.558  1.00  0.00     0.071 C 
ENDBRANCH  13  16
ENDBRANCH   7  13
BRANCH  11  18
ATOM     18  N   UNL A   1      32.061  25.597  25.308  1.00  0.00    -0.332 N 
ATOM     19  C   UNL A   1      30.641  25.282  25.492  1.00  0.00     0.333 C 
ATOM     20  H   UNL A   1      32.219  26.126  24.450  1.00  0.00     0.348 HD
BRANCH  18  21
ATOM     21  C   UNL A   1      32.526  26.562  26.310  1.00  0.00     0.184 C 
ATOM     22  C   UNL A   1      33.625  27.567  25.959  1.00  0.00     0.065 C 
ATOM     23  C   UNL A   1      31.419  27.411  26.968  1.00  0.00     0.065 C 
ATOM     24  C   UNL A   1      33.568  28.538  27.127  1.00  0.00     0.006 C 
ATOM     25  C   UNL A   1      32.072  28.756  27.302  1.00  0.00     0.006 C 
ENDBRANCH  18  21
ENDBRANCH  11  18
ENDBRANCH   4   7
ENDBRANCH   2   3
ENDBRANCH   1   2
BRANCH   1  26
ATOM     26  C   UNL A   1      37.693  20.896  25.207  1.00  0.00     0.023 C 
BRANCH  26  27
ATOM     27  C   UNL A   1      39.092  21.037  25.787  1.00  0.00     0.116 C 
BRANCH  27  28
ATOM     28  N   UNL A   1      39.923  19.844  25.664  1.00  0.00    -0.352 N 
ATOM     29  C   UNL A   1      41.255  19.727  25.998  1.00  0.00     0.251 C 
ATOM     30  H   UNL A   1      39.486  19.039  25.303  1.00  0.00     0.163 HD
ATOM     31  O   UNL A   1      41.873  18.684  25.818  1.00  0.00    -0.269 OA
BRANCH  29  32
ATOM     32  C   UNL A   1      41.933  20.926  26.524  1.00  0.00     0.039 A 
ATOM     33  C   UNL A   1      42.395  21.887  25.624  1.00  0.00     0.014 A 
ATOM     34  C   UNL A   1      41.930  21.170  27.899  1.00  0.00     0.014 A 
ATOM     35  C   UNL A   1      42.764  23.144  26.102  1.00  0.00     0.010 A 
ATOM     36  C   UNL A   1      42.212  22.448  28.360  1.00  0.00     0.010 A 
ATOM     37  C   UNL A   1      42.618  23.452  27.465  1.00  0.00    -0.014 A 
BRANCH  37  38
ATOM     38  C   UNL A   1      42.877  24.818  27.984  1.00  0.00     0.031 A 
ATOM     39  C   UNL A   1      44.271  25.206  28.387  1.00  0.00     0.074 A 
ATOM     40  C   UNL A   1      41.852  25.671  28.179  1.00  0.00     0.049 A 
ATOM     41  N   UNL A   1      44.687  26.298  28.976  1.00  0.00    -0.248 NA
ATOM     42  C   UNL A   1      45.331  24.218  28.131  1.00  0.00     0.031 C 
ATOM     43  C   UNL A   1      40.442  25.389  27.894  1.00  0.00     0.029 A 
ATOM     44  N   UNL A   1      41.837  26.949  28.678  1.00  0.00    -0.354 N 
ATOM     45  C   UNL A   1      46.048  26.114  29.184  1.00  0.00     0.074 A 
ATOM     46  C   UNL A   1      46.376  24.787  28.710  1.00  0.00     0.031 C 
ATOM     47  C   UNL A   1      39.705  26.471  28.201  1.00  0.00     0.029 A 
ATOM     48  C   UNL A   1      40.583  27.509  28.730  1.00  0.00     0.049 A 
ATOM     49  H   UNL A   1      42.650  27.421  28.972  1.00  0.00     0.167 HD
ATOM     50  C   UNL A   1      46.950  26.981  29.699  1.00  0.00     0.037 A 
ATOM     51  C   UNL A   1      40.190  28.724  29.157  1.00  0.00     0.037 A 
ATOM     52  C   UNL A   1      46.634  28.318  30.121  1.00  0.00     0.049 A 
ATOM     53  C   UNL A   1      41.220  29.691  29.668  1.00  0.00     0.074 A 
ATOM     54  C   UNL A   1      47.485  29.294  30.607  1.00  0.00     0.029 A 
ATOM     55  N   UNL A   1      45.364  28.872  30.089  1.00  0.00    -0.354 N 
ATOM     56  N   UNL A   1      42.512  29.521  29.813  1.00  0.00    -0.248 NA
ATOM     57  C   UNL A   1      40.741  31.023  30.068  1.00  0.00     0.031 C 
ATOM     58  C   UNL A   1      46.726  30.436  30.882  1.00  0.00     0.029 A 
ATOM     59  C   UNL A   1      45.408  30.178  30.542  1.00  0.00     0.049 A 
ATOM     60  H   UNL A   1      44.550  28.404  29.790  1.00  0.00     0.167 HD
ATOM     61  C   UNL A   1      43.003  30.727  30.296  1.00  0.00     0.074 A 
ATOM     62  C   UNL A   1      41.872  31.626  30.406  1.00  0.00     0.031 C 
ATOM     63  C   UNL A   1      44.274  31.061  30.622  1.00  0.00     0.037 A 
BRANCH  50  64
ATOM     64  C   UNL A   1      48.368  26.513  29.801  1.00  0.00     0.057 A 
ATOM     65  C   UNL A   1      49.300  26.771  28.787  1.00  0.00     0.134 A 
ATOM     66  C   UNL A   1      48.815  25.812  30.928  1.00  0.00     0.134 A 
ATOM     67  F   UNL A   1      48.929  27.422  27.673  1.00  0.00    -0.206 F 
ATOM     68  C   UNL A   1      50.619  26.325  28.877  1.00  0.00     0.040 A 
ATOM     69  C   UNL A   1      50.138  25.383  31.041  1.00  0.00     0.040 A 
ATOM     70  F   UNL A   1      47.973  25.534  31.935  1.00  0.00    -0.206 F 
ATOM     71  C   UNL A   1      51.042  25.634  30.010  1.00  0.00     0.006 A 
ENDBRANCH  50  64
BRANCH  51  72
ATOM     72  C   UNL A   1      38.759  29.114  29.091  1.00  0.00     0.057 A 
ATOM     73  C   UNL A   1      38.202  29.605  27.904  1.00  0.00     0.134 A 
ATOM     74  C   UNL A   1      37.924  29.032  30.210  1.00  0.00     0.134 A 
ATOM     75  F   UNL A   1      38.959  29.725  26.803  1.00  0.00    -0.206 F 
ATOM     76  C   UNL A   1      36.873  30.023  27.838  1.00  0.00     0.040 A 
ATOM     77  C   UNL A   1      36.586  29.427  30.153  1.00  0.00     0.040 A 
ATOM     78  F   UNL A   1      38.396  28.563  31.374  1.00  0.00    -0.206 F 
ATOM     79  C   UNL A   1      36.059  29.932  28.965  1.00  0.00     0.006 A 
ENDBRANCH  51  72
BRANCH  63  80
ATOM     80  C   UNL A   1      44.516  32.462  31.090  1.00  0.00     0.057 A 
ATOM     81  C   UNL A   1      44.796  33.498  30.192  1.00  0.00     0.134 A 
ATOM     82  C   UNL A   1      44.422  32.785  32.449  1.00  0.00     0.134 A 
ATOM     83  F   UNL A   1      44.911  33.248  28.879  1.00  0.00    -0.206 F 
ATOM     84  C   UNL A   1      44.989  34.808  30.632  1.00  0.00     0.040 A 
ATOM     85  C   UNL A   1      44.593  34.094  32.899  1.00  0.00     0.040 A 
ATOM     86  F   UNL A   1      44.149  31.836  33.357  1.00  0.00    -0.206 F 
ATOM     87  C   UNL A   1      44.882  35.109  31.989  1.00  0.00     0.006 A 
ENDBRANCH  63  80
ENDBRANCH  37  38
ENDBRANCH  29  32
ENDBRANCH  27  28
ENDBRANCH  26  27
ENDBRANCH   1  26
TORSDOF 15
ENDMDL
