MODEL 1
REMARK VINA RESULT:     -13.7      0.000      0.000
REMARK SMILES CC(=O)Nc1cnc(N2CC=C(c3ccccc3C)CC2)c(C(=O)NCCCCNC(=O)c2ccc(-c3c4nc(c(-c5c(F)cccc5F)c5ccc([nH]5)c(-c5c(F)cccc5F)c5nc(c(-c6c(F)cccc6F)c6ccc3[nH]6)C=C5)C=C4)cc2)c1
REMARK SMILES IDX 27 1 26 2 25 3 23 4 24 5 22 7 5 8 6 9 87 10 7 11 8 12 4 13
REMARK SMILES IDX 1 14 2 15 3 16 9 18 10 19 21 20 11 21 20 22 12 23 13 24
REMARK SMILES IDX 14 25 18 26 15 27 17 28 19 29 16 30 28 31 29 32 30 33 31 34
REMARK SMILES IDX 32 36 33 37 34 38 86 39 35 40 85 41 36 42 37 43 38 44 79 45
REMARK SMILES IDX 39 46 84 47 78 48 80 49 40 50 83 51 77 52 76 53 41 55 67 56
REMARK SMILES IDX 50 57 66 58 51 59 54 60 65 61 81 62 52 63 53 64 64 66 82 67
REMARK SMILES IDX 55 68 42 69 43 70 48 71 44 72 45 73 47 74 49 75 46 76 68 77
REMARK SMILES IDX 69 78 74 79 70 80 71 81 73 82 75 83 72 84 56 85 57 86 62 87
REMARK SMILES IDX 58 88 59 89 61 90 63 91 60 92
REMARK H PARENT 25 6 4 17 30 35 80 54 54 65
REMARK Flexibility Score: inf
ROOT
ATOM      1  C   UNL A   1      37.633  21.309  25.129  1.00  0.00     0.023 C 
ENDROOT
BRANCH   1   2
ATOM      2  C   UNL A   1      36.828  22.615  25.153  1.00  0.00     0.116 C 
BRANCH   2   3
ATOM      3  N   UNL A   1      35.904  22.700  26.271  1.00  0.00    -0.352 N 
ATOM      4  C   UNL A   1      34.717  22.119  26.656  1.00  0.00     0.255 C 
ATOM      5  O   UNL A   1      34.408  22.416  27.812  1.00  0.00    -0.269 OA
ATOM      6  H   UNL A   1      36.213  23.354  26.939  1.00  0.00     0.163 HD
BRANCH   4   7
ATOM      7  C   UNL A   1      33.862  21.189  25.835  1.00  0.00     0.084 A 
ATOM      8  C   UNL A   1      33.192  18.909  25.245  1.00  0.00     0.060 A 
ATOM      9  C   UNL A   1      32.165  19.449  24.507  1.00  0.00     0.139 A 
ATOM     10  C   UNL A   1      34.071  19.800  25.856  1.00  0.00     0.045 A 
ATOM     11  N   UNL A   1      31.932  20.772  24.429  1.00  0.00    -0.236 NA
ATOM     12  C   UNL A   1      32.754  21.649  25.081  1.00  0.00     0.141 A 
BRANCH   8  13
ATOM     13  N   UNL A   1      33.344  17.516  25.322  1.00  0.00    -0.325 N 
ATOM     14  C   UNL A   1      34.044  17.098  22.972  1.00  0.00     0.114 C 
ATOM     15  C   UNL A   1      33.562  16.612  24.317  1.00  0.00     0.221 C 
ATOM     16  O   UNL A   1      33.428  15.411  24.544  1.00  0.00    -0.275 OA
ATOM     17  H   UNL A   1      33.287  17.135  26.227  1.00  0.00     0.169 HD
ENDBRANCH   8  13
BRANCH  12  18
ATOM     18  N   UNL A   1      32.382  22.955  24.890  1.00  0.00    -0.352 N 
ATOM     19  C   UNL A   1      33.058  23.713  23.848  1.00  0.00     0.146 C 
ATOM     20  C   UNL A   1      31.314  23.595  25.645  1.00  0.00     0.123 C 
ATOM     21  C   UNL A   1      33.106  25.181  24.176  1.00  0.00    -0.002 C 
ATOM     22  C   UNL A   1      31.833  24.891  26.282  1.00  0.00     0.057 C 
ATOM     23  C   UNL A   1      32.572  25.740  25.277  1.00  0.00    -0.041 C 
BRANCH  23  24
ATOM     24  C   UNL A   1      32.674  27.195  25.507  1.00  0.00    -0.020 A 
ATOM     25  C   UNL A   1      33.749  27.666  26.284  1.00  0.00     0.008 A 
ATOM     26  C   UNL A   1      31.744  28.123  24.995  1.00  0.00    -0.044 A 
ATOM     27  C   UNL A   1      33.908  29.028  26.547  1.00  0.00     0.001 A 
ATOM     28  C   UNL A   1      31.928  29.493  25.256  1.00  0.00     0.004 A 
ATOM     29  C   UNL A   1      30.561  27.708  24.164  1.00  0.00     0.045 C 
ATOM     30  C   UNL A   1      32.998  29.941  26.030  1.00  0.00     0.000 A 
ENDBRANCH  23  24
ENDBRANCH  12  18
ENDBRANCH   4   7
ENDBRANCH   2   3
ENDBRANCH   1   2
BRANCH   1  31
ATOM     31  C   UNL A   1      39.019  21.397  25.787  1.00  0.00     0.023 C 
BRANCH  31  32
ATOM     32  C   UNL A   1      39.317  22.736  26.453  1.00  0.00     0.116 C 
BRANCH  32  33
ATOM     33  N   UNL A   1      40.725  23.096  26.542  1.00  0.00    -0.352 N 
ATOM     34  C   UNL A   1      41.323  24.346  26.648  1.00  0.00     0.251 C 
ATOM     35  H   UNL A   1      41.350  22.335  26.523  1.00  0.00     0.163 HD
ATOM     36  O   UNL A   1      42.536  24.441  26.601  1.00  0.00    -0.269 OA
BRANCH  34  37
ATOM     37  C   UNL A   1      40.498  25.544  26.970  1.00  0.00     0.039 A 
ATOM     38  C   UNL A   1      40.765  26.724  26.262  1.00  0.00     0.014 A 
ATOM     39  C   UNL A   1      39.649  25.579  28.071  1.00  0.00     0.014 A 
ATOM     40  C   UNL A   1      40.423  27.954  26.824  1.00  0.00     0.010 A 
ATOM     41  C   UNL A   1      39.404  26.793  28.686  1.00  0.00     0.010 A 
ATOM     42  C   UNL A   1      39.859  27.976  28.098  1.00  0.00    -0.014 A 
BRANCH  42  43
ATOM     43  C   UNL A   1      39.855  29.166  28.940  1.00  0.00     0.031 A 
ATOM     44  C   UNL A   1      38.781  30.171  28.836  1.00  0.00     0.074 A 
ATOM     45  C   UNL A   1      40.823  29.326  29.870  1.00  0.00     0.049 A 
ATOM     46  N   UNL A   1      38.946  31.427  29.086  1.00  0.00    -0.248 NA
ATOM     47  C   UNL A   1      37.426  29.835  28.417  1.00  0.00     0.031 C 
ATOM     48  C   UNL A   1      40.858  30.302  30.954  1.00  0.00     0.029 A 
ATOM     49  N   UNL A   1      42.092  28.734  29.894  1.00  0.00    -0.354 N 
ATOM     50  C   UNL A   1      37.699  32.005  29.133  1.00  0.00     0.074 A 
ATOM     51  C   UNL A   1      36.792  30.990  28.644  1.00  0.00     0.031 C 
ATOM     52  C   UNL A   1      42.128  30.453  31.362  1.00  0.00     0.029 A 
ATOM     53  C   UNL A   1      42.966  29.684  30.460  1.00  0.00     0.049 A 
ATOM     54  H   UNL A   1      42.327  27.832  29.577  1.00  0.00     0.167 HD
ATOM     55  C   UNL A   1      37.530  33.224  29.720  1.00  0.00     0.037 A 
ATOM     56  C   UNL A   1      44.026  30.183  29.761  1.00  0.00     0.037 A 
ATOM     57  C   UNL A   1      38.785  33.749  30.246  1.00  0.00     0.049 A 
ATOM     58  C   UNL A   1      43.989  31.681  29.573  1.00  0.00     0.074 A 
ATOM     59  C   UNL A   1      39.344  33.711  31.513  1.00  0.00     0.029 A 
ATOM     60  N   UNL A   1      39.802  34.132  29.379  1.00  0.00    -0.354 N 
ATOM     61  N   UNL A   1      42.914  32.404  29.719  1.00  0.00    -0.248 NA
ATOM     62  C   UNL A   1      45.144  32.477  29.163  1.00  0.00     0.031 C 
ATOM     63  C   UNL A   1      40.714  34.035  31.404  1.00  0.00     0.029 A 
ATOM     64  C   UNL A   1      40.990  34.282  30.071  1.00  0.00     0.049 A 
ATOM     65  H   UNL A   1      39.693  34.276  28.411  1.00  0.00     0.167 HD
ATOM     66  C   UNL A   1      43.190  33.707  29.393  1.00  0.00     0.074 A 
ATOM     67  C   UNL A   1      44.607  33.707  29.081  1.00  0.00     0.031 C 
ATOM     68  C   UNL A   1      42.218  34.666  29.391  1.00  0.00     0.037 A 
BRANCH  55  69
ATOM     69  C   UNL A   1      36.167  33.748  30.096  1.00  0.00     0.057 A 
ATOM     70  C   UNL A   1      35.274  34.242  29.127  1.00  0.00     0.134 A 
ATOM     71  C   UNL A   1      35.705  33.841  31.420  1.00  0.00     0.134 A 
ATOM     72  F   UNL A   1      35.518  34.128  27.816  1.00  0.00    -0.206 F 
ATOM     73  C   UNL A   1      34.081  34.897  29.456  1.00  0.00     0.040 A 
ATOM     74  C   UNL A   1      34.539  34.537  31.769  1.00  0.00     0.040 A 
ATOM     75  F   UNL A   1      36.360  33.242  32.426  1.00  0.00    -0.206 F 
ATOM     76  C   UNL A   1      33.729  35.085  30.784  1.00  0.00     0.006 A 
ENDBRANCH  55  69
BRANCH  56  77
ATOM     77  C   UNL A   1      44.587  29.222  28.778  1.00  0.00     0.057 A 
ATOM     78  C   UNL A   1      45.449  28.213  29.239  1.00  0.00     0.134 A 
ATOM     79  C   UNL A   1      44.011  29.044  27.517  1.00  0.00     0.134 A 
ATOM     80  F   UNL A   1      46.025  28.320  30.447  1.00  0.00    -0.206 F 
ATOM     81  C   UNL A   1      45.644  27.026  28.529  1.00  0.00     0.040 A 
ATOM     82  C   UNL A   1      44.205  27.863  26.793  1.00  0.00     0.040 A 
ATOM     83  F   UNL A   1      43.159  29.952  27.021  1.00  0.00    -0.206 F 
ATOM     84  C   UNL A   1      44.990  26.835  27.315  1.00  0.00     0.006 A 
ENDBRANCH  56  77
BRANCH  68  85
ATOM     85  C   UNL A   1      42.344  36.068  28.848  1.00  0.00     0.057 A 
ATOM     86  C   UNL A   1      43.009  37.114  29.502  1.00  0.00     0.134 A 
ATOM     87  C   UNL A   1      41.904  36.369  27.537  1.00  0.00     0.134 A 
ATOM     88  F   UNL A   1      43.577  36.942  30.703  1.00  0.00    -0.206 F 
ATOM     89  C   UNL A   1      43.175  38.380  28.923  1.00  0.00     0.040 A 
ATOM     90  C   UNL A   1      42.110  37.611  26.929  1.00  0.00     0.040 A 
ATOM     91  F   UNL A   1      41.273  35.459  26.779  1.00  0.00    -0.206 F 
ATOM     92  C   UNL A   1      42.736  38.629  27.629  1.00  0.00     0.006 A 
ENDBRANCH  68  85
ENDBRANCH  42  43
ENDBRANCH  34  37
ENDBRANCH  32  33
ENDBRANCH  31  32
ENDBRANCH   1  31
TORSDOF 14
ENDMDL
MODEL 2
REMARK VINA RESULT:     -13.6      4.207      9.729
REMARK SMILES CC(=O)Nc1cnc(N2CC=C(c3ccccc3C)CC2)c(C(=O)NCCCCNC(=O)c2ccc(-c3c4nc(c(-c5c(F)cccc5F)c5ccc([nH]5)c(-c5c(F)cccc5F)c5nc(c(-c6c(F)cccc6F)c6ccc3[nH]6)C=C5)C=C4)cc2)c1
REMARK SMILES IDX 27 1 26 2 25 3 23 4 24 5 22 7 5 8 6 9 87 10 7 11 8 12 4 13
REMARK SMILES IDX 1 14 2 15 3 16 9 18 10 19 21 20 11 21 20 22 12 23 13 24
REMARK SMILES IDX 14 25 18 26 15 27 17 28 19 29 16 30 28 31 29 32 30 33 31 34
REMARK SMILES IDX 32 36 33 37 34 38 86 39 35 40 85 41 36 42 37 43 38 44 79 45
REMARK SMILES IDX 39 46 84 47 78 48 80 49 40 50 83 51 77 52 76 53 41 55 67 56
REMARK SMILES IDX 50 57 66 58 51 59 54 60 65 61 81 62 52 63 53 64 64 66 82 67
REMARK SMILES IDX 55 68 42 69 43 70 48 71 44 72 45 73 47 74 49 75 46 76 68 77
REMARK SMILES IDX 69 78 74 79 70 80 71 81 73 82 75 83 72 84 56 85 57 86 62 87
REMARK SMILES IDX 58 88 59 89 61 90 63 91 60 92
REMARK H PARENT 25 6 4 17 30 35 80 54 54 65
REMARK Flexibility Score: inf
ROOT
ATOM      1  C   UNL A   1      34.581  29.222  26.947  1.00  0.00     0.023 C 
ENDROOT
BRANCH   1   2
ATOM      2  C   UNL A   1      33.880  28.481  25.801  1.00  0.00     0.116 C 
BRANCH   2   3
ATOM      3  N   UNL A   1      32.665  27.801  26.214  1.00  0.00    -0.352 N 
ATOM      4  C   UNL A   1      31.411  27.554  25.701  1.00  0.00     0.255 C 
ATOM      5  O   UNL A   1      30.774  26.759  26.395  1.00  0.00    -0.269 OA
ATOM      6  H   UNL A   1      32.765  27.407  27.111  1.00  0.00     0.163 HD
BRANCH   4   7
ATOM      7  C   UNL A   1      30.833  28.118  24.429  1.00  0.00     0.084 A 
ATOM      8  C   UNL A   1      30.007  30.042  23.160  1.00  0.00     0.060 A 
ATOM      9  C   UNL A   1      29.974  29.237  22.046  1.00  0.00     0.139 A 
ATOM     10  C   UNL A   1      30.384  29.447  24.361  1.00  0.00     0.045 A 
ATOM     11  N   UNL A   1      30.367  27.950  22.057  1.00  0.00    -0.236 NA
ATOM     12  C   UNL A   1      30.800  27.379  23.221  1.00  0.00     0.141 A 
BRANCH   8  13
ATOM     13  N   UNL A   1      29.631  31.391  23.063  1.00  0.00    -0.325 N 
ATOM     14  C   UNL A   1      27.254  31.152  23.761  1.00  0.00     0.114 C 
ATOM     15  C   UNL A   1      28.383  31.949  23.154  1.00  0.00     0.221 C 
ATOM     16  O   UNL A   1      28.217  33.117  22.803  1.00  0.00    -0.275 OA
ATOM     17  H   UNL A   1      30.367  32.025  22.908  1.00  0.00     0.169 HD
ENDBRANCH   8  13
BRANCH  12  18
ATOM     18  N   UNL A   1      31.153  26.064  23.060  1.00  0.00    -0.352 N 
ATOM     19  C   UNL A   1      30.126  25.052  23.254  1.00  0.00     0.146 C 
ATOM     20  C   UNL A   1      32.487  25.644  22.657  1.00  0.00     0.123 C 
ATOM     21  C   UNL A   1      30.714  23.753  23.737  1.00  0.00    -0.002 C 
ATOM     22  C   UNL A   1      33.035  24.619  23.659  1.00  0.00     0.057 C 
ATOM     23  C   UNL A   1      32.026  23.534  23.942  1.00  0.00    -0.041 C 
BRANCH  23  24
ATOM     24  C   UNL A   1      32.503  22.220  24.420  1.00  0.00    -0.020 A 
ATOM     25  C   UNL A   1      33.015  22.140  25.728  1.00  0.00     0.008 A 
ATOM     26  C   UNL A   1      32.478  21.056  23.625  1.00  0.00    -0.044 A 
ATOM     27  C   UNL A   1      33.488  20.933  26.246  1.00  0.00     0.001 A 
ATOM     28  C   UNL A   1      32.943  19.844  24.168  1.00  0.00     0.004 A 
ATOM     29  C   UNL A   1      31.957  21.051  22.214  1.00  0.00     0.045 C 
ATOM     30  C   UNL A   1      33.449  19.785  25.466  1.00  0.00     0.000 A 
ENDBRANCH  23  24
ENDBRANCH  12  18
ENDBRANCH   4   7
ENDBRANCH   2   3
ENDBRANCH   1   2
BRANCH   1  31
ATOM     31  C   UNL A   1      33.745  30.334  27.598  1.00  0.00     0.023 C 
BRANCH  31  32
ATOM     32  C   UNL A   1      34.468  31.671  27.732  1.00  0.00     0.116 C 
BRANCH  32  33
ATOM     33  N   UNL A   1      34.856  32.044  29.084  1.00  0.00    -0.352 N 
ATOM     34  C   UNL A   1      35.735  31.426  29.965  1.00  0.00     0.251 C 
ATOM     35  H   UNL A   1      34.427  32.861  29.430  1.00  0.00     0.163 HD
ATOM     36  O   UNL A   1      35.841  31.841  31.104  1.00  0.00    -0.269 OA
BRANCH  34  37
ATOM     37  C   UNL A   1      36.653  30.358  29.477  1.00  0.00     0.039 A 
ATOM     38  C   UNL A   1      36.846  29.242  30.303  1.00  0.00     0.014 A 
ATOM     39  C   UNL A   1      37.465  30.539  28.363  1.00  0.00     0.014 A 
ATOM     40  C   UNL A   1      38.012  28.489  30.178  1.00  0.00     0.010 A 
ATOM     41  C   UNL A   1      38.673  29.867  28.303  1.00  0.00     0.010 A 
ATOM     42  C   UNL A   1      38.977  28.894  29.257  1.00  0.00    -0.014 A 
BRANCH  42  43
ATOM     43  C   UNL A   1      40.368  28.464  29.330  1.00  0.00     0.031 A 
ATOM     44  C   UNL A   1      40.811  27.202  28.710  1.00  0.00     0.074 A 
ATOM     45  C   UNL A   1      41.280  29.263  29.929  1.00  0.00     0.049 A 
ATOM     46  N   UNL A   1      41.794  26.490  29.153  1.00  0.00    -0.248 NA
ATOM     47  C   UNL A   1      40.157  26.627  27.541  1.00  0.00     0.031 C 
ATOM     48  C   UNL A   1      42.734  29.133  29.890  1.00  0.00     0.029 A 
ATOM     49  N   UNL A   1      41.046  30.269  30.873  1.00  0.00    -0.354 N 
ATOM     50  C   UNL A   1      42.076  25.541  28.199  1.00  0.00     0.074 A 
ATOM     51  C   UNL A   1      40.990  25.622  27.249  1.00  0.00     0.031 C 
ATOM     52  C   UNL A   1      43.257  29.799  30.931  1.00  0.00     0.029 A 
ATOM     53  C   UNL A   1      42.150  30.260  31.750  1.00  0.00     0.049 A 
ATOM     54  H   UNL A   1      40.264  30.866  30.918  1.00  0.00     0.167 HD
ATOM     55  C   UNL A   1      43.271  24.884  28.219  1.00  0.00     0.037 A 
ATOM     56  C   UNL A   1      42.002  30.002  33.081  1.00  0.00     0.037 A 
ATOM     57  C   UNL A   1      44.116  25.332  29.321  1.00  0.00     0.049 A 
ATOM     58  C   UNL A   1      42.772  28.796  33.564  1.00  0.00     0.074 A 
ATOM     59  C   UNL A   1      45.135  26.269  29.381  1.00  0.00     0.029 A 
ATOM     60  N   UNL A   1      43.761  25.052  30.635  1.00  0.00    -0.354 N 
ATOM     61  N   UNL A   1      43.237  27.869  32.774  1.00  0.00    -0.248 NA
ATOM     62  C   UNL A   1      43.041  28.515  34.972  1.00  0.00     0.031 C 
ATOM     63  C   UNL A   1      45.368  26.584  30.738  1.00  0.00     0.029 A 
ATOM     64  C   UNL A   1      44.499  25.830  31.507  1.00  0.00     0.049 A 
ATOM     65  H   UNL A   1      43.081  24.393  30.907  1.00  0.00     0.167 HD
ATOM     66  C   UNL A   1      43.806  26.872  33.524  1.00  0.00     0.074 A 
ATOM     67  C   UNL A   1      43.686  27.338  34.893  1.00  0.00     0.031 C 
ATOM     68  C   UNL A   1      44.309  25.740  32.947  1.00  0.00     0.037 A 
BRANCH  55  69
ATOM     69  C   UNL A   1      43.769  24.094  27.035  1.00  0.00     0.057 A 
ATOM     70  C   UNL A   1      44.459  24.711  25.975  1.00  0.00     0.134 A 
ATOM     71  C   UNL A   1      43.544  22.718  26.865  1.00  0.00     0.134 A 
ATOM     72  F   UNL A   1      44.846  25.991  26.032  1.00  0.00    -0.206 F 
ATOM     73  C   UNL A   1      44.776  24.045  24.785  1.00  0.00     0.040 A 
ATOM     74  C   UNL A   1      43.811  22.049  25.662  1.00  0.00     0.040 A 
ATOM     75  F   UNL A   1      43.072  21.964  27.869  1.00  0.00    -0.206 F 
ATOM     76  C   UNL A   1      44.415  22.719  24.607  1.00  0.00     0.006 A 
ENDBRANCH  55  69
BRANCH  56  77
ATOM     77  C   UNL A   1      40.689  30.438  33.622  1.00  0.00     0.057 A 
ATOM     78  C   UNL A   1      40.512  31.793  33.950  1.00  0.00     0.134 A 
ATOM     79  C   UNL A   1      39.537  29.663  33.462  1.00  0.00     0.134 A 
ATOM     80  F   UNL A   1      41.580  32.593  34.106  1.00  0.00    -0.206 F 
ATOM     81  C   UNL A   1      39.246  32.380  34.006  1.00  0.00     0.040 A 
ATOM     82  C   UNL A   1      38.264  30.239  33.524  1.00  0.00     0.040 A 
ATOM     83  F   UNL A   1      39.626  28.369  33.125  1.00  0.00    -0.206 F 
ATOM     84  C   UNL A   1      38.117  31.606  33.757  1.00  0.00     0.006 A 
ENDBRANCH  56  77
BRANCH  68  85
ATOM     85  C   UNL A   1      44.757  24.491  33.666  1.00  0.00     0.057 A 
ATOM     86  C   UNL A   1      46.093  24.083  33.788  1.00  0.00     0.134 A 
ATOM     87  C   UNL A   1      43.827  23.719  34.401  1.00  0.00     0.134 A 
ATOM     88  F   UNL A   1      47.093  24.783  33.238  1.00  0.00    -0.206 F 
ATOM     89  C   UNL A   1      46.470  22.959  34.536  1.00  0.00     0.040 A 
ATOM     90  C   UNL A   1      44.199  22.628  35.193  1.00  0.00     0.040 A 
ATOM     91  F   UNL A   1      42.516  24.004  34.401  1.00  0.00    -0.206 F 
ATOM     92  C   UNL A   1      45.526  22.234  35.252  1.00  0.00     0.006 A 
ENDBRANCH  68  85
ENDBRANCH  42  43
ENDBRANCH  34  37
ENDBRANCH  32  33
ENDBRANCH  31  32
ENDBRANCH   1  31
TORSDOF 14
ENDMDL
MODEL 3
REMARK VINA RESULT:     -13.5      4.145      9.834
REMARK SMILES CC(=O)Nc1cnc(N2CC=C(c3ccccc3C)CC2)c(C(=O)NCCCCNC(=O)c2ccc(-c3c4nc(c(-c5c(F)cccc5F)c5ccc([nH]5)c(-c5c(F)cccc5F)c5nc(c(-c6c(F)cccc6F)c6ccc3[nH]6)C=C5)C=C4)cc2)c1
REMARK SMILES IDX 27 1 26 2 25 3 23 4 24 5 22 7 5 8 6 9 87 10 7 11 8 12 4 13
REMARK SMILES IDX 1 14 2 15 3 16 9 18 10 19 21 20 11 21 20 22 12 23 13 24
REMARK SMILES IDX 14 25 18 26 15 27 17 28 19 29 16 30 28 31 29 32 30 33 31 34
REMARK SMILES IDX 32 36 33 37 34 38 86 39 35 40 85 41 36 42 37 43 38 44 79 45
REMARK SMILES IDX 39 46 84 47 78 48 80 49 40 50 83 51 77 52 76 53 41 55 67 56
REMARK SMILES IDX 50 57 66 58 51 59 54 60 65 61 81 62 52 63 53 64 64 66 82 67
REMARK SMILES IDX 55 68 42 69 43 70 48 71 44 72 45 73 47 74 49 75 46 76 68 77
REMARK SMILES IDX 69 78 74 79 70 80 71 81 73 82 75 83 72 84 56 85 57 86 62 87
REMARK SMILES IDX 58 88 59 89 61 90 63 91 60 92
REMARK H PARENT 25 6 4 17 30 35 80 54 54 65
REMARK Flexibility Score: inf
ROOT
ATOM      1  C   UNL A   1      34.684  28.786  27.018  1.00  0.00     0.023 C 
ENDROOT
BRANCH   1   2
ATOM      2  C   UNL A   1      33.652  28.103  26.111  1.00  0.00     0.116 C 
BRANCH   2   3
ATOM      3  N   UNL A   1      33.778  28.478  24.713  1.00  0.00    -0.352 N 
ATOM      4  C   UNL A   1      32.944  28.783  23.661  1.00  0.00     0.255 C 
ATOM      5  O   UNL A   1      33.563  29.214  22.687  1.00  0.00    -0.269 OA
ATOM      6  H   UNL A   1      34.723  28.529  24.442  1.00  0.00     0.163 HD
BRANCH   4   7
ATOM      7  C   UNL A   1      31.441  28.668  23.643  1.00  0.00     0.084 A 
ATOM      8  C   UNL A   1      29.249  29.722  23.362  1.00  0.00     0.060 A 
ATOM      9  C   UNL A   1      28.691  28.466  23.387  1.00  0.00     0.139 A 
ATOM     10  C   UNL A   1      30.626  29.808  23.552  1.00  0.00     0.045 A 
ATOM     11  N   UNL A   1      29.420  27.340  23.498  1.00  0.00    -0.236 NA
ATOM     12  C   UNL A   1      30.779  27.416  23.620  1.00  0.00     0.141 A 
BRANCH   8  13
ATOM     13  N   UNL A   1      28.432  30.850  23.192  1.00  0.00    -0.325 N 
ATOM     14  C   UNL A   1      28.321  30.845  20.706  1.00  0.00     0.114 C 
ATOM     15  C   UNL A   1      28.104  31.516  22.040  1.00  0.00     0.221 C 
ATOM     16  O   UNL A   1      27.573  32.623  22.113  1.00  0.00    -0.275 OA
ATOM     17  H   UNL A   1      28.038  31.214  24.016  1.00  0.00     0.169 HD
ENDBRANCH   8  13
BRANCH  12  18
ATOM     18  N   UNL A   1      31.365  26.181  23.732  1.00  0.00    -0.352 N 
ATOM     19  C   UNL A   1      31.287  25.502  25.016  1.00  0.00     0.146 C 
ATOM     20  C   UNL A   1      32.011  25.505  22.616  1.00  0.00     0.123 C 
ATOM     21  C   UNL A   1      32.468  24.593  25.232  1.00  0.00    -0.002 C 
ATOM     22  C   UNL A   1      33.438  25.101  23.008  1.00  0.00     0.057 C 
ATOM     23  C   UNL A   1      33.463  24.403  24.345  1.00  0.00    -0.041 C 
BRANCH  23  24
ATOM     24  C   UNL A   1      34.580  23.488  24.655  1.00  0.00    -0.020 A 
ATOM     25  C   UNL A   1      35.765  24.045  25.171  1.00  0.00     0.008 A 
ATOM     26  C   UNL A   1      34.516  22.095  24.447  1.00  0.00    -0.044 A 
ATOM     27  C   UNL A   1      36.864  23.243  25.482  1.00  0.00     0.001 A 
ATOM     28  C   UNL A   1      35.626  21.299  24.781  1.00  0.00     0.004 A 
ATOM     29  C   UNL A   1      33.293  21.417  23.890  1.00  0.00     0.045 C 
ATOM     30  C   UNL A   1      36.793  21.869  25.289  1.00  0.00     0.000 A 
ENDBRANCH  23  24
ENDBRANCH  12  18
ENDBRANCH   4   7
ENDBRANCH   2   3
ENDBRANCH   1   2
BRANCH   1  31
ATOM     31  C   UNL A   1      34.509  30.307  27.157  1.00  0.00     0.023 C 
BRANCH  31  32
ATOM     32  C   UNL A   1      34.540  30.817  28.595  1.00  0.00     0.116 C 
BRANCH  32  33
ATOM     33  N   UNL A   1      35.619  31.741  28.911  1.00  0.00    -0.352 N 
ATOM     34  C   UNL A   1      36.966  31.496  29.150  1.00  0.00     0.251 C 
ATOM     35  H   UNL A   1      35.353  32.688  28.966  1.00  0.00     0.163 HD
ATOM     36  O   UNL A   1      37.691  32.405  29.508  1.00  0.00    -0.269 OA
BRANCH  34  37
ATOM     37  C   UNL A   1      37.552  30.165  28.825  1.00  0.00     0.039 A 
ATOM     38  C   UNL A   1      37.682  29.241  29.871  1.00  0.00     0.014 A 
ATOM     39  C   UNL A   1      38.154  29.906  27.599  1.00  0.00     0.014 A 
ATOM     40  C   UNL A   1      38.637  28.229  29.778  1.00  0.00     0.010 A 
ATOM     41  C   UNL A   1      39.176  28.976  27.542  1.00  0.00     0.010 A 
ATOM     42  C   UNL A   1      39.466  28.190  28.659  1.00  0.00    -0.014 A 
BRANCH  42  43
ATOM     43  C   UNL A   1      40.737  27.476  28.642  1.00  0.00     0.031 A 
ATOM     44  C   UNL A   1      40.796  26.028  28.365  1.00  0.00     0.074 A 
ATOM     45  C   UNL A   1      41.887  28.161  28.830  1.00  0.00     0.049 A 
ATOM     46  N   UNL A   1      41.702  25.242  28.843  1.00  0.00    -0.248 NA
ATOM     47  C   UNL A   1      39.813  25.345  27.534  1.00  0.00     0.031 C 
ATOM     48  C   UNL A   1      43.249  27.684  28.610  1.00  0.00     0.029 A 
ATOM     49  N   UNL A   1      42.050  29.402  29.457  1.00  0.00    -0.354 N 
ATOM     50  C   UNL A   1      41.594  24.040  28.183  1.00  0.00     0.074 A 
ATOM     51  C   UNL A   1      40.363  24.131  27.429  1.00  0.00     0.031 C 
ATOM     52  C   UNL A   1      44.097  28.451  29.313  1.00  0.00     0.029 A 
ATOM     53  C   UNL A   1      43.295  29.355  30.117  1.00  0.00     0.049 A 
ATOM     54  H   UNL A   1      41.420  30.158  29.442  1.00  0.00     0.167 HD
ATOM     55  C   UNL A   1      42.623  23.147  28.214  1.00  0.00     0.037 A 
ATOM     56  C   UNL A   1      43.391  29.491  31.471  1.00  0.00     0.037 A 
ATOM     57  C   UNL A   1      43.752  23.649  28.990  1.00  0.00     0.049 A 
ATOM     58  C   UNL A   1      44.010  28.302  32.167  1.00  0.00     0.074 A 
ATOM     59  C   UNL A   1      44.915  24.300  28.612  1.00  0.00     0.029 A 
ATOM     60  N   UNL A   1      43.641  23.808  30.366  1.00  0.00    -0.354 N 
ATOM     61  N   UNL A   1      44.116  27.120  31.626  1.00  0.00    -0.248 NA
ATOM     62  C   UNL A   1      44.517  28.336  33.536  1.00  0.00     0.031 C 
ATOM     63  C   UNL A   1      45.487  24.888  29.763  1.00  0.00     0.029 A 
ATOM     64  C   UNL A   1      44.679  24.585  30.844  1.00  0.00     0.049 A 
ATOM     65  H   UNL A   1      42.925  23.421  30.922  1.00  0.00     0.167 HD
ATOM     66  C   UNL A   1      44.638  26.244  32.542  1.00  0.00     0.074 A 
ATOM     67  C   UNL A   1      44.902  27.059  33.712  1.00  0.00     0.031 C 
ATOM     68  C   UNL A   1      44.789  24.916  32.257  1.00  0.00     0.037 A 
BRANCH  55  69
ATOM     69  C   UNL A   1      42.702  21.984  27.257  1.00  0.00     0.057 A 
ATOM     70  C   UNL A   1      41.899  20.839  27.420  1.00  0.00     0.134 A 
ATOM     71  C   UNL A   1      43.602  21.920  26.180  1.00  0.00     0.134 A 
ATOM     72  F   UNL A   1      40.919  20.785  28.330  1.00  0.00    -0.206 F 
ATOM     73  C   UNL A   1      42.072  19.676  26.661  1.00  0.00     0.040 A 
ATOM     74  C   UNL A   1      43.821  20.747  25.444  1.00  0.00     0.040 A 
ATOM     75  F   UNL A   1      44.291  23.003  25.788  1.00  0.00    -0.206 F 
ATOM     76  C   UNL A   1      43.065  19.611  25.696  1.00  0.00     0.006 A 
ENDBRANCH  55  69
BRANCH  56  77
ATOM     77  C   UNL A   1      42.327  30.350  32.052  1.00  0.00     0.057 A 
ATOM     78  C   UNL A   1      42.483  31.745  31.997  1.00  0.00     0.134 A 
ATOM     79  C   UNL A   1      41.042  29.859  32.297  1.00  0.00     0.134 A 
ATOM     80  F   UNL A   1      43.692  32.278  31.755  1.00  0.00    -0.206 F 
ATOM     81  C   UNL A   1      41.393  32.614  32.070  1.00  0.00     0.040 A 
ATOM     82  C   UNL A   1      39.942  30.721  32.379  1.00  0.00     0.040 A 
ATOM     83  F   UNL A   1      40.811  28.540  32.340  1.00  0.00    -0.206 F 
ATOM     84  C   UNL A   1      40.110  32.097  32.226  1.00  0.00     0.006 A 
ENDBRANCH  56  77
BRANCH  68  85
ATOM     85  C   UNL A   1      45.141  23.824  33.237  1.00  0.00     0.057 A 
ATOM     86  C   UNL A   1      46.385  23.700  33.871  1.00  0.00     0.134 A 
ATOM     87  C   UNL A   1      44.149  22.922  33.688  1.00  0.00     0.134 A 
ATOM     88  F   UNL A   1      47.386  24.555  33.626  1.00  0.00    -0.206 F 
ATOM     89  C   UNL A   1      46.642  22.718  34.839  1.00  0.00     0.040 A 
ATOM     90  C   UNL A   1      44.378  21.974  34.690  1.00  0.00     0.040 A 
ATOM     91  F   UNL A   1      42.902  22.938  33.191  1.00  0.00    -0.206 F 
ATOM     92  C   UNL A   1      45.635  21.858  35.260  1.00  0.00     0.006 A 
ENDBRANCH  68  85
ENDBRANCH  42  43
ENDBRANCH  34  37
ENDBRANCH  32  33
ENDBRANCH  31  32
ENDBRANCH   1  31
TORSDOF 14
ENDMDL
