MODEL 1
REMARK VINA RESULT:     -13.0      0.000      0.000
REMARK SMILES COC(=O)c1ccc([C@H]2CC(=O)Nc3c(C(=O)NCCCCNC(=O)c4ccc(-c5c6nc(c(-c7c(F)cccc7F)c7ccc([nH]7)c(-c7c(F)cccc7F)c7nc(c(-c8c(F)cccc8F)c8ccc5[nH]8)C=C7)C=C6)cc4)cn(-c4cc(OC)ccc4OC)c32)cc1
REMARK SMILES IDX 20 1 19 2 18 3 16 4 17 5 15 7 9 8 10 9 92 10 11 11 14 12
REMARK SMILES IDX 81 13 12 14 13 15 80 16 8 18 5 19 6 20 94 21 7 22 93 23 3 24
REMARK SMILES IDX 4 25 2 26 1 27 82 28 83 29 89 30 84 31 88 32 87 33 90 34
REMARK SMILES IDX 91 35 85 36 86 37 21 38 22 39 23 40 24 41 25 43 26 44 27 45
REMARK SMILES IDX 79 46 28 47 78 48 29 49 30 50 31 51 72 52 32 53 77 54 71 55
REMARK SMILES IDX 73 56 33 57 76 58 70 59 69 60 34 62 60 63 43 64 59 65 44 66
REMARK SMILES IDX 47 67 58 68 74 69 45 70 46 71 57 73 75 74 48 75 35 76 36 77
REMARK SMILES IDX 41 78 37 79 38 80 40 81 42 82 39 83 61 84 62 85 67 86 63 87
REMARK SMILES IDX 64 88 66 89 68 90 65 91 49 92 50 93 55 94 51 95 52 96 54 97
REMARK SMILES IDX 56 98 53 99
REMARK H PARENT 18 6 13 17 23 42 73 61 47 72
REMARK Flexibility Score: inf
ROOT
ATOM      1  C   UNL A   1      37.038  20.730  24.607  1.00  0.00     0.023 C 
ENDROOT
BRANCH   1   2
ATOM      2  C   UNL A   1      35.740  20.780  25.422  1.00  0.00     0.116 C 
BRANCH   2   3
ATOM      3  N   UNL A   1      34.581  20.465  24.627  1.00  0.00    -0.352 N 
ATOM      4  C   UNL A   1      33.490  21.174  24.209  1.00  0.00     0.254 C 
ATOM      5  O   UNL A   1      32.784  20.569  23.394  1.00  0.00    -0.269 OA
ATOM      6  H   UNL A   1      34.572  19.531  24.317  1.00  0.00     0.163 HD
BRANCH   4   7
ATOM      7  C   UNL A   1      33.083  22.510  24.673  1.00  0.00     0.081 A 
ATOM      8  C   UNL A   1      31.112  25.454  25.934  1.00  0.00     0.078 C 
ATOM      9  C   UNL A   1      29.893  24.716  26.500  1.00  0.00     0.115 C 
ATOM     10  C   UNL A   1      32.096  24.484  25.307  1.00  0.00     0.055 A 
ATOM     11  C   UNL A   1      30.157  23.309  26.960  1.00  0.00     0.225 C 
ATOM     12  C   UNL A   1      32.053  23.109  25.464  1.00  0.00     0.076 A 
ATOM     13  N   UNL A   1      33.193  24.785  24.515  1.00  0.00    -0.314 N 
ATOM     14  O   UNL A   1      29.464  22.768  27.823  1.00  0.00    -0.275 OA
ATOM     15  N   UNL A   1      31.105  22.581  26.304  1.00  0.00    -0.324 N 
ATOM     16  C   UNL A   1      33.832  23.604  24.241  1.00  0.00     0.107 A 
ATOM     17  H   UNL A   1      31.110  21.606  26.444  1.00  0.00     0.170 HD
BRANCH   8  18
ATOM     18  C   UNL A   1      30.577  26.579  25.048  1.00  0.00    -0.038 A 
ATOM     19  C   UNL A   1      29.824  28.689  23.337  1.00  0.00     0.060 A 
ATOM     20  C   UNL A   1      30.481  28.959  24.542  1.00  0.00     0.016 A 
ATOM     21  C   UNL A   1      29.457  27.375  23.038  1.00  0.00     0.016 A 
ATOM     22  C   UNL A   1      30.863  27.911  25.384  1.00  0.00     0.005 A 
ATOM     23  C   UNL A   1      29.791  26.339  23.912  1.00  0.00     0.005 A 
BRANCH  19  24
ATOM     24  C   UNL A   1      29.589  29.814  22.394  1.00  0.00     0.337 C 
ATOM     25  O   UNL A   1      29.942  29.799  21.225  1.00  0.00    -0.246 OA
BRANCH  24  26
ATOM     26  O   UNL A   1      28.901  30.812  23.004  1.00  0.00    -0.465 OA
ATOM     27  C   UNL A   1      28.778  31.998  22.220  1.00  0.00     0.282 C 
ENDBRANCH  24  26
ENDBRANCH  19  24
ENDBRANCH   8  18
BRANCH  13  28
ATOM     28  C   UNL A   1      33.614  26.056  24.059  1.00  0.00     0.091 A 
ATOM     29  C   UNL A   1      33.905  27.006  25.062  1.00  0.00     0.077 A 
ATOM     30  C   UNL A   1      33.652  26.429  22.706  1.00  0.00     0.143 A 
ATOM     31  C   UNL A   1      34.149  28.343  24.747  1.00  0.00     0.121 A 
ATOM     32  C   UNL A   1      33.932  27.777  22.417  1.00  0.00     0.052 A 
ATOM     33  C   UNL A   1      34.157  28.729  23.415  1.00  0.00     0.050 A 
BRANCH  30  34
ATOM     34  O   UNL A   1      33.391  25.759  21.548  1.00  0.00    -0.495 OA
ATOM     35  C   UNL A   1      32.130  25.723  20.912  1.00  0.00     0.278 C 
ENDBRANCH  30  34
BRANCH  31  36
ATOM     36  O   UNL A   1      34.358  29.164  25.820  1.00  0.00    -0.497 OA
ATOM     37  C   UNL A   1      34.079  28.605  27.099  1.00  0.00     0.278 C 
ENDBRANCH  31  36
ENDBRANCH  13  28
ENDBRANCH   4   7
ENDBRANCH   2   3
ENDBRANCH   1   2
BRANCH   1  38
ATOM     38  C   UNL A   1      38.014  19.616  25.017  1.00  0.00     0.023 C 
BRANCH  38  39
ATOM     39  C   UNL A   1      39.209  20.084  25.847  1.00  0.00     0.116 C 
BRANCH  39  40
ATOM     40  N   UNL A   1      40.340  19.156  25.807  1.00  0.00    -0.352 N 
ATOM     41  C   UNL A   1      41.691  19.458  25.868  1.00  0.00     0.251 C 
ATOM     42  H   UNL A   1      40.114  18.201  25.727  1.00  0.00     0.163 HD
ATOM     43  O   UNL A   1      42.538  18.704  25.428  1.00  0.00    -0.269 OA
BRANCH  41  44
ATOM     44  C   UNL A   1      42.079  20.725  26.508  1.00  0.00     0.039 A 
ATOM     45  C   UNL A   1      42.527  21.817  25.762  1.00  0.00     0.014 A 
ATOM     46  C   UNL A   1      41.904  20.813  27.886  1.00  0.00     0.014 A 
ATOM     47  C   UNL A   1      42.706  23.039  26.408  1.00  0.00     0.010 A 
ATOM     48  C   UNL A   1      41.943  22.044  28.489  1.00  0.00     0.010 A 
ATOM     49  C   UNL A   1      42.389  23.152  27.771  1.00  0.00    -0.014 A 
BRANCH  49  50
ATOM     50  C   UNL A   1      42.427  24.446  28.446  1.00  0.00     0.031 A 
ATOM     51  C   UNL A   1      41.214  25.302  28.287  1.00  0.00     0.074 A 
ATOM     52  C   UNL A   1      43.378  24.755  29.354  1.00  0.00     0.049 A 
ATOM     53  N   UNL A   1      41.133  26.465  27.727  1.00  0.00    -0.248 NA
ATOM     54  C   UNL A   1      39.914  24.766  28.723  1.00  0.00     0.031 C 
ATOM     55  C   UNL A   1      44.462  23.908  29.870  1.00  0.00     0.029 A 
ATOM     56  N   UNL A   1      43.501  25.879  30.107  1.00  0.00    -0.354 N 
ATOM     57  C   UNL A   1      39.816  26.892  27.896  1.00  0.00     0.074 A 
ATOM     58  C   UNL A   1      39.082  25.752  28.381  1.00  0.00     0.031 C 
ATOM     59  C   UNL A   1      44.955  24.445  31.005  1.00  0.00     0.029 A 
ATOM     60  C   UNL A   1      44.359  25.754  31.191  1.00  0.00     0.049 A 
ATOM     61  H   UNL A   1      43.021  26.714  29.901  1.00  0.00     0.167 HD
ATOM     62  C   UNL A   1      39.477  28.210  27.819  1.00  0.00     0.037 A 
ATOM     63  C   UNL A   1      44.545  26.654  32.185  1.00  0.00     0.037 A 
ATOM     64  C   UNL A   1      40.535  28.992  27.235  1.00  0.00     0.049 A 
ATOM     65  C   UNL A   1      44.060  27.965  31.689  1.00  0.00     0.074 A 
ATOM     66  C   UNL A   1      41.187  28.991  26.018  1.00  0.00     0.029 A 
ATOM     67  N   UNL A   1      41.334  29.717  28.085  1.00  0.00    -0.354 N 
ATOM     68  N   UNL A   1      44.639  28.635  30.732  1.00  0.00    -0.248 NA
ATOM     69  C   UNL A   1      42.668  28.308  31.939  1.00  0.00     0.031 C 
ATOM     70  C   UNL A   1      42.551  29.261  26.336  1.00  0.00     0.029 A 
ATOM     71  C   UNL A   1      42.631  29.477  27.713  1.00  0.00     0.049 A 
ATOM     72  H   UNL A   1      41.033  30.298  28.821  1.00  0.00     0.167 HD
ATOM     73  C   UNL A   1      43.593  29.154  29.983  1.00  0.00     0.074 A 
ATOM     74  C   UNL A   1      42.408  29.000  30.825  1.00  0.00     0.031 C 
ATOM     75  C   UNL A   1      43.731  29.392  28.645  1.00  0.00     0.037 A 
BRANCH  62  76
ATOM     76  C   UNL A   1      38.351  28.863  28.579  1.00  0.00     0.057 A 
ATOM     77  C   UNL A   1      37.508  29.778  27.918  1.00  0.00     0.134 A 
ATOM     78  C   UNL A   1      38.254  28.865  29.984  1.00  0.00     0.134 A 
ATOM     79  F   UNL A   1      37.520  29.882  26.581  1.00  0.00    -0.206 F 
ATOM     80  C   UNL A   1      36.685  30.676  28.610  1.00  0.00     0.040 A 
ATOM     81  C   UNL A   1      37.398  29.722  30.682  1.00  0.00     0.040 A 
ATOM     82  F   UNL A   1      39.052  28.116  30.754  1.00  0.00    -0.206 F 
ATOM     83  C   UNL A   1      36.635  30.655  29.998  1.00  0.00     0.006 A 
ENDBRANCH  62  76
BRANCH  63  84
ATOM     84  C   UNL A   1      44.852  26.400  33.609  1.00  0.00     0.057 A 
ATOM     85  C   UNL A   1      45.880  27.090  34.264  1.00  0.00     0.134 A 
ATOM     86  C   UNL A   1      43.970  25.675  34.432  1.00  0.00     0.134 A 
ATOM     87  F   UNL A   1      46.748  27.838  33.569  1.00  0.00    -0.206 F 
ATOM     88  C   UNL A   1      46.009  27.083  35.660  1.00  0.00     0.040 A 
ATOM     89  C   UNL A   1      44.092  25.654  35.825  1.00  0.00     0.040 A 
ATOM     90  F   UNL A   1      42.910  25.034  33.916  1.00  0.00    -0.206 F 
ATOM     91  C   UNL A   1      45.105  26.373  36.446  1.00  0.00     0.006 A 
ENDBRANCH  63  84
BRANCH  75  92
ATOM     92  C   UNL A   1      45.110  29.308  28.048  1.00  0.00     0.057 A 
ATOM     93  C   UNL A   1      45.662  28.138  27.505  1.00  0.00     0.134 A 
ATOM     94  C   UNL A   1      45.833  30.490  27.864  1.00  0.00     0.134 A 
ATOM     95  F   UNL A   1      45.001  26.976  27.541  1.00  0.00    -0.206 F 
ATOM     96  C   UNL A   1      46.894  28.139  26.844  1.00  0.00     0.040 A 
ATOM     97  C   UNL A   1      47.049  30.512  27.177  1.00  0.00     0.040 A 
ATOM     98  F   UNL A   1      45.340  31.659  28.304  1.00  0.00    -0.206 F 
ATOM     99  C   UNL A   1      47.588  29.332  26.672  1.00  0.00     0.006 A 
ENDBRANCH  75  92
ENDBRANCH  49  50
ENDBRANCH  41  44
ENDBRANCH  39  40
ENDBRANCH  38  39
ENDBRANCH   1  38
TORSDOF 17
ENDMDL
MODEL 2
REMARK VINA RESULT:     -12.0      2.044      5.700
REMARK SMILES COC(=O)c1ccc([C@H]2CC(=O)Nc3c(C(=O)NCCCCNC(=O)c4ccc(-c5c6nc(c(-c7c(F)cccc7F)c7ccc([nH]7)c(-c7c(F)cccc7F)c7nc(c(-c8c(F)cccc8F)c8ccc5[nH]8)C=C7)C=C6)cc4)cn(-c4cc(OC)ccc4OC)c32)cc1
REMARK SMILES IDX 20 1 19 2 18 3 16 4 17 5 15 7 9 8 10 9 92 10 11 11 14 12
REMARK SMILES IDX 81 13 12 14 13 15 80 16 8 18 5 19 6 20 94 21 7 22 93 23 3 24
REMARK SMILES IDX 4 25 2 26 1 27 82 28 83 29 89 30 84 31 88 32 87 33 90 34
REMARK SMILES IDX 91 35 85 36 86 37 21 38 22 39 23 40 24 41 25 43 26 44 27 45
REMARK SMILES IDX 79 46 28 47 78 48 29 49 30 50 31 51 72 52 32 53 77 54 71 55
REMARK SMILES IDX 73 56 33 57 76 58 70 59 69 60 34 62 60 63 43 64 59 65 44 66
REMARK SMILES IDX 47 67 58 68 74 69 45 70 46 71 57 73 75 74 48 75 35 76 36 77
REMARK SMILES IDX 41 78 37 79 38 80 40 81 42 82 39 83 61 84 62 85 67 86 63 87
REMARK SMILES IDX 64 88 66 89 68 90 65 91 49 92 50 93 55 94 51 95 52 96 54 97
REMARK SMILES IDX 56 98 53 99
REMARK H PARENT 18 6 13 17 23 42 73 61 47 72
REMARK Flexibility Score: inf
ROOT
ATOM      1  C   UNL A   1      36.648  21.639  24.614  1.00  0.00     0.023 C 
ENDROOT
BRANCH   1   2
ATOM      2  C   UNL A   1      35.509  21.051  25.455  1.00  0.00     0.116 C 
BRANCH   2   3
ATOM      3  N   UNL A   1      34.371  20.679  24.655  1.00  0.00    -0.352 N 
ATOM      4  C   UNL A   1      33.268  21.343  24.197  1.00  0.00     0.254 C 
ATOM      5  O   UNL A   1      32.592  20.692  23.393  1.00  0.00    -0.269 OA
ATOM      6  H   UNL A   1      34.392  19.735  24.377  1.00  0.00     0.163 HD
BRANCH   4   7
ATOM      7  C   UNL A   1      32.819  22.683  24.610  1.00  0.00     0.081 A 
ATOM      8  C   UNL A   1      30.756  25.607  25.765  1.00  0.00     0.078 C 
ATOM      9  C   UNL A   1      29.566  24.853  26.368  1.00  0.00     0.115 C 
ATOM     10  C   UNL A   1      31.769  24.647  25.171  1.00  0.00     0.055 A 
ATOM     11  C   UNL A   1      29.879  23.475  26.882  1.00  0.00     0.225 C 
ATOM     12  C   UNL A   1      31.773  23.278  25.383  1.00  0.00     0.076 A 
ATOM     13  N   UNL A   1      32.851  24.952  24.360  1.00  0.00    -0.314 N 
ATOM     14  O   UNL A   1      29.209  22.946  27.770  1.00  0.00    -0.275 OA
ATOM     15  N   UNL A   1      30.848  22.753  26.250  1.00  0.00    -0.324 N 
ATOM     16  C   UNL A   1      33.528  23.783  24.129  1.00  0.00     0.107 A 
ATOM     17  H   UNL A   1      30.887  21.786  26.429  1.00  0.00     0.170 HD
BRANCH   8  18
ATOM     18  C   UNL A   1      30.179  26.677  24.838  1.00  0.00    -0.038 A 
ATOM     19  C   UNL A   1      28.902  28.634  23.260  1.00  0.00     0.060 A 
ATOM     20  C   UNL A   1      28.571  27.283  23.112  1.00  0.00     0.016 A 
ATOM     21  C   UNL A   1      29.940  28.992  24.124  1.00  0.00     0.016 A 
ATOM     22  C   UNL A   1      29.197  26.315  23.902  1.00  0.00     0.005 A 
ATOM     23  C   UNL A   1      30.601  28.013  24.869  1.00  0.00     0.005 A 
BRANCH  19  24
ATOM     24  C   UNL A   1      28.096  29.644  22.526  1.00  0.00     0.337 C 
ATOM     25  O   UNL A   1      28.137  29.789  21.314  1.00  0.00    -0.246 OA
BRANCH  24  26
ATOM     26  O   UNL A   1      27.296  30.329  23.381  1.00  0.00    -0.465 OA
ATOM     27  C   UNL A   1      27.624  31.713  23.503  1.00  0.00     0.282 C 
ENDBRANCH  24  26
ENDBRANCH  19  24
ENDBRANCH   8  18
BRANCH  13  28
ATOM     28  C   UNL A   1      33.226  26.217  23.851  1.00  0.00     0.091 A 
ATOM     29  C   UNL A   1      33.819  27.104  24.777  1.00  0.00     0.077 A 
ATOM     30  C   UNL A   1      32.951  26.647  22.543  1.00  0.00     0.143 A 
ATOM     31  C   UNL A   1      34.062  28.438  24.450  1.00  0.00     0.121 A 
ATOM     32  C   UNL A   1      33.237  27.990  22.233  1.00  0.00     0.052 A 
ATOM     33  C   UNL A   1      33.764  28.882  23.171  1.00  0.00     0.050 A 
BRANCH  30  34
ATOM     34  O   UNL A   1      32.368  26.045  21.469  1.00  0.00    -0.495 OA
ATOM     35  C   UNL A   1      32.937  24.972  20.747  1.00  0.00     0.278 C 
ENDBRANCH  30  34
BRANCH  31  36
ATOM     36  O   UNL A   1      34.584  29.197  25.459  1.00  0.00    -0.497 OA
ATOM     37  C   UNL A   1      33.650  29.706  26.406  1.00  0.00     0.278 C 
ENDBRANCH  31  36
ENDBRANCH  13  28
ENDBRANCH   4   7
ENDBRANCH   2   3
ENDBRANCH   1   2
BRANCH   1  38
ATOM     38  C   UNL A   1      38.054  21.155  25.003  1.00  0.00     0.023 C 
BRANCH  38  39
ATOM     39  C   UNL A   1      38.806  22.077  25.963  1.00  0.00     0.116 C 
BRANCH  39  40
ATOM     40  N   UNL A   1      39.804  21.378  26.774  1.00  0.00    -0.352 N 
ATOM     41  C   UNL A   1      40.959  21.897  27.335  1.00  0.00     0.251 C 
ATOM     42  H   UNL A   1      39.633  20.424  26.942  1.00  0.00     0.163 HD
ATOM     43  O   UNL A   1      41.905  21.189  27.628  1.00  0.00    -0.269 OA
BRANCH  41  44
ATOM     44  C   UNL A   1      41.004  23.347  27.588  1.00  0.00     0.039 A 
ATOM     45  C   UNL A   1      39.853  24.135  27.542  1.00  0.00     0.014 A 
ATOM     46  C   UNL A   1      42.236  23.883  27.954  1.00  0.00     0.014 A 
ATOM     47  C   UNL A   1      39.935  25.461  27.966  1.00  0.00     0.010 A 
ATOM     48  C   UNL A   1      42.283  25.139  28.502  1.00  0.00     0.010 A 
ATOM     49  C   UNL A   1      41.150  25.951  28.468  1.00  0.00    -0.014 A 
BRANCH  49  50
ATOM     50  C   UNL A   1      41.237  27.286  29.053  1.00  0.00     0.031 A 
ATOM     51  C   UNL A   1      42.371  28.135  28.577  1.00  0.00     0.074 A 
ATOM     52  C   UNL A   1      40.233  27.818  29.782  1.00  0.00     0.049 A 
ATOM     53  N   UNL A   1      43.352  28.608  29.273  1.00  0.00    -0.248 NA
ATOM     54  C   UNL A   1      42.477  28.422  27.137  1.00  0.00     0.031 C 
ATOM     55  C   UNL A   1      38.912  27.246  30.077  1.00  0.00     0.029 A 
ATOM     56  N   UNL A   1      40.141  29.060  30.324  1.00  0.00    -0.354 N 
ATOM     57  C   UNL A   1      44.105  29.400  28.406  1.00  0.00     0.074 A 
ATOM     58  C   UNL A   1      43.607  29.131  27.082  1.00  0.00     0.031 C 
ATOM     59  C   UNL A   1      38.084  28.219  30.510  1.00  0.00     0.029 A 
ATOM     60  C   UNL A   1      38.858  29.431  30.701  1.00  0.00     0.049 A 
ATOM     61  H   UNL A   1      40.921  29.651  30.439  1.00  0.00     0.167 HD
ATOM     62  C   UNL A   1      44.940  30.372  28.870  1.00  0.00     0.037 A 
ATOM     63  C   UNL A   1      38.457  30.655  31.117  1.00  0.00     0.037 A 
ATOM     64  C   UNL A   1      45.178  30.231  30.282  1.00  0.00     0.049 A 
ATOM     65  C   UNL A   1      39.668  31.391  31.554  1.00  0.00     0.074 A 
ATOM     66  C   UNL A   1      45.722  29.248  31.084  1.00  0.00     0.029 A 
ATOM     67  N   UNL A   1      44.485  31.061  31.130  1.00  0.00    -0.354 N 
ATOM     68  N   UNL A   1      40.371  31.068  32.604  1.00  0.00    -0.248 NA
ATOM     69  C   UNL A   1      40.362  32.199  30.562  1.00  0.00     0.031 C 
ATOM     70  C   UNL A   1      44.914  29.248  32.259  1.00  0.00     0.029 A 
ATOM     71  C   UNL A   1      43.976  30.273  32.129  1.00  0.00     0.049 A 
ATOM     72  H   UNL A   1      44.375  32.035  31.037  1.00  0.00     0.167 HD
ATOM     73  C   UNL A   1      41.690  31.247  32.214  1.00  0.00     0.074 A 
ATOM     74  C   UNL A   1      41.620  32.032  30.983  1.00  0.00     0.031 C 
ATOM     75  C   UNL A   1      42.696  30.501  32.758  1.00  0.00     0.037 A 
BRANCH  62  76
ATOM     76  C   UNL A   1      45.270  31.652  28.146  1.00  0.00     0.057 A 
ATOM     77  C   UNL A   1      44.236  32.550  27.818  1.00  0.00     0.134 A 
ATOM     78  C   UNL A   1      46.497  31.888  27.497  1.00  0.00     0.134 A 
ATOM     79  F   UNL A   1      43.015  32.420  28.360  1.00  0.00    -0.206 F 
ATOM     80  C   UNL A   1      44.393  33.560  26.861  1.00  0.00     0.040 A 
ATOM     81  C   UNL A   1      46.679  32.926  26.578  1.00  0.00     0.040 A 
ATOM     82  F   UNL A   1      47.547  31.070  27.637  1.00  0.00    -0.206 F 
ATOM     83  C   UNL A   1      45.617  33.746  26.231  1.00  0.00     0.006 A 
ENDBRANCH  62  76
BRANCH  63  84
ATOM     84  C   UNL A   1      37.152  31.316  30.903  1.00  0.00     0.057 A 
ATOM     85  C   UNL A   1      36.287  31.580  31.973  1.00  0.00     0.134 A 
ATOM     86  C   UNL A   1      36.840  31.949  29.686  1.00  0.00     0.134 A 
ATOM     87  F   UNL A   1      36.522  31.053  33.183  1.00  0.00    -0.206 F 
ATOM     88  C   UNL A   1      35.191  32.445  31.849  1.00  0.00     0.040 A 
ATOM     89  C   UNL A   1      35.746  32.808  29.546  1.00  0.00     0.040 A 
ATOM     90  F   UNL A   1      37.638  31.821  28.615  1.00  0.00    -0.206 F 
ATOM     91  C   UNL A   1      34.926  33.072  30.635  1.00  0.00     0.006 A 
ENDBRANCH  63  84
BRANCH  75  92
ATOM     92  C   UNL A   1      42.380  29.653  33.960  1.00  0.00     0.057 A 
ATOM     93  C   UNL A   1      41.944  28.321  33.890  1.00  0.00     0.134 A 
ATOM     94  C   UNL A   1      42.691  30.148  35.230  1.00  0.00     0.134 A 
ATOM     95  F   UNL A   1      41.717  27.725  32.714  1.00  0.00    -0.206 F 
ATOM     96  C   UNL A   1      41.789  27.533  35.034  1.00  0.00     0.040 A 
ATOM     97  C   UNL A   1      42.572  29.361  36.378  1.00  0.00     0.040 A 
ATOM     98  F   UNL A   1      43.170  31.393  35.371  1.00  0.00    -0.206 F 
ATOM     99  C   UNL A   1      42.111  28.050  36.283  1.00  0.00     0.006 A 
ENDBRANCH  75  92
ENDBRANCH  49  50
ENDBRANCH  41  44
ENDBRANCH  39  40
ENDBRANCH  38  39
ENDBRANCH   1  38
TORSDOF 17
ENDMDL
MODEL 3
REMARK VINA RESULT:     -11.8      3.420      8.832
REMARK SMILES COC(=O)c1ccc([C@H]2CC(=O)Nc3c(C(=O)NCCCCNC(=O)c4ccc(-c5c6nc(c(-c7c(F)cccc7F)c7ccc([nH]7)c(-c7c(F)cccc7F)c7nc(c(-c8c(F)cccc8F)c8ccc5[nH]8)C=C7)C=C6)cc4)cn(-c4cc(OC)ccc4OC)c32)cc1
REMARK SMILES IDX 20 1 19 2 18 3 16 4 17 5 15 7 9 8 10 9 92 10 11 11 14 12
REMARK SMILES IDX 81 13 12 14 13 15 80 16 8 18 5 19 6 20 94 21 7 22 93 23 3 24
REMARK SMILES IDX 4 25 2 26 1 27 82 28 83 29 89 30 84 31 88 32 87 33 90 34
REMARK SMILES IDX 91 35 85 36 86 37 21 38 22 39 23 40 24 41 25 43 26 44 27 45
REMARK SMILES IDX 79 46 28 47 78 48 29 49 30 50 31 51 72 52 32 53 77 54 71 55
REMARK SMILES IDX 73 56 33 57 76 58 70 59 69 60 34 62 60 63 43 64 59 65 44 66
REMARK SMILES IDX 47 67 58 68 74 69 45 70 46 71 57 73 75 74 48 75 35 76 36 77
REMARK SMILES IDX 41 78 37 79 38 80 40 81 42 82 39 83 61 84 62 85 67 86 63 87
REMARK SMILES IDX 64 88 66 89 68 90 65 91 49 92 50 93 55 94 51 95 52 96 54 97
REMARK SMILES IDX 56 98 53 99
REMARK H PARENT 18 6 13 17 23 42 73 61 47 72
REMARK Flexibility Score: inf
ROOT
ATOM      1  C   UNL A   1      30.990  31.568  26.482  1.00  0.00     0.023 C 
ENDROOT
BRANCH   1   2
ATOM      2  C   UNL A   1      31.747  30.404  25.831  1.00  0.00     0.116 C 
BRANCH   2   3
ATOM      3  N   UNL A   1      32.666  29.769  26.741  1.00  0.00    -0.352 N 
ATOM      4  C   UNL A   1      33.316  28.567  26.757  1.00  0.00     0.254 C 
ATOM      5  O   UNL A   1      34.157  28.466  27.657  1.00  0.00    -0.269 OA
ATOM      6  H   UNL A   1      32.872  30.325  27.526  1.00  0.00     0.163 HD
BRANCH   4   7
ATOM      7  C   UNL A   1      33.063  27.424  25.865  1.00  0.00     0.081 A 
ATOM      8  C   UNL A   1      31.494  24.516  24.071  1.00  0.00     0.078 C 
ATOM      9  C   UNL A   1      30.020  24.789  24.390  1.00  0.00     0.115 C 
ATOM     10  C   UNL A   1      32.395  25.549  24.719  1.00  0.00     0.055 A 
ATOM     11  C   UNL A   1      29.676  26.234  24.623  1.00  0.00     0.225 C 
ATOM     12  C   UNL A   1      31.954  26.735  25.283  1.00  0.00     0.076 A 
ATOM     13  N   UNL A   1      33.776  25.513  24.837  1.00  0.00    -0.314 N 
ATOM     14  O   UNL A   1      28.541  26.670  24.430  1.00  0.00    -0.275 OA
ATOM     15  N   UNL A   1      30.620  27.041  25.187  1.00  0.00    -0.324 N 
ATOM     16  C   UNL A   1      34.164  26.690  25.422  1.00  0.00     0.107 A 
ATOM     17  H   UNL A   1      30.322  27.906  25.552  1.00  0.00     0.170 HD
BRANCH   8  18
ATOM     18  C   UNL A   1      31.755  23.048  24.410  1.00  0.00    -0.038 A 
ATOM     19  C   UNL A   1      32.469  20.374  24.952  1.00  0.00     0.060 A 
ATOM     20  C   UNL A   1      32.236  20.790  23.636  1.00  0.00     0.016 A 
ATOM     21  C   UNL A   1      32.248  21.271  26.000  1.00  0.00     0.016 A 
ATOM     22  C   UNL A   1      31.893  22.118  23.368  1.00  0.00     0.005 A 
ATOM     23  C   UNL A   1      31.849  22.581  25.729  1.00  0.00     0.005 A 
BRANCH  19  24
ATOM     24  C   UNL A   1      32.997  19.003  25.177  1.00  0.00     0.337 C 
ATOM     25  O   UNL A   1      32.465  18.188  25.914  1.00  0.00    -0.246 OA
BRANCH  24  26
ATOM     26  O   UNL A   1      34.104  18.789  24.422  1.00  0.00    -0.465 OA
ATOM     27  C   UNL A   1      34.163  17.491  23.830  1.00  0.00     0.282 C 
ENDBRANCH  24  26
ENDBRANCH  19  24
ENDBRANCH   8  18
BRANCH  13  28
ATOM     28  C   UNL A   1      34.656  24.482  24.436  1.00  0.00     0.091 A 
ATOM     29  C   UNL A   1      35.566  24.032  25.418  1.00  0.00     0.077 A 
ATOM     30  C   UNL A   1      34.730  23.979  23.127  1.00  0.00     0.143 A 
ATOM     31  C   UNL A   1      36.604  23.156  25.098  1.00  0.00     0.121 A 
ATOM     32  C   UNL A   1      35.768  23.072  22.842  1.00  0.00     0.052 A 
ATOM     33  C   UNL A   1      36.706  22.679  23.800  1.00  0.00     0.050 A 
BRANCH  30  34
ATOM     34  O   UNL A   1      34.030  24.244  21.988  1.00  0.00    -0.495 OA
ATOM     35  C   UNL A   1      33.500  25.509  21.651  1.00  0.00     0.278 C 
ENDBRANCH  30  34
BRANCH  31  36
ATOM     36  O   UNL A   1      37.445  22.851  26.131  1.00  0.00    -0.497 OA
ATOM     37  C   UNL A   1      38.457  21.888  25.851  1.00  0.00     0.278 C 
ENDBRANCH  31  36
ENDBRANCH  13  28
ENDBRANCH   4   7
ENDBRANCH   2   3
ENDBRANCH   1   2
BRANCH   1  38
ATOM     38  C   UNL A   1      31.705  32.926  26.405  1.00  0.00     0.023 C 
BRANCH  38  39
ATOM     39  C   UNL A   1      32.708  33.187  27.528  1.00  0.00     0.116 C 
BRANCH  39  40
ATOM     40  N   UNL A   1      32.458  34.437  28.248  1.00  0.00    -0.352 N 
ATOM     41  C   UNL A   1      33.088  34.901  29.391  1.00  0.00     0.251 C 
ATOM     42  H   UNL A   1      31.757  35.018  27.874  1.00  0.00     0.163 HD
ATOM     43  O   UNL A   1      32.561  35.710  30.131  1.00  0.00    -0.269 OA
BRANCH  41  44
ATOM     44  C   UNL A   1      34.441  34.396  29.678  1.00  0.00     0.039 A 
ATOM     45  C   UNL A   1      34.700  33.575  30.777  1.00  0.00     0.014 A 
ATOM     46  C   UNL A   1      35.437  34.710  28.757  1.00  0.00     0.014 A 
ATOM     47  C   UNL A   1      35.959  32.988  30.890  1.00  0.00     0.010 A 
ATOM     48  C   UNL A   1      36.623  34.022  28.794  1.00  0.00     0.010 A 
ATOM     49  C   UNL A   1      36.911  33.197  29.880  1.00  0.00    -0.014 A 
BRANCH  49  50
ATOM     50  C   UNL A   1      38.186  32.486  29.891  1.00  0.00     0.031 A 
ATOM     51  C   UNL A   1      38.171  31.109  29.314  1.00  0.00     0.074 A 
ATOM     52  C   UNL A   1      39.352  33.107  30.171  1.00  0.00     0.049 A 
ATOM     53  N   UNL A   1      38.426  29.994  29.917  1.00  0.00    -0.248 NA
ATOM     54  C   UNL A   1      37.736  30.937  27.917  1.00  0.00     0.031 C 
ATOM     55  C   UNL A   1      39.589  34.531  30.445  1.00  0.00     0.029 A 
ATOM     56  N   UNL A   1      40.612  32.599  30.151  1.00  0.00    -0.354 N 
ATOM     57  C   UNL A   1      38.362  28.996  28.945  1.00  0.00     0.074 A 
ATOM     58  C   UNL A   1      37.793  29.611  27.774  1.00  0.00     0.031 C 
ATOM     59  C   UNL A   1      40.904  34.805  30.311  1.00  0.00     0.029 A 
ATOM     60  C   UNL A   1      41.618  33.554  30.132  1.00  0.00     0.049 A 
ATOM     61  H   UNL A   1      40.796  31.631  30.150  1.00  0.00     0.167 HD
ATOM     62  C   UNL A   1      38.975  27.791  29.117  1.00  0.00     0.037 A 
ATOM     63  C   UNL A   1      42.942  33.335  29.954  1.00  0.00     0.037 A 
ATOM     64  C   UNL A   1      39.367  27.591  30.487  1.00  0.00     0.049 A 
ATOM     65  C   UNL A   1      43.195  31.905  30.258  1.00  0.00     0.074 A 
ATOM     66  C   UNL A   1      38.696  27.527  31.692  1.00  0.00     0.029 A 
ATOM     67  N   UNL A   1      40.688  27.794  30.807  1.00  0.00    -0.354 N 
ATOM     68  N   UNL A   1      43.088  31.389  31.451  1.00  0.00    -0.248 NA
ATOM     69  C   UNL A   1      43.116  30.957  29.157  1.00  0.00     0.031 C 
ATOM     70  C   UNL A   1      39.546  28.201  32.618  1.00  0.00     0.029 A 
ATOM     71  C   UNL A   1      40.708  28.570  31.937  1.00  0.00     0.049 A 
ATOM     72  H   UNL A   1      41.470  27.449  30.318  1.00  0.00     0.167 HD
ATOM     73  C   UNL A   1      42.498  30.151  31.247  1.00  0.00     0.074 A 
ATOM     74  C   UNL A   1      42.625  29.900  29.812  1.00  0.00     0.031 C 
ATOM     75  C   UNL A   1      41.707  29.578  32.202  1.00  0.00     0.037 A 
BRANCH  62  76
ATOM     76  C   UNL A   1      39.541  26.939  28.010  1.00  0.00     0.057 A 
ATOM     77  C   UNL A   1      39.415  25.538  28.080  1.00  0.00     0.134 A 
ATOM     78  C   UNL A   1      40.458  27.412  27.051  1.00  0.00     0.134 A 
ATOM     79  F   UNL A   1      38.585  24.965  28.965  1.00  0.00    -0.206 F 
ATOM     80  C   UNL A   1      40.198  24.673  27.304  1.00  0.00     0.040 A 
ATOM     81  C   UNL A   1      41.207  26.558  26.236  1.00  0.00     0.040 A 
ATOM     82  F   UNL A   1      40.752  28.711  26.926  1.00  0.00    -0.206 F 
ATOM     83  C   UNL A   1      41.104  25.183  26.383  1.00  0.00     0.006 A 
ENDBRANCH  62  76
BRANCH  63  84
ATOM     84  C   UNL A   1      43.934  34.199  29.281  1.00  0.00     0.057 A 
ATOM     85  C   UNL A   1      44.091  34.177  27.889  1.00  0.00     0.134 A 
ATOM     86  C   UNL A   1      44.560  35.263  29.957  1.00  0.00     0.134 A 
ATOM     87  F   UNL A   1      43.501  33.225  27.153  1.00  0.00    -0.206 F 
ATOM     88  C   UNL A   1      44.806  35.171  27.204  1.00  0.00     0.040 A 
ATOM     89  C   UNL A   1      45.282  36.256  29.288  1.00  0.00     0.040 A 
ATOM     90  F   UNL A   1      44.418  35.420  31.282  1.00  0.00    -0.206 F 
ATOM     91  C   UNL A   1      45.393  36.221  27.904  1.00  0.00     0.006 A 
ENDBRANCH  63  84
BRANCH  75  92
ATOM     92  C   UNL A   1      41.684  30.202  33.570  1.00  0.00     0.057 A 
ATOM     93  C   UNL A   1      40.794  31.216  33.957  1.00  0.00     0.134 A 
ATOM     94  C   UNL A   1      42.472  29.637  34.578  1.00  0.00     0.134 A 
ATOM     95  F   UNL A   1      39.928  31.749  33.089  1.00  0.00    -0.206 F 
ATOM     96  C   UNL A   1      40.722  31.672  35.276  1.00  0.00     0.040 A 
ATOM     97  C   UNL A   1      42.387  30.061  35.906  1.00  0.00     0.040 A 
ATOM     98  F   UNL A   1      43.304  28.622  34.295  1.00  0.00    -0.206 F 
ATOM     99  C   UNL A   1      41.516  31.089  36.258  1.00  0.00     0.006 A 
ENDBRANCH  75  92
ENDBRANCH  49  50
ENDBRANCH  41  44
ENDBRANCH  39  40
ENDBRANCH  38  39
ENDBRANCH   1  38
TORSDOF 17
ENDMDL
