MODEL 1
REMARK VINA RESULT:     -11.3      0.000      0.000
REMARK SMILES COCC[C@@H](C)NC(=O)N1Cc2nc[nH]c2C[C@@H]1C(=O)NCCCCNC(=O)c1ccc(-c2c3nc(c(-c4c(F)cccc4F)c4ccc([nH]4)c(-c4c(F)cccc4F)c4nc(c(-c5c(F)cccc5F)c5ccc2[nH]5)C=C4)C=C3)cc1
REMARK SMILES IDX 22 1 21 2 19 3 20 4 18 6 10 7 11 8 12 9 17 10 13 11 16 12
REMARK SMILES IDX 14 13 15 14 8 16 7 17 9 19 5 20 6 21 4 22 3 23 2 24 1 25
REMARK SMILES IDX 23 26 24 27 25 28 26 29 27 30 28 32 29 33 30 34 82 35 31 36
REMARK SMILES IDX 81 37 32 38 33 39 34 40 75 41 35 42 80 43 74 44 76 45 36 46
REMARK SMILES IDX 79 47 73 48 72 49 37 51 63 52 46 53 62 54 47 55 50 56 61 57
REMARK SMILES IDX 77 58 48 59 49 60 60 62 78 63 51 64 38 65 39 66 44 67 40 68
REMARK SMILES IDX 41 69 43 70 45 71 42 72 64 73 65 74 70 75 66 76 67 77 69 78
REMARK SMILES IDX 71 79 68 80 52 81 53 82 58 83 54 84 55 85 57 86 59 87 56 88
REMARK H PARENT 21 5 15 15 7 18 26 31 76 50 50 61
REMARK Flexibility Score: inf
ROOT
ATOM      1  C   UNL A   1      31.389  27.722  26.594  1.00  0.00     0.116 C 
ENDROOT
BRANCH   1   2
ATOM      2  N   UNL A   1      31.119  26.313  26.877  1.00  0.00    -0.354 N 
ATOM      3  C   UNL A   1      31.778  25.130  26.623  1.00  0.00     0.243 C 
ATOM      4  O   UNL A   1      31.291  24.154  27.213  1.00  0.00    -0.273 OA
ATOM      5  H   UNL A   1      30.272  26.177  27.360  1.00  0.00     0.163 HD
BRANCH   3   6
ATOM      6  C   UNL A   1      33.026  24.925  25.669  1.00  0.00     0.182 C 
ATOM      7  N   UNL A   1      32.801  24.935  24.184  1.00  0.00    -0.306 N 
ATOM      8  C   UNL A   1      34.017  24.895  23.338  1.00  0.00     0.180 C 
ATOM      9  C   UNL A   1      34.910  23.806  23.825  1.00  0.00     0.081 A 
ATOM     10  C   UNL A   1      33.760  23.592  26.085  1.00  0.00     0.091 C 
ATOM     11  N   UNL A   1      35.909  23.205  23.102  1.00  0.00    -0.240 NA
ATOM     12  C   UNL A   1      34.797  23.239  25.073  1.00  0.00     0.042 A 
ATOM     13  C   UNL A   1      36.351  22.240  23.881  1.00  0.00     0.197 A 
ATOM     14  N   UNL A   1      35.709  22.224  25.094  1.00  0.00    -0.348 N 
ATOM     15  H   UNL A   1      35.876  21.600  25.838  1.00  0.00     0.167 HD
BRANCH   7  16
ATOM     16  C   UNL A   1      31.773  24.213  23.617  1.00  0.00     0.318 C 
ATOM     17  N   UNL A   1      30.824  24.985  23.011  1.00  0.00    -0.335 N 
ATOM     18  H   UNL A   1      30.329  24.591  22.256  1.00  0.00     0.165 HD
ATOM     19  O   UNL A   1      31.766  22.997  23.468  1.00  0.00    -0.249 OA
BRANCH  17  20
ATOM     20  C   UNL A   1      30.491  26.343  23.396  1.00  0.00     0.083 C 
ATOM     21  C   UNL A   1      29.035  26.311  23.882  1.00  0.00     0.031 C 
BRANCH  20  22
ATOM     22  C   UNL A   1      30.814  27.394  22.312  1.00  0.00     0.053 C 
BRANCH  22  23
ATOM     23  C   UNL A   1      31.662  28.621  22.753  1.00  0.00     0.162 C 
BRANCH  23  24
ATOM     24  O   UNL A   1      32.809  28.270  23.511  1.00  0.00    -0.385 OA
ATOM     25  C   UNL A   1      34.043  28.683  22.936  1.00  0.00     0.194 C 
ENDBRANCH  23  24
ENDBRANCH  22  23
ENDBRANCH  20  22
ENDBRANCH  17  20
ENDBRANCH   7  16
ENDBRANCH   3   6
ENDBRANCH   1   2
BRANCH   1  26
ATOM     26  C   UNL A   1      32.275  28.472  27.625  1.00  0.00     0.023 C 
BRANCH  26  27
ATOM     27  C   UNL A   1      33.170  29.639  27.169  1.00  0.00     0.023 C 
BRANCH  27  28
ATOM     28  C   UNL A   1      34.656  29.474  27.520  1.00  0.00     0.116 C 
BRANCH  28  29
ATOM     29  N   UNL A   1      35.169  30.468  28.474  1.00  0.00    -0.352 N 
ATOM     30  C   UNL A   1      36.378  30.454  29.157  1.00  0.00     0.251 C 
ATOM     31  H   UNL A   1      34.583  31.240  28.649  1.00  0.00     0.163 HD
ATOM     32  O   UNL A   1      36.623  31.203  30.080  1.00  0.00    -0.269 OA
BRANCH  30  33
ATOM     33  C   UNL A   1      37.372  29.473  28.694  1.00  0.00     0.039 A 
ATOM     34  C   UNL A   1      38.069  29.703  27.507  1.00  0.00     0.014 A 
ATOM     35  C   UNL A   1      37.804  28.545  29.635  1.00  0.00     0.014 A 
ATOM     36  C   UNL A   1      39.313  29.097  27.340  1.00  0.00     0.010 A 
ATOM     37  C   UNL A   1      39.083  28.044  29.513  1.00  0.00     0.010 A 
ATOM     38  C   UNL A   1      39.857  28.321  28.377  1.00  0.00    -0.014 A 
BRANCH  38  39
ATOM     39  C   UNL A   1      41.277  27.942  28.334  1.00  0.00     0.031 A 
ATOM     40  C   UNL A   1      41.652  26.685  27.597  1.00  0.00     0.074 A 
ATOM     41  C   UNL A   1      42.283  28.763  28.700  1.00  0.00     0.049 A 
ATOM     42  N   UNL A   1      42.278  25.645  28.055  1.00  0.00    -0.248 NA
ATOM     43  C   UNL A   1      41.282  26.566  26.180  1.00  0.00     0.031 C 
ATOM     44  C   UNL A   1      42.220  30.157  29.155  1.00  0.00     0.029 A 
ATOM     45  N   UNL A   1      43.623  28.526  28.634  1.00  0.00    -0.354 N 
ATOM     46  C   UNL A   1      42.514  24.798  26.967  1.00  0.00     0.074 A 
ATOM     47  C   UNL A   1      41.803  25.379  25.855  1.00  0.00     0.031 C 
ATOM     48  C   UNL A   1      43.451  30.706  29.094  1.00  0.00     0.029 A 
ATOM     49  C   UNL A   1      44.404  29.655  28.798  1.00  0.00     0.049 A 
ATOM     50  H   UNL A   1      44.002  27.630  28.482  1.00  0.00     0.167 HD
ATOM     51  C   UNL A   1      43.399  23.758  27.029  1.00  0.00     0.037 A 
ATOM     52  C   UNL A   1      45.748  29.740  28.713  1.00  0.00     0.037 A 
ATOM     53  C   UNL A   1      43.727  23.431  28.391  1.00  0.00     0.049 A 
ATOM     54  C   UNL A   1      46.303  28.389  28.949  1.00  0.00     0.074 A 
ATOM     55  C   UNL A   1      43.023  23.003  29.499  1.00  0.00     0.029 A 
ATOM     56  N   UNL A   1      44.957  23.804  28.870  1.00  0.00    -0.354 N 
ATOM     57  N   UNL A   1      46.231  27.761  30.090  1.00  0.00    -0.248 NA
ATOM     58  C   UNL A   1      46.615  27.558  27.798  1.00  0.00     0.031 C 
ATOM     59  C   UNL A   1      43.671  23.627  30.609  1.00  0.00     0.029 A 
ATOM     60  C   UNL A   1      44.738  24.367  30.099  1.00  0.00     0.049 A 
ATOM     61  H   UNL A   1      45.825  23.689  28.420  1.00  0.00     0.167 HD
ATOM     62  C   UNL A   1      46.079  26.426  29.752  1.00  0.00     0.074 A 
ATOM     63  C   UNL A   1      46.454  26.350  28.344  1.00  0.00     0.031 C 
ATOM     64  C   UNL A   1      45.406  25.560  30.566  1.00  0.00     0.037 A 
BRANCH  51  65
ATOM     65  C   UNL A   1      44.211  23.194  25.878  1.00  0.00     0.057 A 
ATOM     66  C   UNL A   1      44.188  21.804  25.626  1.00  0.00     0.134 A 
ATOM     67  C   UNL A   1      45.224  23.897  25.202  1.00  0.00     0.134 A 
ATOM     68  F   UNL A   1      43.273  21.011  26.204  1.00  0.00    -0.206 F 
ATOM     69  C   UNL A   1      45.151  21.157  24.840  1.00  0.00     0.040 A 
ATOM     70  C   UNL A   1      46.163  23.266  24.373  1.00  0.00     0.040 A 
ATOM     71  F   UNL A   1      45.422  25.208  25.378  1.00  0.00    -0.206 F 
ATOM     72  C   UNL A   1      46.151  21.888  24.218  1.00  0.00     0.006 A 
ENDBRANCH  51  65
BRANCH  52  73
ATOM     73  C   UNL A   1      46.544  30.893  28.260  1.00  0.00     0.057 A 
ATOM     74  C   UNL A   1      46.591  31.273  26.915  1.00  0.00     0.134 A 
ATOM     75  C   UNL A   1      47.104  31.794  29.185  1.00  0.00     0.134 A 
ATOM     76  F   UNL A   1      46.046  30.493  25.970  1.00  0.00    -0.206 F 
ATOM     77  C   UNL A   1      47.156  32.488  26.511  1.00  0.00     0.040 A 
ATOM     78  C   UNL A   1      47.676  33.007  28.794  1.00  0.00     0.040 A 
ATOM     79  F   UNL A   1      47.042  31.559  30.505  1.00  0.00    -0.206 F 
ATOM     80  C   UNL A   1      47.694  33.362  27.452  1.00  0.00     0.006 A 
ENDBRANCH  52  73
BRANCH  64  81
ATOM     81  C   UNL A   1      45.072  26.011  31.960  1.00  0.00     0.057 A 
ATOM     82  C   UNL A   1      43.907  26.717  32.290  1.00  0.00     0.134 A 
ATOM     83  C   UNL A   1      45.866  25.573  33.026  1.00  0.00     0.134 A 
ATOM     84  F   UNL A   1      43.028  27.080  31.348  1.00  0.00    -0.206 F 
ATOM     85  C   UNL A   1      43.570  27.016  33.613  1.00  0.00     0.040 A 
ATOM     86  C   UNL A   1      45.525  25.836  34.356  1.00  0.00     0.040 A 
ATOM     87  F   UNL A   1      46.962  24.832  32.795  1.00  0.00    -0.206 F 
ATOM     88  C   UNL A   1      44.378  26.570  34.652  1.00  0.00     0.006 A 
ENDBRANCH  64  81
ENDBRANCH  38  39
ENDBRANCH  30  33
ENDBRANCH  28  29
ENDBRANCH  27  28
ENDBRANCH  26  27
ENDBRANCH   1  26
TORSDOF 16
ENDMDL
MODEL 2
REMARK VINA RESULT:     -11.0      1.947      6.019
REMARK SMILES COCC[C@@H](C)NC(=O)N1Cc2nc[nH]c2C[C@@H]1C(=O)NCCCCNC(=O)c1ccc(-c2c3nc(c(-c4c(F)cccc4F)c4ccc([nH]4)c(-c4c(F)cccc4F)c4nc(c(-c5c(F)cccc5F)c5ccc2[nH]5)C=C4)C=C3)cc1
REMARK SMILES IDX 22 1 21 2 19 3 20 4 18 6 10 7 11 8 12 9 17 10 13 11 16 12
REMARK SMILES IDX 14 13 15 14 8 16 7 17 9 19 5 20 6 21 4 22 3 23 2 24 1 25
REMARK SMILES IDX 23 26 24 27 25 28 26 29 27 30 28 32 29 33 30 34 82 35 31 36
REMARK SMILES IDX 81 37 32 38 33 39 34 40 75 41 35 42 80 43 74 44 76 45 36 46
REMARK SMILES IDX 79 47 73 48 72 49 37 51 63 52 46 53 62 54 47 55 50 56 61 57
REMARK SMILES IDX 77 58 48 59 49 60 60 62 78 63 51 64 38 65 39 66 44 67 40 68
REMARK SMILES IDX 41 69 43 70 45 71 42 72 64 73 65 74 70 75 66 76 67 77 69 78
REMARK SMILES IDX 71 79 68 80 52 81 53 82 58 83 54 84 55 85 57 86 59 87 56 88
REMARK H PARENT 21 5 15 15 7 18 26 31 76 50 50 61
REMARK Flexibility Score: inf
ROOT
ATOM      1  C   UNL A   1      31.965  27.569  26.204  1.00  0.00     0.116 C 
ENDROOT
BRANCH   1   2
ATOM      2  N   UNL A   1      31.389  26.289  26.612  1.00  0.00    -0.354 N 
ATOM      3  C   UNL A   1      31.838  24.987  26.632  1.00  0.00     0.243 C 
ATOM      4  O   UNL A   1      31.088  24.213  27.246  1.00  0.00    -0.273 OA
ATOM      5  H   UNL A   1      30.468  26.376  26.950  1.00  0.00     0.163 HD
BRANCH   3   6
ATOM      6  C   UNL A   1      33.153  24.426  25.950  1.00  0.00     0.182 C 
ATOM      7  N   UNL A   1      33.113  24.092  24.486  1.00  0.00    -0.306 N 
ATOM      8  C   UNL A   1      34.406  23.720  23.865  1.00  0.00     0.180 C 
ATOM      9  C   UNL A   1      35.078  22.700  24.718  1.00  0.00     0.081 A 
ATOM     10  C   UNL A   1      33.644  23.169  26.767  1.00  0.00     0.091 C 
ATOM     11  N   UNL A   1      36.066  21.840  24.311  1.00  0.00    -0.240 NA
ATOM     12  C   UNL A   1      34.739  22.472  26.031  1.00  0.00     0.042 A 
ATOM     13  C   UNL A   1      36.276  21.057  25.348  1.00  0.00     0.197 A 
ATOM     14  N   UNL A   1      35.496  21.407  26.422  1.00  0.00    -0.348 N 
ATOM     15  H   UNL A   1      35.485  20.972  27.306  1.00  0.00     0.167 HD
BRANCH   7  16
ATOM     16  C   UNL A   1      32.073  23.362  23.953  1.00  0.00     0.318 C 
ATOM     17  N   UNL A   1      31.285  24.070  23.092  1.00  0.00    -0.335 N 
ATOM     18  H   UNL A   1      30.828  23.571  22.376  1.00  0.00     0.165 HD
ATOM     19  O   UNL A   1      31.943  22.148  24.050  1.00  0.00    -0.249 OA
BRANCH  17  20
ATOM     20  C   UNL A   1      31.070  25.503  23.154  1.00  0.00     0.083 C 
ATOM     21  C   UNL A   1      29.629  25.705  23.641  1.00  0.00     0.031 C 
BRANCH  20  22
ATOM     22  C   UNL A   1      31.450  26.245  21.854  1.00  0.00     0.053 C 
BRANCH  22  23
ATOM     23  C   UNL A   1      32.786  25.832  21.173  1.00  0.00     0.162 C 
BRANCH  23  24
ATOM     24  O   UNL A   1      33.925  26.463  21.738  1.00  0.00    -0.385 OA
ATOM     25  C   UNL A   1      33.736  27.835  22.063  1.00  0.00     0.194 C 
ENDBRANCH  23  24
ENDBRANCH  22  23
ENDBRANCH  20  22
ENDBRANCH  17  20
ENDBRANCH   7  16
ENDBRANCH   3   6
ENDBRANCH   1   2
BRANCH   1  26
ATOM     26  C   UNL A   1      32.306  28.564  27.346  1.00  0.00     0.023 C 
BRANCH  26  27
ATOM     27  C   UNL A   1      32.299  30.080  27.076  1.00  0.00     0.023 C 
BRANCH  27  28
ATOM     28  C   UNL A   1      33.669  30.758  27.221  1.00  0.00     0.116 C 
BRANCH  28  29
ATOM     29  N   UNL A   1      33.808  31.595  28.423  1.00  0.00    -0.352 N 
ATOM     30  C   UNL A   1      34.903  31.696  29.272  1.00  0.00     0.251 C 
ATOM     31  H   UNL A   1      33.030  32.152  28.652  1.00  0.00     0.163 HD
ATOM     32  O   UNL A   1      34.850  32.247  30.352  1.00  0.00    -0.269 OA
BRANCH  30  33
ATOM     33  C   UNL A   1      36.156  31.099  28.787  1.00  0.00     0.039 A 
ATOM     34  C   UNL A   1      37.338  31.839  28.831  1.00  0.00     0.014 A 
ATOM     35  C   UNL A   1      36.157  29.717  28.631  1.00  0.00     0.014 A 
ATOM     36  C   UNL A   1      38.550  31.153  28.877  1.00  0.00     0.010 A 
ATOM     37  C   UNL A   1      37.351  29.046  28.793  1.00  0.00     0.010 A 
ATOM     38  C   UNL A   1      38.557  29.750  28.930  1.00  0.00    -0.014 A 
BRANCH  38  39
ATOM     39  C   UNL A   1      39.795  29.041  29.287  1.00  0.00     0.031 A 
ATOM     40  C   UNL A   1      40.061  28.770  30.743  1.00  0.00     0.074 A 
ATOM     41  C   UNL A   1      40.583  28.412  28.391  1.00  0.00     0.049 A 
ATOM     42  N   UNL A   1      41.085  29.134  31.451  1.00  0.00    -0.248 NA
ATOM     43  C   UNL A   1      39.065  28.006  31.507  1.00  0.00     0.031 C 
ATOM     44  C   UNL A   1      40.390  28.246  26.945  1.00  0.00     0.029 A 
ATOM     45  N   UNL A   1      41.707  27.679  28.633  1.00  0.00    -0.354 N 
ATOM     46  C   UNL A   1      40.947  28.534  32.707  1.00  0.00     0.074 A 
ATOM     47  C   UNL A   1      39.642  27.922  32.709  1.00  0.00     0.031 C 
ATOM     48  C   UNL A   1      41.216  27.282  26.489  1.00  0.00     0.029 A 
ATOM     49  C   UNL A   1      42.124  26.917  27.558  1.00  0.00     0.049 A 
ATOM     50  H   UNL A   1      42.178  27.691  29.497  1.00  0.00     0.167 HD
ATOM     51  C   UNL A   1      41.980  28.462  33.600  1.00  0.00     0.037 A 
ATOM     52  C   UNL A   1      43.154  26.046  27.524  1.00  0.00     0.037 A 
ATOM     53  C   UNL A   1      43.033  29.381  33.256  1.00  0.00     0.049 A 
ATOM     54  C   UNL A   1      44.090  26.409  28.610  1.00  0.00     0.074 A 
ATOM     55  C   UNL A   1      43.141  30.750  33.118  1.00  0.00     0.029 A 
ATOM     56  N   UNL A   1      44.182  28.873  32.704  1.00  0.00    -0.354 N 
ATOM     57  N   UNL A   1      44.785  27.512  28.635  1.00  0.00    -0.248 NA
ATOM     58  C   UNL A   1      43.978  25.713  29.882  1.00  0.00     0.031 C 
ATOM     59  C   UNL A   1      44.071  30.939  32.051  1.00  0.00     0.029 A 
ATOM     60  C   UNL A   1      44.482  29.673  31.634  1.00  0.00     0.049 A 
ATOM     61  H   UNL A   1      44.690  28.090  33.016  1.00  0.00     0.167 HD
ATOM     62  C   UNL A   1      44.846  27.864  29.974  1.00  0.00     0.074 A 
ATOM     63  C   UNL A   1      44.451  26.659  30.697  1.00  0.00     0.031 C 
ATOM     64  C   UNL A   1      44.946  29.171  30.362  1.00  0.00     0.037 A 
BRANCH  51  65
ATOM     65  C   UNL A   1      42.205  27.377  34.636  1.00  0.00     0.057 A 
ATOM     66  C   UNL A   1      41.859  27.619  35.984  1.00  0.00     0.134 A 
ATOM     67  C   UNL A   1      42.999  26.235  34.429  1.00  0.00     0.134 A 
ATOM     68  F   UNL A   1      41.104  28.674  36.326  1.00  0.00    -0.206 F 
ATOM     69  C   UNL A   1      42.343  26.841  37.045  1.00  0.00     0.040 A 
ATOM     70  C   UNL A   1      43.447  25.421  35.479  1.00  0.00     0.040 A 
ATOM     71  F   UNL A   1      43.463  25.898  33.220  1.00  0.00    -0.206 F 
ATOM     72  C   UNL A   1      43.150  25.742  36.795  1.00  0.00     0.006 A 
ENDBRANCH  51  65
BRANCH  52  73
ATOM     73  C   UNL A   1      43.263  24.820  26.715  1.00  0.00     0.057 A 
ATOM     74  C   UNL A   1      42.546  23.663  27.033  1.00  0.00     0.134 A 
ATOM     75  C   UNL A   1      43.909  24.833  25.465  1.00  0.00     0.134 A 
ATOM     76  F   UNL A   1      41.867  23.579  28.186  1.00  0.00    -0.206 F 
ATOM     77  C   UNL A   1      42.468  22.577  26.152  1.00  0.00     0.040 A 
ATOM     78  C   UNL A   1      43.844  23.755  24.579  1.00  0.00     0.040 A 
ATOM     79  F   UNL A   1      44.559  25.925  25.033  1.00  0.00    -0.206 F 
ATOM     80  C   UNL A   1      43.112  22.625  24.918  1.00  0.00     0.006 A 
ENDBRANCH  52  73
BRANCH  64  81
ATOM     81  C   UNL A   1      45.267  30.198  29.313  1.00  0.00     0.057 A 
ATOM     82  C   UNL A   1      46.570  30.494  28.888  1.00  0.00     0.134 A 
ATOM     83  C   UNL A   1      44.221  30.785  28.592  1.00  0.00     0.134 A 
ATOM     84  F   UNL A   1      47.630  29.895  29.442  1.00  0.00    -0.206 F 
ATOM     85  C   UNL A   1      46.823  31.367  27.827  1.00  0.00     0.040 A 
ATOM     86  C   UNL A   1      44.458  31.636  27.509  1.00  0.00     0.040 A 
ATOM     87  F   UNL A   1      42.944  30.498  28.895  1.00  0.00    -0.206 F 
ATOM     88  C   UNL A   1      45.764  31.938  27.130  1.00  0.00     0.006 A 
ENDBRANCH  64  81
ENDBRANCH  38  39
ENDBRANCH  30  33
ENDBRANCH  28  29
ENDBRANCH  27  28
ENDBRANCH  26  27
ENDBRANCH   1  26
TORSDOF 16
ENDMDL
MODEL 3
REMARK VINA RESULT:     -11.0      1.298      2.770
REMARK SMILES COCC[C@@H](C)NC(=O)N1Cc2nc[nH]c2C[C@@H]1C(=O)NCCCCNC(=O)c1ccc(-c2c3nc(c(-c4c(F)cccc4F)c4ccc([nH]4)c(-c4c(F)cccc4F)c4nc(c(-c5c(F)cccc5F)c5ccc2[nH]5)C=C4)C=C3)cc1
REMARK SMILES IDX 22 1 21 2 19 3 20 4 18 6 10 7 11 8 12 9 17 10 13 11 16 12
REMARK SMILES IDX 14 13 15 14 8 16 7 17 9 19 5 20 6 21 4 22 3 23 2 24 1 25
REMARK SMILES IDX 23 26 24 27 25 28 26 29 27 30 28 32 29 33 30 34 82 35 31 36
REMARK SMILES IDX 81 37 32 38 33 39 34 40 75 41 35 42 80 43 74 44 76 45 36 46
REMARK SMILES IDX 79 47 73 48 72 49 37 51 63 52 46 53 62 54 47 55 50 56 61 57
REMARK SMILES IDX 77 58 48 59 49 60 60 62 78 63 51 64 38 65 39 66 44 67 40 68
REMARK SMILES IDX 41 69 43 70 45 71 42 72 64 73 65 74 70 75 66 76 67 77 69 78
REMARK SMILES IDX 71 79 68 80 52 81 53 82 58 83 54 84 55 85 57 86 59 87 56 88
REMARK H PARENT 21 5 15 15 7 18 26 31 76 50 50 61
REMARK Flexibility Score: inf
ROOT
ATOM      1  C   UNL A   1      32.397  27.209  26.519  1.00  0.00     0.116 C 
ENDROOT
BRANCH   1   2
ATOM      2  N   UNL A   1      31.400  26.175  26.787  1.00  0.00    -0.354 N 
ATOM      3  C   UNL A   1      30.958  25.058  26.113  1.00  0.00     0.243 C 
ATOM      4  O   UNL A   1      30.217  24.330  26.791  1.00  0.00    -0.273 OA
ATOM      5  H   UNL A   1      30.937  26.305  27.646  1.00  0.00     0.163 HD
BRANCH   3   6
ATOM      6  C   UNL A   1      31.284  24.663  24.614  1.00  0.00     0.182 C 
ATOM      7  N   UNL A   1      32.481  23.795  24.346  1.00  0.00    -0.306 N 
ATOM      8  C   UNL A   1      32.651  23.329  22.950  1.00  0.00     0.180 C 
ATOM      9  C   UNL A   1      32.508  24.492  22.029  1.00  0.00     0.081 A 
ATOM     10  C   UNL A   1      31.387  25.985  23.759  1.00  0.00     0.091 C 
ATOM     11  N   UNL A   1      32.969  24.556  20.740  1.00  0.00    -0.240 NA
ATOM     12  C   UNL A   1      31.919  25.679  22.400  1.00  0.00     0.042 A 
ATOM     13  C   UNL A   1      32.723  25.791  20.356  1.00  0.00     0.197 A 
ATOM     14  N   UNL A   1      32.078  26.512  21.330  1.00  0.00    -0.348 N 
ATOM     15  H   UNL A   1      31.786  27.450  21.268  1.00  0.00     0.167 HD
BRANCH   7  16
ATOM     16  C   UNL A   1      33.697  24.061  24.937  1.00  0.00     0.318 C 
ATOM     17  N   UNL A   1      34.157  23.051  25.732  1.00  0.00    -0.335 N 
ATOM     18  H   UNL A   1      35.132  22.958  25.832  1.00  0.00     0.165 HD
ATOM     19  O   UNL A   1      34.426  25.003  24.652  1.00  0.00    -0.249 OA
BRANCH  17  20
ATOM     20  C   UNL A   1      33.316  22.106  26.441  1.00  0.00     0.083 C 
ATOM     21  C   UNL A   1      33.370  22.503  27.922  1.00  0.00     0.031 C 
BRANCH  20  22
ATOM     22  C   UNL A   1      33.642  20.629  26.129  1.00  0.00     0.053 C 
BRANCH  22  23
ATOM     23  C   UNL A   1      33.703  20.224  24.628  1.00  0.00     0.162 C 
BRANCH  23  24
ATOM     24  O   UNL A   1      33.445  18.846  24.406  1.00  0.00    -0.385 OA
ATOM     25  C   UNL A   1      32.506  18.583  23.371  1.00  0.00     0.194 C 
ENDBRANCH  23  24
ENDBRANCH  22  23
ENDBRANCH  20  22
ENDBRANCH  17  20
ENDBRANCH   7  16
ENDBRANCH   3   6
ENDBRANCH   1   2
BRANCH   1  26
ATOM     26  C   UNL A   1      32.235  28.540  27.303  1.00  0.00     0.023 C 
BRANCH  26  27
ATOM     27  C   UNL A   1      33.271  29.667  27.133  1.00  0.00     0.023 C 
BRANCH  27  28
ATOM     28  C   UNL A   1      34.658  29.348  27.710  1.00  0.00     0.116 C 
BRANCH  28  29
ATOM     29  N   UNL A   1      35.160  30.342  28.670  1.00  0.00    -0.352 N 
ATOM     30  C   UNL A   1      36.382  30.352  29.330  1.00  0.00     0.251 C 
ATOM     31  H   UNL A   1      34.555  31.093  28.868  1.00  0.00     0.163 HD
ATOM     32  O   UNL A   1      36.622  31.093  30.260  1.00  0.00    -0.269 OA
BRANCH  30  33
ATOM     33  C   UNL A   1      37.394  29.407  28.833  1.00  0.00     0.039 A 
ATOM     34  C   UNL A   1      38.086  29.691  27.655  1.00  0.00     0.014 A 
ATOM     35  C   UNL A   1      37.845  28.457  29.743  1.00  0.00     0.014 A 
ATOM     36  C   UNL A   1      39.341  29.115  27.468  1.00  0.00     0.010 A 
ATOM     37  C   UNL A   1      39.133  27.984  29.604  1.00  0.00     0.010 A 
ATOM     38  C   UNL A   1      39.900  28.315  28.477  1.00  0.00    -0.014 A 
BRANCH  38  39
ATOM     39  C   UNL A   1      41.328  27.966  28.421  1.00  0.00     0.031 A 
ATOM     40  C   UNL A   1      41.724  26.724  27.668  1.00  0.00     0.074 A 
ATOM     41  C   UNL A   1      42.319  28.803  28.789  1.00  0.00     0.049 A 
ATOM     42  N   UNL A   1      42.373  25.693  28.111  1.00  0.00    -0.248 NA
ATOM     43  C   UNL A   1      41.346  26.613  26.252  1.00  0.00     0.031 C 
ATOM     44  C   UNL A   1      42.231  30.191  29.259  1.00  0.00     0.029 A 
ATOM     45  N   UNL A   1      43.664  28.594  28.712  1.00  0.00    -0.354 N 
ATOM     46  C   UNL A   1      42.620  24.863  27.012  1.00  0.00     0.074 A 
ATOM     47  C   UNL A   1      41.889  25.441  25.912  1.00  0.00     0.031 C 
ATOM     48  C   UNL A   1      43.450  30.765  29.196  1.00  0.00     0.029 A 
ATOM     49  C   UNL A   1      44.422  29.737  28.883  1.00  0.00     0.049 A 
ATOM     50  H   UNL A   1      44.060  27.708  28.548  1.00  0.00     0.167 HD
ATOM     51  C   UNL A   1      43.525  23.840  27.057  1.00  0.00     0.037 A 
ATOM     52  C   UNL A   1      45.763  29.851  28.790  1.00  0.00     0.037 A 
ATOM     53  C   UNL A   1      43.869  23.505  28.414  1.00  0.00     0.049 A 
ATOM     54  C   UNL A   1      46.347  28.509  29.008  1.00  0.00     0.074 A 
ATOM     55  C   UNL A   1      43.182  23.052  29.522  1.00  0.00     0.029 A 
ATOM     56  N   UNL A   1      45.095  23.899  28.889  1.00  0.00    -0.354 N 
ATOM     57  N   UNL A   1      46.297  27.868  30.142  1.00  0.00    -0.248 NA
ATOM     58  C   UNL A   1      46.669  27.697  27.846  1.00  0.00     0.031 C 
ATOM     59  C   UNL A   1      43.824  23.677  30.634  1.00  0.00     0.029 A 
ATOM     60  C   UNL A   1      44.873  24.444  30.125  1.00  0.00     0.049 A 
ATOM     61  H   UNL A   1      45.962  23.806  28.432  1.00  0.00     0.167 HD
ATOM     62  C   UNL A   1      46.169  26.534  29.792  1.00  0.00     0.074 A 
ATOM     63  C   UNL A   1      46.537  26.480  28.380  1.00  0.00     0.031 C 
ATOM     64  C   UNL A   1      45.519  25.645  30.600  1.00  0.00     0.037 A 
BRANCH  51  65
ATOM     65  C   UNL A   1      44.341  23.305  25.896  1.00  0.00     0.057 A 
ATOM     66  C   UNL A   1      44.347  21.917  25.630  1.00  0.00     0.134 A 
ATOM     67  C   UNL A   1      45.334  24.036  25.219  1.00  0.00     0.134 A 
ATOM     68  F   UNL A   1      43.454  21.099  26.208  1.00  0.00    -0.206 F 
ATOM     69  C   UNL A   1      45.318  21.299  24.832  1.00  0.00     0.040 A 
ATOM     70  C   UNL A   1      46.280  23.434  24.377  1.00  0.00     0.040 A 
ATOM     71  F   UNL A   1      45.504  25.349  25.406  1.00  0.00    -0.206 F 
ATOM     72  C   UNL A   1      46.297  22.057  24.209  1.00  0.00     0.006 A 
ENDBRANCH  51  65
BRANCH  52  73
ATOM     73  C   UNL A   1      46.533  31.024  28.344  1.00  0.00     0.057 A 
ATOM     74  C   UNL A   1      46.659  31.351  26.991  1.00  0.00     0.134 A 
ATOM     75  C   UNL A   1      46.979  31.990  29.266  1.00  0.00     0.134 A 
ATOM     76  F   UNL A   1      46.224  30.507  26.045  1.00  0.00    -0.206 F 
ATOM     77  C   UNL A   1      47.192  32.577  26.574  1.00  0.00     0.040 A 
ATOM     78  C   UNL A   1      47.518  33.214  28.863  1.00  0.00     0.040 A 
ATOM     79  F   UNL A   1      46.833  31.805  30.587  1.00  0.00    -0.206 F 
ATOM     80  C   UNL A   1      47.616  33.516  27.512  1.00  0.00     0.006 A 
ENDBRANCH  52  73
BRANCH  64  81
ATOM     81  C   UNL A   1      45.186  26.075  32.001  1.00  0.00     0.057 A 
ATOM     82  C   UNL A   1      43.995  26.727  32.351  1.00  0.00     0.134 A 
ATOM     83  C   UNL A   1      46.013  25.668  33.054  1.00  0.00     0.134 A 
ATOM     84  F   UNL A   1      43.088  27.055  31.424  1.00  0.00    -0.206 F 
ATOM     85  C   UNL A   1      43.664  27.004  33.680  1.00  0.00     0.040 A 
ATOM     86  C   UNL A   1      45.680  25.910  34.390  1.00  0.00     0.040 A 
ATOM     87  F   UNL A   1      47.138  24.978  32.803  1.00  0.00    -0.206 F 
ATOM     88  C   UNL A   1      44.506  26.590  34.706  1.00  0.00     0.006 A 
ENDBRANCH  64  81
ENDBRANCH  38  39
ENDBRANCH  30  33
ENDBRANCH  28  29
ENDBRANCH  27  28
ENDBRANCH  26  27
ENDBRANCH   1  26
TORSDOF 16
ENDMDL
