MODEL 1
REMARK VINA RESULT:     -12.1      0.000      0.000
REMARK SMILES O=C(NCCCCNC(=O)[C@H]1C[C@H]2CCCC[C@@H]2[N@@H+]1CC[C@@H]1CCCO1)c1ccc(-c2c3nc(c(-c4c(F)cccc4F)c4ccc([nH]4)c(-c4c(F)cccc4F)c4nc(c(-c5c(F)cccc5F)c5ccc2[nH]5)C=C4)C=C3)cc1
REMARK SMILES IDX 6 1 5 2 4 3 3 4 1 5 2 6 27 8 28 9 80 10 29 11 79 12 30 13
REMARK SMILES IDX 31 14 32 15 73 16 33 17 78 18 72 19 74 20 34 21 77 22 71 23
REMARK SMILES IDX 70 24 35 26 61 27 44 28 60 29 45 30 48 31 59 32 75 33 46 34
REMARK SMILES IDX 47 35 58 37 76 38 49 39 36 40 37 41 42 42 38 43 39 44 41 45
REMARK SMILES IDX 43 46 40 47 62 48 63 49 68 50 64 51 65 52 67 53 69 54 66 55
REMARK SMILES IDX 50 56 51 57 56 58 52 59 53 60 55 61 57 62 54 63 7 64 8 65
REMARK SMILES IDX 9 66 10 68 11 69 12 70 19 71 13 72 18 73 14 75 17 76 15 77
REMARK SMILES IDX 16 78 20 79 21 80 22 81 23 82 26 83 24 84 25 85
REMARK H PARENT 3 7 74 25 48 36 8 67 19 74
REMARK Flexibility Score: inf
ROOT
ATOM      1  C   UNL A   1      36.989  20.893  25.045  1.00  0.00     0.023 C 
ENDROOT
BRANCH   1   2
ATOM      2  C   UNL A   1      38.069  19.826  24.994  1.00  0.00     0.023 C 
BRANCH   2   3
ATOM      3  C   UNL A   1      39.263  20.130  25.870  1.00  0.00     0.116 C 
BRANCH   3   4
ATOM      4  N   UNL A   1      40.269  19.076  25.871  1.00  0.00    -0.352 N 
ATOM      5  O   UNL A   1      42.367  18.236  25.991  1.00  0.00    -0.269 OA
ATOM      6  C   UNL A   1      41.618  19.194  26.108  1.00  0.00     0.251 C 
ATOM      7  H   UNL A   1      39.942  18.167  25.678  1.00  0.00     0.163 HD
BRANCH   6   8
ATOM      8  C   UNL A   1      42.145  20.524  26.465  1.00  0.00     0.039 A 
ATOM      9  C   UNL A   1      42.237  20.895  27.808  1.00  0.00     0.014 A 
ATOM     10  C   UNL A   1      42.473  21.425  25.450  1.00  0.00     0.014 A 
ATOM     11  C   UNL A   1      42.498  22.214  28.133  1.00  0.00     0.010 A 
ATOM     12  C   UNL A   1      42.847  22.727  25.786  1.00  0.00     0.010 A 
ATOM     13  C   UNL A   1      42.835  23.136  27.128  1.00  0.00    -0.014 A 
BRANCH  13  14
ATOM     14  C   UNL A   1      43.264  24.492  27.537  1.00  0.00     0.031 A 
ATOM     15  C   UNL A   1      44.699  24.918  27.459  1.00  0.00     0.074 A 
ATOM     16  C   UNL A   1      42.308  25.354  27.933  1.00  0.00     0.049 A 
ATOM     17  N   UNL A   1      45.224  26.081  27.752  1.00  0.00    -0.248 NA
ATOM     18  C   UNL A   1      45.676  23.916  27.002  1.00  0.00     0.031 C 
ATOM     19  C   UNL A   1      40.882  25.032  28.052  1.00  0.00     0.029 A 
ATOM     20  N   UNL A   1      42.378  26.677  28.277  1.00  0.00    -0.354 N 
ATOM     21  C   UNL A   1      46.589  25.949  27.535  1.00  0.00     0.074 A 
ATOM     22  C   UNL A   1      46.818  24.586  27.103  1.00  0.00     0.031 C 
ATOM     23  C   UNL A   1      40.206  26.141  28.379  1.00  0.00     0.029 A 
ATOM     24  C   UNL A   1      41.155  27.229  28.566  1.00  0.00     0.049 A 
ATOM     25  H   UNL A   1      43.223  27.183  28.312  1.00  0.00     0.167 HD
ATOM     26  C   UNL A   1      47.556  26.885  27.682  1.00  0.00     0.037 A 
ATOM     27  C   UNL A   1      40.833  28.474  28.959  1.00  0.00     0.037 A 
ATOM     28  C   UNL A   1      47.310  28.244  28.100  1.00  0.00     0.049 A 
ATOM     29  C   UNL A   1      41.929  29.481  29.122  1.00  0.00     0.074 A 
ATOM     30  C   UNL A   1      48.220  29.274  28.260  1.00  0.00     0.029 A 
ATOM     31  N   UNL A   1      46.062  28.759  28.419  1.00  0.00    -0.354 N 
ATOM     32  N   UNL A   1      43.213  29.344  28.903  1.00  0.00    -0.248 NA
ATOM     33  C   UNL A   1      41.533  30.813  29.596  1.00  0.00     0.031 C 
ATOM     34  C   UNL A   1      47.528  30.403  28.712  1.00  0.00     0.029 A 
ATOM     35  C   UNL A   1      46.181  30.088  28.792  1.00  0.00     0.049 A 
ATOM     36  H   UNL A   1      45.218  28.255  28.385  1.00  0.00     0.167 HD
ATOM     37  C   UNL A   1      43.782  30.572  29.209  1.00  0.00     0.074 A 
ATOM     38  C   UNL A   1      42.695  31.449  29.597  1.00  0.00     0.031 C 
ATOM     39  C   UNL A   1      45.086  30.938  29.182  1.00  0.00     0.037 A 
BRANCH  26  40
ATOM     40  C   UNL A   1      48.973  26.478  27.405  1.00  0.00     0.057 A 
ATOM     41  C   UNL A   1      49.799  25.947  28.403  1.00  0.00     0.134 A 
ATOM     42  C   UNL A   1      49.497  26.555  26.108  1.00  0.00     0.134 A 
ATOM     43  F   UNL A   1      49.363  25.856  29.669  1.00  0.00    -0.206 F 
ATOM     44  C   UNL A   1      51.098  25.515  28.123  1.00  0.00     0.040 A 
ATOM     45  C   UNL A   1      50.786  26.108  25.811  1.00  0.00     0.040 A 
ATOM     46  F   UNL A   1      48.756  27.050  25.103  1.00  0.00    -0.206 F 
ATOM     47  C   UNL A   1      51.590  25.588  26.822  1.00  0.00     0.006 A 
ENDBRANCH  26  40
BRANCH  27  48
ATOM     48  C   UNL A   1      39.419  28.815  29.241  1.00  0.00     0.057 A 
ATOM     49  C   UNL A   1      38.582  29.325  28.243  1.00  0.00     0.134 A 
ATOM     50  C   UNL A   1      38.865  28.627  30.514  1.00  0.00     0.134 A 
ATOM     51  F   UNL A   1      39.059  29.539  27.007  1.00  0.00    -0.206 F 
ATOM     52  C   UNL A   1      37.251  29.649  28.502  1.00  0.00     0.040 A 
ATOM     53  C   UNL A   1      37.529  28.919  30.781  1.00  0.00     0.040 A 
ATOM     54  F   UNL A   1      39.613  28.130  31.510  1.00  0.00    -0.206 F 
ATOM     55  C   UNL A   1      36.718  29.440  29.774  1.00  0.00     0.006 A 
ENDBRANCH  27  48
BRANCH  39  56
ATOM     56  C   UNL A   1      45.390  32.351  29.575  1.00  0.00     0.057 A 
ATOM     57  C   UNL A   1      45.374  33.393  28.640  1.00  0.00     0.134 A 
ATOM     58  C   UNL A   1      45.703  32.672  30.902  1.00  0.00     0.134 A 
ATOM     59  F   UNL A   1      45.099  33.145  27.350  1.00  0.00    -0.206 F 
ATOM     60  C   UNL A   1      45.687  34.703  29.004  1.00  0.00     0.040 A 
ATOM     61  C   UNL A   1      45.995  33.981  31.283  1.00  0.00     0.040 A 
ATOM     62  F   UNL A   1      45.731  31.718  31.845  1.00  0.00    -0.206 F 
ATOM     63  C   UNL A   1      45.995  34.999  30.331  1.00  0.00     0.006 A 
ENDBRANCH  39  56
ENDBRANCH  13  14
ENDBRANCH   6   8
ENDBRANCH   3   4
ENDBRANCH   2   3
ENDBRANCH   1   2
BRANCH   1  64
ATOM     64  C   UNL A   1      37.266  22.197  24.302  1.00  0.00     0.116 C 
BRANCH  64  65
ATOM     65  N   UNL A   1      36.253  22.577  23.340  1.00  0.00    -0.351 N 
ATOM     66  C   UNL A   1      35.079  23.260  23.482  1.00  0.00     0.278 C 
ATOM     67  H   UNL A   1      36.444  22.292  22.417  1.00  0.00     0.163 HD
ATOM     68  O   UNL A   1      34.580  23.691  22.432  1.00  0.00    -0.268 OA
BRANCH  66  69
ATOM     69  C   UNL A   1      34.302  23.419  24.810  1.00  0.00     0.274 C 
ATOM     70  C   UNL A   1      34.531  24.799  25.450  1.00  0.00     0.085 C 
ATOM     71  N   UNL A   1      32.841  23.234  24.688  1.00  0.00    -0.322 N 
ATOM     72  C   UNL A   1      33.144  25.225  25.909  1.00  0.00     0.054 C 
ATOM     73  C   UNL A   1      32.174  24.485  24.997  1.00  0.00     0.188 C 
ATOM     74  H   UNL A   1      32.593  23.055  23.715  1.00  0.00     0.349 HD
ATOM     75  C   UNL A   1      32.785  26.697  26.030  1.00  0.00     0.010 C 
ATOM     76  C   UNL A   1      30.726  24.564  25.467  1.00  0.00     0.065 C 
ATOM     77  C   UNL A   1      31.350  26.800  26.569  1.00  0.00     0.001 C 
ATOM     78  C   UNL A   1      30.334  26.029  25.713  1.00  0.00     0.006 C 
BRANCH  71  79
ATOM     79  C   UNL A   1      32.270  21.940  25.033  1.00  0.00     0.265 C 
BRANCH  79  80
ATOM     80  C   UNL A   1      32.611  20.633  24.275  1.00  0.00     0.093 C 
BRANCH  80  81
ATOM     81  C   UNL A   1      33.164  19.458  25.088  1.00  0.00     0.123 C 
ATOM     82  C   UNL A   1      34.142  18.564  24.348  1.00  0.00     0.034 C 
ATOM     83  O   UNL A   1      32.096  18.566  25.473  1.00  0.00    -0.378 OA
ATOM     84  C   UNL A   1      33.715  17.141  24.600  1.00  0.00     0.031 C 
ATOM     85  C   UNL A   1      32.701  17.285  25.701  1.00  0.00     0.160 C 
ENDBRANCH  80  81
ENDBRANCH  79  80
ENDBRANCH  71  79
ENDBRANCH  66  69
ENDBRANCH  64  65
ENDBRANCH   1  64
TORSDOF 14
ENDMDL
MODEL 2
REMARK VINA RESULT:     -12.1      5.380     10.578
REMARK SMILES O=C(NCCCCNC(=O)[C@H]1C[C@H]2CCCC[C@@H]2[N@@H+]1CC[C@@H]1CCCO1)c1ccc(-c2c3nc(c(-c4c(F)cccc4F)c4ccc([nH]4)c(-c4c(F)cccc4F)c4nc(c(-c5c(F)cccc5F)c5ccc2[nH]5)C=C4)C=C3)cc1
REMARK SMILES IDX 6 1 5 2 4 3 3 4 1 5 2 6 27 8 28 9 80 10 29 11 79 12 30 13
REMARK SMILES IDX 31 14 32 15 73 16 33 17 78 18 72 19 74 20 34 21 77 22 71 23
REMARK SMILES IDX 70 24 35 26 61 27 44 28 60 29 45 30 48 31 59 32 75 33 46 34
REMARK SMILES IDX 47 35 58 37 76 38 49 39 36 40 37 41 42 42 38 43 39 44 41 45
REMARK SMILES IDX 43 46 40 47 62 48 63 49 68 50 64 51 65 52 67 53 69 54 66 55
REMARK SMILES IDX 50 56 51 57 56 58 52 59 53 60 55 61 57 62 54 63 7 64 8 65
REMARK SMILES IDX 9 66 10 68 11 69 12 70 19 71 13 72 18 73 14 75 17 76 15 77
REMARK SMILES IDX 16 78 20 79 21 80 22 81 23 82 26 83 24 84 25 85
REMARK H PARENT 3 7 74 25 48 36 8 67 19 74
REMARK Flexibility Score: inf
ROOT
ATOM      1  C   UNL A   1      31.768  30.686  26.173  1.00  0.00     0.023 C 
ENDROOT
BRANCH   1   2
ATOM      2  C   UNL A   1      31.414  32.087  26.643  1.00  0.00     0.023 C 
BRANCH   2   3
ATOM      3  C   UNL A   1      32.563  32.812  27.305  1.00  0.00     0.116 C 
BRANCH   3   4
ATOM      4  N   UNL A   1      32.267  34.203  27.626  1.00  0.00    -0.352 N 
ATOM      5  O   UNL A   1      32.498  36.144  28.765  1.00  0.00    -0.269 OA
ATOM      6  C   UNL A   1      32.907  35.018  28.529  1.00  0.00     0.251 C 
ATOM      7  H   UNL A   1      31.515  34.608  27.136  1.00  0.00     0.163 HD
BRANCH   6   8
ATOM      8  C   UNL A   1      34.080  34.476  29.241  1.00  0.00     0.039 A 
ATOM      9  C   UNL A   1      35.349  34.584  28.669  1.00  0.00     0.014 A 
ATOM     10  C   UNL A   1      33.894  33.792  30.444  1.00  0.00     0.014 A 
ATOM     11  C   UNL A   1      36.402  33.872  29.211  1.00  0.00     0.010 A 
ATOM     12  C   UNL A   1      34.984  33.167  31.051  1.00  0.00     0.010 A 
ATOM     13  C   UNL A   1      36.239  33.181  30.423  1.00  0.00    -0.014 A 
BRANCH  13  14
ATOM     14  C   UNL A   1      37.434  32.569  31.048  1.00  0.00     0.031 A 
ATOM     15  C   UNL A   1      37.955  33.040  32.372  1.00  0.00     0.074 A 
ATOM     16  C   UNL A   1      38.008  31.532  30.409  1.00  0.00     0.049 A 
ATOM     17  N   UNL A   1      38.971  32.584  33.060  1.00  0.00    -0.248 NA
ATOM     18  C   UNL A   1      37.258  34.171  33.008  1.00  0.00     0.031 C 
ATOM     19  C   UNL A   1      37.580  31.004  29.110  1.00  0.00     0.029 A 
ATOM     20  N   UNL A   1      39.047  30.718  30.771  1.00  0.00    -0.354 N 
ATOM     21  C   UNL A   1      39.050  33.379  34.196  1.00  0.00     0.074 A 
ATOM     22  C   UNL A   1      37.989  34.360  34.099  1.00  0.00     0.031 C 
ATOM     23  C   UNL A   1      38.307  29.918  28.814  1.00  0.00     0.029 A 
ATOM     24  C   UNL A   1      39.297  29.719  29.863  1.00  0.00     0.049 A 
ATOM     25  H   UNL A   1      39.563  30.836  31.602  1.00  0.00     0.167 HD
ATOM     26  C   UNL A   1      39.927  33.288  35.223  1.00  0.00     0.037 A 
ATOM     27  C   UNL A   1      40.237  28.759  29.863  1.00  0.00     0.037 A 
ATOM     28  C   UNL A   1      40.969  32.295  35.313  1.00  0.00     0.049 A 
ATOM     29  C   UNL A   1      41.199  28.695  31.009  1.00  0.00     0.074 A 
ATOM     30  C   UNL A   1      41.897  32.108  36.323  1.00  0.00     0.029 A 
ATOM     31  N   UNL A   1      41.216  31.321  34.356  1.00  0.00    -0.354 N 
ATOM     32  N   UNL A   1      41.253  29.446  32.081  1.00  0.00    -0.248 NA
ATOM     33  C   UNL A   1      42.234  27.657  30.942  1.00  0.00     0.031 C 
ATOM     34  C   UNL A   1      42.729  31.043  35.960  1.00  0.00     0.029 A 
ATOM     35  C   UNL A   1      42.294  30.541  34.745  1.00  0.00     0.049 A 
ATOM     36  H   UNL A   1      40.703  31.202  33.526  1.00  0.00     0.167 HD
ATOM     37  C   UNL A   1      42.327  28.972  32.820  1.00  0.00     0.074 A 
ATOM     38  C   UNL A   1      42.872  27.846  32.088  1.00  0.00     0.031 C 
ATOM     39  C   UNL A   1      42.823  29.432  33.994  1.00  0.00     0.037 A 
BRANCH  26  40
ATOM     40  C   UNL A   1      39.814  34.293  36.331  1.00  0.00     0.057 A 
ATOM     41  C   UNL A   1      39.071  34.036  37.491  1.00  0.00     0.134 A 
ATOM     42  C   UNL A   1      40.511  35.507  36.268  1.00  0.00     0.134 A 
ATOM     43  F   UNL A   1      38.371  32.898  37.611  1.00  0.00    -0.206 F 
ATOM     44  C   UNL A   1      39.020  34.953  38.543  1.00  0.00     0.040 A 
ATOM     45  C   UNL A   1      40.484  36.422  37.322  1.00  0.00     0.040 A 
ATOM     46  F   UNL A   1      41.245  35.814  35.188  1.00  0.00    -0.206 F 
ATOM     47  C   UNL A   1      39.734  36.146  38.463  1.00  0.00     0.006 A 
ENDBRANCH  26  40
BRANCH  27  48
ATOM     48  C   UNL A   1      40.318  27.805  28.731  1.00  0.00     0.057 A 
ATOM     49  C   UNL A   1      39.632  26.586  28.759  1.00  0.00     0.134 A 
ATOM     50  C   UNL A   1      41.071  28.097  27.587  1.00  0.00     0.134 A 
ATOM     51  F   UNL A   1      38.906  26.246  29.834  1.00  0.00    -0.206 F 
ATOM     52  C   UNL A   1      39.705  25.684  27.698  1.00  0.00     0.040 A 
ATOM     53  C   UNL A   1      41.129  27.219  26.506  1.00  0.00     0.040 A 
ATOM     54  F   UNL A   1      41.740  29.255  27.494  1.00  0.00    -0.206 F 
ATOM     55  C   UNL A   1      40.450  26.003  26.563  1.00  0.00     0.006 A 
ENDBRANCH  27  48
BRANCH  39  56
ATOM     56  C   UNL A   1      44.008  28.702  34.549  1.00  0.00     0.057 A 
ATOM     57  C   UNL A   1      43.859  27.591  35.388  1.00  0.00     0.134 A 
ATOM     58  C   UNL A   1      45.310  29.115  34.242  1.00  0.00     0.134 A 
ATOM     59  F   UNL A   1      42.636  27.159  35.734  1.00  0.00    -0.206 F 
ATOM     60  C   UNL A   1      44.964  26.932  35.927  1.00  0.00     0.040 A 
ATOM     61  C   UNL A   1      46.423  28.450  34.755  1.00  0.00     0.040 A 
ATOM     62  F   UNL A   1      45.518  30.170  33.439  1.00  0.00    -0.206 F 
ATOM     63  C   UNL A   1      46.251  27.360  35.606  1.00  0.00     0.006 A 
ENDBRANCH  39  56
ENDBRANCH  13  14
ENDBRANCH   6   8
ENDBRANCH   3   4
ENDBRANCH   2   3
ENDBRANCH   1   2
BRANCH   1  64
ATOM     64  C   UNL A   1      32.122  29.663  27.250  1.00  0.00     0.116 C 
BRANCH  64  65
ATOM     65  N   UNL A   1      31.412  28.404  27.150  1.00  0.00    -0.351 N 
ATOM     66  C   UNL A   1      31.731  27.231  26.529  1.00  0.00     0.278 C 
ATOM     67  H   UNL A   1      30.544  28.391  27.615  1.00  0.00     0.163 HD
ATOM     68  O   UNL A   1      31.066  26.244  26.875  1.00  0.00    -0.268 OA
BRANCH  66  69
ATOM     69  C   UNL A   1      32.751  27.089  25.375  1.00  0.00     0.274 C 
ATOM     70  C   UNL A   1      33.847  26.061  25.698  1.00  0.00     0.085 C 
ATOM     71  N   UNL A   1      32.157  26.696  24.080  1.00  0.00    -0.322 N 
ATOM     72  C   UNL A   1      33.999  25.267  24.409  1.00  0.00     0.054 C 
ATOM     73  C   UNL A   1      32.654  25.385  23.704  1.00  0.00     0.188 C 
ATOM     74  H   UNL A   1      31.152  26.558  24.186  1.00  0.00     0.349 HD
ATOM     75  C   UNL A   1      34.490  23.828  24.437  1.00  0.00     0.010 C 
ATOM     76  C   UNL A   1      32.682  24.886  22.264  1.00  0.00     0.065 C 
ATOM     77  C   UNL A   1      34.592  23.326  22.988  1.00  0.00     0.001 C 
ATOM     78  C   UNL A   1      33.274  23.469  22.213  1.00  0.00     0.006 C 
BRANCH  71  79
ATOM     79  C   UNL A   1      31.873  27.733  23.098  1.00  0.00     0.265 C 
BRANCH  79  80
ATOM     80  C   UNL A   1      30.441  28.078  22.618  1.00  0.00     0.093 C 
BRANCH  80  81
ATOM     81  C   UNL A   1      30.098  29.555  22.397  1.00  0.00     0.123 C 
ATOM     82  C   UNL A   1      29.329  30.215  23.528  1.00  0.00     0.034 C 
ATOM     83  O   UNL A   1      29.232  29.703  21.251  1.00  0.00    -0.378 OA
ATOM     84  C   UNL A   1      28.183  30.965  22.901  1.00  0.00     0.031 C 
ATOM     85  C   UNL A   1      28.524  30.938  21.437  1.00  0.00     0.160 C 
ENDBRANCH  80  81
ENDBRANCH  79  80
ENDBRANCH  71  79
ENDBRANCH  66  69
ENDBRANCH  64  65
ENDBRANCH   1  64
TORSDOF 14
ENDMDL
MODEL 3
REMARK VINA RESULT:     -12.0      5.238      9.809
REMARK SMILES O=C(NCCCCNC(=O)[C@H]1C[C@H]2CCCC[C@@H]2[N@@H+]1CC[C@@H]1CCCO1)c1ccc(-c2c3nc(c(-c4c(F)cccc4F)c4ccc([nH]4)c(-c4c(F)cccc4F)c4nc(c(-c5c(F)cccc5F)c5ccc2[nH]5)C=C4)C=C3)cc1
REMARK SMILES IDX 6 1 5 2 4 3 3 4 1 5 2 6 27 8 28 9 80 10 29 11 79 12 30 13
REMARK SMILES IDX 31 14 32 15 73 16 33 17 78 18 72 19 74 20 34 21 77 22 71 23
REMARK SMILES IDX 70 24 35 26 61 27 44 28 60 29 45 30 48 31 59 32 75 33 46 34
REMARK SMILES IDX 47 35 58 37 76 38 49 39 36 40 37 41 42 42 38 43 39 44 41 45
REMARK SMILES IDX 43 46 40 47 62 48 63 49 68 50 64 51 65 52 67 53 69 54 66 55
REMARK SMILES IDX 50 56 51 57 56 58 52 59 53 60 55 61 57 62 54 63 7 64 8 65
REMARK SMILES IDX 9 66 10 68 11 69 12 70 19 71 13 72 18 73 14 75 17 76 15 77
REMARK SMILES IDX 16 78 20 79 21 80 22 81 23 82 26 83 24 84 25 85
REMARK H PARENT 3 7 74 25 48 36 8 67 19 74
REMARK Flexibility Score: inf
ROOT
ATOM      1  C   UNL A   1      31.716  30.727  26.089  1.00  0.00     0.023 C 
ENDROOT
BRANCH   1   2
ATOM      2  C   UNL A   1      31.415  32.151  26.525  1.00  0.00     0.023 C 
BRANCH   2   3
ATOM      3  C   UNL A   1      32.566  32.823  27.239  1.00  0.00     0.116 C 
BRANCH   3   4
ATOM      4  N   UNL A   1      32.289  34.201  27.624  1.00  0.00    -0.352 N 
ATOM      5  O   UNL A   1      32.539  36.080  28.859  1.00  0.00    -0.269 OA
ATOM      6  C   UNL A   1      32.932  34.960  28.573  1.00  0.00     0.251 C 
ATOM      7  H   UNL A   1      31.549  34.642  27.146  1.00  0.00     0.163 HD
BRANCH   6   8
ATOM      8  C   UNL A   1      34.088  34.364  29.269  1.00  0.00     0.039 A 
ATOM      9  C   UNL A   1      35.376  34.565  28.771  1.00  0.00     0.014 A 
ATOM     10  C   UNL A   1      33.870  33.543  30.377  1.00  0.00     0.014 A 
ATOM     11  C   UNL A   1      36.425  33.817  29.274  1.00  0.00     0.010 A 
ATOM     12  C   UNL A   1      34.950  32.875  30.956  1.00  0.00     0.010 A 
ATOM     13  C   UNL A   1      36.229  32.988  30.391  1.00  0.00    -0.014 A 
BRANCH  13  14
ATOM     14  C   UNL A   1      37.412  32.334  30.994  1.00  0.00     0.031 A 
ATOM     15  C   UNL A   1      38.094  31.177  30.327  1.00  0.00     0.074 A 
ATOM     16  C   UNL A   1      37.890  32.849  32.143  1.00  0.00     0.049 A 
ATOM     17  N   UNL A   1      39.157  30.520  30.718  1.00  0.00    -0.248 NA
ATOM     18  C   UNL A   1      37.513  30.685  29.068  1.00  0.00     0.031 C 
ATOM     19  C   UNL A   1      37.291  33.970  32.875  1.00  0.00     0.029 A 
ATOM     20  N   UNL A   1      38.998  32.528  32.878  1.00  0.00    -0.354 N 
ATOM     21  C   UNL A   1      39.362  29.528  29.768  1.00  0.00     0.074 A 
ATOM     22  C   UNL A   1      38.303  29.656  28.788  1.00  0.00     0.031 C 
ATOM     23  C   UNL A   1      38.071  34.282  33.918  1.00  0.00     0.029 A 
ATOM     24  C   UNL A   1      39.180  33.341  33.970  1.00  0.00     0.049 A 
ATOM     25  H   UNL A   1      39.606  31.789  32.647  1.00  0.00     0.167 HD
ATOM     26  C   UNL A   1      40.349  28.603  29.721  1.00  0.00     0.037 A 
ATOM     27  C   UNL A   1      40.127  33.318  34.924  1.00  0.00     0.037 A 
ATOM     28  C   UNL A   1      41.406  28.497  30.696  1.00  0.00     0.049 A 
ATOM     29  C   UNL A   1      41.197  32.273  34.848  1.00  0.00     0.074 A 
ATOM     30  C   UNL A   1      42.465  27.606  30.727  1.00  0.00     0.029 A 
ATOM     31  N   UNL A   1      41.539  29.315  31.809  1.00  0.00    -0.354 N 
ATOM     32  N   UNL A   1      41.384  31.349  33.937  1.00  0.00    -0.248 NA
ATOM     33  C   UNL A   1      42.183  32.261  35.935  1.00  0.00     0.031 C 
ATOM     34  C   UNL A   1      43.217  27.860  31.880  1.00  0.00     0.029 A 
ATOM     35  C   UNL A   1      42.652  28.936  32.544  1.00  0.00     0.049 A 
ATOM     36  H   UNL A   1      40.933  30.053  32.043  1.00  0.00     0.167 HD
ATOM     37  C   UNL A   1      42.509  30.645  34.339  1.00  0.00     0.074 A 
ATOM     38  C   UNL A   1      42.981  31.273  35.557  1.00  0.00     0.031 C 
ATOM     39  C   UNL A   1      43.095  29.571  33.757  1.00  0.00     0.037 A 
BRANCH  26  40
ATOM     40  C   UNL A   1      40.332  27.617  28.590  1.00  0.00     0.057 A 
ATOM     41  C   UNL A   1      41.061  27.830  27.413  1.00  0.00     0.134 A 
ATOM     42  C   UNL A   1      39.632  26.409  28.706  1.00  0.00     0.134 A 
ATOM     43  F   UNL A   1      41.744  28.970  27.233  1.00  0.00    -0.206 F 
ATOM     44  C   UNL A   1      41.088  26.879  26.389  1.00  0.00     0.040 A 
ATOM     45  C   UNL A   1      39.667  25.443  27.698  1.00  0.00     0.040 A 
ATOM     46  F   UNL A   1      38.917  26.140  29.809  1.00  0.00    -0.206 F 
ATOM     47  C   UNL A   1      40.396  25.679  26.535  1.00  0.00     0.006 A 
ENDBRANCH  26  40
BRANCH  27  48
ATOM     48  C   UNL A   1      40.083  34.302  36.031  1.00  0.00     0.057 A 
ATOM     49  C   UNL A   1      40.746  35.530  35.938  1.00  0.00     0.134 A 
ATOM     50  C   UNL A   1      39.363  34.043  37.205  1.00  0.00     0.134 A 
ATOM     51  F   UNL A   1      41.462  35.828  34.843  1.00  0.00    -0.206 F 
ATOM     52  C   UNL A   1      40.708  36.459  36.977  1.00  0.00     0.040 A 
ATOM     53  C   UNL A   1      39.293  34.974  38.240  1.00  0.00     0.040 A 
ATOM     54  F   UNL A   1      38.696  32.889  37.350  1.00  0.00    -0.206 F 
ATOM     55  C   UNL A   1      39.974  36.185  38.131  1.00  0.00     0.006 A 
ENDBRANCH  27  48
BRANCH  39  56
ATOM     56  C   UNL A   1      44.313  29.024  34.439  1.00  0.00     0.057 A 
ATOM     57  C   UNL A   1      45.595  29.500  34.142  1.00  0.00     0.134 A 
ATOM     58  C   UNL A   1      44.199  28.013  35.401  1.00  0.00     0.134 A 
ATOM     59  F   UNL A   1      45.769  30.455  33.216  1.00  0.00    -0.206 F 
ATOM     60  C   UNL A   1      46.729  28.968  34.757  1.00  0.00     0.040 A 
ATOM     61  C   UNL A   1      45.323  27.490  36.040  1.00  0.00     0.040 A 
ATOM     62  F   UNL A   1      42.996  27.519  35.732  1.00  0.00    -0.206 F 
ATOM     63  C   UNL A   1      46.592  27.962  35.712  1.00  0.00     0.006 A 
ENDBRANCH  39  56
ENDBRANCH  13  14
ENDBRANCH   6   8
ENDBRANCH   3   4
ENDBRANCH   2   3
ENDBRANCH   1   2
BRANCH   1  64
ATOM     64  C   UNL A   1      32.100  29.734  27.182  1.00  0.00     0.116 C 
BRANCH  64  65
ATOM     65  N   UNL A   1      31.407  28.464  27.122  1.00  0.00    -0.351 N 
ATOM     66  C   UNL A   1      31.727  27.285  26.512  1.00  0.00     0.278 C 
ATOM     67  H   UNL A   1      30.551  28.447  27.609  1.00  0.00     0.163 HD
ATOM     68  O   UNL A   1      31.086  26.295  26.891  1.00  0.00    -0.268 OA
BRANCH  66  69
ATOM     69  C   UNL A   1      32.718  27.138  25.334  1.00  0.00     0.274 C 
ATOM     70  C   UNL A   1      33.860  26.161  25.660  1.00  0.00     0.085 C 
ATOM     71  N   UNL A   1      32.103  26.679  24.072  1.00  0.00    -0.322 N 
ATOM     72  C   UNL A   1      34.004  25.328  24.395  1.00  0.00     0.054 C 
ATOM     73  C   UNL A   1      32.636  25.374  23.726  1.00  0.00     0.188 C 
ATOM     74  H   UNL A   1      31.107  26.509  24.212  1.00  0.00     0.349 HD
ATOM     75  C   UNL A   1      34.548  23.909  24.458  1.00  0.00     0.010 C 
ATOM     76  C   UNL A   1      32.642  24.825  22.304  1.00  0.00     0.065 C 
ATOM     77  C   UNL A   1      34.627  23.359  23.026  1.00  0.00     0.001 C 
ATOM     78  C   UNL A   1      33.284  23.429  22.285  1.00  0.00     0.006 C 
BRANCH  71  79
ATOM     79  C   UNL A   1      31.754  27.670  23.063  1.00  0.00     0.265 C 
BRANCH  79  80
ATOM     80  C   UNL A   1      30.295  28.082  22.748  1.00  0.00     0.093 C 
BRANCH  80  81
ATOM     81  C   UNL A   1      30.013  29.564  22.478  1.00  0.00     0.123 C 
ATOM     82  C   UNL A   1      29.155  30.258  23.520  1.00  0.00     0.034 C 
ATOM     83  O   UNL A   1      29.268  29.718  21.250  1.00  0.00    -0.378 OA
ATOM     84  C   UNL A   1      28.095  31.028  22.775  1.00  0.00     0.031 C 
ATOM     85  C   UNL A   1      28.577  30.972  21.352  1.00  0.00     0.160 C 
ENDBRANCH  80  81
ENDBRANCH  79  80
ENDBRANCH  71  79
ENDBRANCH  66  69
ENDBRANCH  64  65
ENDBRANCH   1  64
TORSDOF 14
ENDMDL
