MODEL 1
REMARK VINA RESULT:     -12.2      0.000      0.000
REMARK SMILES CCN(C(=O)Cc1c(C(=O)NCCCCNC(=O)c2ccc(-c3c4nc(c(-c5c(F)cccc5F)c5ccc([nH]5)c(-c5c(F)cccc5F)c5nc(c(-c6c(F)cccc6F)c6ccc3[nH]6)C=C5)C=C4)cc2)[nH]c2ccccc12)c1cccc(C)c1
REMARK SMILES IDX 12 1 11 2 9 3 10 4 8 6 7 7 79 8 73 9 74 10 78 11 75 13 77 14
REMARK SMILES IDX 76 15 6 16 4 17 5 18 3 19 2 20 1 21 80 22 81 23 86 24 82 25
REMARK SMILES IDX 84 26 83 27 85 28 13 29 14 30 15 31 16 32 17 33 18 35 19 36
REMARK SMILES IDX 20 37 72 38 21 39 71 40 22 41 23 42 24 43 65 44 25 45 70 46
REMARK SMILES IDX 64 47 66 48 26 49 69 50 63 51 62 52 27 54 53 55 36 56 52 57
REMARK SMILES IDX 37 58 40 59 51 60 67 61 38 62 39 63 50 65 68 66 41 67 28 68
REMARK SMILES IDX 29 69 34 70 30 71 31 72 33 73 35 74 32 75 54 76 55 77 60 78
REMARK SMILES IDX 56 79 57 80 59 81 61 82 58 83 42 84 43 85 48 86 44 87 45 88
REMARK SMILES IDX 47 89 49 90 46 91
REMARK H PARENT 11 5 73 12 16 34 66 53 40 64
REMARK Flexibility Score: inf
ROOT
ATOM      1  C   UNL A   1      33.327  29.611  26.705  1.00  0.00     0.116 C 
ENDROOT
BRANCH   1   2
ATOM      2  N   UNL A   1      33.589  29.317  25.313  1.00  0.00    -0.351 N 
ATOM      3  C   UNL A   1      33.733  28.153  24.607  1.00  0.00     0.268 C 
ATOM      4  O   UNL A   1      34.067  28.289  23.431  1.00  0.00    -0.268 OA
ATOM      5  H   UNL A   1      33.685  30.123  24.757  1.00  0.00     0.163 HD
BRANCH   3   6
ATOM      6  C   UNL A   1      33.508  26.846  25.200  1.00  0.00     0.109 A 
ATOM      7  C   UNL A   1      32.278  26.286  25.572  1.00  0.00    -0.000 A 
ATOM      8  C   UNL A   1      32.526  24.938  25.997  1.00  0.00     0.004 A 
ATOM      9  N   UNL A   1      34.455  25.880  25.449  1.00  0.00    -0.350 N 
ATOM     10  C   UNL A   1      33.902  24.756  26.009  1.00  0.00     0.046 A 
ATOM     11  C   UNL A   1      31.708  23.869  26.424  1.00  0.00     0.010 A 
ATOM     12  H   UNL A   1      35.414  25.983  25.249  1.00  0.00     0.167 HD
ATOM     13  C   UNL A   1      34.515  23.597  26.500  1.00  0.00     0.027 A 
ATOM     14  C   UNL A   1      32.299  22.697  26.909  1.00  0.00     0.001 A 
ATOM     15  C   UNL A   1      33.683  22.574  26.966  1.00  0.00     0.002 A 
BRANCH   7  16
ATOM     16  C   UNL A   1      30.923  26.947  25.528  1.00  0.00     0.139 C 
BRANCH  16  17
ATOM     17  C   UNL A   1      30.080  26.619  24.290  1.00  0.00     0.231 C 
ATOM     18  O   UNL A   1      29.409  25.580  24.305  1.00  0.00    -0.274 OA
BRANCH  17  19
ATOM     19  N   UNL A   1      30.068  27.512  23.201  1.00  0.00    -0.312 N 
BRANCH  19  20
ATOM     20  C   UNL A   1      31.028  27.457  22.084  1.00  0.00     0.122 C 
ATOM     21  C   UNL A   1      31.762  26.135  21.903  1.00  0.00     0.028 C 
ENDBRANCH  19  20
BRANCH  19  22
ATOM     22  C   UNL A   1      29.215  28.671  23.239  1.00  0.00     0.044 A 
ATOM     23  C   UNL A   1      27.833  28.563  23.044  1.00  0.00     0.026 A 
ATOM     24  C   UNL A   1      29.745  29.941  23.498  1.00  0.00     0.029 A 
ATOM     25  C   UNL A   1      27.007  29.688  23.129  1.00  0.00     0.002 A 
ATOM     26  C   UNL A   1      28.929  31.079  23.579  1.00  0.00    -0.049 A 
ATOM     27  C   UNL A   1      27.552  30.941  23.398  1.00  0.00     0.003 A 
ATOM     28  C   UNL A   1      29.527  32.433  23.822  1.00  0.00     0.044 C 
ENDBRANCH  19  22
ENDBRANCH  17  19
ENDBRANCH  16  17
ENDBRANCH   7  16
ENDBRANCH   3   6
ENDBRANCH   1   2
BRANCH   1  29
ATOM     29  C   UNL A   1      31.913  30.170  26.872  1.00  0.00     0.023 C 
BRANCH  29  30
ATOM     30  C   UNL A   1      31.814  31.689  26.681  1.00  0.00     0.023 C 
BRANCH  30  31
ATOM     31  C   UNL A   1      32.908  32.505  27.365  1.00  0.00     0.116 C 
BRANCH  31  32
ATOM     32  N   UNL A   1      32.516  33.883  27.626  1.00  0.00    -0.352 N 
ATOM     33  C   UNL A   1      33.045  34.771  28.530  1.00  0.00     0.251 C 
ATOM     34  H   UNL A   1      31.771  34.224  27.081  1.00  0.00     0.163 HD
ATOM     35  O   UNL A   1      32.528  35.869  28.702  1.00  0.00    -0.269 OA
BRANCH  33  36
ATOM     36  C   UNL A   1      34.224  34.373  29.323  1.00  0.00     0.039 A 
ATOM     37  C   UNL A   1      34.028  33.759  30.562  1.00  0.00     0.014 A 
ATOM     38  C   UNL A   1      35.513  34.551  28.813  1.00  0.00     0.014 A 
ATOM     39  C   UNL A   1      35.123  33.243  31.255  1.00  0.00     0.010 A 
ATOM     40  C   UNL A   1      36.596  33.985  29.476  1.00  0.00     0.010 A 
ATOM     41  C   UNL A   1      36.409  33.310  30.693  1.00  0.00    -0.014 A 
BRANCH  41  42
ATOM     42  C   UNL A   1      37.567  32.643  31.336  1.00  0.00     0.031 A 
ATOM     43  C   UNL A   1      38.241  31.484  30.663  1.00  0.00     0.074 A 
ATOM     44  C   UNL A   1      37.947  33.025  32.571  1.00  0.00     0.049 A 
ATOM     45  N   UNL A   1      39.191  30.706  31.114  1.00  0.00    -0.248 NA
ATOM     46  C   UNL A   1      37.768  31.139  29.313  1.00  0.00     0.031 C 
ATOM     47  C   UNL A   1      37.339  34.109  33.347  1.00  0.00     0.029 A 
ATOM     48  N   UNL A   1      38.924  32.532  33.398  1.00  0.00    -0.354 N 
ATOM     49  C   UNL A   1      39.419  29.771  30.113  1.00  0.00     0.074 A 
ATOM     50  C   UNL A   1      38.478  30.052  29.050  1.00  0.00     0.031 C 
ATOM     51  C   UNL A   1      37.964  34.205  34.531  1.00  0.00     0.029 A 
ATOM     52  C   UNL A   1      38.986  33.168  34.615  1.00  0.00     0.049 A 
ATOM     53  H   UNL A   1      39.522  31.793  33.145  1.00  0.00     0.167 HD
ATOM     54  C   UNL A   1      40.342  28.782  30.078  1.00  0.00     0.037 A 
ATOM     55  C   UNL A   1      39.769  32.930  35.684  1.00  0.00     0.037 A 
ATOM     56  C   UNL A   1      41.289  28.519  31.129  1.00  0.00     0.049 A 
ATOM     57  C   UNL A   1      40.768  31.808  35.629  1.00  0.00     0.074 A 
ATOM     58  C   UNL A   1      42.311  27.585  31.155  1.00  0.00     0.029 A 
ATOM     59  N   UNL A   1      41.326  29.188  32.343  1.00  0.00    -0.354 N 
ATOM     60  N   UNL A   1      41.023  30.977  34.648  1.00  0.00    -0.248 NA
ATOM     61  C   UNL A   1      41.586  31.590  36.831  1.00  0.00     0.031 C 
ATOM     62  C   UNL A   1      42.938  27.661  32.404  1.00  0.00     0.029 A 
ATOM     63  C   UNL A   1      42.334  28.668  33.138  1.00  0.00     0.049 A 
ATOM     64  H   UNL A   1      40.724  29.923  32.602  1.00  0.00     0.167 HD
ATOM     65  C   UNL A   1      42.040  30.150  35.104  1.00  0.00     0.074 A 
ATOM     66  C   UNL A   1      42.367  30.590  36.446  1.00  0.00     0.031 C 
ATOM     67  C   UNL A   1      42.646  29.117  34.471  1.00  0.00     0.037 A 
BRANCH  54  68
ATOM     68  C   UNL A   1      40.372  27.909  28.858  1.00  0.00     0.057 A 
ATOM     69  C   UNL A   1      41.137  28.242  27.733  1.00  0.00     0.134 A 
ATOM     70  C   UNL A   1      39.653  26.707  28.819  1.00  0.00     0.134 A 
ATOM     71  F   UNL A   1      41.839  29.385  27.702  1.00  0.00    -0.206 F 
ATOM     72  C   UNL A   1      41.167  27.423  26.603  1.00  0.00     0.040 A 
ATOM     73  C   UNL A   1      39.694  25.869  27.705  1.00  0.00     0.040 A 
ATOM     74  F   UNL A   1      38.904  26.328  29.865  1.00  0.00    -0.206 F 
ATOM     75  C   UNL A   1      40.449  26.229  26.590  1.00  0.00     0.006 A 
ENDBRANCH  54  68
BRANCH  55  76
ATOM     76  C   UNL A   1      39.643  33.772  36.900  1.00  0.00     0.057 A 
ATOM     77  C   UNL A   1      38.799  33.396  37.951  1.00  0.00     0.134 A 
ATOM     78  C   UNL A   1      40.354  34.969  37.040  1.00  0.00     0.134 A 
ATOM     79  F   UNL A   1      38.077  32.269  37.866  1.00  0.00    -0.206 F 
ATOM     80  C   UNL A   1      38.654  34.188  39.092  1.00  0.00     0.040 A 
ATOM     81  C   UNL A   1      40.238  35.759  38.184  1.00  0.00     0.040 A 
ATOM     82  F   UNL A   1      41.184  35.381  36.069  1.00  0.00    -0.206 F 
ATOM     83  C   UNL A   1      39.380  35.371  39.212  1.00  0.00     0.006 A 
ENDBRANCH  55  76
BRANCH  67  84
ATOM     84  C   UNL A   1      43.736  28.402  35.213  1.00  0.00     0.057 A 
ATOM     85  C   UNL A   1      45.068  28.826  35.150  1.00  0.00     0.134 A 
ATOM     86  C   UNL A   1      43.441  27.309  36.036  1.00  0.00     0.134 A 
ATOM     87  F   UNL A   1      45.417  29.859  34.366  1.00  0.00    -0.206 F 
ATOM     88  C   UNL A   1      46.074  28.178  35.869  1.00  0.00     0.040 A 
ATOM     89  C   UNL A   1      44.433  26.668  36.779  1.00  0.00     0.040 A 
ATOM     90  F   UNL A   1      42.182  26.857  36.145  1.00  0.00    -0.206 F 
ATOM     91  C   UNL A   1      45.755  27.100  36.692  1.00  0.00     0.006 A 
ENDBRANCH  67  84
ENDBRANCH  41  42
ENDBRANCH  33  36
ENDBRANCH  31  32
ENDBRANCH  30  31
ENDBRANCH  29  30
ENDBRANCH   1  29
TORSDOF 16
ENDMDL
MODEL 2
REMARK VINA RESULT:     -12.1      1.291      6.126
REMARK SMILES CCN(C(=O)Cc1c(C(=O)NCCCCNC(=O)c2ccc(-c3c4nc(c(-c5c(F)cccc5F)c5ccc([nH]5)c(-c5c(F)cccc5F)c5nc(c(-c6c(F)cccc6F)c6ccc3[nH]6)C=C5)C=C4)cc2)[nH]c2ccccc12)c1cccc(C)c1
REMARK SMILES IDX 12 1 11 2 9 3 10 4 8 6 7 7 79 8 73 9 74 10 78 11 75 13 77 14
REMARK SMILES IDX 76 15 6 16 4 17 5 18 3 19 2 20 1 21 80 22 81 23 86 24 82 25
REMARK SMILES IDX 84 26 83 27 85 28 13 29 14 30 15 31 16 32 17 33 18 35 19 36
REMARK SMILES IDX 20 37 72 38 21 39 71 40 22 41 23 42 24 43 65 44 25 45 70 46
REMARK SMILES IDX 64 47 66 48 26 49 69 50 63 51 62 52 27 54 53 55 36 56 52 57
REMARK SMILES IDX 37 58 40 59 51 60 67 61 38 62 39 63 50 65 68 66 41 67 28 68
REMARK SMILES IDX 29 69 34 70 30 71 31 72 33 73 35 74 32 75 54 76 55 77 60 78
REMARK SMILES IDX 56 79 57 80 59 81 61 82 58 83 42 84 43 85 48 86 44 87 45 88
REMARK SMILES IDX 47 89 49 90 46 91
REMARK H PARENT 11 5 73 12 16 34 66 53 40 64
REMARK Flexibility Score: inf
ROOT
ATOM      1  C   UNL A   1      33.339  29.667  26.715  1.00  0.00     0.116 C 
ENDROOT
BRANCH   1   2
ATOM      2  N   UNL A   1      33.602  29.389  25.319  1.00  0.00    -0.351 N 
ATOM      3  C   UNL A   1      33.786  28.235  24.607  1.00  0.00     0.268 C 
ATOM      4  O   UNL A   1      34.108  28.389  23.429  1.00  0.00    -0.268 OA
ATOM      5  H   UNL A   1      33.664  30.201  24.766  1.00  0.00     0.163 HD
BRANCH   3   6
ATOM      6  C   UNL A   1      33.615  26.918  25.195  1.00  0.00     0.109 A 
ATOM      7  C   UNL A   1      32.418  26.334  25.630  1.00  0.00    -0.000 A 
ATOM      8  C   UNL A   1      32.710  24.985  26.023  1.00  0.00     0.004 A 
ATOM      9  N   UNL A   1      34.590  25.964  25.378  1.00  0.00    -0.350 N 
ATOM     10  C   UNL A   1      34.087  24.825  25.954  1.00  0.00     0.046 A 
ATOM     11  C   UNL A   1      31.934  23.898  26.483  1.00  0.00     0.010 A 
ATOM     12  H   UNL A   1      35.534  26.085  25.125  1.00  0.00     0.167 HD
ATOM     13  C   UNL A   1      34.744  23.670  26.394  1.00  0.00     0.027 A 
ATOM     14  C   UNL A   1      32.569  22.730  26.919  1.00  0.00     0.001 A 
ATOM     15  C   UNL A   1      33.957  22.628  26.894  1.00  0.00     0.002 A 
BRANCH   7  16
ATOM     16  C   UNL A   1      31.052  26.974  25.672  1.00  0.00     0.139 C 
BRANCH  16  17
ATOM     17  C   UNL A   1      30.130  26.613  24.502  1.00  0.00     0.231 C 
ATOM     18  O   UNL A   1      29.396  25.624  24.627  1.00  0.00    -0.274 OA
BRANCH  17  19
ATOM     19  N   UNL A   1      30.120  27.421  23.349  1.00  0.00    -0.312 N 
BRANCH  19  20
ATOM     20  C   UNL A   1      31.076  27.276  22.236  1.00  0.00     0.122 C 
ATOM     21  C   UNL A   1      31.707  25.899  22.078  1.00  0.00     0.028 C 
ENDBRANCH  19  20
BRANCH  19  22
ATOM     22  C   UNL A   1      29.275  28.586  23.302  1.00  0.00     0.044 A 
ATOM     23  C   UNL A   1      27.918  28.486  22.973  1.00  0.00     0.026 A 
ATOM     24  C   UNL A   1      29.785  29.853  23.611  1.00  0.00     0.029 A 
ATOM     25  C   UNL A   1      27.094  29.616  22.976  1.00  0.00     0.002 A 
ATOM     26  C   UNL A   1      28.972  30.996  23.611  1.00  0.00    -0.049 A 
ATOM     27  C   UNL A   1      27.619  30.866  23.297  1.00  0.00     0.003 A 
ATOM     28  C   UNL A   1      29.553  32.347  23.910  1.00  0.00     0.044 C 
ENDBRANCH  19  22
ENDBRANCH  17  19
ENDBRANCH  16  17
ENDBRANCH   7  16
ENDBRANCH   3   6
ENDBRANCH   1   2
BRANCH   1  29
ATOM     29  C   UNL A   1      31.895  30.139  26.897  1.00  0.00     0.023 C 
BRANCH  29  30
ATOM     30  C   UNL A   1      31.718  31.660  26.807  1.00  0.00     0.023 C 
BRANCH  30  31
ATOM     31  C   UNL A   1      32.919  32.485  27.262  1.00  0.00     0.116 C 
BRANCH  31  32
ATOM     32  N   UNL A   1      32.565  33.840  27.660  1.00  0.00    -0.352 N 
ATOM     33  C   UNL A   1      33.180  34.654  28.580  1.00  0.00     0.251 C 
ATOM     34  H   UNL A   1      31.779  34.225  27.211  1.00  0.00     0.163 HD
ATOM     35  O   UNL A   1      32.691  35.737  28.881  1.00  0.00    -0.269 OA
BRANCH  33  36
ATOM     36  C   UNL A   1      34.420  34.192  29.234  1.00  0.00     0.039 A 
ATOM     37  C   UNL A   1      34.328  33.529  30.460  1.00  0.00     0.014 A 
ATOM     38  C   UNL A   1      35.657  34.361  28.606  1.00  0.00     0.014 A 
ATOM     39  C   UNL A   1      35.471  32.956  31.018  1.00  0.00     0.010 A 
ATOM     40  C   UNL A   1      36.782  33.739  29.133  1.00  0.00     0.010 A 
ATOM     41  C   UNL A   1      36.697  33.016  30.334  1.00  0.00    -0.014 A 
BRANCH  41  42
ATOM     42  C   UNL A   1      37.893  32.293  30.830  1.00  0.00     0.031 A 
ATOM     43  C   UNL A   1      38.720  32.872  31.939  1.00  0.00     0.074 A 
ATOM     44  C   UNL A   1      38.283  31.161  30.213  1.00  0.00     0.049 A 
ATOM     45  N   UNL A   1      39.855  32.448  32.432  1.00  0.00    -0.248 NA
ATOM     46  C   UNL A   1      38.217  34.106  32.563  1.00  0.00     0.031 C 
ATOM     47  C   UNL A   1      37.588  30.524  29.092  1.00  0.00     0.029 A 
ATOM     48  N   UNL A   1      39.373  30.355  30.428  1.00  0.00    -0.354 N 
ATOM     49  C   UNL A   1      40.210  33.367  33.408  1.00  0.00     0.074 A 
ATOM     50  C   UNL A   1      39.192  34.397  33.410  1.00  0.00     0.031 C 
ATOM     51  C   UNL A   1      38.260  29.421  28.727  1.00  0.00     0.029 A 
ATOM     52  C   UNL A   1      39.453  29.295  29.557  1.00  0.00     0.049 A 
ATOM     53  H   UNL A   1      40.034  30.521  31.137  1.00  0.00     0.167 HD
ATOM     54  C   UNL A   1      41.277  33.344  34.240  1.00  0.00     0.037 A 
ATOM     55  C   UNL A   1      40.393  28.339  29.431  1.00  0.00     0.037 A 
ATOM     56  C   UNL A   1      42.276  32.308  34.250  1.00  0.00     0.049 A 
ATOM     57  C   UNL A   1      41.582  28.351  30.352  1.00  0.00     0.074 A 
ATOM     58  C   UNL A   1      43.355  32.159  35.104  1.00  0.00     0.029 A 
ATOM     59  N   UNL A   1      42.320  31.248  33.358  1.00  0.00    -0.354 N 
ATOM     60  N   UNL A   1      41.868  29.187  31.320  1.00  0.00    -0.248 NA
ATOM     61  C   UNL A   1      42.579  27.288  30.159  1.00  0.00     0.031 C 
ATOM     62  C   UNL A   1      44.077  31.030  34.700  1.00  0.00     0.029 A 
ATOM     63  C   UNL A   1      43.425  30.455  33.621  1.00  0.00     0.049 A 
ATOM     64  H   UNL A   1      41.664  31.083  32.642  1.00  0.00     0.167 HD
ATOM     65  C   UNL A   1      43.065  28.744  31.864  1.00  0.00     0.074 A 
ATOM     66  C   UNL A   1      43.444  27.554  31.128  1.00  0.00     0.031 C 
ATOM     67  C   UNL A   1      43.788  29.275  32.879  1.00  0.00     0.037 A 
BRANCH  54  68
ATOM     68  C   UNL A   1      41.418  34.477  35.214  1.00  0.00     0.057 A 
ATOM     69  C   UNL A   1      40.836  34.430  36.488  1.00  0.00     0.134 A 
ATOM     70  C   UNL A   1      42.168  35.614  34.888  1.00  0.00     0.134 A 
ATOM     71  F   UNL A   1      40.094  33.374  36.858  1.00  0.00    -0.206 F 
ATOM     72  C   UNL A   1      40.975  35.483  37.393  1.00  0.00     0.040 A 
ATOM     73  C   UNL A   1      42.335  36.662  35.793  1.00  0.00     0.040 A 
ATOM     74  F   UNL A   1      42.755  35.720  33.686  1.00  0.00    -0.206 F 
ATOM     75  C   UNL A   1      41.732  36.601  37.049  1.00  0.00     0.006 A 
ENDBRANCH  54  68
BRANCH  55  76
ATOM     76  C   UNL A   1      40.248  27.286  28.396  1.00  0.00     0.057 A 
ATOM     77  C   UNL A   1      39.499  26.130  28.646  1.00  0.00     0.134 A 
ATOM     78  C   UNL A   1      40.853  27.403  27.140  1.00  0.00     0.134 A 
ATOM     79  F   UNL A   1      38.913  25.952  29.839  1.00  0.00    -0.206 F 
ATOM     80  C   UNL A   1      39.371  25.121  27.691  1.00  0.00     0.040 A 
ATOM     81  C   UNL A   1      40.714  26.414  26.166  1.00  0.00     0.040 A 
ATOM     82  F   UNL A   1      41.578  28.491  26.836  1.00  0.00    -0.206 F 
ATOM     83  C   UNL A   1      39.975  25.264  26.443  1.00  0.00     0.006 A 
ENDBRANCH  55  76
BRANCH  67  84
ATOM     84  C   UNL A   1      45.052  28.567  33.265  1.00  0.00     0.057 A 
ATOM     85  C   UNL A   1      45.051  27.513  34.186  1.00  0.00     0.134 A 
ATOM     86  C   UNL A   1      46.273  28.911  32.674  1.00  0.00     0.134 A 
ATOM     87  F   UNL A   1      43.915  27.146  34.800  1.00  0.00    -0.206 F 
ATOM     88  C   UNL A   1      46.225  26.834  34.518  1.00  0.00     0.040 A 
ATOM     89  C   UNL A   1      47.450  28.224  32.978  1.00  0.00     0.040 A 
ATOM     90  F   UNL A   1      46.341  29.908  31.778  1.00  0.00    -0.206 F 
ATOM     91  C   UNL A   1      47.427  27.185  33.906  1.00  0.00     0.006 A 
ENDBRANCH  67  84
ENDBRANCH  41  42
ENDBRANCH  33  36
ENDBRANCH  31  32
ENDBRANCH  30  31
ENDBRANCH  29  30
ENDBRANCH   1  29
TORSDOF 16
ENDMDL
MODEL 3
REMARK VINA RESULT:     -12.1      4.800      9.390
REMARK SMILES CCN(C(=O)Cc1c(C(=O)NCCCCNC(=O)c2ccc(-c3c4nc(c(-c5c(F)cccc5F)c5ccc([nH]5)c(-c5c(F)cccc5F)c5nc(c(-c6c(F)cccc6F)c6ccc3[nH]6)C=C5)C=C4)cc2)[nH]c2ccccc12)c1cccc(C)c1
REMARK SMILES IDX 12 1 11 2 9 3 10 4 8 6 7 7 79 8 73 9 74 10 78 11 75 13 77 14
REMARK SMILES IDX 76 15 6 16 4 17 5 18 3 19 2 20 1 21 80 22 81 23 86 24 82 25
REMARK SMILES IDX 84 26 83 27 85 28 13 29 14 30 15 31 16 32 17 33 18 35 19 36
REMARK SMILES IDX 20 37 72 38 21 39 71 40 22 41 23 42 24 43 65 44 25 45 70 46
REMARK SMILES IDX 64 47 66 48 26 49 69 50 63 51 62 52 27 54 53 55 36 56 52 57
REMARK SMILES IDX 37 58 40 59 51 60 67 61 38 62 39 63 50 65 68 66 41 67 28 68
REMARK SMILES IDX 29 69 34 70 30 71 31 72 33 73 35 74 32 75 54 76 55 77 60 78
REMARK SMILES IDX 56 79 57 80 59 81 61 82 58 83 42 84 43 85 48 86 44 87 45 88
REMARK SMILES IDX 47 89 49 90 46 91
REMARK H PARENT 11 5 73 12 16 34 66 53 40 64
REMARK Flexibility Score: inf
ROOT
ATOM      1  C   UNL A   1      37.088  22.455  25.165  1.00  0.00     0.116 C 
ENDROOT
BRANCH   1   2
ATOM      2  N   UNL A   1      36.128  22.544  26.244  1.00  0.00    -0.351 N 
ATOM      3  C   UNL A   1      34.912  21.959  26.475  1.00  0.00     0.268 C 
ATOM      4  O   UNL A   1      34.314  22.365  27.470  1.00  0.00    -0.268 OA
ATOM      5  H   UNL A   1      36.408  23.155  26.964  1.00  0.00     0.163 HD
BRANCH   3   6
ATOM      6  C   UNL A   1      34.364  20.931  25.608  1.00  0.00     0.109 A 
ATOM      7  C   UNL A   1      33.214  21.020  24.811  1.00  0.00    -0.000 A 
ATOM      8  C   UNL A   1      33.129  19.815  24.035  1.00  0.00     0.004 A 
ATOM      9  N   UNL A   1      34.907  19.693  25.351  1.00  0.00    -0.350 N 
ATOM     10  C   UNL A   1      34.138  18.969  24.476  1.00  0.00     0.046 A 
ATOM     11  C   UNL A   1      32.252  19.343  23.034  1.00  0.00     0.010 A 
ATOM     12  H   UNL A   1      35.748  19.367  25.748  1.00  0.00     0.167 HD
ATOM     13  C   UNL A   1      34.274  17.649  24.032  1.00  0.00     0.027 A 
ATOM     14  C   UNL A   1      32.377  18.030  22.569  1.00  0.00     0.001 A 
ATOM     15  C   UNL A   1      33.361  17.189  23.079  1.00  0.00     0.002 A 
BRANCH   7  16
ATOM     16  C   UNL A   1      32.235  22.166  24.745  1.00  0.00     0.139 C 
BRANCH  16  17
ATOM     17  C   UNL A   1      32.675  23.346  23.870  1.00  0.00     0.231 C 
ATOM     18  O   UNL A   1      33.638  23.178  23.113  1.00  0.00    -0.274 OA
BRANCH  17  19
ATOM     19  N   UNL A   1      31.961  24.558  23.929  1.00  0.00    -0.312 N 
BRANCH  19  20
ATOM     20  C   UNL A   1      30.610  24.744  23.368  1.00  0.00     0.122 C 
ATOM     21  C   UNL A   1      29.706  25.712  24.120  1.00  0.00     0.028 C 
ENDBRANCH  19  20
BRANCH  19  22
ATOM     22  C   UNL A   1      32.624  25.755  24.378  1.00  0.00     0.044 A 
ATOM     23  C   UNL A   1      32.893  25.972  25.734  1.00  0.00     0.026 A 
ATOM     24  C   UNL A   1      33.042  26.727  23.460  1.00  0.00     0.029 A 
ATOM     25  C   UNL A   1      33.578  27.116  26.155  1.00  0.00     0.002 A 
ATOM     26  C   UNL A   1      33.725  27.882  23.869  1.00  0.00    -0.049 A 
ATOM     27  C   UNL A   1      33.996  28.066  25.226  1.00  0.00     0.003 A 
ATOM     28  C   UNL A   1      34.130  28.925  22.869  1.00  0.00     0.044 C 
ENDBRANCH  19  22
ENDBRANCH  17  19
ENDBRANCH  16  17
ENDBRANCH   7  16
ENDBRANCH   3   6
ENDBRANCH   1   2
BRANCH   1  29
ATOM     29  C   UNL A   1      38.400  21.853  25.672  1.00  0.00     0.023 C 
BRANCH  29  30
ATOM     30  C   UNL A   1      38.714  20.465  25.098  1.00  0.00     0.023 C 
BRANCH  30  31
ATOM     31  C   UNL A   1      39.222  19.440  26.109  1.00  0.00     0.116 C 
BRANCH  31  32
ATOM     32  N   UNL A   1      40.542  18.921  25.783  1.00  0.00    -0.352 N 
ATOM     33  C   UNL A   1      41.761  19.548  25.879  1.00  0.00     0.251 C 
ATOM     34  H   UNL A   1      40.566  17.995  25.449  1.00  0.00     0.163 HD
ATOM     35  O   UNL A   1      42.777  19.005  25.460  1.00  0.00    -0.269 OA
BRANCH  33  36
ATOM     36  C   UNL A   1      41.827  20.904  26.456  1.00  0.00     0.039 A 
ATOM     37  C   UNL A   1      41.682  21.056  27.837  1.00  0.00     0.014 A 
ATOM     38  C   UNL A   1      42.092  22.008  25.642  1.00  0.00     0.014 A 
ATOM     39  C   UNL A   1      41.889  22.309  28.416  1.00  0.00     0.010 A 
ATOM     40  C   UNL A   1      42.356  23.242  26.226  1.00  0.00     0.010 A 
ATOM     41  C   UNL A   1      42.275  23.399  27.619  1.00  0.00    -0.014 A 
BRANCH  41  42
ATOM     42  C   UNL A   1      42.644  24.703  28.222  1.00  0.00     0.031 A 
ATOM     43  C   UNL A   1      41.603  25.767  28.416  1.00  0.00     0.074 A 
ATOM     44  C   UNL A   1      43.935  24.958  28.506  1.00  0.00     0.049 A 
ATOM     45  N   UNL A   1      41.750  27.002  28.821  1.00  0.00    -0.248 NA
ATOM     46  C   UNL A   1      40.216  25.401  28.088  1.00  0.00     0.031 C 
ATOM     47  C   UNL A   1      45.045  24.020  28.318  1.00  0.00     0.029 A 
ATOM     48  N   UNL A   1      44.537  26.090  28.995  1.00  0.00    -0.354 N 
ATOM     49  C   UNL A   1      40.483  27.565  28.782  1.00  0.00     0.074 A 
ATOM     50  C   UNL A   1      39.584  26.551  28.272  1.00  0.00     0.031 C 
ATOM     51  C   UNL A   1      46.189  24.611  28.699  1.00  0.00     0.029 A 
ATOM     52  C   UNL A   1      45.901  25.979  29.117  1.00  0.00     0.049 A 
ATOM     53  H   UNL A   1      44.039  26.904  29.234  1.00  0.00     0.167 HD
ATOM     54  C   UNL A   1      40.101  28.809  29.155  1.00  0.00     0.037 A 
ATOM     55  C   UNL A   1      46.819  26.884  29.506  1.00  0.00     0.037 A 
ATOM     56  C   UNL A   1      40.993  29.807  29.681  1.00  0.00     0.049 A 
ATOM     57  C   UNL A   1      46.371  28.266  29.891  1.00  0.00     0.074 A 
ATOM     58  C   UNL A   1      40.689  31.072  30.155  1.00  0.00     0.029 A 
ATOM     59  N   UNL A   1      42.367  29.656  29.796  1.00  0.00    -0.354 N 
ATOM     60  N   UNL A   1      45.158  28.763  29.918  1.00  0.00    -0.248 NA
ATOM     61  C   UNL A   1      47.419  29.214  30.297  1.00  0.00     0.031 C 
ATOM     62  C   UNL A   1      41.886  31.702  30.517  1.00  0.00     0.029 A 
ATOM     63  C   UNL A   1      42.929  30.814  30.306  1.00  0.00     0.049 A 
ATOM     64  H   UNL A   1      42.868  28.845  29.550  1.00  0.00     0.167 HD
ATOM     65  C   UNL A   1      45.294  30.072  30.359  1.00  0.00     0.074 A 
ATOM     66  C   UNL A   1      46.706  30.288  30.604  1.00  0.00     0.031 C 
ATOM     67  C   UNL A   1      44.335  31.012  30.543  1.00  0.00     0.037 A 
BRANCH  54  68
ATOM     68  C   UNL A   1      38.649  29.158  29.009  1.00  0.00     0.057 A 
ATOM     69  C   UNL A   1      37.762  29.089  30.092  1.00  0.00     0.134 A 
ATOM     70  C   UNL A   1      38.138  29.596  27.781  1.00  0.00     0.134 A 
ATOM     71  F   UNL A   1      38.186  28.665  31.292  1.00  0.00    -0.206 F 
ATOM     72  C   UNL A   1      36.414  29.422  29.953  1.00  0.00     0.040 A 
ATOM     73  C   UNL A   1      36.797  29.954  27.636  1.00  0.00     0.040 A 
ATOM     74  F   UNL A   1      38.934  29.688  26.706  1.00  0.00    -0.206 F 
ATOM     75  C   UNL A   1      35.929  29.862  28.723  1.00  0.00     0.006 A 
ENDBRANCH  54  68
BRANCH  55  76
ATOM     76  C   UNL A   1      48.255  26.512  29.555  1.00  0.00     0.057 A 
ATOM     77  C   UNL A   1      49.092  26.731  28.455  1.00  0.00     0.134 A 
ATOM     78  C   UNL A   1      48.823  25.929  30.693  1.00  0.00     0.134 A 
ATOM     79  F   UNL A   1      48.600  27.268  27.329  1.00  0.00    -0.206 F 
ATOM     80  C   UNL A   1      50.440  26.368  28.479  1.00  0.00     0.040 A 
ATOM     81  C   UNL A   1      50.174  25.583  30.740  1.00  0.00     0.040 A 
ATOM     82  F   UNL A   1      48.074  25.700  31.783  1.00  0.00    -0.206 F 
ATOM     83  C   UNL A   1      50.985  25.797  29.626  1.00  0.00     0.006 A 
ENDBRANCH  55  76
BRANCH  67  84
ATOM     84  C   UNL A   1      44.779  32.354  31.046  1.00  0.00     0.057 A 
ATOM     85  C   UNL A   1      44.901  32.621  32.415  1.00  0.00     0.134 A 
ATOM     86  C   UNL A   1      45.132  33.371  30.152  1.00  0.00     0.134 A 
ATOM     87  F   UNL A   1      44.562  31.691  33.322  1.00  0.00    -0.206 F 
ATOM     88  C   UNL A   1      45.345  33.860  32.879  1.00  0.00     0.040 A 
ATOM     89  C   UNL A   1      45.601  34.606  30.603  1.00  0.00     0.040 A 
ATOM     90  F   UNL A   1      45.044  33.177  28.827  1.00  0.00    -0.206 F 
ATOM     91  C   UNL A   1      45.704  34.854  31.970  1.00  0.00     0.006 A 
ENDBRANCH  67  84
ENDBRANCH  41  42
ENDBRANCH  33  36
ENDBRANCH  31  32
ENDBRANCH  30  31
ENDBRANCH  29  30
ENDBRANCH   1  29
TORSDOF 16
ENDMDL
