MODEL 1
REMARK VINA RESULT:     -10.6      0.000      0.000
REMARK SMILES CC(C)[NH2+][C@]1(C(=O)NCCCCNC(=O)c2ccc(-c3c4nc(c(-c5c(F)cccc5F)c5ccc([nH]5)c(-c5c(F)cccc5F)c5nc(c(-c6c(F)cccc6F)c6ccc3[nH]6)C=C5)C=C4)cc2)CC[C@@H]([N@@H+](C)[C@@H](C)C(C)C)C1
REMARK SMILES IDX 10 1 9 2 8 3 6 4 7 5 5 7 70 8 80 9 71 10 72 11 4 12 2 15
REMARK SMILES IDX 1 16 3 17 73 18 74 19 75 21 76 22 77 23 78 24 79 25 11 26
REMARK SMILES IDX 12 27 13 28 14 29 15 31 16 32 17 33 69 34 18 35 68 36 19 37
REMARK SMILES IDX 20 38 21 39 62 40 22 41 67 42 61 43 63 44 23 45 66 46 60 47
REMARK SMILES IDX 59 48 24 50 50 51 33 52 49 53 34 54 37 55 48 56 64 57 35 58
REMARK SMILES IDX 36 59 47 61 65 62 38 63 25 64 26 65 31 66 27 67 28 68 30 69
REMARK SMILES IDX 32 70 29 71 51 72 52 73 57 74 53 75 54 76 56 77 58 78 55 79
REMARK SMILES IDX 39 80 40 81 45 82 41 83 42 84 44 85 46 86 43 87
REMARK H PARENT 8 6 4 13 4 14 73 20 13 30 63 49 37 60
REMARK Flexibility Score: inf
ROOT
ATOM      1  C   UNL A   1      37.303  22.267  24.553  1.00  0.00     0.023 C 
ENDROOT
BRANCH   1   2
ATOM      2  C   UNL A   1      37.048  23.234  25.720  1.00  0.00     0.116 C 
BRANCH   2   3
ATOM      3  N   UNL A   1      35.942  22.742  26.516  1.00  0.00    -0.351 N 
ATOM      4  C   UNL A   1      34.637  23.143  26.550  1.00  0.00     0.281 C 
ATOM      5  O   UNL A   1      34.061  22.926  27.623  1.00  0.00    -0.268 OA
ATOM      6  H   UNL A   1      36.166  22.003  27.128  1.00  0.00     0.163 HD
BRANCH   4   7
ATOM      7  C   UNL A   1      33.868  23.690  25.299  1.00  0.00     0.181 C 
ATOM      8  C   UNL A   1      32.422  23.994  25.763  1.00  0.00     0.085 C 
ATOM      9  C   UNL A   1      34.369  25.098  24.878  1.00  0.00     0.144 C 
ATOM     10  C   UNL A   1      31.918  25.115  24.866  1.00  0.00     0.072 C 
ATOM     11  C   UNL A   1      33.145  25.984  24.581  1.00  0.00     0.191 C 
BRANCH   7  12
ATOM     12  N   UNL A   1      33.809  22.788  24.120  1.00  0.00    -0.331 N 
ATOM     13  H   UNL A   1      33.511  23.353  23.325  1.00  0.00     0.347 HD
ATOM     14  H   UNL A   1      34.746  22.390  24.067  1.00  0.00     0.347 HD
BRANCH  12  15
ATOM     15  C   UNL A   1      32.929  21.620  24.171  1.00  0.00     0.176 C 
ATOM     16  C   UNL A   1      32.207  21.522  22.824  1.00  0.00     0.075 C 
ATOM     17  C   UNL A   1      33.541  20.277  24.545  1.00  0.00     0.075 C 
ENDBRANCH  12  15
ENDBRANCH   7  12
BRANCH  11  18
ATOM     18  N   UNL A   1      33.220  27.367  25.089  1.00  0.00    -0.332 N 
ATOM     19  C   UNL A   1      33.978  28.218  24.161  1.00  0.00     0.333 C 
ATOM     20  H   UNL A   1      33.701  27.190  25.971  1.00  0.00     0.348 HD
BRANCH  18  21
ATOM     21  C   UNL A   1      32.037  28.084  25.638  1.00  0.00     0.183 C 
ATOM     22  C   UNL A   1      31.869  27.984  27.162  1.00  0.00     0.075 C 
BRANCH  21  23
ATOM     23  C   UNL A   1      31.851  29.545  25.119  1.00  0.00     0.041 C 
ATOM     24  C   UNL A   1      30.572  29.685  24.276  1.00  0.00     0.013 C 
ATOM     25  C   UNL A   1      31.787  30.590  26.242  1.00  0.00     0.013 C 
ENDBRANCH  21  23
ENDBRANCH  18  21
ENDBRANCH  11  18
ENDBRANCH   4   7
ENDBRANCH   2   3
ENDBRANCH   1   2
BRANCH   1  26
ATOM     26  C   UNL A   1      37.746  20.861  24.936  1.00  0.00     0.023 C 
BRANCH  26  27
ATOM     27  C   UNL A   1      38.857  20.809  25.965  1.00  0.00     0.116 C 
BRANCH  27  28
ATOM     28  N   UNL A   1      39.826  19.745  25.741  1.00  0.00    -0.352 N 
ATOM     29  C   UNL A   1      41.179  19.780  25.983  1.00  0.00     0.251 C 
ATOM     30  H   UNL A   1      39.470  18.903  25.373  1.00  0.00     0.163 HD
ATOM     31  O   UNL A   1      41.901  18.833  25.691  1.00  0.00    -0.269 OA
BRANCH  29  32
ATOM     32  C   UNL A   1      41.753  21.015  26.547  1.00  0.00     0.039 A 
ATOM     33  C   UNL A   1      42.235  21.994  25.677  1.00  0.00     0.014 A 
ATOM     34  C   UNL A   1      41.694  21.248  27.923  1.00  0.00     0.014 A 
ATOM     35  C   UNL A   1      42.580  23.247  26.183  1.00  0.00     0.010 A 
ATOM     36  C   UNL A   1      41.944  22.522  28.409  1.00  0.00     0.010 A 
ATOM     37  C   UNL A   1      42.392  23.532  27.545  1.00  0.00    -0.014 A 
BRANCH  37  38
ATOM     38  C   UNL A   1      42.667  24.879  28.098  1.00  0.00     0.031 A 
ATOM     39  C   UNL A   1      44.056  25.224  28.554  1.00  0.00     0.074 A 
ATOM     40  C   UNL A   1      41.656  25.751  28.275  1.00  0.00     0.049 A 
ATOM     41  N   UNL A   1      44.487  26.307  29.147  1.00  0.00    -0.248 NA
ATOM     42  C   UNL A   1      45.091  24.196  28.356  1.00  0.00     0.031 C 
ATOM     43  C   UNL A   1      40.250  25.501  27.945  1.00  0.00     0.029 A 
ATOM     44  N   UNL A   1      41.655  27.021  28.791  1.00  0.00    -0.354 N 
ATOM     45  C   UNL A   1      45.828  26.076  29.420  1.00  0.00     0.074 A 
ATOM     46  C   UNL A   1      46.127  24.732  28.980  1.00  0.00     0.031 C 
ATOM     47  C   UNL A   1      39.528  26.594  28.245  1.00  0.00     0.029 A 
ATOM     48  C   UNL A   1      40.412  27.607  28.811  1.00  0.00     0.049 A 
ATOM     49  H   UNL A   1      42.468  27.471  29.117  1.00  0.00     0.167 HD
ATOM     50  C   UNL A   1      46.737  26.918  29.964  1.00  0.00     0.037 A 
ATOM     51  C   UNL A   1      40.034  28.827  29.236  1.00  0.00     0.037 A 
ATOM     52  C   UNL A   1      46.447  28.273  30.348  1.00  0.00     0.049 A 
ATOM     53  C   UNL A   1      41.071  29.768  29.779  1.00  0.00     0.074 A 
ATOM     54  C   UNL A   1      47.317  29.240  30.819  1.00  0.00     0.029 A 
ATOM     55  N   UNL A   1      45.188  28.851  30.298  1.00  0.00    -0.354 N 
ATOM     56  N   UNL A   1      42.355  29.568  29.955  1.00  0.00    -0.248 NA
ATOM     57  C   UNL A   1      40.611  31.106  30.175  1.00  0.00     0.031 C 
ATOM     58  C   UNL A   1      46.576  30.398  31.082  1.00  0.00     0.029 A 
ATOM     59  C   UNL A   1      45.253  30.161  30.742  1.00  0.00     0.049 A 
ATOM     60  H   UNL A   1      44.370  28.399  29.992  1.00  0.00     0.167 HD
ATOM     61  C   UNL A   1      42.860  30.758  30.460  1.00  0.00     0.074 A 
ATOM     62  C   UNL A   1      41.746  31.680  30.551  1.00  0.00     0.031 C 
ATOM     63  C   UNL A   1      44.132  31.061  30.818  1.00  0.00     0.037 A 
BRANCH  50  64
ATOM     64  C   UNL A   1      48.127  26.393  30.159  1.00  0.00     0.057 A 
ATOM     65  C   UNL A   1      49.089  26.451  29.140  1.00  0.00     0.134 A 
ATOM     66  C   UNL A   1      48.510  25.820  31.377  1.00  0.00     0.134 A 
ATOM     67  F   UNL A   1      48.779  26.973  27.943  1.00  0.00    -0.206 F 
ATOM     68  C   UNL A   1      50.371  25.929  29.316  1.00  0.00     0.040 A 
ATOM     69  C   UNL A   1      49.798  25.317  31.573  1.00  0.00     0.040 A 
ATOM     70  F   UNL A   1      47.640  25.733  32.394  1.00  0.00    -0.206 F 
ATOM     71  C   UNL A   1      50.730  25.364  30.538  1.00  0.00     0.006 A 
ENDBRANCH  50  64
BRANCH  51  72
ATOM     72  C   UNL A   1      38.614  29.241  29.122  1.00  0.00     0.057 A 
ATOM     73  C   UNL A   1      37.761  29.192  30.229  1.00  0.00     0.134 A 
ATOM     74  C   UNL A   1      38.081  29.706  27.914  1.00  0.00     0.134 A 
ATOM     75  F   UNL A   1      38.212  28.742  31.409  1.00  0.00    -0.206 F 
ATOM     76  C   UNL A   1      36.422  29.578  30.139  1.00  0.00     0.040 A 
ATOM     77  C   UNL A   1      36.750  30.113  27.814  1.00  0.00     0.040 A 
ATOM     78  F   UNL A   1      38.852  29.784  26.819  1.00  0.00    -0.206 F 
ATOM     79  C   UNL A   1      35.914  30.044  28.928  1.00  0.00     0.006 A 
ENDBRANCH  51  72
BRANCH  63  80
ATOM     80  C   UNL A   1      44.388  32.450  31.317  1.00  0.00     0.057 A 
ATOM     81  C   UNL A   1      44.673  33.505  30.441  1.00  0.00     0.134 A 
ATOM     82  C   UNL A   1      44.303  32.743  32.683  1.00  0.00     0.134 A 
ATOM     83  F   UNL A   1      44.780  33.285  29.123  1.00  0.00    -0.206 F 
ATOM     84  C   UNL A   1      44.879  34.803  30.912  1.00  0.00     0.040 A 
ATOM     85  C   UNL A   1      44.486  34.040  33.163  1.00  0.00     0.040 A 
ATOM     86  F   UNL A   1      44.026  31.776  33.571  1.00  0.00    -0.206 F 
ATOM     87  C   UNL A   1      44.779  35.073  32.276  1.00  0.00     0.006 A 
ENDBRANCH  63  80
ENDBRANCH  37  38
ENDBRANCH  29  32
ENDBRANCH  27  28
ENDBRANCH  26  27
ENDBRANCH   1  26
TORSDOF 16
ENDMDL
MODEL 2
REMARK VINA RESULT:     -10.6      3.828      9.231
REMARK SMILES CC(C)[NH2+][C@]1(C(=O)NCCCCNC(=O)c2ccc(-c3c4nc(c(-c5c(F)cccc5F)c5ccc([nH]5)c(-c5c(F)cccc5F)c5nc(c(-c6c(F)cccc6F)c6ccc3[nH]6)C=C5)C=C4)cc2)CC[C@@H]([N@@H+](C)[C@@H](C)C(C)C)C1
REMARK SMILES IDX 10 1 9 2 8 3 6 4 7 5 5 7 70 8 80 9 71 10 72 11 4 12 2 15
REMARK SMILES IDX 1 16 3 17 73 18 74 19 75 21 76 22 77 23 78 24 79 25 11 26
REMARK SMILES IDX 12 27 13 28 14 29 15 31 16 32 17 33 69 34 18 35 68 36 19 37
REMARK SMILES IDX 20 38 21 39 62 40 22 41 67 42 61 43 63 44 23 45 66 46 60 47
REMARK SMILES IDX 59 48 24 50 50 51 33 52 49 53 34 54 37 55 48 56 64 57 35 58
REMARK SMILES IDX 36 59 47 61 65 62 38 63 25 64 26 65 31 66 27 67 28 68 30 69
REMARK SMILES IDX 32 70 29 71 51 72 52 73 57 74 53 75 54 76 56 77 58 78 55 79
REMARK SMILES IDX 39 80 40 81 45 82 41 83 42 84 44 85 46 86 43 87
REMARK H PARENT 8 6 4 13 4 14 73 20 13 30 63 49 37 60
REMARK Flexibility Score: inf
ROOT
ATOM      1  C   UNL A   1      31.781  30.648  26.017  1.00  0.00     0.023 C 
ENDROOT
BRANCH   1   2
ATOM      2  C   UNL A   1      33.063  29.823  25.821  1.00  0.00     0.116 C 
BRANCH   2   3
ATOM      3  N   UNL A   1      33.330  29.683  24.403  1.00  0.00    -0.351 N 
ATOM      4  C   UNL A   1      33.540  28.560  23.655  1.00  0.00     0.281 C 
ATOM      5  O   UNL A   1      34.221  28.741  22.638  1.00  0.00    -0.268 OA
ATOM      6  H   UNL A   1      33.365  30.530  23.902  1.00  0.00     0.163 HD
BRANCH   4   7
ATOM      7  C   UNL A   1      32.859  27.181  23.955  1.00  0.00     0.181 C 
ATOM      8  C   UNL A   1      32.922  26.359  22.643  1.00  0.00     0.085 C 
ATOM      9  C   UNL A   1      33.709  26.309  24.918  1.00  0.00     0.144 C 
ATOM     10  C   UNL A   1      32.951  24.897  23.064  1.00  0.00     0.072 C 
ATOM     11  C   UNL A   1      33.744  24.870  24.371  1.00  0.00     0.191 C 
BRANCH   7  12
ATOM     12  N   UNL A   1      31.447  27.234  24.415  1.00  0.00    -0.331 N 
ATOM     13  H   UNL A   1      31.267  26.370  24.926  1.00  0.00     0.347 HD
ATOM     14  H   UNL A   1      31.396  28.099  24.954  1.00  0.00     0.347 HD
BRANCH  12  15
ATOM     15  C   UNL A   1      30.387  27.374  23.417  1.00  0.00     0.176 C 
ATOM     16  C   UNL A   1      29.188  26.549  23.894  1.00  0.00     0.075 C 
ATOM     17  C   UNL A   1      29.945  28.779  23.032  1.00  0.00     0.075 C 
ENDBRANCH  12  15
ENDBRANCH   7  12
BRANCH  11  18
ATOM     18  N   UNL A   1      35.053  24.192  24.442  1.00  0.00    -0.332 N 
ATOM     19  C   UNL A   1      35.631  24.321  25.787  1.00  0.00     0.333 C 
ATOM     20  H   UNL A   1      35.549  24.725  23.727  1.00  0.00     0.348 HD
BRANCH  18  21
ATOM     21  C   UNL A   1      35.281  22.832  23.883  1.00  0.00     0.183 C 
ATOM     22  C   UNL A   1      36.640  22.635  23.192  1.00  0.00     0.075 C 
BRANCH  21  23
ATOM     23  C   UNL A   1      34.934  21.655  24.848  1.00  0.00     0.041 C 
ATOM     24  C   UNL A   1      33.644  20.935  24.419  1.00  0.00     0.013 C 
ATOM     25  C   UNL A   1      36.045  20.599  24.951  1.00  0.00     0.013 C 
ENDBRANCH  21  23
ENDBRANCH  18  21
ENDBRANCH  11  18
ENDBRANCH   4   7
ENDBRANCH   2   3
ENDBRANCH   1   2
BRANCH   1  26
ATOM     26  C   UNL A   1      31.770  31.588  27.215  1.00  0.00     0.023 C 
BRANCH  26  27
ATOM     27  C   UNL A   1      32.872  32.628  27.209  1.00  0.00     0.116 C 
BRANCH  27  28
ATOM     28  N   UNL A   1      32.424  33.969  27.561  1.00  0.00    -0.352 N 
ATOM     29  C   UNL A   1      32.985  34.825  28.481  1.00  0.00     0.251 C 
ATOM     30  H   UNL A   1      31.628  34.302  27.085  1.00  0.00     0.163 HD
ATOM     31  O   UNL A   1      32.474  35.911  28.732  1.00  0.00    -0.269 OA
BRANCH  29  32
ATOM     32  C   UNL A   1      34.187  34.375  29.206  1.00  0.00     0.039 A 
ATOM     33  C   UNL A   1      34.030  33.642  30.383  1.00  0.00     0.014 A 
ATOM     34  C   UNL A   1      35.454  34.572  28.650  1.00  0.00     0.014 A 
ATOM     35  C   UNL A   1      35.143  33.032  30.960  1.00  0.00     0.010 A 
ATOM     36  C   UNL A   1      36.539  33.885  29.170  1.00  0.00     0.010 A 
ATOM     37  C   UNL A   1      36.395  33.111  30.331  1.00  0.00    -0.014 A 
BRANCH  37  38
ATOM     38  C   UNL A   1      37.579  32.402  30.871  1.00  0.00     0.031 A 
ATOM     39  C   UNL A   1      38.247  32.915  32.115  1.00  0.00     0.074 A 
ATOM     40  C   UNL A   1      38.103  31.361  30.197  1.00  0.00     0.049 A 
ATOM     41  N   UNL A   1      39.341  32.498  32.698  1.00  0.00    -0.248 NA
ATOM     42  C   UNL A   1      37.626  34.081  32.765  1.00  0.00     0.031 C 
ATOM     43  C   UNL A   1      37.591  30.820  28.935  1.00  0.00     0.029 A 
ATOM     44  N   UNL A   1      39.195  30.579  30.473  1.00  0.00    -0.354 N 
ATOM     45  C   UNL A   1      39.554  33.369  33.759  1.00  0.00     0.074 A 
ATOM     46  C   UNL A   1      38.511  34.368  33.706  1.00  0.00     0.031 C 
ATOM     47  C   UNL A   1      38.354  29.780  28.561  1.00  0.00     0.029 A 
ATOM     48  C   UNL A   1      39.422  29.598  29.538  1.00  0.00     0.049 A 
ATOM     49  H   UNL A   1      39.764  30.709  31.266  1.00  0.00     0.167 HD
ATOM     50  C   UNL A   1      40.518  33.323  34.707  1.00  0.00     0.037 A 
ATOM     51  C   UNL A   1      40.383  28.657  29.481  1.00  0.00     0.037 A 
ATOM     52  C   UNL A   1      41.519  32.295  34.787  1.00  0.00     0.049 A 
ATOM     53  C   UNL A   1      41.406  28.588  30.580  1.00  0.00     0.074 A 
ATOM     54  C   UNL A   1      42.481  32.103  35.762  1.00  0.00     0.029 A 
ATOM     55  N   UNL A   1      41.681  31.283  33.854  1.00  0.00    -0.354 N 
ATOM     56  N   UNL A   1      41.548  29.366  31.625  1.00  0.00    -0.248 NA
ATOM     57  C   UNL A   1      42.397  27.507  30.496  1.00  0.00     0.031 C 
ATOM     58  C   UNL A   1      43.245  30.986  35.402  1.00  0.00     0.029 A 
ATOM     59  C   UNL A   1      42.737  30.467  34.223  1.00  0.00     0.049 A 
ATOM     60  H   UNL A   1      41.127  31.161  33.050  1.00  0.00     0.167 HD
ATOM     61  C   UNL A   1      42.626  28.858  32.335  1.00  0.00     0.074 A 
ATOM     62  C   UNL A   1      43.095  27.696  31.607  1.00  0.00     0.031 C 
ATOM     63  C   UNL A   1      43.181  29.312  33.486  1.00  0.00     0.037 A 
BRANCH  50  64
ATOM     64  C   UNL A   1      40.516  34.413  35.737  1.00  0.00     0.057 A 
ATOM     65  C   UNL A   1      41.279  35.579  35.580  1.00  0.00     0.134 A 
ATOM     66  C   UNL A   1      39.746  34.297  36.899  1.00  0.00     0.134 A 
ATOM     67  F   UNL A   1      42.053  35.743  34.496  1.00  0.00    -0.206 F 
ATOM     68  C   UNL A   1      41.301  36.574  36.558  1.00  0.00     0.040 A 
ATOM     69  C   UNL A   1      39.739  35.298  37.873  1.00  0.00     0.040 A 
ATOM     70  F   UNL A   1      38.992  33.208  37.112  1.00  0.00    -0.206 F 
ATOM     71  C   UNL A   1      40.525  36.437  37.707  1.00  0.00     0.006 A 
ENDBRANCH  50  64
BRANCH  51  72
ATOM     72  C   UNL A   1      40.394  27.679  28.366  1.00  0.00     0.057 A 
ATOM     73  C   UNL A   1      41.094  27.945  27.185  1.00  0.00     0.134 A 
ATOM     74  C   UNL A   1      39.720  26.456  28.459  1.00  0.00     0.134 A 
ATOM     75  F   UNL A   1      41.746  29.107  27.034  1.00  0.00    -0.206 F 
ATOM     76  C   UNL A   1      41.114  27.035  26.126  1.00  0.00     0.040 A 
ATOM     77  C   UNL A   1      39.747  25.528  27.416  1.00  0.00     0.040 A 
ATOM     78  F   UNL A   1      39.039  26.140  29.570  1.00  0.00    -0.206 F 
ATOM     79  C   UNL A   1      40.442  25.820  26.243  1.00  0.00     0.006 A 
ENDBRANCH  51  72
BRANCH  63  80
ATOM     80  C   UNL A   1      44.338  28.538  34.038  1.00  0.00     0.057 A 
ATOM     81  C   UNL A   1      44.151  27.442  34.888  1.00  0.00     0.134 A 
ATOM     82  C   UNL A   1      45.651  28.865  33.677  1.00  0.00     0.134 A 
ATOM     83  F   UNL A   1      42.918  27.087  35.279  1.00  0.00    -0.206 F 
ATOM     84  C   UNL A   1      45.233  26.706  35.373  1.00  0.00     0.040 A 
ATOM     85  C   UNL A   1      46.739  28.124  34.138  1.00  0.00     0.040 A 
ATOM     86  F   UNL A   1      45.894  29.900  32.859  1.00  0.00    -0.206 F 
ATOM     87  C   UNL A   1      46.531  27.043  34.992  1.00  0.00     0.006 A 
ENDBRANCH  63  80
ENDBRANCH  37  38
ENDBRANCH  29  32
ENDBRANCH  27  28
ENDBRANCH  26  27
ENDBRANCH   1  26
TORSDOF 16
ENDMDL
MODEL 3
REMARK VINA RESULT:     -10.6      4.065      9.361
REMARK SMILES CC(C)[NH2+][C@]1(C(=O)NCCCCNC(=O)c2ccc(-c3c4nc(c(-c5c(F)cccc5F)c5ccc([nH]5)c(-c5c(F)cccc5F)c5nc(c(-c6c(F)cccc6F)c6ccc3[nH]6)C=C5)C=C4)cc2)CC[C@@H]([N@@H+](C)[C@@H](C)C(C)C)C1
REMARK SMILES IDX 10 1 9 2 8 3 6 4 7 5 5 7 70 8 80 9 71 10 72 11 4 12 2 15
REMARK SMILES IDX 1 16 3 17 73 18 74 19 75 21 76 22 77 23 78 24 79 25 11 26
REMARK SMILES IDX 12 27 13 28 14 29 15 31 16 32 17 33 69 34 18 35 68 36 19 37
REMARK SMILES IDX 20 38 21 39 62 40 22 41 67 42 61 43 63 44 23 45 66 46 60 47
REMARK SMILES IDX 59 48 24 50 50 51 33 52 49 53 34 54 37 55 48 56 64 57 35 58
REMARK SMILES IDX 36 59 47 61 65 62 38 63 25 64 26 65 31 66 27 67 28 68 30 69
REMARK SMILES IDX 32 70 29 71 51 72 52 73 57 74 53 75 54 76 56 77 58 78 55 79
REMARK SMILES IDX 39 80 40 81 45 82 41 83 42 84 44 85 46 86 43 87
REMARK H PARENT 8 6 4 13 4 14 73 20 13 30 63 49 37 60
REMARK Flexibility Score: inf
ROOT
ATOM      1  C   UNL A   1      32.146  30.808  25.983  1.00  0.00     0.023 C 
ENDROOT
BRANCH   1   2
ATOM      2  C   UNL A   1      33.173  29.889  26.664  1.00  0.00     0.116 C 
BRANCH   2   3
ATOM      3  N   UNL A   1      32.475  28.907  27.470  1.00  0.00    -0.351 N 
ATOM      4  C   UNL A   1      31.770  27.801  27.091  1.00  0.00     0.281 C 
ATOM      5  O   UNL A   1      30.893  27.452  27.891  1.00  0.00    -0.268 OA
ATOM      6  H   UNL A   1      32.515  29.062  28.442  1.00  0.00     0.163 HD
BRANCH   4   7
ATOM      7  C   UNL A   1      32.127  26.937  25.833  1.00  0.00     0.181 C 
ATOM      8  C   UNL A   1      33.552  26.376  26.068  1.00  0.00     0.085 C 
ATOM      9  C   UNL A   1      31.281  25.637  25.761  1.00  0.00     0.144 C 
ATOM     10  C   UNL A   1      33.619  25.064  25.300  1.00  0.00     0.072 C 
ATOM     11  C   UNL A   1      32.214  24.466  25.401  1.00  0.00     0.191 C 
BRANCH   7  12
ATOM     12  N   UNL A   1      32.103  27.642  24.526  1.00  0.00    -0.331 N 
ATOM     13  H   UNL A   1      32.127  28.642  24.724  1.00  0.00     0.347 HD
ATOM     14  H   UNL A   1      32.905  27.260  24.025  1.00  0.00     0.347 HD
BRANCH  12  15
ATOM     15  C   UNL A   1      30.976  27.410  23.621  1.00  0.00     0.176 C 
ATOM     16  C   UNL A   1      30.152  28.699  23.565  1.00  0.00     0.075 C 
ATOM     17  C   UNL A   1      31.277  26.910  22.215  1.00  0.00     0.075 C 
ENDBRANCH  12  15
ENDBRANCH   7  12
BRANCH  11  18
ATOM     18  N   UNL A   1      31.982  23.213  26.144  1.00  0.00    -0.332 N 
ATOM     19  C   UNL A   1      30.633  23.198  26.725  1.00  0.00     0.333 C 
ATOM     20  H   UNL A   1      32.728  23.295  26.836  1.00  0.00     0.348 HD
BRANCH  18  21
ATOM     21  C   UNL A   1      32.352  21.878  25.599  1.00  0.00     0.183 C 
ATOM     22  C   UNL A   1      32.325  21.775  24.066  1.00  0.00     0.075 C 
BRANCH  21  23
ATOM     23  C   UNL A   1      33.645  21.251  26.209  1.00  0.00     0.041 C 
ATOM     24  C   UNL A   1      34.818  21.298  25.215  1.00  0.00     0.013 C 
ATOM     25  C   UNL A   1      34.104  21.933  27.506  1.00  0.00     0.013 C 
ENDBRANCH  21  23
ENDBRANCH  18  21
ENDBRANCH  11  18
ENDBRANCH   4   7
ENDBRANCH   2   3
ENDBRANCH   1   2
BRANCH   1  26
ATOM     26  C   UNL A   1      31.664  31.995  26.806  1.00  0.00     0.023 C 
BRANCH  26  27
ATOM     27  C   UNL A   1      32.772  32.847  27.391  1.00  0.00     0.116 C 
BRANCH  27  28
ATOM     28  N   UNL A   1      32.370  34.212  27.702  1.00  0.00    -0.352 N 
ATOM     29  C   UNL A   1      32.965  35.079  28.590  1.00  0.00     0.251 C 
ATOM     30  H   UNL A   1      31.581  34.554  27.222  1.00  0.00     0.163 HD
ATOM     31  O   UNL A   1      32.490  36.188  28.810  1.00  0.00    -0.269 OA
BRANCH  29  32
ATOM     32  C   UNL A   1      34.158  34.614  29.320  1.00  0.00     0.039 A 
ATOM     33  C   UNL A   1      33.993  34.010  30.568  1.00  0.00     0.014 A 
ATOM     34  C   UNL A   1      35.415  34.665  28.712  1.00  0.00     0.014 A 
ATOM     35  C   UNL A   1      35.081  33.378  31.169  1.00  0.00     0.010 A 
ATOM     36  C   UNL A   1      36.468  33.954  29.265  1.00  0.00     0.010 A 
ATOM     37  C   UNL A   1      36.312  33.307  30.499  1.00  0.00    -0.014 A 
BRANCH  37  38
ATOM     38  C   UNL A   1      37.463  32.568  31.072  1.00  0.00     0.031 A 
ATOM     39  C   UNL A   1      38.065  33.026  32.370  1.00  0.00     0.074 A 
ATOM     40  C   UNL A   1      38.018  31.553  30.384  1.00  0.00     0.049 A 
ATOM     41  N   UNL A   1      39.125  32.579  32.992  1.00  0.00    -0.248 NA
ATOM     42  C   UNL A   1      37.415  34.167  33.034  1.00  0.00     0.031 C 
ATOM     43  C   UNL A   1      37.572  31.068  29.075  1.00  0.00     0.029 A 
ATOM     44  N   UNL A   1      39.091  30.754  30.684  1.00  0.00    -0.354 N 
ATOM     45  C   UNL A   1      39.284  33.403  34.099  1.00  0.00     0.074 A 
ATOM     46  C   UNL A   1      38.249  34.410  34.032  1.00  0.00     0.031 C 
ATOM     47  C   UNL A   1      38.350  30.040  28.699  1.00  0.00     0.029 A 
ATOM     48  C   UNL A   1      39.364  29.811  29.723  1.00  0.00     0.049 A 
ATOM     49  H   UNL A   1      39.617  30.848  31.512  1.00  0.00     0.167 HD
ATOM     50  C   UNL A   1      40.195  33.313  35.095  1.00  0.00     0.037 A 
ATOM     51  C   UNL A   1      40.323  28.869  29.678  1.00  0.00     0.037 A 
ATOM     52  C   UNL A   1      41.187  32.276  35.184  1.00  0.00     0.049 A 
ATOM     53  C   UNL A   1      41.285  28.748  30.826  1.00  0.00     0.074 A 
ATOM     54  C   UNL A   1      42.095  32.037  36.200  1.00  0.00     0.029 A 
ATOM     55  N   UNL A   1      41.395  31.302  34.220  1.00  0.00    -0.354 N 
ATOM     56  N   UNL A   1      41.374  29.481  31.909  1.00  0.00    -0.248 NA
ATOM     57  C   UNL A   1      42.275  27.665  30.750  1.00  0.00     0.031 C 
ATOM     58  C   UNL A   1      42.873  30.932  35.836  1.00  0.00     0.029 A 
ATOM     59  C   UNL A   1      42.426  30.465  34.610  1.00  0.00     0.049 A 
ATOM     60  H   UNL A   1      40.884  31.218  33.383  1.00  0.00     0.167 HD
ATOM     61  C   UNL A   1      42.411  28.936  32.654  1.00  0.00     0.074 A 
ATOM     62  C   UNL A   1      42.914  27.803  31.904  1.00  0.00     0.031 C 
ATOM     63  C   UNL A   1      42.905  29.339  33.850  1.00  0.00     0.037 A 
BRANCH  50  64
ATOM     64  C   UNL A   1      40.143  34.359  36.167  1.00  0.00     0.057 A 
ATOM     65  C   UNL A   1      39.345  34.206  37.310  1.00  0.00     0.134 A 
ATOM     66  C   UNL A   1      40.897  35.533  36.057  1.00  0.00     0.134 A 
ATOM     67  F   UNL A   1      38.585  33.112  37.466  1.00  0.00    -0.206 F 
ATOM     68  C   UNL A   1      39.274  35.199  38.288  1.00  0.00     0.040 A 
ATOM     69  C   UNL A   1      40.854  36.521  37.042  1.00  0.00     0.040 A 
ATOM     70  F   UNL A   1      41.682  35.741  34.991  1.00  0.00    -0.206 F 
ATOM     71  C   UNL A   1      40.034  36.359  38.157  1.00  0.00     0.006 A 
ENDBRANCH  50  64
BRANCH  51  72
ATOM     72  C   UNL A   1      40.390  27.937  28.526  1.00  0.00     0.057 A 
ATOM     73  C   UNL A   1      41.118  28.267  27.378  1.00  0.00     0.134 A 
ATOM     74  C   UNL A   1      39.744  26.696  28.549  1.00  0.00     0.134 A 
ATOM     75  F   UNL A   1      41.746  29.449  27.293  1.00  0.00    -0.206 F 
ATOM     76  C   UNL A   1      41.190  27.402  26.284  1.00  0.00     0.040 A 
ATOM     77  C   UNL A   1      39.824  25.813  27.470  1.00  0.00     0.040 A 
ATOM     78  F   UNL A   1      39.038  26.319  29.625  1.00  0.00    -0.206 F 
ATOM     79  C   UNL A   1      40.545  26.168  26.331  1.00  0.00     0.006 A 
ENDBRANCH  51  72
BRANCH  63  80
ATOM     80  C   UNL A   1      44.028  28.536  34.430  1.00  0.00     0.057 A 
ATOM     81  C   UNL A   1      45.367  28.869  34.196  1.00  0.00     0.134 A 
ATOM     82  C   UNL A   1      43.765  27.447  35.271  1.00  0.00     0.134 A 
ATOM     83  F   UNL A   1      45.683  29.893  33.390  1.00  0.00    -0.206 F 
ATOM     84  C   UNL A   1      46.408  28.134  34.766  1.00  0.00     0.040 A 
ATOM     85  C   UNL A   1      44.797  26.719  35.863  1.00  0.00     0.040 A 
ATOM     86  F   UNL A   1      42.502  27.084  35.539  1.00  0.00    -0.206 F 
ATOM     87  C   UNL A   1      46.123  27.060  35.608  1.00  0.00     0.006 A 
ENDBRANCH  63  80
ENDBRANCH  37  38
ENDBRANCH  29  32
ENDBRANCH  27  28
ENDBRANCH  26  27
ENDBRANCH   1  26
TORSDOF 16
ENDMDL
