MODEL 1
REMARK VINA RESULT:     -11.3      0.000      0.000
REMARK SMILES CC(C)C[C@H](NC(=O)[C@@H](NC(=O)[C@H](C)NC(=O)CNC(=O)OCc1ccccc1)C(C)C)C(=O)NCCCCNC(=O)c1ccc(-c2c3nc(c(-c4c(F)cccc4F)c4ccc([nH]4)c(-c4c(F)cccc4F)c4nc(c(-c5c(F)cccc5F)c5ccc2[nH]5)C=C4)C=C3)cc1
REMARK SMILES IDX 6 1 7 2 8 3 5 5 4 6 2 7 1 8 3 9 33 10 34 11 35 12 36 14
REMARK SMILES IDX 37 15 38 16 39 17 40 18 41 19 42 21 43 22 44 23 96 24 45 25
REMARK SMILES IDX 95 26 46 27 47 28 48 29 89 30 49 31 94 32 88 33 90 34 50 35
REMARK SMILES IDX 93 36 87 37 86 38 51 40 77 41 60 42 76 43 61 44 64 45 75 46
REMARK SMILES IDX 91 47 62 48 63 49 74 51 92 52 65 53 52 54 53 55 58 56 54 57
REMARK SMILES IDX 55 58 57 59 59 60 56 61 78 62 79 63 84 64 80 65 81 66 83 67
REMARK SMILES IDX 85 68 82 69 66 70 67 71 72 72 68 73 69 74 71 75 73 76 70 77
REMARK SMILES IDX 9 78 10 79 11 80 12 82 13 83 14 84 15 85 16 86 17 88 18 89
REMARK SMILES IDX 19 90 20 91 21 93 22 94 23 95 24 96 25 97 29 98 26 99 28 100
REMARK SMILES IDX 27 101 30 102 31 103 32 104
REMARK H PARENT 6 4 35 13 40 20 90 39 64 50 10 81 15 87 19 92
REMARK Flexibility Score: inf
ROOT
ATOM      1  N   UNL A   1      33.876  22.304  24.056  1.00  0.00    -0.343 N 
ATOM      2  C   UNL A   1      33.702  23.330  23.184  1.00  0.00     0.243 C 
ATOM      3  O   UNL A   1      34.478  23.349  22.220  1.00  0.00    -0.273 OA
ATOM      4  H   UNL A   1      34.677  21.759  23.878  1.00  0.00     0.164 HD
ENDROOT
BRANCH   1   5
ATOM      5  C   UNL A   1      33.100  21.855  25.215  1.00  0.00     0.171 C 
BRANCH   5   6
ATOM      6  C   UNL A   1      32.203  20.657  24.838  1.00  0.00     0.038 C 
BRANCH   6   7
ATOM      7  C   UNL A   1      32.961  19.355  24.511  1.00  0.00    -0.015 C 
ATOM      8  C   UNL A   1      32.694  18.284  25.561  1.00  0.00     0.007 C 
ATOM      9  C   UNL A   1      32.539  18.819  23.141  1.00  0.00     0.007 C 
ENDBRANCH   6   7
ENDBRANCH   5   6
BRANCH   5  10
ATOM     10  C   UNL A   1      34.038  21.548  26.396  1.00  0.00     0.242 C 
ATOM     11  O   UNL A   1      33.620  21.599  27.557  1.00  0.00    -0.273 OA
ATOM     12  N   UNL A   1      35.330  21.175  26.237  1.00  0.00    -0.354 N 
ATOM     13  H   UNL A   1      35.797  20.977  27.082  1.00  0.00     0.163 HD
BRANCH  12  14
ATOM     14  C   UNL A   1      36.154  21.012  25.058  1.00  0.00     0.116 C 
BRANCH  14  15
ATOM     15  C   UNL A   1      36.658  19.578  24.933  1.00  0.00     0.023 C 
BRANCH  15  16
ATOM     16  C   UNL A   1      38.172  19.441  24.752  1.00  0.00     0.023 C 
BRANCH  16  17
ATOM     17  C   UNL A   1      39.018  19.969  25.904  1.00  0.00     0.116 C 
BRANCH  17  18
ATOM     18  N   UNL A   1      40.261  19.236  26.080  1.00  0.00    -0.352 N 
ATOM     19  C   UNL A   1      41.505  19.712  26.409  1.00  0.00     0.251 C 
ATOM     20  H   UNL A   1      40.201  18.263  25.945  1.00  0.00     0.163 HD
ATOM     21  O   UNL A   1      42.475  18.962  26.419  1.00  0.00    -0.269 OA
BRANCH  19  22
ATOM     22  C   UNL A   1      41.671  21.145  26.711  1.00  0.00     0.039 A 
ATOM     23  C   UNL A   1      42.100  21.513  27.989  1.00  0.00     0.014 A 
ATOM     24  C   UNL A   1      41.446  22.113  25.729  1.00  0.00     0.014 A 
ATOM     25  C   UNL A   1      42.366  22.854  28.264  1.00  0.00     0.010 A 
ATOM     26  C   UNL A   1      41.774  23.440  25.984  1.00  0.00     0.010 A 
ATOM     27  C   UNL A   1      42.238  23.821  27.253  1.00  0.00    -0.014 A 
BRANCH  27  28
ATOM     28  C   UNL A   1      42.585  25.240  27.508  1.00  0.00     0.031 A 
ATOM     29  C   UNL A   1      43.930  25.768  27.097  1.00  0.00     0.074 A 
ATOM     30  C   UNL A   1      41.715  26.031  28.163  1.00  0.00     0.049 A 
ATOM     31  N   UNL A   1      44.446  26.954  27.292  1.00  0.00    -0.248 NA
ATOM     32  C   UNL A   1      44.822  24.831  26.397  1.00  0.00     0.031 C 
ATOM     33  C   UNL A   1      40.401  25.617  28.658  1.00  0.00     0.029 A 
ATOM     34  N   UNL A   1      41.812  27.347  28.537  1.00  0.00    -0.354 N 
ATOM     35  C   UNL A   1      45.725  26.900  26.755  1.00  0.00     0.074 A 
ATOM     36  C   UNL A   1      45.927  25.552  26.270  1.00  0.00     0.031 C 
ATOM     37  C   UNL A   1      39.806  26.664  29.254  1.00  0.00     0.029 A 
ATOM     38  C   UNL A   1      40.708  27.810  29.210  1.00  0.00     0.049 A 
ATOM     39  H   UNL A   1      42.597  27.907  28.342  1.00  0.00     0.167 HD
ATOM     40  C   UNL A   1      46.642  27.892  26.655  1.00  0.00     0.037 A 
ATOM     41  C   UNL A   1      40.455  29.023  29.737  1.00  0.00     0.037 A 
ATOM     42  C   UNL A   1      46.427  29.239  27.111  1.00  0.00     0.049 A 
ATOM     43  C   UNL A   1      41.483  30.110  29.599  1.00  0.00     0.074 A 
ATOM     44  C   UNL A   1      47.271  30.331  27.004  1.00  0.00     0.029 A 
ATOM     45  N   UNL A   1      45.284  29.678  27.759  1.00  0.00    -0.354 N 
ATOM     46  N   UNL A   1      42.665  30.063  29.034  1.00  0.00    -0.248 NA
ATOM     47  C   UNL A   1      41.139  31.423  30.165  1.00  0.00     0.031 C 
ATOM     48  C   UNL A   1      46.650  31.424  27.615  1.00  0.00     0.029 A 
ATOM     49  C   UNL A   1      45.404  31.023  28.070  1.00  0.00     0.049 A 
ATOM     50  H   UNL A   1      44.501  29.118  27.968  1.00  0.00     0.167 HD
ATOM     51  C   UNL A   1      43.195  31.341  29.154  1.00  0.00     0.074 A 
ATOM     52  C   UNL A   1      42.200  32.145  29.833  1.00  0.00     0.031 C 
ATOM     53  C   UNL A   1      44.398  31.806  28.739  1.00  0.00     0.037 A 
BRANCH  40  54
ATOM     54  C   UNL A   1      47.955  27.553  26.015  1.00  0.00     0.057 A 
ATOM     55  C   UNL A   1      48.116  27.545  24.624  1.00  0.00     0.134 A 
ATOM     56  C   UNL A   1      49.078  27.255  26.798  1.00  0.00     0.134 A 
ATOM     57  F   UNL A   1      47.076  27.807  23.817  1.00  0.00    -0.206 F 
ATOM     58  C   UNL A   1      49.340  27.229  24.032  1.00  0.00     0.040 A 
ATOM     59  C   UNL A   1      50.313  26.962  26.219  1.00  0.00     0.040 A 
ATOM     60  F   UNL A   1      48.993  27.248  28.136  1.00  0.00    -0.206 F 
ATOM     61  C   UNL A   1      50.445  26.942  24.831  1.00  0.00     0.006 A 
ENDBRANCH  40  54
BRANCH  41  62
ATOM     62  C   UNL A   1      39.164  29.281  30.420  1.00  0.00     0.057 A 
ATOM     63  C   UNL A   1      38.085  29.846  29.731  1.00  0.00     0.134 A 
ATOM     64  C   UNL A   1      38.978  28.977  31.774  1.00  0.00     0.134 A 
ATOM     65  F   UNL A   1      38.209  30.174  28.437  1.00  0.00    -0.206 F 
ATOM     66  C   UNL A   1      36.872  30.117  30.366  1.00  0.00     0.040 A 
ATOM     67  C   UNL A   1      37.764  29.222  32.417  1.00  0.00     0.040 A 
ATOM     68  F   UNL A   1      39.973  28.428  32.487  1.00  0.00    -0.206 F 
ATOM     69  C   UNL A   1      36.708  29.799  31.714  1.00  0.00     0.006 A 
ENDBRANCH  41  62
BRANCH  53  70
ATOM     70  C   UNL A   1      44.690  33.257  28.982  1.00  0.00     0.057 A 
ATOM     71  C   UNL A   1      44.328  34.246  28.059  1.00  0.00     0.134 A 
ATOM     72  C   UNL A   1      45.303  33.670  30.170  1.00  0.00     0.134 A 
ATOM     73  F   UNL A   1      43.749  33.911  26.896  1.00  0.00    -0.206 F 
ATOM     74  C   UNL A   1      44.584  35.595  28.303  1.00  0.00     0.040 A 
ATOM     75  C   UNL A   1      45.544  35.018  30.436  1.00  0.00     0.040 A 
ATOM     76  F   UNL A   1      45.668  32.771  31.097  1.00  0.00    -0.206 F 
ATOM     77  C   UNL A   1      45.188  35.985  29.498  1.00  0.00     0.006 A 
ENDBRANCH  53  70
ENDBRANCH  27  28
ENDBRANCH  19  22
ENDBRANCH  17  18
ENDBRANCH  16  17
ENDBRANCH  15  16
ENDBRANCH  14  15
ENDBRANCH  12  14
ENDBRANCH   5  10
ENDBRANCH   1   5
BRANCH   2  78
ATOM     78  C   UNL A   1      32.728  24.519  23.427  1.00  0.00     0.174 C 
BRANCH  78  79
ATOM     79  N   UNL A   1      32.821  25.010  24.822  1.00  0.00    -0.342 N 
ATOM     80  C   UNL A   1      31.902  25.252  25.795  1.00  0.00     0.242 C 
ATOM     81  H   UNL A   1      33.745  25.202  25.103  1.00  0.00     0.164 HD
ATOM     82  O   UNL A   1      32.135  24.682  26.871  1.00  0.00    -0.273 OA
BRANCH  80  83
ATOM     83  C   UNL A   1      30.877  26.435  25.761  1.00  0.00     0.168 C 
ATOM     84  C   UNL A   1      29.572  25.943  25.129  1.00  0.00     0.041 C 
BRANCH  83  85
ATOM     85  N   UNL A   1      31.231  27.709  25.156  1.00  0.00    -0.343 N 
ATOM     86  C   UNL A   1      31.697  28.865  25.719  1.00  0.00     0.240 C 
ATOM     87  H   UNL A   1      31.118  27.746  24.179  1.00  0.00     0.164 HD
ATOM     88  O   UNL A   1      31.883  29.829  24.973  1.00  0.00    -0.273 OA
BRANCH  86  89
ATOM     89  C   UNL A   1      31.858  28.982  27.232  1.00  0.00     0.219 C 
BRANCH  89  90
ATOM     90  N   UNL A   1      33.232  28.647  27.545  1.00  0.00    -0.312 N 
ATOM     91  C   UNL A   1      34.286  29.500  27.468  1.00  0.00     0.407 C 
ATOM     92  H   UNL A   1      33.418  27.725  27.838  1.00  0.00     0.167 HD
ATOM     93  O   UNL A   1      35.430  29.075  27.368  1.00  0.00    -0.225 OA
BRANCH  91  94
ATOM     94  O   UNL A   1      33.913  30.802  27.467  1.00  0.00    -0.445 OA
BRANCH  94  95
ATOM     95  C   UNL A   1      34.936  31.744  27.812  1.00  0.00     0.270 C 
BRANCH  95  96
ATOM     96  C   UNL A   1      34.415  32.906  28.616  1.00  0.00    -0.011 A 
ATOM     97  C   UNL A   1      34.851  33.127  29.927  1.00  0.00     0.007 A 
ATOM     98  C   UNL A   1      33.507  33.802  28.036  1.00  0.00     0.007 A 
ATOM     99  C   UNL A   1      34.384  34.228  30.646  1.00  0.00     0.000 A 
ATOM    100  C   UNL A   1      33.048  34.905  28.750  1.00  0.00     0.000 A 
ATOM    101  C   UNL A   1      33.485  35.118  30.056  1.00  0.00     0.000 A 
ENDBRANCH  95  96
ENDBRANCH  94  95
ENDBRANCH  91  94
ENDBRANCH  89  90
ENDBRANCH  86  89
ENDBRANCH  83  85
ENDBRANCH  80  83
ENDBRANCH  78  79
BRANCH  78 102
ATOM    102  C   UNL A   1      32.757  25.550  22.279  1.00  0.00     0.015 C 
ATOM    103  C   UNL A   1      31.383  26.096  21.863  1.00  0.00     0.010 C 
ATOM    104  C   UNL A   1      33.626  26.762  22.652  1.00  0.00     0.010 C 
ENDBRANCH  78 102
ENDBRANCH   2  78
TORSDOF 24
ENDMDL
MODEL 2
REMARK VINA RESULT:     -11.3      2.351      6.409
REMARK SMILES CC(C)C[C@H](NC(=O)[C@@H](NC(=O)[C@H](C)NC(=O)CNC(=O)OCc1ccccc1)C(C)C)C(=O)NCCCCNC(=O)c1ccc(-c2c3nc(c(-c4c(F)cccc4F)c4ccc([nH]4)c(-c4c(F)cccc4F)c4nc(c(-c5c(F)cccc5F)c5ccc2[nH]5)C=C4)C=C3)cc1
REMARK SMILES IDX 6 1 7 2 8 3 5 5 4 6 2 7 1 8 3 9 33 10 34 11 35 12 36 14
REMARK SMILES IDX 37 15 38 16 39 17 40 18 41 19 42 21 43 22 44 23 96 24 45 25
REMARK SMILES IDX 95 26 46 27 47 28 48 29 89 30 49 31 94 32 88 33 90 34 50 35
REMARK SMILES IDX 93 36 87 37 86 38 51 40 77 41 60 42 76 43 61 44 64 45 75 46
REMARK SMILES IDX 91 47 62 48 63 49 74 51 92 52 65 53 52 54 53 55 58 56 54 57
REMARK SMILES IDX 55 58 57 59 59 60 56 61 78 62 79 63 84 64 80 65 81 66 83 67
REMARK SMILES IDX 85 68 82 69 66 70 67 71 72 72 68 73 69 74 71 75 73 76 70 77
REMARK SMILES IDX 9 78 10 79 11 80 12 82 13 83 14 84 15 85 16 86 17 88 18 89
REMARK SMILES IDX 19 90 20 91 21 93 22 94 23 95 24 96 25 97 29 98 26 99 28 100
REMARK SMILES IDX 27 101 30 102 31 103 32 104
REMARK H PARENT 6 4 35 13 40 20 90 39 64 50 10 81 15 87 19 92
REMARK Flexibility Score: inf
ROOT
ATOM      1  N   UNL A   1      34.585  23.608  24.894  1.00  0.00    -0.343 N 
ATOM      2  C   UNL A   1      34.609  24.509  23.878  1.00  0.00     0.243 C 
ATOM      3  O   UNL A   1      35.636  24.509  23.188  1.00  0.00    -0.273 OA
ATOM      4  H   UNL A   1      35.439  23.138  25.031  1.00  0.00     0.164 HD
ENDROOT
BRANCH   1   5
ATOM      5  C   UNL A   1      33.530  23.205  25.826  1.00  0.00     0.171 C 
BRANCH   5   6
ATOM      6  C   UNL A   1      32.348  22.564  25.067  1.00  0.00     0.038 C 
BRANCH   6   7
ATOM      7  C   UNL A   1      32.746  21.505  24.019  1.00  0.00    -0.015 C 
ATOM      8  C   UNL A   1      32.301  20.113  24.449  1.00  0.00     0.007 C 
ATOM      9  C   UNL A   1      32.114  21.829  22.663  1.00  0.00     0.007 C 
ENDBRANCH   6   7
ENDBRANCH   5   6
BRANCH   5  10
ATOM     10  C   UNL A   1      34.107  22.282  26.915  1.00  0.00     0.242 C 
ATOM     11  O   UNL A   1      33.518  22.140  27.991  1.00  0.00    -0.273 OA
ATOM     12  N   UNL A   1      35.240  21.560  26.749  1.00  0.00    -0.354 N 
ATOM     13  H   UNL A   1      35.467  20.989  27.518  1.00  0.00     0.163 HD
BRANCH  12  14
ATOM     14  C   UNL A   1      36.181  21.471  25.652  1.00  0.00     0.116 C 
BRANCH  14  15
ATOM     15  C   UNL A   1      36.109  20.107  24.975  1.00  0.00     0.023 C 
BRANCH  15  16
ATOM     16  C   UNL A   1      37.432  19.339  24.931  1.00  0.00     0.023 C 
BRANCH  16  17
ATOM     17  C   UNL A   1      38.630  20.065  25.532  1.00  0.00     0.116 C 
BRANCH  17  18
ATOM     18  N   UNL A   1      39.810  19.223  25.642  1.00  0.00    -0.352 N 
ATOM     19  C   UNL A   1      41.065  19.550  26.087  1.00  0.00     0.251 C 
ATOM     20  H   UNL A   1      39.690  18.288  25.358  1.00  0.00     0.163 HD
ATOM     21  O   UNL A   1      41.980  18.736  26.020  1.00  0.00    -0.269 OA
BRANCH  19  22
ATOM     22  C   UNL A   1      41.314  20.906  26.609  1.00  0.00     0.039 A 
ATOM     23  C   UNL A   1      41.296  21.102  27.992  1.00  0.00     0.014 A 
ATOM     24  C   UNL A   1      41.603  21.963  25.742  1.00  0.00     0.014 A 
ATOM     25  C   UNL A   1      41.634  22.352  28.512  1.00  0.00     0.010 A 
ATOM     26  C   UNL A   1      42.004  23.189  26.264  1.00  0.00     0.010 A 
ATOM     27  C   UNL A   1      42.023  23.392  27.653  1.00  0.00    -0.014 A 
BRANCH  27  28
ATOM     28  C   UNL A   1      42.454  24.704  28.191  1.00  0.00     0.031 A 
ATOM     29  C   UNL A   1      41.445  25.798  28.400  1.00  0.00     0.074 A 
ATOM     30  C   UNL A   1      43.760  24.929  28.431  1.00  0.00     0.049 A 
ATOM     31  N   UNL A   1      41.634  27.030  28.793  1.00  0.00    -0.248 NA
ATOM     32  C   UNL A   1      40.044  25.468  28.100  1.00  0.00     0.031 C 
ATOM     33  C   UNL A   1      44.840  23.963  28.219  1.00  0.00     0.029 A 
ATOM     34  N   UNL A   1      44.403  26.048  28.897  1.00  0.00    -0.354 N 
ATOM     35  C   UNL A   1      40.380  27.626  28.773  1.00  0.00     0.074 A 
ATOM     36  C   UNL A   1      39.446  26.637  28.281  1.00  0.00     0.031 C 
ATOM     37  C   UNL A   1      46.008  24.525  28.570  1.00  0.00     0.029 A 
ATOM     38  C   UNL A   1      45.763  25.897  29.002  1.00  0.00     0.049 A 
ATOM     39  H   UNL A   1      43.933  26.880  29.133  1.00  0.00     0.167 HD
ATOM     40  C   UNL A   1      40.034  28.880  29.152  1.00  0.00     0.037 A 
ATOM     41  C   UNL A   1      46.708  26.771  29.399  1.00  0.00     0.037 A 
ATOM     42  C   UNL A   1      40.960  29.852  29.669  1.00  0.00     0.049 A 
ATOM     43  C   UNL A   1      46.296  28.150  29.829  1.00  0.00     0.074 A 
ATOM     44  C   UNL A   1      40.699  31.129  30.134  1.00  0.00     0.029 A 
ATOM     45  N   UNL A   1      42.326  29.651  29.791  1.00  0.00    -0.354 N 
ATOM     46  N   UNL A   1      45.098  28.682  29.863  1.00  0.00    -0.248 NA
ATOM     47  C   UNL A   1      47.366  29.051  30.283  1.00  0.00     0.031 C 
ATOM     48  C   UNL A   1      41.913  31.712  30.510  1.00  0.00     0.029 A 
ATOM     49  C   UNL A   1      42.925  30.785  30.314  1.00  0.00     0.049 A 
ATOM     50  H   UNL A   1      42.800  28.825  29.544  1.00  0.00     0.167 HD
ATOM     51  C   UNL A   1      45.265  29.966  30.363  1.00  0.00     0.074 A 
ATOM     52  C   UNL A   1      46.679  30.129  30.632  1.00  0.00     0.031 C 
ATOM     53  C   UNL A   1      44.332  30.924  30.581  1.00  0.00     0.037 A 
BRANCH  40  54
ATOM     54  C   UNL A   1      38.588  29.261  29.030  1.00  0.00     0.057 A 
ATOM     55  C   UNL A   1      38.036  29.671  27.809  1.00  0.00     0.134 A 
ATOM     56  C   UNL A   1      37.734  29.196  30.138  1.00  0.00     0.134 A 
ATOM     57  F   UNL A   1      38.805  29.770  26.714  1.00  0.00    -0.206 F 
ATOM     58  C   UNL A   1      36.690  30.025  27.699  1.00  0.00     0.040 A 
ATOM     59  C   UNL A   1      36.382  29.523  30.034  1.00  0.00     0.040 A 
ATOM     60  F   UNL A   1      38.198  28.809  31.335  1.00  0.00    -0.206 F 
ATOM     61  C   UNL A   1      35.857  29.945  28.814  1.00  0.00     0.006 A 
ENDBRANCH  40  54
BRANCH  41  62
ATOM     62  C   UNL A   1      48.133  26.359  29.435  1.00  0.00     0.057 A 
ATOM     63  C   UNL A   1      48.970  26.564  28.332  1.00  0.00     0.134 A 
ATOM     64  C   UNL A   1      48.689  25.747  30.565  1.00  0.00     0.134 A 
ATOM     65  F   UNL A   1      48.489  27.129  27.217  1.00  0.00    -0.206 F 
ATOM     66  C   UNL A   1      50.306  26.159  28.343  1.00  0.00     0.040 A 
ATOM     67  C   UNL A   1      50.029  25.357  30.598  1.00  0.00     0.040 A 
ATOM     68  F   UNL A   1      47.939  25.530  31.656  1.00  0.00    -0.206 F 
ATOM     69  C   UNL A   1      50.840  25.557  29.482  1.00  0.00     0.006 A 
ENDBRANCH  41  62
BRANCH  53  70
ATOM     70  C   UNL A   1      44.808  32.221  31.164  1.00  0.00     0.057 A 
ATOM     71  C   UNL A   1      45.192  33.297  30.353  1.00  0.00     0.134 A 
ATOM     72  C   UNL A   1      44.843  32.408  32.551  1.00  0.00     0.134 A 
ATOM     73  F   UNL A   1      45.194  33.174  29.018  1.00  0.00    -0.206 F 
ATOM     74  C   UNL A   1      45.613  34.507  30.904  1.00  0.00     0.040 A 
ATOM     75  C   UNL A   1      45.240  33.621  33.113  1.00  0.00     0.040 A 
ATOM     76  F   UNL A   1      44.480  31.418  33.381  1.00  0.00    -0.206 F 
ATOM     77  C   UNL A   1      45.631  34.674  32.289  1.00  0.00     0.006 A 
ENDBRANCH  53  70
ENDBRANCH  27  28
ENDBRANCH  19  22
ENDBRANCH  17  18
ENDBRANCH  16  17
ENDBRANCH  15  16
ENDBRANCH  14  15
ENDBRANCH  12  14
ENDBRANCH   5  10
ENDBRANCH   1   5
BRANCH   2  78
ATOM     78  C   UNL A   1      33.524  25.604  23.664  1.00  0.00     0.174 C 
BRANCH  78  79
ATOM     79  N   UNL A   1      33.759  26.769  24.548  1.00  0.00    -0.342 N 
ATOM     80  C   UNL A   1      33.466  27.035  25.850  1.00  0.00     0.242 C 
ATOM     81  H   UNL A   1      34.228  27.508  24.096  1.00  0.00     0.164 HD
ATOM     82  O   UNL A   1      34.439  27.388  26.532  1.00  0.00    -0.273 OA
BRANCH  80  83
ATOM     83  C   UNL A   1      32.019  27.294  26.389  1.00  0.00     0.168 C 
ATOM     84  C   UNL A   1      32.090  28.306  27.535  1.00  0.00     0.041 C 
BRANCH  83  85
ATOM     85  N   UNL A   1      31.169  26.188  26.801  1.00  0.00    -0.343 N 
ATOM     86  C   UNL A   1      30.146  25.559  26.149  1.00  0.00     0.240 C 
ATOM     87  H   UNL A   1      31.363  25.834  27.699  1.00  0.00     0.164 HD
ATOM     88  O   UNL A   1      29.553  24.660  26.750  1.00  0.00    -0.273 OA
BRANCH  86  89
ATOM     89  C   UNL A   1      29.685  26.042  24.777  1.00  0.00     0.219 C 
BRANCH  89  90
ATOM     90  N   UNL A   1      30.254  27.359  24.572  1.00  0.00    -0.312 N 
ATOM     91  C   UNL A   1      29.991  28.174  23.518  1.00  0.00     0.407 C 
ATOM     92  H   UNL A   1      30.885  27.690  25.252  1.00  0.00     0.167 HD
ATOM     93  O   UNL A   1      30.767  29.069  23.208  1.00  0.00    -0.225 OA
BRANCH  91  94
ATOM     94  O   UNL A   1      28.848  27.847  22.870  1.00  0.00    -0.445 OA
BRANCH  94  95
ATOM     95  C   UNL A   1      27.724  28.701  23.116  1.00  0.00     0.270 C 
BRANCH  95  96
ATOM     96  C   UNL A   1      27.930  30.102  22.605  1.00  0.00    -0.011 A 
ATOM     97  C   UNL A   1      28.009  30.364  21.232  1.00  0.00     0.007 A 
ATOM     98  C   UNL A   1      28.010  31.168  23.511  1.00  0.00     0.007 A 
ATOM     99  C   UNL A   1      28.166  31.672  20.775  1.00  0.00     0.000 A 
ATOM    100  C   UNL A   1      28.157  32.475  23.054  1.00  0.00     0.000 A 
ATOM    101  C   UNL A   1      28.237  32.728  21.686  1.00  0.00     0.000 A 
ENDBRANCH  95  96
ENDBRANCH  94  95
ENDBRANCH  91  94
ENDBRANCH  89  90
ENDBRANCH  86  89
ENDBRANCH  83  85
ENDBRANCH  80  83
ENDBRANCH  78  79
BRANCH  78 102
ATOM    102  C   UNL A   1      33.228  25.858  22.172  1.00  0.00     0.015 C 
ATOM    103  C   UNL A   1      31.775  25.604  21.746  1.00  0.00     0.010 C 
ATOM    104  C   UNL A   1      33.559  27.310  21.786  1.00  0.00     0.010 C 
ENDBRANCH  78 102
ENDBRANCH   2  78
TORSDOF 24
ENDMDL
MODEL 3
REMARK VINA RESULT:     -11.3      1.698      6.275
REMARK SMILES CC(C)C[C@H](NC(=O)[C@@H](NC(=O)[C@H](C)NC(=O)CNC(=O)OCc1ccccc1)C(C)C)C(=O)NCCCCNC(=O)c1ccc(-c2c3nc(c(-c4c(F)cccc4F)c4ccc([nH]4)c(-c4c(F)cccc4F)c4nc(c(-c5c(F)cccc5F)c5ccc2[nH]5)C=C4)C=C3)cc1
REMARK SMILES IDX 6 1 7 2 8 3 5 5 4 6 2 7 1 8 3 9 33 10 34 11 35 12 36 14
REMARK SMILES IDX 37 15 38 16 39 17 40 18 41 19 42 21 43 22 44 23 96 24 45 25
REMARK SMILES IDX 95 26 46 27 47 28 48 29 89 30 49 31 94 32 88 33 90 34 50 35
REMARK SMILES IDX 93 36 87 37 86 38 51 40 77 41 60 42 76 43 61 44 64 45 75 46
REMARK SMILES IDX 91 47 62 48 63 49 74 51 92 52 65 53 52 54 53 55 58 56 54 57
REMARK SMILES IDX 55 58 57 59 59 60 56 61 78 62 79 63 84 64 80 65 81 66 83 67
REMARK SMILES IDX 85 68 82 69 66 70 67 71 72 72 68 73 69 74 71 75 73 76 70 77
REMARK SMILES IDX 9 78 10 79 11 80 12 82 13 83 14 84 15 85 16 86 17 88 18 89
REMARK SMILES IDX 19 90 20 91 21 93 22 94 23 95 24 96 25 97 29 98 26 99 28 100
REMARK SMILES IDX 27 101 30 102 31 103 32 104
REMARK H PARENT 6 4 35 13 40 20 90 39 64 50 10 81 15 87 19 92
REMARK Flexibility Score: inf
ROOT
ATOM      1  N   UNL A   1      33.807  24.169  23.005  1.00  0.00    -0.343 N 
ATOM      2  C   UNL A   1      33.150  25.257  22.527  1.00  0.00     0.243 C 
ATOM      3  O   UNL A   1      33.425  25.578  21.364  1.00  0.00    -0.273 OA
ATOM      4  H   UNL A   1      34.511  23.832  22.405  1.00  0.00     0.164 HD
ENDROOT
BRANCH   1   5
ATOM      5  C   UNL A   1      33.668  23.403  24.246  1.00  0.00     0.171 C 
BRANCH   5   6
ATOM      6  C   UNL A   1      33.535  21.896  23.944  1.00  0.00     0.038 C 
BRANCH   6   7
ATOM      7  C   UNL A   1      32.536  21.137  24.840  1.00  0.00    -0.015 C 
ATOM      8  C   UNL A   1      33.261  20.307  25.891  1.00  0.00     0.007 C 
ATOM      9  C   UNL A   1      31.598  22.119  25.547  1.00  0.00     0.007 C 
ENDBRANCH   6   7
ENDBRANCH   5   6
BRANCH   5  10
ATOM     10  C   UNL A   1      34.835  23.719  25.198  1.00  0.00     0.242 C 
ATOM     11  O   UNL A   1      34.707  24.566  26.087  1.00  0.00    -0.273 OA
ATOM     12  N   UNL A   1      36.026  23.075  25.148  1.00  0.00    -0.354 N 
ATOM     13  H   UNL A   1      36.664  23.359  25.842  1.00  0.00     0.163 HD
BRANCH  12  14
ATOM     14  C   UNL A   1      36.536  22.049  24.263  1.00  0.00     0.116 C 
BRANCH  14  15
ATOM     15  C   UNL A   1      36.714  20.726  25.000  1.00  0.00     0.023 C 
BRANCH  15  16
ATOM     16  C   UNL A   1      38.036  20.006  24.724  1.00  0.00     0.023 C 
BRANCH  16  17
ATOM     17  C   UNL A   1      39.143  20.260  25.741  1.00  0.00     0.116 C 
BRANCH  17  18
ATOM     18  N   UNL A   1      40.087  19.159  25.841  1.00  0.00    -0.352 N 
ATOM     19  C   UNL A   1      41.429  19.196  26.120  1.00  0.00     0.251 C 
ATOM     20  H   UNL A   1      39.710  18.263  25.687  1.00  0.00     0.163 HD
ATOM     21  O   UNL A   1      42.104  18.173  26.067  1.00  0.00    -0.269 OA
BRANCH  19  22
ATOM     22  C   UNL A   1      42.063  20.487  26.446  1.00  0.00     0.039 A 
ATOM     23  C   UNL A   1      42.483  21.308  25.397  1.00  0.00     0.014 A 
ATOM     24  C   UNL A   1      42.202  20.899  27.774  1.00  0.00     0.014 A 
ATOM     25  C   UNL A   1      42.987  22.578  25.679  1.00  0.00     0.010 A 
ATOM     26  C   UNL A   1      42.643  22.189  28.050  1.00  0.00     0.010 A 
ATOM     27  C   UNL A   1      43.037  23.039  27.005  1.00  0.00    -0.014 A 
BRANCH  27  28
ATOM     28  C   UNL A   1      43.503  24.411  27.317  1.00  0.00     0.031 A 
ATOM     29  C   UNL A   1      42.520  25.451  27.773  1.00  0.00     0.074 A 
ATOM     30  C   UNL A   1      44.797  24.734  27.129  1.00  0.00     0.049 A 
ATOM     31  N   UNL A   1      42.718  26.719  28.027  1.00  0.00    -0.248 NA
ATOM     32  C   UNL A   1      41.125  25.014  27.939  1.00  0.00     0.031 C 
ATOM     33  C   UNL A   1      45.835  23.824  26.642  1.00  0.00     0.029 A 
ATOM     34  N   UNL A   1      45.457  25.922  27.317  1.00  0.00    -0.354 N 
ATOM     35  C   UNL A   1      41.473  27.232  28.366  1.00  0.00     0.074 A 
ATOM     36  C   UNL A   1      40.518  26.153  28.238  1.00  0.00     0.031 C 
ATOM     37  C   UNL A   1      47.005  24.482  26.585  1.00  0.00     0.029 A 
ATOM     38  C   UNL A   1      46.792  25.864  27.003  1.00  0.00     0.049 A 
ATOM     39  H   UNL A   1      45.015  26.738  27.644  1.00  0.00     0.167 HD
ATOM     40  C   UNL A   1      41.157  28.486  28.771  1.00  0.00     0.037 A 
ATOM     41  C   UNL A   1      47.738  26.822  27.043  1.00  0.00     0.037 A 
ATOM     42  C   UNL A   1      42.114  29.549  28.926  1.00  0.00     0.049 A 
ATOM     43  C   UNL A   1      47.365  28.201  27.510  1.00  0.00     0.074 A 
ATOM     44  C   UNL A   1      41.904  30.838  29.384  1.00  0.00     0.029 A 
ATOM     45  N   UNL A   1      43.464  29.444  28.629  1.00  0.00    -0.354 N 
ATOM     46  N   UNL A   1      46.196  28.657  27.887  1.00  0.00    -0.248 NA
ATOM     47  C   UNL A   1      48.445  29.197  27.564  1.00  0.00     0.031 C 
ATOM     48  C   UNL A   1      43.123  31.522  29.336  1.00  0.00     0.029 A 
ATOM     49  C   UNL A   1      44.099  30.648  28.883  1.00  0.00     0.049 A 
ATOM     50  H   UNL A   1      43.906  28.632  28.288  1.00  0.00     0.167 HD
ATOM     51  C   UNL A   1      46.402  29.983  28.246  1.00  0.00     0.074 A 
ATOM     52  C   UNL A   1      47.812  30.253  28.055  1.00  0.00     0.031 C 
ATOM     53  C   UNL A   1      45.504  30.893  28.693  1.00  0.00     0.037 A 
BRANCH  40  54
ATOM     54  C   UNL A   1      39.718  28.766  29.083  1.00  0.00     0.057 A 
ATOM     55  C   UNL A   1      39.203  28.616  30.378  1.00  0.00     0.134 A 
ATOM     56  C   UNL A   1      38.842  29.214  28.087  1.00  0.00     0.134 A 
ATOM     57  F   UNL A   1      39.987  28.176  31.374  1.00  0.00    -0.206 F 
ATOM     58  C   UNL A   1      37.863  28.878  30.665  1.00  0.00     0.040 A 
ATOM     59  C   UNL A   1      37.506  29.503  28.367  1.00  0.00     0.040 A 
ATOM     60  F   UNL A   1      39.271  29.381  26.827  1.00  0.00    -0.206 F 
ATOM     61  C   UNL A   1      37.011  29.329  29.659  1.00  0.00     0.006 A 
ENDBRANCH  40  54
BRANCH  41  62
ATOM     62  C   UNL A   1      49.134  26.503  26.656  1.00  0.00     0.057 A 
ATOM     63  C   UNL A   1      50.027  25.941  27.576  1.00  0.00     0.134 A 
ATOM     64  C   UNL A   1      49.611  26.758  25.364  1.00  0.00     0.134 A 
ATOM     65  F   UNL A   1      49.631  25.691  28.832  1.00  0.00    -0.206 F 
ATOM     66  C   UNL A   1      51.350  25.658  27.232  1.00  0.00     0.040 A 
ATOM     67  C   UNL A   1      50.925  26.459  25.001  1.00  0.00     0.040 A 
ATOM     68  F   UNL A   1      48.802  27.289  24.436  1.00  0.00    -0.206 F 
ATOM     69  C   UNL A   1      51.801  25.914  25.938  1.00  0.00     0.006 A 
ENDBRANCH  41  62
BRANCH  53  70
ATOM     70  C   UNL A   1      46.027  32.257  29.035  1.00  0.00     0.057 A 
ATOM     71  C   UNL A   1      46.522  32.559  30.309  1.00  0.00     0.134 A 
ATOM     72  C   UNL A   1      46.073  33.265  28.064  1.00  0.00     0.134 A 
ATOM     73  F   UNL A   1      46.493  31.639  31.285  1.00  0.00    -0.206 F 
ATOM     74  C   UNL A   1      47.027  33.823  30.612  1.00  0.00     0.040 A 
ATOM     75  C   UNL A   1      46.596  34.526  28.348  1.00  0.00     0.040 A 
ATOM     76  F   UNL A   1      45.621  33.036  26.822  1.00  0.00    -0.206 F 
ATOM     77  C   UNL A   1      47.071  34.810  29.627  1.00  0.00     0.006 A 
ENDBRANCH  53  70
ENDBRANCH  27  28
ENDBRANCH  19  22
ENDBRANCH  17  18
ENDBRANCH  16  17
ENDBRANCH  15  16
ENDBRANCH  14  15
ENDBRANCH  12  14
ENDBRANCH   5  10
ENDBRANCH   1   5
BRANCH   2  78
ATOM     78  C   UNL A   1      32.241  26.173  23.396  1.00  0.00     0.174 C 
BRANCH  78  79
ATOM     79  N   UNL A   1      32.666  27.589  23.305  1.00  0.00    -0.342 N 
ATOM     80  C   UNL A   1      33.593  28.336  23.966  1.00  0.00     0.242 C 
ATOM     81  H   UNL A   1      32.173  28.098  22.621  1.00  0.00     0.164 HD
ATOM     82  O   UNL A   1      34.395  28.925  23.227  1.00  0.00    -0.273 OA
BRANCH  80  83
ATOM     83  C   UNL A   1      33.458  28.782  25.460  1.00  0.00     0.168 C 
ATOM     84  C   UNL A   1      33.181  27.548  26.323  1.00  0.00     0.041 C 
BRANCH  83  85
ATOM     85  N   UNL A   1      32.527  29.832  25.843  1.00  0.00    -0.343 N 
ATOM     86  C   UNL A   1      32.678  30.889  26.695  1.00  0.00     0.240 C 
ATOM     87  H   UNL A   1      31.642  29.771  25.417  1.00  0.00     0.164 HD
ATOM     88  O   UNL A   1      31.701  31.621  26.875  1.00  0.00    -0.273 OA
BRANCH  86  89
ATOM     89  C   UNL A   1      33.972  31.075  27.481  1.00  0.00     0.219 C 
BRANCH  89  90
ATOM     90  N   UNL A   1      34.147  32.499  27.690  1.00  0.00    -0.312 N 
ATOM     91  C   UNL A   1      34.218  33.113  28.899  1.00  0.00     0.407 C 
ATOM     92  H   UNL A   1      34.220  33.068  26.889  1.00  0.00     0.167 HD
ATOM     93  O   UNL A   1      33.980  34.309  29.009  1.00  0.00    -0.225 OA
BRANCH  91  94
ATOM     94  O   UNL A   1      34.522  32.261  29.907  1.00  0.00    -0.445 OA
BRANCH  94  95
ATOM     95  C   UNL A   1      35.072  32.860  31.087  1.00  0.00     0.270 C 
BRANCH  95  96
ATOM     96  C   UNL A   1      36.550  32.612  31.235  1.00  0.00    -0.011 A 
ATOM     97  C   UNL A   1      37.426  32.819  30.163  1.00  0.00     0.007 A 
ATOM     98  C   UNL A   1      37.065  32.200  32.472  1.00  0.00     0.007 A 
ATOM     99  C   UNL A   1      38.796  32.616  30.329  1.00  0.00     0.000 A 
ATOM    100  C   UNL A   1      38.434  32.007  32.638  1.00  0.00     0.000 A 
ATOM    101  C   UNL A   1      39.300  32.213  31.567  1.00  0.00     0.000 A 
ENDBRANCH  95  96
ENDBRANCH  94  95
ENDBRANCH  91  94
ENDBRANCH  89  90
ENDBRANCH  86  89
ENDBRANCH  83  85
ENDBRANCH  80  83
ENDBRANCH  78  79
BRANCH  78 102
ATOM    102  C   UNL A   1      30.743  25.842  23.237  1.00  0.00     0.015 C 
ATOM    103  C   UNL A   1      30.418  24.345  23.127  1.00  0.00     0.010 C 
ATOM    104  C   UNL A   1      29.930  26.391  24.421  1.00  0.00     0.010 C 
ENDBRANCH  78 102
ENDBRANCH   2  78
TORSDOF 24
ENDMDL
