MODEL 1
REMARK VINA RESULT:     -12.1      0.000      0.000
REMARK SMILES O=C(NCCCCNC(=O)c1ccc(-c2c3nc(c(-c4c(F)cccc4F)c4ccc([nH]4)c(-c4c(F)cccc4F)c4nc(c(-c5c(F)cccc5F)c5ccc2[nH]5)C=C4)C=C3)cc1)C1=Cc2cc(C(F)(F)F)ccc2O[C@@H]1C(F)(F)F
REMARK SMILES IDX 6 1 5 2 4 3 3 4 1 5 2 6 65 8 66 9 78 10 67 11 77 12 68 13
REMARK SMILES IDX 76 14 69 15 75 16 74 17 79 18 80 19 81 20 82 21 70 22 71 23
REMARK SMILES IDX 72 24 73 25 7 26 8 27 9 28 10 30 11 31 12 32 64 33 13 34
REMARK SMILES IDX 63 35 14 36 15 37 16 38 57 39 17 40 62 41 56 42 58 43 18 44
REMARK SMILES IDX 61 45 55 46 54 47 19 49 45 50 28 51 44 52 29 53 32 54 43 55
REMARK SMILES IDX 59 56 30 57 31 58 42 60 60 61 33 62 20 63 21 64 26 65 22 66
REMARK SMILES IDX 23 67 25 68 27 69 24 70 46 71 47 72 52 73 48 74 49 75 51 76
REMARK SMILES IDX 53 77 50 78 34 79 35 80 40 81 36 82 37 83 39 84 41 85 38 86
REMARK H PARENT 3 7 8 29 58 48 32 59
REMARK Flexibility Score: inf
ROOT
ATOM      1  C   UNL A   1      31.886  28.073  25.239  1.00  0.00     0.023 C 
ENDROOT
BRANCH   1   2
ATOM      2  C   UNL A   1      31.396  27.168  26.373  1.00  0.00     0.023 C 
BRANCH   2   3
ATOM      3  C   UNL A   1      30.681  25.903  25.889  1.00  0.00     0.116 C 
BRANCH   3   4
ATOM      4  N   UNL A   1      30.922  24.733  26.738  1.00  0.00    -0.352 N 
ATOM      5  O   UNL A   1      32.152  23.056  27.649  1.00  0.00    -0.270 OA
ATOM      6  C   UNL A   1      31.943  23.812  26.709  1.00  0.00     0.251 C 
ATOM      7  H   UNL A   1      30.247  24.583  27.440  1.00  0.00     0.163 HD
BRANCH   6   8
ATOM      8  C   UNL A   1      32.815  23.807  25.522  1.00  0.00     0.067 C 
ATOM      9  C   UNL A   1      33.918  24.562  25.588  1.00  0.00     0.025 C 
ATOM     10  C   UNL A   1      32.627  22.718  24.512  1.00  0.00     0.314 C 
ATOM     11  C   UNL A   1      35.120  23.847  25.151  1.00  0.00     0.018 A 
ATOM     12  O   UNL A   1      33.833  21.937  24.308  1.00  0.00    -0.475 OA
ATOM     13  C   UNL A   1      36.342  24.306  25.652  1.00  0.00     0.025 A 
ATOM     14  C   UNL A   1      35.019  22.536  24.653  1.00  0.00     0.128 A 
ATOM     15  C   UNL A   1      37.433  23.431  25.766  1.00  0.00     0.056 A 
ATOM     16  C   UNL A   1      36.128  21.691  24.679  1.00  0.00     0.048 A 
ATOM     17  C   UNL A   1      37.321  22.127  25.260  1.00  0.00     0.017 A 
BRANCH  10  18
ATOM     18  C   UNL A   1      32.115  23.270  23.171  1.00  0.00     0.429 C 
ATOM     19  F   UNL A   1      32.506  22.481  22.140  1.00  0.00    -0.167 F 
ATOM     20  F   UNL A   1      30.763  23.326  23.128  1.00  0.00    -0.167 F 
ATOM     21  F   UNL A   1      32.578  24.517  22.917  1.00  0.00    -0.167 F 
ENDBRANCH  10  18
BRANCH  15  22
ATOM     22  C   UNL A   1      38.672  23.879  26.503  1.00  0.00     0.416 C 
ATOM     23  F   UNL A   1      39.373  24.823  25.825  1.00  0.00    -0.166 F 
ATOM     24  F   UNL A   1      38.378  24.422  27.719  1.00  0.00    -0.166 F 
ATOM     25  F   UNL A   1      39.534  22.860  26.758  1.00  0.00    -0.166 F 
ENDBRANCH  15  22
ENDBRANCH   6   8
ENDBRANCH   3   4
ENDBRANCH   2   3
ENDBRANCH   1   2
BRANCH   1  26
ATOM     26  C   UNL A   1      32.958  29.099  25.603  1.00  0.00     0.116 C 
BRANCH  26  27
ATOM     27  N   UNL A   1      32.450  30.335  26.177  1.00  0.00    -0.352 N 
ATOM     28  C   UNL A   1      33.096  31.199  27.038  1.00  0.00     0.251 C 
ATOM     29  H   UNL A   1      31.533  30.586  25.922  1.00  0.00     0.163 HD
ATOM     30  O   UNL A   1      32.539  32.208  27.457  1.00  0.00    -0.269 OA
BRANCH  28  31
ATOM     31  C   UNL A   1      34.460  30.864  27.497  1.00  0.00     0.039 A 
ATOM     32  C   UNL A   1      35.401  31.890  27.626  1.00  0.00     0.014 A 
ATOM     33  C   UNL A   1      34.771  29.563  27.899  1.00  0.00     0.014 A 
ATOM     34  C   UNL A   1      36.616  31.633  28.265  1.00  0.00     0.010 A 
ATOM     35  C   UNL A   1      35.951  29.326  28.597  1.00  0.00     0.010 A 
ATOM     36  C   UNL A   1      36.875  30.364  28.807  1.00  0.00    -0.014 A 
BRANCH  36  37
ATOM     37  C   UNL A   1      38.087  30.098  29.625  1.00  0.00     0.031 A 
ATOM     38  C   UNL A   1      39.156  29.179  29.106  1.00  0.00     0.074 A 
ATOM     39  C   UNL A   1      38.178  30.602  30.872  1.00  0.00     0.049 A 
ATOM     40  N   UNL A   1      40.217  28.715  29.716  1.00  0.00    -0.248 NA
ATOM     41  C   UNL A   1      38.992  28.689  27.728  1.00  0.00     0.031 C 
ATOM     42  C   UNL A   1      37.184  31.465  31.516  1.00  0.00     0.029 A 
ATOM     43  N   UNL A   1      39.149  30.445  31.832  1.00  0.00    -0.354 N 
ATOM     44  C   UNL A   1      40.828  27.859  28.810  1.00  0.00     0.074 A 
ATOM     45  C   UNL A   1      39.998  27.835  27.623  1.00  0.00     0.031 C 
ATOM     46  C   UNL A   1      37.603  31.773  32.754  1.00  0.00     0.029 A 
ATOM     47  C   UNL A   1      38.875  31.104  33.007  1.00  0.00     0.049 A 
ATOM     48  H   UNL A   1      39.963  29.911  31.690  1.00  0.00     0.167 HD
ATOM     49  C   UNL A   1      41.985  27.170  28.945  1.00  0.00     0.037 A 
ATOM     50  C   UNL A   1      39.568  31.155  34.161  1.00  0.00     0.037 A 
ATOM     51  C   UNL A   1      42.832  27.228  30.107  1.00  0.00     0.049 A 
ATOM     52  C   UNL A   1      40.867  30.407  34.273  1.00  0.00     0.074 A 
ATOM     53  C   UNL A   1      44.055  26.614  30.313  1.00  0.00     0.029 A 
ATOM     54  N   UNL A   1      42.547  27.953  31.253  1.00  0.00    -0.354 N 
ATOM     55  N   UNL A   1      41.460  29.645  33.386  1.00  0.00    -0.248 NA
ATOM     56  C   UNL A   1      41.597  30.528  35.544  1.00  0.00     0.031 C 
ATOM     57  C   UNL A   1      44.499  26.947  31.597  1.00  0.00     0.029 A 
ATOM     58  C   UNL A   1      43.569  27.796  32.174  1.00  0.00     0.049 A 
ATOM     59  H   UNL A   1      41.738  28.498  31.392  1.00  0.00     0.167 HD
ATOM     60  C   UNL A   1      42.645  29.225  33.977  1.00  0.00     0.074 A 
ATOM     61  C   UNL A   1      42.690  29.821  35.296  1.00  0.00     0.031 C 
ATOM     62  C   UNL A   1      43.609  28.418  33.472  1.00  0.00     0.037 A 
BRANCH  49  63
ATOM     63  C   UNL A   1      42.407  26.301  27.799  1.00  0.00     0.057 A 
ATOM     64  C   UNL A   1      42.072  24.942  27.742  1.00  0.00     0.134 A 
ATOM     65  C   UNL A   1      43.132  26.835  26.725  1.00  0.00     0.134 A 
ATOM     66  F   UNL A   1      41.391  24.368  28.745  1.00  0.00    -0.206 F 
ATOM     67  C   UNL A   1      42.464  24.138  26.670  1.00  0.00     0.040 A 
ATOM     68  C   UNL A   1      43.508  26.047  25.636  1.00  0.00     0.040 A 
ATOM     69  F   UNL A   1      43.480  28.130  26.716  1.00  0.00    -0.206 F 
ATOM     70  C   UNL A   1      43.179  24.692  25.610  1.00  0.00     0.006 A 
ENDBRANCH  49  63
BRANCH  50  71
ATOM     71  C   UNL A   1      39.068  31.966  35.300  1.00  0.00     0.057 A 
ATOM     72  C   UNL A   1      38.293  31.385  36.311  1.00  0.00     0.134 A 
ATOM     73  C   UNL A   1      39.330  33.337  35.396  1.00  0.00     0.134 A 
ATOM     74  F   UNL A   1      37.992  30.078  36.262  1.00  0.00    -0.206 F 
ATOM     75  C   UNL A   1      37.778  32.142  37.364  1.00  0.00     0.040 A 
ATOM     76  C   UNL A   1      38.840  34.102  36.456  1.00  0.00     0.040 A 
ATOM     77  F   UNL A   1      40.072  33.952  34.463  1.00  0.00    -0.206 F 
ATOM     78  C   UNL A   1      38.054  33.505  37.440  1.00  0.00     0.006 A 
ENDBRANCH  50  71
BRANCH  62  79
ATOM     79  C   UNL A   1      44.817  28.173  34.324  1.00  0.00     0.057 A 
ATOM     80  C   UNL A   1      45.928  29.023  34.291  1.00  0.00     0.134 A 
ATOM     81  C   UNL A   1      44.842  27.102  35.227  1.00  0.00     0.134 A 
ATOM     82  F   UNL A   1      45.969  30.058  33.439  1.00  0.00    -0.206 F 
ATOM     83  C   UNL A   1      47.032  28.808  35.118  1.00  0.00     0.040 A 
ATOM     84  C   UNL A   1      45.930  26.889  36.073  1.00  0.00     0.040 A 
ATOM     85  F   UNL A   1      43.804  26.257  35.309  1.00  0.00    -0.206 F 
ATOM     86  C   UNL A   1      47.031  27.743  36.018  1.00  0.00     0.006 A 
ENDBRANCH  62  79
ENDBRANCH  36  37
ENDBRANCH  28  31
ENDBRANCH  26  27
ENDBRANCH   1  26
TORSDOF 13
ENDMDL
MODEL 2
REMARK VINA RESULT:     -12.0      0.418      6.162
REMARK SMILES O=C(NCCCCNC(=O)c1ccc(-c2c3nc(c(-c4c(F)cccc4F)c4ccc([nH]4)c(-c4c(F)cccc4F)c4nc(c(-c5c(F)cccc5F)c5ccc2[nH]5)C=C4)C=C3)cc1)C1=Cc2cc(C(F)(F)F)ccc2O[C@@H]1C(F)(F)F
REMARK SMILES IDX 6 1 5 2 4 3 3 4 1 5 2 6 65 8 66 9 78 10 67 11 77 12 68 13
REMARK SMILES IDX 76 14 69 15 75 16 74 17 79 18 80 19 81 20 82 21 70 22 71 23
REMARK SMILES IDX 72 24 73 25 7 26 8 27 9 28 10 30 11 31 12 32 64 33 13 34
REMARK SMILES IDX 63 35 14 36 15 37 16 38 57 39 17 40 62 41 56 42 58 43 18 44
REMARK SMILES IDX 61 45 55 46 54 47 19 49 45 50 28 51 44 52 29 53 32 54 43 55
REMARK SMILES IDX 59 56 30 57 31 58 42 60 60 61 33 62 20 63 21 64 26 65 22 66
REMARK SMILES IDX 23 67 25 68 27 69 24 70 46 71 47 72 52 73 48 74 49 75 51 76
REMARK SMILES IDX 53 77 50 78 34 79 35 80 40 81 36 82 37 83 39 84 41 85 38 86
REMARK H PARENT 3 7 8 29 58 48 32 59
REMARK Flexibility Score: inf
ROOT
ATOM      1  C   UNL A   1      31.676  28.597  25.668  1.00  0.00     0.023 C 
ENDROOT
BRANCH   1   2
ATOM      2  C   UNL A   1      31.579  27.424  26.648  1.00  0.00     0.023 C 
BRANCH   2   3
ATOM      3  C   UNL A   1      30.862  26.198  26.076  1.00  0.00     0.116 C 
BRANCH   3   4
ATOM      4  N   UNL A   1      31.048  24.985  26.876  1.00  0.00    -0.352 N 
ATOM      5  O   UNL A   1      32.198  23.215  27.714  1.00  0.00    -0.270 OA
ATOM      6  C   UNL A   1      32.024  24.017  26.806  1.00  0.00     0.251 C 
ATOM      7  H   UNL A   1      30.369  24.839  27.575  1.00  0.00     0.163 HD
BRANCH   6   8
ATOM      8  C   UNL A   1      32.891  24.018  25.616  1.00  0.00     0.067 C 
ATOM      9  C   UNL A   1      34.015  24.740  25.697  1.00  0.00     0.025 C 
ATOM     10  C   UNL A   1      32.671  22.960  24.580  1.00  0.00     0.314 C 
ATOM     11  C   UNL A   1      35.195  24.003  25.237  1.00  0.00     0.018 A 
ATOM     12  O   UNL A   1      33.854  22.151  24.352  1.00  0.00    -0.475 OA
ATOM     13  C   UNL A   1      36.432  24.416  25.745  1.00  0.00     0.025 A 
ATOM     14  C   UNL A   1      35.057  22.709  24.708  1.00  0.00     0.128 A 
ATOM     15  C   UNL A   1      37.498  23.509  25.834  1.00  0.00     0.056 A 
ATOM     16  C   UNL A   1      36.142  21.833  24.709  1.00  0.00     0.048 A 
ATOM     17  C   UNL A   1      37.348  22.221  25.295  1.00  0.00     0.017 A 
BRANCH  10  18
ATOM     18  C   UNL A   1      32.170  23.559  23.256  1.00  0.00     0.429 C 
ATOM     19  F   UNL A   1      30.853  23.295  23.070  1.00  0.00    -0.167 F 
ATOM     20  F   UNL A   1      32.304  24.906  23.224  1.00  0.00    -0.167 F 
ATOM     21  F   UNL A   1      32.831  23.064  22.183  1.00  0.00    -0.167 F 
ENDBRANCH  10  18
BRANCH  15  22
ATOM     22  C   UNL A   1      38.751  23.904  26.576  1.00  0.00     0.416 C 
ATOM     23  F   UNL A   1      38.493  24.409  27.810  1.00  0.00    -0.166 F 
ATOM     24  F   UNL A   1      39.591  22.846  26.765  1.00  0.00    -0.166 F 
ATOM     25  F   UNL A   1      39.485  24.840  25.918  1.00  0.00    -0.166 F 
ENDBRANCH  15  22
ENDBRANCH   6   8
ENDBRANCH   3   4
ENDBRANCH   2   3
ENDBRANCH   1   2
BRANCH   1  26
ATOM     26  C   UNL A   1      32.866  29.538  25.849  1.00  0.00     0.116 C 
BRANCH  26  27
ATOM     27  N   UNL A   1      32.534  30.841  26.406  1.00  0.00    -0.352 N 
ATOM     28  C   UNL A   1      33.295  31.619  27.254  1.00  0.00     0.251 C 
ATOM     29  H   UNL A   1      31.660  31.212  26.147  1.00  0.00     0.163 HD
ATOM     30  O   UNL A   1      32.884  32.701  27.659  1.00  0.00    -0.269 OA
BRANCH  28  31
ATOM     31  C   UNL A   1      34.602  31.106  27.717  1.00  0.00     0.039 A 
ATOM     32  C   UNL A   1      35.629  32.015  27.983  1.00  0.00     0.014 A 
ATOM     33  C   UNL A   1      34.771  29.746  27.987  1.00  0.00     0.014 A 
ATOM     34  C   UNL A   1      36.787  31.575  28.628  1.00  0.00     0.010 A 
ATOM     35  C   UNL A   1      35.893  29.324  28.692  1.00  0.00     0.010 A 
ATOM     36  C   UNL A   1      36.902  30.238  29.040  1.00  0.00    -0.014 A 
BRANCH  36  37
ATOM     37  C   UNL A   1      38.048  29.771  29.862  1.00  0.00     0.031 A 
ATOM     38  C   UNL A   1      38.239  30.301  31.254  1.00  0.00     0.074 A 
ATOM     39  C   UNL A   1      38.970  28.948  29.322  1.00  0.00     0.049 A 
ATOM     40  N   UNL A   1      39.240  30.124  32.078  1.00  0.00    -0.248 NA
ATOM     41  C   UNL A   1      37.177  31.175  31.777  1.00  0.00     0.031 C 
ATOM     42  C   UNL A   1      38.932  28.403  27.963  1.00  0.00     0.029 A 
ATOM     43  N   UNL A   1      40.134  28.440  29.847  1.00  0.00    -0.354 N 
ATOM     44  C   UNL A   1      38.944  30.886  33.200  1.00  0.00     0.074 A 
ATOM     45  C   UNL A   1      37.690  31.560  32.936  1.00  0.00     0.031 C 
ATOM     46  C   UNL A   1      40.010  27.626  27.768  1.00  0.00     0.029 A 
ATOM     47  C   UNL A   1      40.835  27.645  28.971  1.00  0.00     0.049 A 
ATOM     48  H   UNL A   1      40.437  28.629  30.764  1.00  0.00     0.167 HD
ATOM     49  C   UNL A   1      39.643  31.000  34.354  1.00  0.00     0.037 A 
ATOM     50  C   UNL A   1      42.013  27.010  29.120  1.00  0.00     0.037 A 
ATOM     51  C   UNL A   1      40.866  30.296  34.634  1.00  0.00     0.049 A 
ATOM     52  C   UNL A   1      42.752  27.127  30.425  1.00  0.00     0.074 A 
ATOM     53  C   UNL A   1      41.615  30.299  35.798  1.00  0.00     0.029 A 
ATOM     54  N   UNL A   1      41.512  29.456  33.742  1.00  0.00    -0.354 N 
ATOM     55  N   UNL A   1      42.431  27.808  31.498  1.00  0.00    -0.248 NA
ATOM     56  C   UNL A   1      44.016  26.384  30.542  1.00  0.00     0.031 C 
ATOM     57  C   UNL A   1      42.730  29.478  35.600  1.00  0.00     0.029 A 
ATOM     58  C   UNL A   1      42.655  28.938  34.327  1.00  0.00     0.049 A 
ATOM     59  H   UNL A   1      41.204  29.256  32.828  1.00  0.00     0.167 HD
ATOM     60  C   UNL A   1      43.431  27.549  32.427  1.00  0.00     0.074 A 
ATOM     61  C   UNL A   1      44.368  26.645  31.792  1.00  0.00     0.031 C 
ATOM     62  C   UNL A   1      43.561  28.019  33.690  1.00  0.00     0.037 A 
BRANCH  49  63
ATOM     63  C   UNL A   1      39.090  31.913  35.407  1.00  0.00     0.057 A 
ATOM     64  C   UNL A   1      38.285  31.435  36.448  1.00  0.00     0.134 A 
ATOM     65  C   UNL A   1      39.388  33.282  35.395  1.00  0.00     0.134 A 
ATOM     66  F   UNL A   1      37.951  30.136  36.507  1.00  0.00    -0.206 F 
ATOM     67  C   UNL A   1      37.775  32.288  37.429  1.00  0.00     0.040 A 
ATOM     68  C   UNL A   1      38.905  34.141  36.384  1.00  0.00     0.040 A 
ATOM     69  F   UNL A   1      40.158  33.804  34.428  1.00  0.00    -0.206 F 
ATOM     70  C   UNL A   1      38.091  33.645  37.401  1.00  0.00     0.006 A 
ENDBRANCH  49  63
BRANCH  50  71
ATOM     71  C   UNL A   1      42.561  26.181  28.018  1.00  0.00     0.057 A 
ATOM     72  C   UNL A   1      43.433  26.730  27.069  1.00  0.00     0.134 A 
ATOM     73  C   UNL A   1      42.215  24.833  27.871  1.00  0.00     0.134 A 
ATOM     74  F   UNL A   1      43.785  28.022  27.147  1.00  0.00    -0.206 F 
ATOM     75  C   UNL A   1      43.922  25.975  26.002  1.00  0.00     0.040 A 
ATOM     76  C   UNL A   1      42.714  24.060  26.821  1.00  0.00     0.040 A 
ATOM     77  F   UNL A   1      41.390  24.246  28.751  1.00  0.00    -0.206 F 
ATOM     78  C   UNL A   1      43.564  24.634  25.878  1.00  0.00     0.006 A 
ENDBRANCH  50  71
BRANCH  62  79
ATOM     79  C   UNL A   1      44.728  27.525  34.490  1.00  0.00     0.057 A 
ATOM     80  C   UNL A   1      45.944  28.218  34.528  1.00  0.00     0.134 A 
ATOM     81  C   UNL A   1      44.612  26.371  35.275  1.00  0.00     0.134 A 
ATOM     82  F   UNL A   1      46.120  29.323  33.789  1.00  0.00    -0.206 F 
ATOM     83  C   UNL A   1      47.010  27.771  35.309  1.00  0.00     0.040 A 
ATOM     84  C   UNL A   1      45.663  25.925  36.075  1.00  0.00     0.040 A 
ATOM     85  F   UNL A   1      43.469  25.667  35.286  1.00  0.00    -0.206 F 
ATOM     86  C   UNL A   1      46.869  26.625  36.092  1.00  0.00     0.006 A 
ENDBRANCH  62  79
ENDBRANCH  36  37
ENDBRANCH  28  31
ENDBRANCH  26  27
ENDBRANCH   1  26
TORSDOF 13
ENDMDL
MODEL 3
REMARK VINA RESULT:     -12.0      2.785      4.778
REMARK SMILES O=C(NCCCCNC(=O)c1ccc(-c2c3nc(c(-c4c(F)cccc4F)c4ccc([nH]4)c(-c4c(F)cccc4F)c4nc(c(-c5c(F)cccc5F)c5ccc2[nH]5)C=C4)C=C3)cc1)C1=Cc2cc(C(F)(F)F)ccc2O[C@@H]1C(F)(F)F
REMARK SMILES IDX 6 1 5 2 4 3 3 4 1 5 2 6 65 8 66 9 78 10 67 11 77 12 68 13
REMARK SMILES IDX 76 14 69 15 75 16 74 17 79 18 80 19 81 20 82 21 70 22 71 23
REMARK SMILES IDX 72 24 73 25 7 26 8 27 9 28 10 30 11 31 12 32 64 33 13 34
REMARK SMILES IDX 63 35 14 36 15 37 16 38 57 39 17 40 62 41 56 42 58 43 18 44
REMARK SMILES IDX 61 45 55 46 54 47 19 49 45 50 28 51 44 52 29 53 32 54 43 55
REMARK SMILES IDX 59 56 30 57 31 58 42 60 60 61 33 62 20 63 21 64 26 65 22 66
REMARK SMILES IDX 23 67 25 68 27 69 24 70 46 71 47 72 52 73 48 74 49 75 51 76
REMARK SMILES IDX 53 77 50 78 34 79 35 80 40 81 36 82 37 83 39 84 41 85 38 86
REMARK H PARENT 3 7 8 29 58 48 32 59
REMARK Flexibility Score: inf
ROOT
ATOM      1  C   UNL A   1      32.332  30.193  25.971  1.00  0.00     0.023 C 
ENDROOT
BRANCH   1   2
ATOM      2  C   UNL A   1      31.601  28.920  26.406  1.00  0.00     0.023 C 
BRANCH   2   3
ATOM      3  C   UNL A   1      32.469  27.659  26.352  1.00  0.00     0.116 C 
BRANCH   3   4
ATOM      4  N   UNL A   1      31.858  26.499  27.006  1.00  0.00    -0.352 N 
ATOM      5  O   UNL A   1      31.047  24.381  27.128  1.00  0.00    -0.270 OA
ATOM      6  C   UNL A   1      31.263  25.384  26.461  1.00  0.00     0.251 C 
ATOM      7  H   UNL A   1      31.876  26.519  27.991  1.00  0.00     0.163 HD
BRANCH   6   8
ATOM      8  C   UNL A   1      30.946  25.423  25.023  1.00  0.00     0.067 C 
ATOM      9  C   UNL A   1      29.763  25.951  24.687  1.00  0.00     0.025 C 
ATOM     10  C   UNL A   1      32.065  25.234  24.047  1.00  0.00     0.314 C 
ATOM     11  C   UNL A   1      29.868  26.927  23.598  1.00  0.00     0.018 A 
ATOM     12  O   UNL A   1      32.210  26.360  23.144  1.00  0.00    -0.475 OA
ATOM     13  C   UNL A   1      28.860  27.894  23.521  1.00  0.00     0.025 A 
ATOM     14  C   UNL A   1      31.106  27.160  22.977  1.00  0.00     0.128 A 
ATOM     15  C   UNL A   1      29.119  29.138  22.928  1.00  0.00     0.056 A 
ATOM     16  C   UNL A   1      31.337  28.359  22.305  1.00  0.00     0.048 A 
ATOM     17  C   UNL A   1      30.359  29.356  22.305  1.00  0.00     0.017 A 
BRANCH  10  18
ATOM     18  C   UNL A   1      31.908  23.927  23.252  1.00  0.00     0.429 C 
ATOM     19  F   UNL A   1      32.423  22.877  23.938  1.00  0.00    -0.167 F 
ATOM     20  F   UNL A   1      30.609  23.633  23.009  1.00  0.00    -0.167 F 
ATOM     21  F   UNL A   1      32.541  23.972  22.056  1.00  0.00    -0.167 F 
ENDBRANCH  10  18
BRANCH  15  22
ATOM     22  C   UNL A   1      28.098  30.244  23.041  1.00  0.00     0.416 C 
ATOM     23  F   UNL A   1      27.687  30.705  21.833  1.00  0.00    -0.166 F 
ATOM     24  F   UNL A   1      26.973  29.838  23.698  1.00  0.00    -0.166 F 
ATOM     25  F   UNL A   1      28.556  31.319  23.734  1.00  0.00    -0.166 F 
ENDBRANCH  15  22
ENDBRANCH   6   8
ENDBRANCH   3   4
ENDBRANCH   2   3
ENDBRANCH   1   2
BRANCH   1  26
ATOM     26  C   UNL A   1      32.990  31.011  27.080  1.00  0.00     0.116 C 
BRANCH  26  27
ATOM     27  N   UNL A   1      32.398  32.321  27.305  1.00  0.00    -0.352 N 
ATOM     28  C   UNL A   1      32.951  33.400  27.965  1.00  0.00     0.251 C 
ATOM     29  H   UNL A   1      31.492  32.454  26.943  1.00  0.00     0.163 HD
ATOM     30  O   UNL A   1      32.329  34.449  28.092  1.00  0.00    -0.269 OA
BRANCH  28  31
ATOM     31  C   UNL A   1      34.292  33.257  28.570  1.00  0.00     0.039 A 
ATOM     32  C   UNL A   1      34.410  32.625  29.811  1.00  0.00     0.014 A 
ATOM     33  C   UNL A   1      35.430  33.650  27.864  1.00  0.00     0.014 A 
ATOM     34  C   UNL A   1      35.676  32.284  30.292  1.00  0.00     0.010 A 
ATOM     35  C   UNL A   1      36.685  33.247  28.310  1.00  0.00     0.010 A 
ATOM     36  C   UNL A   1      36.819  32.539  29.517  1.00  0.00    -0.014 A 
BRANCH  36  37
ATOM     37  C   UNL A   1      38.162  32.053  29.925  1.00  0.00     0.031 A 
ATOM     38  C   UNL A   1      38.674  30.740  29.407  1.00  0.00     0.074 A 
ATOM     39  C   UNL A   1      38.877  32.743  30.837  1.00  0.00     0.049 A 
ATOM     40  N   UNL A   1      39.753  30.080  29.745  1.00  0.00    -0.248 NA
ATOM     41  C   UNL A   1      37.845  30.060  28.399  1.00  0.00     0.031 C 
ATOM     42  C   UNL A   1      38.470  34.006  31.459  1.00  0.00     0.029 A 
ATOM     43  N   UNL A   1      40.092  32.469  31.415  1.00  0.00    -0.354 N 
ATOM     44  C   UNL A   1      39.716  28.899  29.015  1.00  0.00     0.074 A 
ATOM     45  C   UNL A   1      38.488  28.913  28.247  1.00  0.00     0.031 C 
ATOM     46  C   UNL A   1      39.424  34.403  32.316  1.00  0.00     0.029 A 
ATOM     47  C   UNL A   1      40.492  33.410  32.334  1.00  0.00     0.049 A 
ATOM     48  H   UNL A   1      40.626  31.673  31.192  1.00  0.00     0.167 HD
ATOM     49  C   UNL A   1      40.630  27.902  28.973  1.00  0.00     0.037 A 
ATOM     50  C   UNL A   1      41.592  33.460  33.109  1.00  0.00     0.037 A 
ATOM     51  C   UNL A   1      41.871  27.908  29.702  1.00  0.00     0.049 A 
ATOM     52  C   UNL A   1      42.608  32.355  33.019  1.00  0.00     0.074 A 
ATOM     53  C   UNL A   1      42.890  26.972  29.677  1.00  0.00     0.029 A 
ATOM     54  N   UNL A   1      42.264  28.907  30.578  1.00  0.00    -0.354 N 
ATOM     55  N   UNL A   1      42.585  31.271  32.282  1.00  0.00    -0.248 NA
ATOM     56  C   UNL A   1      43.806  32.482  33.863  1.00  0.00     0.031 C 
ATOM     57  C   UNL A   1      43.890  27.393  30.559  1.00  0.00     0.029 A 
ATOM     58  C   UNL A   1      43.509  28.608  31.105  1.00  0.00     0.049 A 
ATOM     59  H   UNL A   1      41.736  29.711  30.793  1.00  0.00     0.167 HD
ATOM     60  C   UNL A   1      43.776  30.606  32.547  1.00  0.00     0.074 A 
ATOM     61  C   UNL A   1      44.501  31.410  33.509  1.00  0.00     0.031 C 
ATOM     62  C   UNL A   1      44.226  29.434  32.040  1.00  0.00     0.037 A 
BRANCH  49  63
ATOM     63  C   UNL A   1      40.324  26.724  28.098  1.00  0.00     0.057 A 
ATOM     64  C   UNL A   1      40.898  26.581  26.828  1.00  0.00     0.134 A 
ATOM     65  C   UNL A   1      39.470  25.706  28.540  1.00  0.00     0.134 A 
ATOM     66  F   UNL A   1      41.714  27.529  26.341  1.00  0.00    -0.206 F 
ATOM     67  C   UNL A   1      40.614  25.480  26.018  1.00  0.00     0.040 A 
ATOM     68  C   UNL A   1      39.197  24.588  27.750  1.00  0.00     0.040 A 
ATOM     69  F   UNL A   1      38.892  25.779  29.749  1.00  0.00    -0.206 F 
ATOM     70  C   UNL A   1      39.766  24.477  26.482  1.00  0.00     0.006 A 
ENDBRANCH  49  63
BRANCH  50  71
ATOM     71  C   UNL A   1      41.813  34.610  34.023  1.00  0.00     0.057 A 
ATOM     72  C   UNL A   1      41.379  34.565  35.353  1.00  0.00     0.134 A 
ATOM     73  C   UNL A   1      42.439  35.784  33.587  1.00  0.00     0.134 A 
ATOM     74  F   UNL A   1      40.755  33.474  35.821  1.00  0.00    -0.206 F 
ATOM     75  C   UNL A   1      41.539  35.654  36.212  1.00  0.00     0.040 A 
ATOM     76  C   UNL A   1      42.625  36.872  34.442  1.00  0.00     0.040 A 
ATOM     77  F   UNL A   1      42.883  35.886  32.326  1.00  0.00    -0.206 F 
ATOM     78  C   UNL A   1      42.167  36.811  35.756  1.00  0.00     0.006 A 
ENDBRANCH  50  71
BRANCH  62  79
ATOM     79  C   UNL A   1      45.586  28.975  32.473  1.00  0.00     0.057 A 
ATOM     80  C   UNL A   1      45.766  28.136  33.579  1.00  0.00     0.134 A 
ATOM     81  C   UNL A   1      46.723  29.335  31.737  1.00  0.00     0.134 A 
ATOM     82  F   UNL A   1      44.717  27.767  34.329  1.00  0.00    -0.206 F 
ATOM     83  C   UNL A   1      47.032  27.683  33.948  1.00  0.00     0.040 A 
ATOM     84  C   UNL A   1      47.991  28.872  32.084  1.00  0.00     0.040 A 
ATOM     85  F   UNL A   1      46.614  30.131  30.663  1.00  0.00    -0.206 F 
ATOM     86  C   UNL A   1      48.149  28.044  33.195  1.00  0.00     0.006 A 
ENDBRANCH  62  79
ENDBRANCH  36  37
ENDBRANCH  28  31
ENDBRANCH  26  27
ENDBRANCH   1  26
TORSDOF 13
ENDMDL
