MODEL 1
REMARK VINA RESULT:     -14.0      0.000      0.000
REMARK SMILES Cc1cc(N2CC[NH+]([C@@H](C(=O)NCCCCNC(=O)c3ccc(-c4c5nc(c(-c6c(F)cccc6F)c6ccc([nH]6)c(-c6c(F)cccc6F)c6nc(c(-c7c(F)cccc7F)c7ccc4[nH]7)C=C6)C=C5)cc3)c3c[nH]c4ccccc34)CC2)nc2ccccc12
REMARK SMILES IDX 14 1 13 2 12 3 10 4 11 5 9 7 8 8 5 9 6 10 84 11 7 12 83 13
REMARK SMILES IDX 4 15 1 16 2 17 3 18 91 19 86 20 90 21 85 22 87 23 89 24
REMARK SMILES IDX 88 25 74 26 75 27 82 28 76 29 77 30 81 31 78 33 80 34 79 35
REMARK SMILES IDX 15 36 16 37 17 38 18 39 19 41 20 42 21 43 73 44 22 45 72 46
REMARK SMILES IDX 23 47 24 48 25 49 66 50 26 51 71 52 65 53 67 54 27 55 70 56
REMARK SMILES IDX 64 57 63 58 28 60 54 61 37 62 53 63 38 64 41 65 52 66 68 67
REMARK SMILES IDX 39 68 40 69 51 71 69 72 42 73 29 74 30 75 35 76 31 77 32 78
REMARK SMILES IDX 34 79 36 80 33 81 55 82 56 83 61 84 57 85 58 86 60 87 62 88
REMARK SMILES IDX 59 89 43 90 44 91 49 92 45 93 46 94 48 95 50 96 47 97
REMARK H PARENT 12 6 8 14 76 32 17 40 67 59 41 70
REMARK Flexibility Score: inf
ROOT
ATOM      1  C   UNL A   1      36.659  20.306  24.964  1.00  0.00     0.023 C 
ENDROOT
BRANCH   1   2
ATOM      2  C   UNL A   1      36.790  21.846  24.763  1.00  0.00     0.116 C 
BRANCH   2   3
ATOM      3  N   UNL A   1      35.658  22.688  25.189  1.00  0.00    -0.351 N 
ATOM      4  C   UNL A   1      34.305  22.820  24.931  1.00  0.00     0.283 C 
ATOM      5  O   UNL A   1      33.738  23.607  25.702  1.00  0.00    -0.268 OA
ATOM      6  H   UNL A   1      35.951  23.353  25.853  1.00  0.00     0.163 HD
BRANCH   4   7
ATOM      7  C   UNL A   1      33.509  22.017  23.848  1.00  0.00     0.307 C 
BRANCH   7   8
ATOM      8  N   UNL A   1      32.712  22.769  22.801  1.00  0.00    -0.318 N 
ATOM      9  N   UNL A   1      31.802  25.451  23.570  1.00  0.00    -0.345 N 
ATOM     10  C   UNL A   1      31.131  24.283  24.120  1.00  0.00     0.179 C 
ATOM     11  C   UNL A   1      33.190  25.222  23.168  1.00  0.00     0.179 C 
ATOM     12  C   UNL A   1      31.315  23.184  23.061  1.00  0.00     0.284 C 
ATOM     13  C   UNL A   1      33.354  23.969  22.276  1.00  0.00     0.284 C 
ATOM     14  H   UNL A   1      32.682  21.985  22.149  1.00  0.00     0.349 HD
BRANCH   9  15
ATOM     15  C   UNL A   1      31.639  26.686  24.182  1.00  0.00     0.129 A 
ATOM     16  C   UNL A   1      29.731  29.784  23.235  1.00  0.00     0.045 C 
ATOM     17  C   UNL A   1      30.653  28.876  23.993  1.00  0.00    -0.038 A 
ATOM     18  C   UNL A   1      30.762  27.563  23.561  1.00  0.00     0.051 A 
ATOM     19  C   UNL A   1      31.414  29.272  25.107  1.00  0.00     0.003 A 
ATOM     20  C   UNL A   1      32.292  28.319  25.680  1.00  0.00     0.073 A 
ATOM     21  C   UNL A   1      31.339  30.567  25.662  1.00  0.00     0.010 A 
ATOM     22  N   UNL A   1      32.394  27.054  25.231  1.00  0.00    -0.231 NA
ATOM     23  C   UNL A   1      33.095  28.720  26.742  1.00  0.00     0.029 A 
ATOM     24  C   UNL A   1      32.136  30.931  26.744  1.00  0.00     0.001 A 
ATOM     25  C   UNL A   1      33.028  30.011  27.275  1.00  0.00     0.002 A 
ENDBRANCH   9  15
ENDBRANCH   7   8
BRANCH   7  26
ATOM     26  C   UNL A   1      32.661  20.815  24.387  1.00  0.00     0.044 A 
ATOM     27  C   UNL A   1      32.388  20.650  25.749  1.00  0.00     0.094 A 
ATOM     28  C   UNL A   1      32.626  19.438  23.929  1.00  0.00     0.009 A 
ATOM     29  N   UNL A   1      33.230  19.590  26.058  1.00  0.00    -0.361 N 
ATOM     30  C   UNL A   1      33.225  18.726  24.982  1.00  0.00     0.046 A 
ATOM     31  C   UNL A   1      32.391  18.738  22.728  1.00  0.00     0.011 A 
ATOM     32  H   UNL A   1      33.740  19.477  26.892  1.00  0.00     0.166 HD
ATOM     33  C   UNL A   1      33.829  17.473  24.813  1.00  0.00     0.026 A 
ATOM     34  C   UNL A   1      32.848  17.413  22.600  1.00  0.00     0.001 A 
ATOM     35  C   UNL A   1      33.630  16.828  23.593  1.00  0.00     0.002 A 
ENDBRANCH   7  26
ENDBRANCH   4   7
ENDBRANCH   2   3
ENDBRANCH   1   2
BRANCH   1  36
ATOM     36  C   UNL A   1      37.945  19.470  24.911  1.00  0.00     0.023 C 
BRANCH  36  37
ATOM     37  C   UNL A   1      39.092  20.055  25.704  1.00  0.00     0.116 C 
BRANCH  37  38
ATOM     38  N   UNL A   1      40.234  19.152  25.766  1.00  0.00    -0.352 N 
ATOM     39  C   UNL A   1      41.551  19.440  26.056  1.00  0.00     0.251 C 
ATOM     40  H   UNL A   1      40.040  18.207  25.571  1.00  0.00     0.163 HD
ATOM     41  O   UNL A   1      42.415  18.595  25.886  1.00  0.00    -0.269 OA
BRANCH  39  42
ATOM     42  C   UNL A   1      41.913  20.789  26.553  1.00  0.00     0.039 A 
ATOM     43  C   UNL A   1      42.282  21.776  25.634  1.00  0.00     0.014 A 
ATOM     44  C   UNL A   1      41.889  21.080  27.917  1.00  0.00     0.014 A 
ATOM     45  C   UNL A   1      42.579  23.063  26.087  1.00  0.00     0.010 A 
ATOM     46  C   UNL A   1      42.070  22.383  28.354  1.00  0.00     0.010 A 
ATOM     47  C   UNL A   1      42.446  23.382  27.447  1.00  0.00    -0.014 A 
BRANCH  47  48
ATOM     48  C   UNL A   1      42.745  24.740  27.962  1.00  0.00     0.031 A 
ATOM     49  C   UNL A   1      44.161  25.100  28.326  1.00  0.00     0.074 A 
ATOM     50  C   UNL A   1      41.738  25.612  28.161  1.00  0.00     0.049 A 
ATOM     51  N   UNL A   1      44.622  26.198  28.866  1.00  0.00    -0.248 NA
ATOM     52  C   UNL A   1      45.193  24.075  28.086  1.00  0.00     0.031 C 
ATOM     53  C   UNL A   1      40.321  25.346  27.903  1.00  0.00     0.029 A 
ATOM     54  N   UNL A   1      41.752  26.897  28.638  1.00  0.00    -0.354 N 
ATOM     55  C   UNL A   1      45.983  25.984  29.049  1.00  0.00     0.074 A 
ATOM     56  C   UNL A   1      46.267  24.635  28.623  1.00  0.00     0.031 C 
ATOM     57  C   UNL A   1      39.605  26.443  28.197  1.00  0.00     0.029 A 
ATOM     58  C   UNL A   1      40.505  27.473  28.706  1.00  0.00     0.049 A 
ATOM     59  H   UNL A   1      42.575  27.364  28.907  1.00  0.00     0.167 HD
ATOM     60  C   UNL A   1      46.918  26.850  29.506  1.00  0.00     0.037 A 
ATOM     61  C   UNL A   1      40.135  28.693  29.139  1.00  0.00     0.037 A 
ATOM     62  C   UNL A   1      46.630  28.206  29.887  1.00  0.00     0.049 A 
ATOM     63  C   UNL A   1      41.200  29.638  29.628  1.00  0.00     0.074 A 
ATOM     64  C   UNL A   1      47.511  29.192  30.292  1.00  0.00     0.029 A 
ATOM     65  N   UNL A   1      45.361  28.765  29.906  1.00  0.00    -0.354 N 
ATOM     66  N   UNL A   1      42.495  29.452  29.717  1.00  0.00    -0.248 NA
ATOM     67  C   UNL A   1      40.753  30.966  30.070  1.00  0.00     0.031 C 
ATOM     68  C   UNL A   1      46.768  30.334  30.607  1.00  0.00     0.029 A 
ATOM     69  C   UNL A   1      45.432  30.076  30.340  1.00  0.00     0.049 A 
ATOM     70  H   UNL A   1      44.533  28.298  29.650  1.00  0.00     0.167 HD
ATOM     71  C   UNL A   1      43.020  30.647  30.192  1.00  0.00     0.074 A 
ATOM     72  C   UNL A   1      41.905  31.557  30.354  1.00  0.00     0.031 C 
ATOM     73  C   UNL A   1      44.307  30.966  30.474  1.00  0.00     0.037 A 
BRANCH  60  74
ATOM     74  C   UNL A   1      48.336  26.367  29.608  1.00  0.00     0.057 A 
ATOM     75  C   UNL A   1      49.249  26.520  28.556  1.00  0.00     0.134 A 
ATOM     76  C   UNL A   1      48.811  25.796  30.795  1.00  0.00     0.134 A 
ATOM     77  F   UNL A   1      48.856  27.047  27.385  1.00  0.00    -0.206 F 
ATOM     78  C   UNL A   1      50.578  26.109  28.675  1.00  0.00     0.040 A 
ATOM     79  C   UNL A   1      50.144  25.407  30.936  1.00  0.00     0.040 A 
ATOM     80  F   UNL A   1      47.992  25.621  31.843  1.00  0.00    -0.206 F 
ATOM     81  C   UNL A   1      51.032  25.561  29.873  1.00  0.00     0.006 A 
ENDBRANCH  60  74
BRANCH  61  82
ATOM     82  C   UNL A   1      38.705  29.099  29.122  1.00  0.00     0.057 A 
ATOM     83  C   UNL A   1      38.111  29.616  27.964  1.00  0.00     0.134 A 
ATOM     84  C   UNL A   1      37.906  29.015  30.269  1.00  0.00     0.134 A 
ATOM     85  F   UNL A   1      38.825  29.735  26.834  1.00  0.00    -0.206 F 
ATOM     86  C   UNL A   1      36.791  30.069  27.956  1.00  0.00     0.040 A 
ATOM     87  C   UNL A   1      36.574  29.435  30.267  1.00  0.00     0.040 A 
ATOM     88  F   UNL A   1      38.406  28.517  31.409  1.00  0.00    -0.206 F 
ATOM     89  C   UNL A   1      36.017  29.977  29.111  1.00  0.00     0.006 A 
ENDBRANCH  61  82
BRANCH  73  90
ATOM     90  C   UNL A   1      44.582  32.366  30.938  1.00  0.00     0.057 A 
ATOM     91  C   UNL A   1      44.820  33.412  30.039  1.00  0.00     0.134 A 
ATOM     92  C   UNL A   1      44.562  32.676  32.304  1.00  0.00     0.134 A 
ATOM     93  F   UNL A   1      44.861  33.178  28.718  1.00  0.00    -0.206 F 
ATOM     94  C   UNL A   1      45.058  34.713  30.483  1.00  0.00     0.040 A 
ATOM     95  C   UNL A   1      44.766  33.978  32.758  1.00  0.00     0.040 A 
ATOM     96  F   UNL A   1      44.327  31.721  33.217  1.00  0.00    -0.206 F 
ATOM     97  C   UNL A   1      45.023  35.000  31.847  1.00  0.00     0.006 A 
ENDBRANCH  73  90
ENDBRANCH  47  48
ENDBRANCH  39  42
ENDBRANCH  37  38
ENDBRANCH  36  37
ENDBRANCH   1  36
TORSDOF 14
ENDMDL
MODEL 2
REMARK VINA RESULT:     -14.0      3.412      9.350
REMARK SMILES Cc1cc(N2CC[NH+]([C@@H](C(=O)NCCCCNC(=O)c3ccc(-c4c5nc(c(-c6c(F)cccc6F)c6ccc([nH]6)c(-c6c(F)cccc6F)c6nc(c(-c7c(F)cccc7F)c7ccc4[nH]7)C=C6)C=C5)cc3)c3c[nH]c4ccccc34)CC2)nc2ccccc12
REMARK SMILES IDX 14 1 13 2 12 3 10 4 11 5 9 7 8 8 5 9 6 10 84 11 7 12 83 13
REMARK SMILES IDX 4 15 1 16 2 17 3 18 91 19 86 20 90 21 85 22 87 23 89 24
REMARK SMILES IDX 88 25 74 26 75 27 82 28 76 29 77 30 81 31 78 33 80 34 79 35
REMARK SMILES IDX 15 36 16 37 17 38 18 39 19 41 20 42 21 43 73 44 22 45 72 46
REMARK SMILES IDX 23 47 24 48 25 49 66 50 26 51 71 52 65 53 67 54 27 55 70 56
REMARK SMILES IDX 64 57 63 58 28 60 54 61 37 62 53 63 38 64 41 65 52 66 68 67
REMARK SMILES IDX 39 68 40 69 51 71 69 72 42 73 29 74 30 75 35 76 31 77 32 78
REMARK SMILES IDX 34 79 36 80 33 81 55 82 56 83 61 84 57 85 58 86 60 87 62 88
REMARK SMILES IDX 59 89 43 90 44 91 49 92 45 93 46 94 48 95 50 96 47 97
REMARK H PARENT 12 6 8 14 76 32 17 40 67 59 41 70
REMARK Flexibility Score: inf
ROOT
ATOM      1  C   UNL A   1      31.643  30.505  25.864  1.00  0.00     0.023 C 
ENDROOT
BRANCH   1   2
ATOM      2  C   UNL A   1      32.593  29.524  26.613  1.00  0.00     0.116 C 
BRANCH   2   3
ATOM      3  N   UNL A   1      33.116  28.371  25.858  1.00  0.00    -0.351 N 
ATOM      4  C   UNL A   1      32.641  27.368  25.032  1.00  0.00     0.283 C 
ATOM      5  O   UNL A   1      33.546  26.713  24.494  1.00  0.00    -0.268 OA
ATOM      6  H   UNL A   1      34.090  28.291  25.977  1.00  0.00     0.163 HD
BRANCH   4   7
ATOM      7  C   UNL A   1      31.132  27.102  24.709  1.00  0.00     0.307 C 
BRANCH   7   8
ATOM      8  N   UNL A   1      30.543  25.734  24.987  1.00  0.00    -0.318 N 
ATOM      9  N   UNL A   1      32.407  23.475  24.802  1.00  0.00    -0.345 N 
ATOM     10  C   UNL A   1      31.925  24.108  23.583  1.00  0.00     0.179 C 
ATOM     11  C   UNL A   1      32.404  24.343  25.979  1.00  0.00     0.179 C 
ATOM     12  C   UNL A   1      30.547  24.678  23.949  1.00  0.00     0.284 C 
ATOM     13  C   UNL A   1      31.052  25.069  26.181  1.00  0.00     0.284 C 
ATOM     14  H   UNL A   1      29.586  26.077  25.069  1.00  0.00     0.349 HD
BRANCH   9  15
ATOM     15  C   UNL A   1      33.538  22.673  24.756  1.00  0.00     0.129 A 
ATOM     16  C   UNL A   1      34.036  18.948  24.625  1.00  0.00     0.045 C 
ATOM     17  C   UNL A   1      34.362  20.409  24.726  1.00  0.00    -0.038 A 
ATOM     18  C   UNL A   1      33.314  21.311  24.615  1.00  0.00     0.051 A 
ATOM     19  C   UNL A   1      35.656  20.918  24.928  1.00  0.00     0.003 A 
ATOM     20  C   UNL A   1      35.800  22.320  25.068  1.00  0.00     0.073 A 
ATOM     21  C   UNL A   1      36.799  20.093  25.001  1.00  0.00     0.010 A 
ATOM     22  N   UNL A   1      34.765  23.176  24.976  1.00  0.00    -0.231 NA
ATOM     23  C   UNL A   1      37.068  22.828  25.332  1.00  0.00     0.029 A 
ATOM     24  C   UNL A   1      38.060  20.633  25.238  1.00  0.00     0.001 A 
ATOM     25  C   UNL A   1      38.193  22.002  25.421  1.00  0.00     0.002 A 
ENDBRANCH   9  15
ENDBRANCH   7   8
BRANCH   7  26
ATOM     26  C   UNL A   1      30.643  27.607  23.309  1.00  0.00     0.044 A 
ATOM     27  C   UNL A   1      31.531  28.079  22.337  1.00  0.00     0.094 A 
ATOM     28  C   UNL A   1      29.442  28.349  22.970  1.00  0.00     0.009 A 
ATOM     29  N   UNL A   1      31.284  29.444  22.398  1.00  0.00    -0.361 N 
ATOM     30  C   UNL A   1      29.930  29.614  22.602  1.00  0.00     0.046 A 
ATOM     31  C   UNL A   1      28.047  28.217  23.129  1.00  0.00     0.011 A 
ATOM     32  H   UNL A   1      31.955  30.161  22.313  1.00  0.00     0.166 HD
ATOM     33  C   UNL A   1      29.153  30.779  22.650  1.00  0.00     0.026 A 
ATOM     34  C   UNL A   1      27.228  29.355  23.016  1.00  0.00     0.001 A 
ATOM     35  C   UNL A   1      27.784  30.624  22.868  1.00  0.00     0.002 A 
ENDBRANCH   7  26
ENDBRANCH   4   7
ENDBRANCH   2   3
ENDBRANCH   1   2
BRANCH   1  36
ATOM     36  C   UNL A   1      31.397  31.881  26.499  1.00  0.00     0.023 C 
BRANCH  36  37
ATOM     37  C   UNL A   1      32.595  32.446  27.229  1.00  0.00     0.116 C 
BRANCH  37  38
ATOM     38  N   UNL A   1      32.394  33.832  27.627  1.00  0.00    -0.352 N 
ATOM     39  C   UNL A   1      33.096  34.580  28.548  1.00  0.00     0.251 C 
ATOM     40  H   UNL A   1      31.653  34.299  27.178  1.00  0.00     0.163 HD
ATOM     41  O   UNL A   1      32.680  35.674  28.895  1.00  0.00    -0.269 OA
BRANCH  39  42
ATOM     42  C   UNL A   1      34.345  34.036  29.133  1.00  0.00     0.039 A 
ATOM     43  C   UNL A   1      34.267  33.209  30.257  1.00  0.00     0.014 A 
ATOM     44  C   UNL A   1      35.588  34.339  28.575  1.00  0.00     0.014 A 
ATOM     45  C   UNL A   1      35.432  32.653  30.788  1.00  0.00     0.010 A 
ATOM     46  C   UNL A   1      36.729  33.696  29.029  1.00  0.00     0.010 A 
ATOM     47  C   UNL A   1      36.669  32.870  30.159  1.00  0.00    -0.014 A 
BRANCH  47  48
ATOM     48  C   UNL A   1      37.925  32.289  30.688  1.00  0.00     0.031 A 
ATOM     49  C   UNL A   1      38.487  31.042  30.060  1.00  0.00     0.074 A 
ATOM     50  C   UNL A   1      38.512  32.844  31.766  1.00  0.00     0.049 A 
ATOM     51  N   UNL A   1      39.524  30.329  30.420  1.00  0.00    -0.248 NA
ATOM     52  C   UNL A   1      37.768  30.498  28.894  1.00  0.00     0.031 C 
ATOM     53  C   UNL A   1      38.018  34.016  32.493  1.00  0.00     0.029 A 
ATOM     54  N   UNL A   1      39.648  32.488  32.446  1.00  0.00    -0.354 N 
ATOM     55  C   UNL A   1      39.562  29.251  29.544  1.00  0.00     0.074 A 
ATOM     56  C   UNL A   1      38.416  29.364  28.674  1.00  0.00     0.031 C 
ATOM     57  C   UNL A   1      38.861  34.300  33.498  1.00  0.00     0.029 A 
ATOM     58  C   UNL A   1      39.929  33.305  33.516  1.00  0.00     0.049 A 
ATOM     59  H   UNL A   1      40.209  31.721  32.194  1.00  0.00     0.167 HD
ATOM     60  C   UNL A   1      40.490  28.270  29.455  1.00  0.00     0.037 A 
ATOM     61  C   UNL A   1      40.932  33.248  34.412  1.00  0.00     0.037 A 
ATOM     62  C   UNL A   1      41.652  28.193  30.300  1.00  0.00     0.049 A 
ATOM     63  C   UNL A   1      41.956  32.153  34.278  1.00  0.00     0.074 A 
ATOM     64  C   UNL A   1      42.694  27.287  30.248  1.00  0.00     0.029 A 
ATOM     65  N   UNL A   1      41.921  29.061  31.347  1.00  0.00    -0.354 N 
ATOM     66  N   UNL A   1      42.027  31.189  33.392  1.00  0.00    -0.248 NA
ATOM     67  C   UNL A   1      43.045  32.142  35.264  1.00  0.00     0.031 C 
ATOM     68  C   UNL A   1      43.570  27.574  31.299  1.00  0.00     0.029 A 
ATOM     69  C   UNL A   1      43.103  28.696  31.966  1.00  0.00     0.049 A 
ATOM     70  H   UNL A   1      41.356  29.822  31.611  1.00  0.00     0.167 HD
ATOM     71  C   UNL A   1      43.182  30.479  33.693  1.00  0.00     0.074 A 
ATOM     72  C   UNL A   1      43.790  31.136  34.831  1.00  0.00     0.031 C 
ATOM     73  C   UNL A   1      43.695  29.380  33.087  1.00  0.00     0.037 A 
BRANCH  60  74
ATOM     74  C   UNL A   1      40.300  27.212  28.408  1.00  0.00     0.057 A 
ATOM     75  C   UNL A   1      40.925  27.287  27.155  1.00  0.00     0.134 A 
ATOM     76  C   UNL A   1      39.528  26.075  28.675  1.00  0.00     0.134 A 
ATOM     77  F   UNL A   1      41.667  28.356  26.828  1.00  0.00    -0.206 F 
ATOM     78  C   UNL A   1      40.779  26.276  26.203  1.00  0.00     0.040 A 
ATOM     79  C   UNL A   1      39.397  25.044  27.742  1.00  0.00     0.040 A 
ATOM     80  F   UNL A   1      38.903  25.937  29.854  1.00  0.00    -0.206 F 
ATOM     81  C   UNL A   1      40.022  25.144  26.501  1.00  0.00     0.006 A 
ENDBRANCH  60  74
BRANCH  61  82
ATOM     82  C   UNL A   1      41.029  34.254  35.502  1.00  0.00     0.057 A 
ATOM     83  C   UNL A   1      40.475  34.010  36.765  1.00  0.00     0.134 A 
ATOM     84  C   UNL A   1      41.645  35.495  35.302  1.00  0.00     0.134 A 
ATOM     85  F   UNL A   1      39.859  32.846  37.019  1.00  0.00    -0.206 F 
ATOM     86  C   UNL A   1      40.494  34.975  37.773  1.00  0.00     0.040 A 
ATOM     87  C   UNL A   1      41.701  36.458  36.311  1.00  0.00     0.040 A 
ATOM     88  F   UNL A   1      42.210  35.789  34.121  1.00  0.00    -0.206 F 
ATOM     89  C   UNL A   1      41.112  36.204  37.548  1.00  0.00     0.006 A 
ENDBRANCH  61  82
BRANCH  73  90
ATOM     90  C   UNL A   1      44.998  28.851  33.613  1.00  0.00     0.057 A 
ATOM     91  C   UNL A   1      45.051  27.861  34.600  1.00  0.00     0.134 A 
ATOM     92  C   UNL A   1      46.212  29.311  33.088  1.00  0.00     0.134 A 
ATOM     93  F   UNL A   1      43.923  27.385  35.150  1.00  0.00    -0.206 F 
ATOM     94  C   UNL A   1      46.269  27.366  35.068  1.00  0.00     0.040 A 
ATOM     95  C   UNL A   1      47.434  28.801  33.525  1.00  0.00     0.040 A 
ATOM     96  F   UNL A   1      46.230  30.251  32.130  1.00  0.00    -0.206 F 
ATOM     97  C   UNL A   1      47.465  27.830  34.524  1.00  0.00     0.006 A 
ENDBRANCH  73  90
ENDBRANCH  47  48
ENDBRANCH  39  42
ENDBRANCH  37  38
ENDBRANCH  36  37
ENDBRANCH   1  36
TORSDOF 14
ENDMDL
MODEL 3
REMARK VINA RESULT:     -14.0      0.932      5.956
REMARK SMILES Cc1cc(N2CC[NH+]([C@@H](C(=O)NCCCCNC(=O)c3ccc(-c4c5nc(c(-c6c(F)cccc6F)c6ccc([nH]6)c(-c6c(F)cccc6F)c6nc(c(-c7c(F)cccc7F)c7ccc4[nH]7)C=C6)C=C5)cc3)c3c[nH]c4ccccc34)CC2)nc2ccccc12
REMARK SMILES IDX 14 1 13 2 12 3 10 4 11 5 9 7 8 8 5 9 6 10 84 11 7 12 83 13
REMARK SMILES IDX 4 15 1 16 2 17 3 18 91 19 86 20 90 21 85 22 87 23 89 24
REMARK SMILES IDX 88 25 74 26 75 27 82 28 76 29 77 30 81 31 78 33 80 34 79 35
REMARK SMILES IDX 15 36 16 37 17 38 18 39 19 41 20 42 21 43 73 44 22 45 72 46
REMARK SMILES IDX 23 47 24 48 25 49 66 50 26 51 71 52 65 53 67 54 27 55 70 56
REMARK SMILES IDX 64 57 63 58 28 60 54 61 37 62 53 63 38 64 41 65 52 66 68 67
REMARK SMILES IDX 39 68 40 69 51 71 69 72 42 73 29 74 30 75 35 76 31 77 32 78
REMARK SMILES IDX 34 79 36 80 33 81 55 82 56 83 61 84 57 85 58 86 60 87 62 88
REMARK SMILES IDX 59 89 43 90 44 91 49 92 45 93 46 94 48 95 50 96 47 97
REMARK H PARENT 12 6 8 14 76 32 17 40 67 59 41 70
REMARK Flexibility Score: inf
ROOT
ATOM      1  C   UNL A   1      36.567  20.145  24.986  1.00  0.00     0.023 C 
ENDROOT
BRANCH   1   2
ATOM      2  C   UNL A   1      36.770  21.688  25.071  1.00  0.00     0.116 C 
BRANCH   2   3
ATOM      3  N   UNL A   1      35.617  22.505  25.489  1.00  0.00    -0.351 N 
ATOM      4  C   UNL A   1      34.277  22.650  25.176  1.00  0.00     0.283 C 
ATOM      5  O   UNL A   1      33.674  23.395  25.961  1.00  0.00    -0.268 OA
ATOM      6  H   UNL A   1      35.878  23.134  26.200  1.00  0.00     0.163 HD
BRANCH   4   7
ATOM      7  C   UNL A   1      33.534  21.906  24.016  1.00  0.00     0.307 C 
BRANCH   7   8
ATOM      8  N   UNL A   1      32.805  22.714  22.962  1.00  0.00    -0.318 N 
ATOM      9  N   UNL A   1      32.006  25.425  23.752  1.00  0.00    -0.345 N 
ATOM     10  C   UNL A   1      31.264  24.282  24.262  1.00  0.00     0.179 C 
ATOM     11  C   UNL A   1      33.392  25.134  23.385  1.00  0.00     0.179 C 
ATOM     12  C   UNL A   1      31.423  23.193  23.190  1.00  0.00     0.284 C 
ATOM     13  C   UNL A   1      33.520  23.888  22.475  1.00  0.00     0.284 C 
ATOM     14  H   UNL A   1      32.755  21.943  22.295  1.00  0.00     0.349 HD
BRANCH   9  15
ATOM     15  C   UNL A   1      31.886  26.655  24.381  1.00  0.00     0.129 A 
ATOM     16  C   UNL A   1      29.890  29.746  23.608  1.00  0.00     0.045 C 
ATOM     17  C   UNL A   1      30.876  28.840  24.284  1.00  0.00    -0.038 A 
ATOM     18  C   UNL A   1      30.956  27.530  23.838  1.00  0.00     0.051 A 
ATOM     19  C   UNL A   1      31.722  29.236  25.334  1.00  0.00     0.003 A 
ATOM     20  C   UNL A   1      32.649  28.286  25.829  1.00  0.00     0.073 A 
ATOM     21  C   UNL A   1      31.686  30.528  25.899  1.00  0.00     0.010 A 
ATOM     22  N   UNL A   1      32.722  27.023  25.367  1.00  0.00    -0.231 NA
ATOM     23  C   UNL A   1      33.534  28.687  26.824  1.00  0.00     0.029 A 
ATOM     24  C   UNL A   1      32.566  30.893  26.914  1.00  0.00     0.001 A 
ATOM     25  C   UNL A   1      33.504  29.976  27.367  1.00  0.00     0.002 A 
ENDBRANCH   9  15
ENDBRANCH   7   8
BRANCH   7  26
ATOM     26  C   UNL A   1      32.644  20.693  24.453  1.00  0.00     0.044 A 
ATOM     27  C   UNL A   1      32.263  20.493  25.784  1.00  0.00     0.094 A 
ATOM     28  C   UNL A   1      32.646  19.329  23.958  1.00  0.00     0.009 A 
ATOM     29  N   UNL A   1      33.077  19.424  26.132  1.00  0.00    -0.361 N 
ATOM     30  C   UNL A   1      33.157  18.587  25.037  1.00  0.00     0.046 A 
ATOM     31  C   UNL A   1      32.507  18.660  22.724  1.00  0.00     0.011 A 
ATOM     32  H   UNL A   1      33.518  19.287  27.002  1.00  0.00     0.166 HD
ATOM     33  C   UNL A   1      33.772  17.338  24.884  1.00  0.00     0.026 A 
ATOM     34  C   UNL A   1      32.972  17.338  22.599  1.00  0.00     0.001 A 
ATOM     35  C   UNL A   1      33.671  16.725  23.636  1.00  0.00     0.002 A 
ENDBRANCH   7  26
ENDBRANCH   4   7
ENDBRANCH   2   3
ENDBRANCH   1   2
BRANCH   1  36
ATOM     36  C   UNL A   1      37.820  19.260  25.010  1.00  0.00     0.023 C 
BRANCH  36  37
ATOM     37  C   UNL A   1      38.994  19.873  25.741  1.00  0.00     0.116 C 
BRANCH  37  38
ATOM     38  N   UNL A   1      40.126  18.960  25.828  1.00  0.00    -0.352 N 
ATOM     39  C   UNL A   1      41.450  19.244  26.082  1.00  0.00     0.251 C 
ATOM     40  H   UNL A   1      39.916  18.009  25.684  1.00  0.00     0.163 HD
ATOM     41  O   UNL A   1      42.301  18.381  25.940  1.00  0.00    -0.269 OA
BRANCH  39  42
ATOM     42  C   UNL A   1      41.838  20.612  26.505  1.00  0.00     0.039 A 
ATOM     43  C   UNL A   1      41.932  20.902  27.869  1.00  0.00     0.014 A 
ATOM     44  C   UNL A   1      42.108  21.604  25.561  1.00  0.00     0.014 A 
ATOM     45  C   UNL A   1      42.342  22.172  28.278  1.00  0.00     0.010 A 
ATOM     46  C   UNL A   1      42.625  22.825  25.964  1.00  0.00     0.010 A 
ATOM     47  C   UNL A   1      42.720  23.133  27.327  1.00  0.00    -0.014 A 
BRANCH  47  48
ATOM     48  C   UNL A   1      43.168  24.489  27.724  1.00  0.00     0.031 A 
ATOM     49  C   UNL A   1      42.145  25.527  28.101  1.00  0.00     0.074 A 
ATOM     50  C   UNL A   1      44.479  24.796  27.679  1.00  0.00     0.049 A 
ATOM     51  N   UNL A   1      42.318  26.789  28.399  1.00  0.00    -0.248 NA
ATOM     52  C   UNL A   1      40.733  25.102  28.107  1.00  0.00     0.031 C 
ATOM     53  C   UNL A   1      45.550  23.885  27.268  1.00  0.00     0.029 A 
ATOM     54  N   UNL A   1      45.132  25.964  27.973  1.00  0.00    -0.354 N 
ATOM     55  C   UNL A   1      41.045  27.306  28.602  1.00  0.00     0.074 A 
ATOM     56  C   UNL A   1      40.103  26.245  28.335  1.00  0.00     0.031 C 
ATOM     57  C   UNL A   1      46.730  24.520  27.363  1.00  0.00     0.029 A 
ATOM     58  C   UNL A   1      46.495  25.893  27.798  1.00  0.00     0.049 A 
ATOM     59  H   UNL A   1      44.672  26.778  28.280  1.00  0.00     0.167 HD
ATOM     60  C   UNL A   1      40.695  28.550  29.005  1.00  0.00     0.037 A 
ATOM     61  C   UNL A   1      47.441  26.835  27.963  1.00  0.00     0.037 A 
ATOM     62  C   UNL A   1      41.644  29.585  29.310  1.00  0.00     0.049 A 
ATOM     63  C   UNL A   1      47.021  28.206  28.426  1.00  0.00     0.074 A 
ATOM     64  C   UNL A   1      41.404  30.857  29.797  1.00  0.00     0.029 A 
ATOM     65  N   UNL A   1      43.017  29.464  29.157  1.00  0.00    -0.354 N 
ATOM     66  N   UNL A   1      45.820  28.657  28.696  1.00  0.00    -0.248 NA
ATOM     67  C   UNL A   1      48.090  29.196  28.614  1.00  0.00     0.031 C 
ATOM     68  C   UNL A   1      42.629  31.524  29.889  1.00  0.00     0.029 A 
ATOM     69  C   UNL A   1      43.636  30.647  29.517  1.00  0.00     0.049 A 
ATOM     70  H   UNL A   1      43.481  28.656  28.838  1.00  0.00     0.167 HD
ATOM     71  C   UNL A   1      45.991  29.969  29.116  1.00  0.00     0.074 A 
ATOM     72  C   UNL A   1      47.414  30.235  29.084  1.00  0.00     0.031 C 
ATOM     73  C   UNL A   1      45.058  30.877  29.493  1.00  0.00     0.037 A 
BRANCH  60  74
ATOM     74  C   UNL A   1      39.233  28.858  29.153  1.00  0.00     0.057 A 
ATOM     75  C   UNL A   1      38.557  28.685  30.369  1.00  0.00     0.134 A 
ATOM     76  C   UNL A   1      38.504  29.389  28.081  1.00  0.00     0.134 A 
ATOM     77  F   UNL A   1      39.192  28.167  31.432  1.00  0.00    -0.206 F 
ATOM     78  C   UNL A   1      37.208  29.017  30.510  1.00  0.00     0.040 A 
ATOM     79  C   UNL A   1      37.162  29.750  28.217  1.00  0.00     0.040 A 
ATOM     80  F   UNL A   1      39.088  29.582  26.889  1.00  0.00    -0.206 F 
ATOM     81  C   UNL A   1      36.510  29.562  29.434  1.00  0.00     0.006 A 
ENDBRANCH  60  74
BRANCH  61  82
ATOM     82  C   UNL A   1      48.871  26.524  27.705  1.00  0.00     0.057 A 
ATOM     83  C   UNL A   1      49.446  26.745  26.448  1.00  0.00     0.134 A 
ATOM     84  C   UNL A   1      49.690  25.964  28.694  1.00  0.00     0.134 A 
ATOM     85  F   UNL A   1      48.713  27.267  25.452  1.00  0.00    -0.206 F 
ATOM     86  C   UNL A   1      50.767  26.388  26.171  1.00  0.00     0.040 A 
ATOM     87  C   UNL A   1      51.022  25.631  28.442  1.00  0.00     0.040 A 
ATOM     88  F   UNL A   1      49.208  25.738  29.925  1.00  0.00    -0.206 F 
ATOM     89  C   UNL A   1      51.560  25.830  27.172  1.00  0.00     0.006 A 
ENDBRANCH  61  82
BRANCH  73  90
ATOM     90  C   UNL A   1      45.550  32.221  29.944  1.00  0.00     0.057 A 
ATOM     91  C   UNL A   1      45.868  32.483  31.281  1.00  0.00     0.134 A 
ATOM     92  C   UNL A   1      45.749  33.251  29.015  1.00  0.00     0.134 A 
ATOM     93  F   UNL A   1      45.691  31.542  32.221  1.00  0.00    -0.206 F 
ATOM     94  C   UNL A   1      46.341  33.732  31.685  1.00  0.00     0.040 A 
ATOM     95  C   UNL A   1      46.251  34.493  29.402  1.00  0.00     0.040 A 
ATOM     96  F   UNL A   1      45.475  33.060  27.716  1.00  0.00    -0.206 F 
ATOM     97  C   UNL A   1      46.541  34.739  30.742  1.00  0.00     0.006 A 
ENDBRANCH  73  90
ENDBRANCH  47  48
ENDBRANCH  39  42
ENDBRANCH  37  38
ENDBRANCH  36  37
ENDBRANCH   1  36
TORSDOF 14
ENDMDL
