MODEL 1
REMARK VINA RESULT:     -11.9      0.000      0.000
REMARK SMILES O=C(NCCCCNC(=O)[C@H](c1cnn(Cc2ccccc2)c1)[NH+]1CCOCC1)c1ccc(-c2c3nc(c(-c4c(F)cccc4F)c4ccc([nH]4)c(-c4c(F)cccc4F)c4nc(c(-c5c(F)cccc5F)c5ccc2[nH]5)C=C4)C=C3)cc1
REMARK SMILES IDX 6 1 5 2 4 3 3 4 1 5 2 6 30 8 31 9 83 10 32 11 82 12 33 13
REMARK SMILES IDX 34 14 35 15 76 16 36 17 81 18 75 19 77 20 37 21 80 22 74 23
REMARK SMILES IDX 73 24 38 26 64 27 47 28 63 29 48 30 51 31 62 32 78 33 49 34
REMARK SMILES IDX 50 35 61 37 79 38 52 39 39 40 40 41 45 42 41 43 42 44 44 45
REMARK SMILES IDX 46 46 43 47 65 48 66 49 71 50 67 51 68 52 70 53 72 54 69 55
REMARK SMILES IDX 53 56 54 57 59 58 55 59 56 60 58 61 60 62 57 63 7 64 8 65
REMARK SMILES IDX 9 66 10 68 11 69 24 70 25 71 29 72 26 74 28 75 27 76 12 77
REMARK SMILES IDX 13 78 23 79 14 80 15 81 16 82 17 83 18 84 22 85 19 86 21 87
REMARK SMILES IDX 20 88
REMARK H PARENT 3 7 77 25 51 36 8 67 24 73
REMARK Flexibility Score: inf
ROOT
ATOM      1  C   UNL A   1      32.750  29.786  27.101  1.00  0.00     0.023 C 
ENDROOT
BRANCH   1   2
ATOM      2  C   UNL A   1      34.237  30.094  27.282  1.00  0.00     0.023 C 
BRANCH   2   3
ATOM      3  C   UNL A   1      34.610  31.508  27.753  1.00  0.00     0.116 C 
BRANCH   3   4
ATOM      4  N   UNL A   1      34.361  31.815  29.147  1.00  0.00    -0.352 N 
ATOM      5  O   UNL A   1      34.701  32.473  31.236  1.00  0.00    -0.269 OA
ATOM      6  C   UNL A   1      35.157  31.884  30.269  1.00  0.00     0.251 C 
ATOM      7  H   UNL A   1      33.415  32.018  29.334  1.00  0.00     0.163 HD
BRANCH   6   8
ATOM      8  C   UNL A   1      36.477  31.206  30.400  1.00  0.00     0.039 A 
ATOM      9  C   UNL A   1      37.712  31.848  30.417  1.00  0.00     0.014 A 
ATOM     10  C   UNL A   1      36.453  29.798  30.426  1.00  0.00     0.014 A 
ATOM     11  C   UNL A   1      38.886  31.120  30.285  1.00  0.00     0.010 A 
ATOM     12  C   UNL A   1      37.629  29.060  30.350  1.00  0.00     0.010 A 
ATOM     13  C   UNL A   1      38.841  29.728  30.215  1.00  0.00    -0.014 A 
BRANCH  13  14
ATOM     14  C   UNL A   1      40.117  29.027  30.117  1.00  0.00     0.031 A 
ATOM     15  C   UNL A   1      40.859  28.879  31.406  1.00  0.00     0.074 A 
ATOM     16  C   UNL A   1      40.558  28.446  28.985  1.00  0.00     0.049 A 
ATOM     17  N   UNL A   1      42.060  29.260  31.701  1.00  0.00    -0.248 NA
ATOM     18  C   UNL A   1      40.118  28.303  32.540  1.00  0.00     0.031 C 
ATOM     19  C   UNL A   1      39.831  28.244  27.730  1.00  0.00     0.029 A 
ATOM     20  N   UNL A   1      41.742  27.811  28.762  1.00  0.00    -0.354 N 
ATOM     21  C   UNL A   1      42.291  28.825  33.008  1.00  0.00     0.074 A 
ATOM     22  C   UNL A   1      41.028  28.355  33.511  1.00  0.00     0.031 C 
ATOM     23  C   UNL A   1      40.498  27.344  26.972  1.00  0.00     0.029 A 
ATOM     24  C   UNL A   1      41.752  27.013  27.629  1.00  0.00     0.049 A 
ATOM     25  H   UNL A   1      42.523  27.910  29.354  1.00  0.00     0.167 HD
ATOM     26  C   UNL A   1      43.548  28.704  33.520  1.00  0.00     0.037 A 
ATOM     27  C   UNL A   1      42.686  26.089  27.300  1.00  0.00     0.037 A 
ATOM     28  C   UNL A   1      44.495  29.512  32.802  1.00  0.00     0.049 A 
ATOM     29  C   UNL A   1      43.911  26.375  28.085  1.00  0.00     0.074 A 
ATOM     30  C   UNL A   1      44.638  30.865  32.559  1.00  0.00     0.029 A 
ATOM     31  N   UNL A   1      45.355  28.893  31.932  1.00  0.00    -0.354 N 
ATOM     32  N   UNL A   1      44.679  27.410  27.897  1.00  0.00    -0.248 NA
ATOM     33  C   UNL A   1      44.060  25.713  29.372  1.00  0.00     0.031 C 
ATOM     34  C   UNL A   1      45.177  30.947  31.242  1.00  0.00     0.029 A 
ATOM     35  C   UNL A   1      45.358  29.642  30.785  1.00  0.00     0.049 A 
ATOM     36  H   UNL A   1      45.870  28.071  32.099  1.00  0.00     0.167 HD
ATOM     37  C   UNL A   1      45.092  27.781  29.167  1.00  0.00     0.074 A 
ATOM     38  C   UNL A   1      44.760  26.646  30.023  1.00  0.00     0.031 C 
ATOM     39  C   UNL A   1      45.411  29.076  29.460  1.00  0.00     0.037 A 
BRANCH  26  40
ATOM     40  C   UNL A   1      43.980  27.585  34.442  1.00  0.00     0.057 A 
ATOM     41  C   UNL A   1      44.575  27.902  35.679  1.00  0.00     0.134 A 
ATOM     42  C   UNL A   1      44.124  26.242  34.040  1.00  0.00     0.134 A 
ATOM     43  F   UNL A   1      44.510  29.146  36.177  1.00  0.00    -0.206 F 
ATOM     44  C   UNL A   1      45.337  26.979  36.406  1.00  0.00     0.040 A 
ATOM     45  C   UNL A   1      44.841  25.299  34.785  1.00  0.00     0.040 A 
ATOM     46  F   UNL A   1      43.670  25.788  32.867  1.00  0.00    -0.206 F 
ATOM     47  C   UNL A   1      45.483  25.676  35.952  1.00  0.00     0.006 A 
ENDBRANCH  26  40
BRANCH  27  48
ATOM     48  C   UNL A   1      42.482  24.801  26.600  1.00  0.00     0.057 A 
ATOM     49  C   UNL A   1      43.210  24.471  25.449  1.00  0.00     0.134 A 
ATOM     50  C   UNL A   1      41.756  23.752  27.193  1.00  0.00     0.134 A 
ATOM     51  F   UNL A   1      43.972  25.391  24.840  1.00  0.00    -0.206 F 
ATOM     52  C   UNL A   1      43.226  23.171  24.926  1.00  0.00     0.040 A 
ATOM     53  C   UNL A   1      41.754  22.454  26.676  1.00  0.00     0.040 A 
ATOM     54  F   UNL A   1      41.093  23.932  28.345  1.00  0.00    -0.206 F 
ATOM     55  C   UNL A   1      42.502  22.155  25.545  1.00  0.00     0.006 A 
ENDBRANCH  27  48
BRANCH  39  56
ATOM     56  C   UNL A   1      45.544  30.044  28.320  1.00  0.00     0.057 A 
ATOM     57  C   UNL A   1      44.464  30.748  27.770  1.00  0.00     0.134 A 
ATOM     58  C   UNL A   1      46.824  30.400  27.882  1.00  0.00     0.134 A 
ATOM     59  F   UNL A   1      43.213  30.550  28.204  1.00  0.00    -0.206 F 
ATOM     60  C   UNL A   1      44.647  31.734  26.796  1.00  0.00     0.040 A 
ATOM     61  C   UNL A   1      47.023  31.406  26.933  1.00  0.00     0.040 A 
ATOM     62  F   UNL A   1      47.909  29.812  28.411  1.00  0.00    -0.206 F 
ATOM     63  C   UNL A   1      45.931  32.070  26.379  1.00  0.00     0.006 A 
ENDBRANCH  39  56
ENDBRANCH  13  14
ENDBRANCH   6   8
ENDBRANCH   3   4
ENDBRANCH   2   3
ENDBRANCH   1   2
BRANCH   1  64
ATOM     64  C   UNL A   1      32.242  29.836  25.673  1.00  0.00     0.116 C 
BRANCH  64  65
ATOM     65  N   UNL A   1      33.238  29.658  24.646  1.00  0.00    -0.351 N 
ATOM     66  C   UNL A   1      33.223  28.694  23.661  1.00  0.00     0.283 C 
ATOM     67  H   UNL A   1      33.999  30.283  24.647  1.00  0.00     0.163 HD
ATOM     68  O   UNL A   1      33.919  28.913  22.665  1.00  0.00    -0.268 OA
BRANCH  66  69
ATOM     69  C   UNL A   1      32.353  27.409  23.847  1.00  0.00     0.308 C 
BRANCH  69  70
ATOM     70  N   UNL A   1      31.199  27.299  22.943  1.00  0.00    -0.317 N 
ATOM     71  C   UNL A   1      30.584  28.501  22.389  1.00  0.00     0.292 C 
ATOM     72  C   UNL A   1      30.219  26.248  23.200  1.00  0.00     0.292 C 
ATOM     73  H   UNL A   1      31.775  26.965  22.171  1.00  0.00     0.349 HD
ATOM     74  C   UNL A   1      29.369  28.968  23.197  1.00  0.00     0.221 C 
ATOM     75  C   UNL A   1      28.921  26.716  23.879  1.00  0.00     0.221 C 
ATOM     76  O   UNL A   1      28.390  27.931  23.342  1.00  0.00    -0.370 OA
ENDBRANCH  69  70
BRANCH  69  77
ATOM     77  C   UNL A   1      33.171  26.152  23.681  1.00  0.00     0.057 A 
ATOM     78  C   UNL A   1      33.650  25.564  22.485  1.00  0.00     0.145 A 
ATOM     79  C   UNL A   1      33.629  25.293  24.667  1.00  0.00     0.119 A 
ATOM     80  N   UNL A   1      34.369  24.460  22.696  1.00  0.00    -0.181 NA
ATOM     81  N   UNL A   1      34.301  24.283  24.031  1.00  0.00    -0.268 N 
BRANCH  81  82
ATOM     82  C   UNL A   1      35.010  23.174  24.661  1.00  0.00     0.179 C 
BRANCH  82  83
ATOM     83  C   UNL A   1      34.306  21.850  24.482  1.00  0.00    -0.027 A 
ATOM     84  C   UNL A   1      33.016  21.787  23.935  1.00  0.00     0.005 A 
ATOM     85  C   UNL A   1      34.922  20.656  24.889  1.00  0.00     0.005 A 
ATOM     86  C   UNL A   1      32.365  20.559  23.793  1.00  0.00     0.000 A 
ATOM     87  C   UNL A   1      34.273  19.430  24.743  1.00  0.00     0.000 A 
ATOM     88  C   UNL A   1      32.993  19.382  24.197  1.00  0.00     0.000 A 
ENDBRANCH  82  83
ENDBRANCH  81  82
ENDBRANCH  69  77
ENDBRANCH  66  69
ENDBRANCH  64  65
ENDBRANCH   1  64
TORSDOF 15
ENDMDL
MODEL 2
REMARK VINA RESULT:     -11.9      0.829      1.389
REMARK SMILES O=C(NCCCCNC(=O)[C@H](c1cnn(Cc2ccccc2)c1)[NH+]1CCOCC1)c1ccc(-c2c3nc(c(-c4c(F)cccc4F)c4ccc([nH]4)c(-c4c(F)cccc4F)c4nc(c(-c5c(F)cccc5F)c5ccc2[nH]5)C=C4)C=C3)cc1
REMARK SMILES IDX 6 1 5 2 4 3 3 4 1 5 2 6 30 8 31 9 83 10 32 11 82 12 33 13
REMARK SMILES IDX 34 14 35 15 76 16 36 17 81 18 75 19 77 20 37 21 80 22 74 23
REMARK SMILES IDX 73 24 38 26 64 27 47 28 63 29 48 30 51 31 62 32 78 33 49 34
REMARK SMILES IDX 50 35 61 37 79 38 52 39 39 40 40 41 45 42 41 43 42 44 44 45
REMARK SMILES IDX 46 46 43 47 65 48 66 49 71 50 67 51 68 52 70 53 72 54 69 55
REMARK SMILES IDX 53 56 54 57 59 58 55 59 56 60 58 61 60 62 57 63 7 64 8 65
REMARK SMILES IDX 9 66 10 68 11 69 24 70 25 71 29 72 26 74 28 75 27 76 12 77
REMARK SMILES IDX 13 78 23 79 14 80 15 81 16 82 17 83 18 84 22 85 19 86 21 87
REMARK SMILES IDX 20 88
REMARK H PARENT 3 7 77 25 51 36 8 67 24 73
REMARK Flexibility Score: inf
ROOT
ATOM      1  C   UNL A   1      33.887  28.727  26.541  1.00  0.00     0.023 C 
ENDROOT
BRANCH   1   2
ATOM      2  C   UNL A   1      34.857  29.549  27.389  1.00  0.00     0.023 C 
BRANCH   2   3
ATOM      3  C   UNL A   1      34.552  31.046  27.553  1.00  0.00     0.116 C 
BRANCH   3   4
ATOM      4  N   UNL A   1      34.347  31.522  28.907  1.00  0.00    -0.352 N 
ATOM      5  O   UNL A   1      34.750  32.445  30.881  1.00  0.00    -0.269 OA
ATOM      6  C   UNL A   1      35.183  31.747  29.978  1.00  0.00     0.251 C 
ATOM      7  H   UNL A   1      33.405  31.729  29.104  1.00  0.00     0.163 HD
BRANCH   6   8
ATOM      8  C   UNL A   1      36.523  31.115  30.141  1.00  0.00     0.039 A 
ATOM      9  C   UNL A   1      37.741  31.737  29.884  1.00  0.00     0.014 A 
ATOM     10  C   UNL A   1      36.528  29.754  30.507  1.00  0.00     0.014 A 
ATOM     11  C   UNL A   1      38.911  30.994  29.818  1.00  0.00     0.010 A 
ATOM     12  C   UNL A   1      37.706  29.015  30.497  1.00  0.00     0.010 A 
ATOM     13  C   UNL A   1      38.887  29.626  30.089  1.00  0.00    -0.014 A 
BRANCH  13  14
ATOM     14  C   UNL A   1      40.161  28.917  30.041  1.00  0.00     0.031 A 
ATOM     15  C   UNL A   1      40.869  28.795  31.351  1.00  0.00     0.074 A 
ATOM     16  C   UNL A   1      40.627  28.308  28.933  1.00  0.00     0.049 A 
ATOM     17  N   UNL A   1      42.064  29.178  31.668  1.00  0.00    -0.248 NA
ATOM     18  C   UNL A   1      40.096  28.250  32.479  1.00  0.00     0.031 C 
ATOM     19  C   UNL A   1      39.932  28.080  27.665  1.00  0.00     0.029 A 
ATOM     20  N   UNL A   1      41.813  27.663  28.756  1.00  0.00    -0.354 N 
ATOM     21  C   UNL A   1      42.260  28.772  32.989  1.00  0.00     0.074 A 
ATOM     22  C   UNL A   1      40.982  28.320  33.472  1.00  0.00     0.031 C 
ATOM     23  C   UNL A   1      40.613  27.160  26.946  1.00  0.00     0.029 A 
ATOM     24  C   UNL A   1      41.848  26.839  27.642  1.00  0.00     0.049 A 
ATOM     25  H   UNL A   1      42.580  27.771  29.365  1.00  0.00     0.167 HD
ATOM     26  C   UNL A   1      43.502  28.657  33.537  1.00  0.00     0.037 A 
ATOM     27  C   UNL A   1      42.786  25.902  27.359  1.00  0.00     0.037 A 
ATOM     28  C   UNL A   1      44.471  29.444  32.824  1.00  0.00     0.049 A 
ATOM     29  C   UNL A   1      43.992  26.201  28.168  1.00  0.00     0.074 A 
ATOM     30  C   UNL A   1      44.628  30.791  32.554  1.00  0.00     0.029 A 
ATOM     31  N   UNL A   1      45.350  28.801  31.991  1.00  0.00    -0.354 N 
ATOM     32  N   UNL A   1      44.769  27.228  27.975  1.00  0.00    -0.248 NA
ATOM     33  C   UNL A   1      44.104  25.569  29.474  1.00  0.00     0.031 C 
ATOM     34  C   UNL A   1      45.200  30.839  31.250  1.00  0.00     0.029 A 
ATOM     35  C   UNL A   1      45.386  29.523  30.828  1.00  0.00     0.049 A 
ATOM     36  H   UNL A   1      45.856  27.981  32.190  1.00  0.00     0.167 HD
ATOM     37  C   UNL A   1      45.152  27.626  29.247  1.00  0.00     0.074 A 
ATOM     38  C   UNL A   1      44.792  26.513  30.120  1.00  0.00     0.031 C 
ATOM     39  C   UNL A   1      45.470  28.926  29.518  1.00  0.00     0.037 A 
BRANCH  26  40
ATOM     40  C   UNL A   1      43.905  27.559  34.495  1.00  0.00     0.057 A 
ATOM     41  C   UNL A   1      44.458  27.901  35.743  1.00  0.00     0.134 A 
ATOM     42  C   UNL A   1      44.063  26.207  34.126  1.00  0.00     0.134 A 
ATOM     43  F   UNL A   1      44.376  29.156  36.214  1.00  0.00    -0.206 F 
ATOM     44  C   UNL A   1      45.197  26.995  36.515  1.00  0.00     0.040 A 
ATOM     45  C   UNL A   1      44.756  25.281  34.912  1.00  0.00     0.040 A 
ATOM     46  F   UNL A   1      43.648  25.729  32.948  1.00  0.00    -0.206 F 
ATOM     47  C   UNL A   1      45.360  25.682  36.092  1.00  0.00     0.006 A 
ENDBRANCH  26  40
BRANCH  27  48
ATOM     48  C   UNL A   1      42.592  24.600  26.684  1.00  0.00     0.057 A 
ATOM     49  C   UNL A   1      43.230  24.302  25.472  1.00  0.00     0.134 A 
ATOM     50  C   UNL A   1      41.985  23.516  27.343  1.00  0.00     0.134 A 
ATOM     51  F   UNL A   1      43.880  25.259  24.794  1.00  0.00    -0.206 F 
ATOM     52  C   UNL A   1      43.273  23.002  24.953  1.00  0.00     0.040 A 
ATOM     53  C   UNL A   1      42.010  22.215  26.832  1.00  0.00     0.040 A 
ATOM     54  F   UNL A   1      41.420  23.667  28.551  1.00  0.00    -0.206 F 
ATOM     55  C   UNL A   1      42.668  21.951  25.638  1.00  0.00     0.006 A 
ENDBRANCH  27  48
BRANCH  39  56
ATOM     56  C   UNL A   1      45.637  29.867  28.360  1.00  0.00     0.057 A 
ATOM     57  C   UNL A   1      44.577  30.575  27.776  1.00  0.00     0.134 A 
ATOM     58  C   UNL A   1      46.930  30.194  27.936  1.00  0.00     0.134 A 
ATOM     59  F   UNL A   1      43.316  30.404  28.192  1.00  0.00    -0.206 F 
ATOM     60  C   UNL A   1      44.792  31.536  26.784  1.00  0.00     0.040 A 
ATOM     61  C   UNL A   1      47.160  31.176  26.970  1.00  0.00     0.040 A 
ATOM     62  F   UNL A   1      47.996  29.602  28.496  1.00  0.00    -0.206 F 
ATOM     63  C   UNL A   1      46.088  31.844  26.383  1.00  0.00     0.006 A 
ENDBRANCH  39  56
ENDBRANCH  13  14
ENDBRANCH   6   8
ENDBRANCH   3   4
ENDBRANCH   2   3
ENDBRANCH   1   2
BRANCH   1  64
ATOM     64  C   UNL A   1      33.370  29.411  25.291  1.00  0.00     0.116 C 
BRANCH  64  65
ATOM     65  N   UNL A   1      34.019  29.043  24.058  1.00  0.00    -0.351 N 
ATOM     66  C   UNL A   1      33.591  28.076  23.174  1.00  0.00     0.283 C 
ATOM     67  H   UNL A   1      34.844  29.527  23.825  1.00  0.00     0.163 HD
ATOM     68  O   UNL A   1      34.028  28.151  22.021  1.00  0.00    -0.268 OA
BRANCH  66  69
ATOM     69  C   UNL A   1      32.604  26.965  23.658  1.00  0.00     0.308 C 
BRANCH  69  70
ATOM     70  N   UNL A   1      31.369  26.840  22.869  1.00  0.00    -0.317 N 
ATOM     71  C   UNL A   1      30.730  28.027  22.312  1.00  0.00     0.292 C 
ATOM     72  C   UNL A   1      30.397  25.826  23.268  1.00  0.00     0.292 C 
ATOM     73  H   UNL A   1      31.865  26.454  22.065  1.00  0.00     0.349 HD
ATOM     74  C   UNL A   1      29.604  28.563  23.203  1.00  0.00     0.221 C 
ATOM     75  C   UNL A   1      29.176  26.358  24.037  1.00  0.00     0.221 C 
ATOM     76  O   UNL A   1      28.623  27.558  23.490  1.00  0.00    -0.370 OA
ENDBRANCH  69  70
BRANCH  69  77
ATOM     77  C   UNL A   1      33.260  25.606  23.679  1.00  0.00     0.057 A 
ATOM     78  C   UNL A   1      33.874  24.907  22.611  1.00  0.00     0.145 A 
ATOM     79  C   UNL A   1      33.400  24.741  24.752  1.00  0.00     0.119 A 
ATOM     80  N   UNL A   1      34.382  23.730  22.979  1.00  0.00    -0.181 NA
ATOM     81  N   UNL A   1      34.037  23.624  24.278  1.00  0.00    -0.268 N 
BRANCH  81  82
ATOM     82  C   UNL A   1      34.455  22.463  25.057  1.00  0.00     0.179 C 
BRANCH  82  83
ATOM     83  C   UNL A   1      35.939  22.446  25.334  1.00  0.00    -0.027 A 
ATOM     84  C   UNL A   1      36.714  21.311  25.056  1.00  0.00     0.005 A 
ATOM     85  C   UNL A   1      36.568  23.565  25.905  1.00  0.00     0.005 A 
ATOM     86  C   UNL A   1      38.082  21.299  25.337  1.00  0.00     0.000 A 
ATOM     87  C   UNL A   1      37.936  23.553  26.180  1.00  0.00     0.000 A 
ATOM     88  C   UNL A   1      38.693  22.419  25.898  1.00  0.00     0.000 A 
ENDBRANCH  82  83
ENDBRANCH  81  82
ENDBRANCH  69  77
ENDBRANCH  66  69
ENDBRANCH  64  65
ENDBRANCH   1  64
TORSDOF 15
ENDMDL
MODEL 3
REMARK VINA RESULT:     -11.8      3.080      8.246
REMARK SMILES O=C(NCCCCNC(=O)[C@H](c1cnn(Cc2ccccc2)c1)[NH+]1CCOCC1)c1ccc(-c2c3nc(c(-c4c(F)cccc4F)c4ccc([nH]4)c(-c4c(F)cccc4F)c4nc(c(-c5c(F)cccc5F)c5ccc2[nH]5)C=C4)C=C3)cc1
REMARK SMILES IDX 6 1 5 2 4 3 3 4 1 5 2 6 30 8 31 9 83 10 32 11 82 12 33 13
REMARK SMILES IDX 34 14 35 15 76 16 36 17 81 18 75 19 77 20 37 21 80 22 74 23
REMARK SMILES IDX 73 24 38 26 64 27 47 28 63 29 48 30 51 31 62 32 78 33 49 34
REMARK SMILES IDX 50 35 61 37 79 38 52 39 39 40 40 41 45 42 41 43 42 44 44 45
REMARK SMILES IDX 46 46 43 47 65 48 66 49 71 50 67 51 68 52 70 53 72 54 69 55
REMARK SMILES IDX 53 56 54 57 59 58 55 59 56 60 58 61 60 62 57 63 7 64 8 65
REMARK SMILES IDX 9 66 10 68 11 69 24 70 25 71 29 72 26 74 28 75 27 76 12 77
REMARK SMILES IDX 13 78 23 79 14 80 15 81 16 82 17 83 18 84 22 85 19 86 21 87
REMARK SMILES IDX 20 88
REMARK H PARENT 3 7 77 25 51 36 8 67 24 73
REMARK Flexibility Score: inf
ROOT
ATOM      1  C   UNL A   1      37.733  21.098  25.030  1.00  0.00     0.023 C 
ENDROOT
BRANCH   1   2
ATOM      2  C   UNL A   1      38.444  22.109  25.930  1.00  0.00     0.023 C 
BRANCH   2   3
ATOM      3  C   UNL A   1      39.792  21.686  26.534  1.00  0.00     0.116 C 
BRANCH   3   4
ATOM      4  N   UNL A   1      40.983  22.126  25.834  1.00  0.00    -0.352 N 
ATOM      5  O   UNL A   1      42.944  23.082  25.442  1.00  0.00    -0.269 OA
ATOM      6  C   UNL A   1      41.868  23.167  26.012  1.00  0.00     0.251 C 
ATOM      7  H   UNL A   1      41.209  21.557  25.063  1.00  0.00     0.163 HD
BRANCH   6   8
ATOM      8  C   UNL A   1      41.551  24.414  26.765  1.00  0.00     0.039 A 
ATOM      9  C   UNL A   1      40.693  25.419  26.329  1.00  0.00     0.014 A 
ATOM     10  C   UNL A   1      42.249  24.604  27.974  1.00  0.00     0.014 A 
ATOM     11  C   UNL A   1      40.662  26.647  26.975  1.00  0.00     0.010 A 
ATOM     12  C   UNL A   1      42.180  25.813  28.658  1.00  0.00     0.010 A 
ATOM     13  C   UNL A   1      41.433  26.855  28.118  1.00  0.00    -0.014 A 
BRANCH  13  14
ATOM     14  C   UNL A   1      41.319  28.157  28.768  1.00  0.00     0.031 A 
ATOM     15  C   UNL A   1      42.413  29.122  28.447  1.00  0.00     0.074 A 
ATOM     16  C   UNL A   1      40.258  28.522  29.512  1.00  0.00     0.049 A 
ATOM     17  N   UNL A   1      43.216  29.739  29.254  1.00  0.00    -0.248 NA
ATOM     18  C   UNL A   1      42.698  29.358  27.023  1.00  0.00     0.031 C 
ATOM     19  C   UNL A   1      38.985  27.818  29.680  1.00  0.00     0.029 A 
ATOM     20  N   UNL A   1      40.063  29.680  30.201  1.00  0.00    -0.354 N 
ATOM     21  C   UNL A   1      44.001  30.571  28.453  1.00  0.00     0.074 A 
ATOM     22  C   UNL A   1      43.724  30.206  27.090  1.00  0.00     0.031 C 
ATOM     23  C   UNL A   1      38.080  28.662  30.225  1.00  0.00     0.029 A 
ATOM     24  C   UNL A   1      38.744  29.911  30.560  1.00  0.00     0.049 A 
ATOM     25  H   UNL A   1      40.795  30.301  30.426  1.00  0.00     0.167 HD
ATOM     26  C   UNL A   1      44.683  31.635  28.962  1.00  0.00     0.037 A 
ATOM     27  C   UNL A   1      38.224  31.074  31.022  1.00  0.00     0.037 A 
ATOM     28  C   UNL A   1      44.907  31.496  30.376  1.00  0.00     0.049 A 
ATOM     29  C   UNL A   1      39.343  31.914  31.513  1.00  0.00     0.074 A 
ATOM     30  C   UNL A   1      45.574  30.584  31.173  1.00  0.00     0.029 A 
ATOM     31  N   UNL A   1      44.143  32.241  31.235  1.00  0.00    -0.354 N 
ATOM     32  N   UNL A   1      40.046  31.652  32.578  1.00  0.00    -0.248 NA
ATOM     33  C   UNL A   1      39.955  32.842  30.574  1.00  0.00     0.031 C 
ATOM     34  C   UNL A   1      44.798  30.504  32.366  1.00  0.00     0.029 A 
ATOM     35  C   UNL A   1      43.733  31.394  32.230  1.00  0.00     0.049 A 
ATOM     36  H   UNL A   1      43.930  33.199  31.154  1.00  0.00     0.167 HD
ATOM     37  C   UNL A   1      41.338  32.037  32.254  1.00  0.00     0.074 A 
ATOM     38  C   UNL A   1      41.203  32.849  31.048  1.00  0.00     0.031 C 
ATOM     39  C   UNL A   1      42.422  31.437  32.828  1.00  0.00     0.037 A 
BRANCH  26  40
ATOM     40  C   UNL A   1      44.833  32.962  28.252  1.00  0.00     0.057 A 
ATOM     41  C   UNL A   1      46.115  33.393  27.860  1.00  0.00     0.134 A 
ATOM     42  C   UNL A   1      43.835  33.957  28.217  1.00  0.00     0.134 A 
ATOM     43  F   UNL A   1      47.154  32.544  27.847  1.00  0.00    -0.206 F 
ATOM     44  C   UNL A   1      46.400  34.730  27.556  1.00  0.00     0.040 A 
ATOM     45  C   UNL A   1      44.099  35.285  27.866  1.00  0.00     0.040 A 
ATOM     46  F   UNL A   1      42.578  33.731  28.612  1.00  0.00    -0.206 F 
ATOM     47  C   UNL A   1      45.392  35.684  27.573  1.00  0.00     0.006 A 
ENDBRANCH  26  40
BRANCH  27  48
ATOM     48  C   UNL A   1      36.874  31.626  30.774  1.00  0.00     0.057 A 
ATOM     49  C   UNL A   1      35.960  31.821  31.818  1.00  0.00     0.134 A 
ATOM     50  C   UNL A   1      36.541  32.222  29.543  1.00  0.00     0.134 A 
ATOM     51  F   UNL A   1      36.213  31.334  33.041  1.00  0.00    -0.206 F 
ATOM     52  C   UNL A   1      34.790  32.574  31.653  1.00  0.00     0.040 A 
ATOM     53  C   UNL A   1      35.373  32.967  29.361  1.00  0.00     0.040 A 
ATOM     54  F   UNL A   1      37.383  32.174  28.500  1.00  0.00    -0.206 F 
ATOM     55  C   UNL A   1      34.498  33.157  30.422  1.00  0.00     0.006 A 
ENDBRANCH  27  48
BRANCH  39  56
ATOM     56  C   UNL A   1      42.186  30.526  33.998  1.00  0.00     0.057 A 
ATOM     57  C   UNL A   1      41.865  29.167  33.871  1.00  0.00     0.134 A 
ATOM     58  C   UNL A   1      42.460  30.996  35.287  1.00  0.00     0.134 A 
ATOM     59  F   UNL A   1      41.690  28.605  32.668  1.00  0.00    -0.206 F 
ATOM     60  C   UNL A   1      41.778  28.324  34.983  1.00  0.00     0.040 A 
ATOM     61  C   UNL A   1      42.409  30.157  36.402  1.00  0.00     0.040 A 
ATOM     62  F   UNL A   1      42.835  32.271  35.477  1.00  0.00    -0.206 F 
ATOM     63  C   UNL A   1      42.058  28.818  36.253  1.00  0.00     0.006 A 
ENDBRANCH  39  56
ENDBRANCH  13  14
ENDBRANCH   6   8
ENDBRANCH   3   4
ENDBRANCH   2   3
ENDBRANCH   1   2
BRANCH   1  64
ATOM     64  C   UNL A   1      36.233  20.994  25.224  1.00  0.00     0.116 C 
BRANCH  64  65
ATOM     65  N   UNL A   1      35.702  21.655  26.390  1.00  0.00    -0.351 N 
ATOM     66  C   UNL A   1      34.491  22.308  26.471  1.00  0.00     0.283 C 
ATOM     67  H   UNL A   1      36.256  21.638  27.204  1.00  0.00     0.163 HD
ATOM     68  O   UNL A   1      34.032  22.477  27.605  1.00  0.00    -0.268 OA
BRANCH  66  69
ATOM     69  C   UNL A   1      33.781  22.789  25.165  1.00  0.00     0.308 C 
BRANCH  69  70
ATOM     70  N   UNL A   1      32.550  22.063  24.820  1.00  0.00    -0.317 N 
ATOM     71  C   UNL A   1      32.403  20.657  25.178  1.00  0.00     0.292 C 
ATOM     72  C   UNL A   1      31.894  22.381  23.554  1.00  0.00     0.292 C 
ATOM     73  H   UNL A   1      32.010  22.536  25.544  1.00  0.00     0.349 HD
ATOM     74  C   UNL A   1      32.778  19.713  24.029  1.00  0.00     0.221 C 
ATOM     75  C   UNL A   1      32.132  21.369  22.422  1.00  0.00     0.221 C 
ATOM     76  O   UNL A   1      32.040  20.003  22.835  1.00  0.00    -0.370 OA
ENDBRANCH  69  70
BRANCH  69  77
ATOM     77  C   UNL A   1      33.431  24.256  25.229  1.00  0.00     0.057 A 
ATOM     78  C   UNL A   1      32.486  24.901  26.064  1.00  0.00     0.145 A 
ATOM     79  C   UNL A   1      33.956  25.293  24.476  1.00  0.00     0.119 A 
ATOM     80  N   UNL A   1      32.442  26.222  25.881  1.00  0.00    -0.181 NA
ATOM     81  N   UNL A   1      33.310  26.435  24.871  1.00  0.00    -0.268 N 
BRANCH  81  82
ATOM     82  C   UNL A   1      33.569  27.792  24.400  1.00  0.00     0.179 C 
BRANCH  82  83
ATOM     83  C   UNL A   1      33.484  28.821  25.502  1.00  0.00    -0.027 A 
ATOM     84  C   UNL A   1      32.429  29.745  25.549  1.00  0.00     0.005 A 
ATOM     85  C   UNL A   1      34.481  28.891  26.489  1.00  0.00     0.005 A 
ATOM     86  C   UNL A   1      32.372  30.706  26.560  1.00  0.00     0.000 A 
ATOM     87  C   UNL A   1      34.420  29.848  27.501  1.00  0.00     0.000 A 
ATOM     88  C   UNL A   1      33.366  30.758  27.536  1.00  0.00     0.000 A 
ENDBRANCH  82  83
ENDBRANCH  81  82
ENDBRANCH  69  77
ENDBRANCH  66  69
ENDBRANCH  64  65
ENDBRANCH   1  64
TORSDOF 15
ENDMDL
