MODEL 1
REMARK VINA RESULT:     -10.9      0.000      0.000
REMARK SMILES O=C(NCCCCNC(=O)c1oc2cccc3c2c1CCC3)c1ccc(-c2c3nc(c(-c4c(F)cccc4F)c4ccc([nH]4)c(-c4c(F)cccc4F)c4nc(c(-c5c(F)cccc5F)c5ccc2[nH]5)C=C4)C=C3)cc1
REMARK SMILES IDX 4 1 3 2 1 3 2 4 23 6 24 7 76 8 25 9 75 10 26 11 27 12 28 13
REMARK SMILES IDX 69 14 29 15 74 16 68 17 70 18 30 19 73 20 67 21 66 22 31 24
REMARK SMILES IDX 57 25 40 26 56 27 41 28 44 29 55 30 71 31 42 32 43 33 54 35
REMARK SMILES IDX 72 36 45 37 32 38 33 39 38 40 34 41 35 42 37 43 39 44 36 45
REMARK SMILES IDX 58 46 59 47 64 48 60 49 61 50 63 51 65 52 62 53 46 54 47 55
REMARK SMILES IDX 52 56 48 57 49 58 51 59 53 60 50 61 5 62 6 63 7 64 8 65 9 66
REMARK SMILES IDX 10 68 11 69 12 70 19 71 13 72 18 73 20 74 14 75 17 76 21 77
REMARK SMILES IDX 15 78 16 79 22 80
REMARK H PARENT 3 5 70 23 44 34 8 67
REMARK Flexibility Score: inf
ROOT
ATOM      1  C   UNL A   1      39.259  34.633  29.680  1.00  0.00     0.116 C 
ENDROOT
BRANCH   1   2
ATOM      2  N   UNL A   1      40.482  34.741  30.446  1.00  0.00    -0.352 N 
ATOM      3  O   UNL A   1      42.602  34.490  31.031  1.00  0.00    -0.269 OA
ATOM      4  C   UNL A   1      41.599  33.953  30.553  1.00  0.00     0.251 C 
ATOM      5  H   UNL A   1      40.519  35.549  31.008  1.00  0.00     0.163 HD
BRANCH   4   6
ATOM      6  C   UNL A   1      41.626  32.486  30.291  1.00  0.00     0.039 A 
ATOM      7  C   UNL A   1      40.676  31.556  30.703  1.00  0.00     0.014 A 
ATOM      8  C   UNL A   1      42.789  32.007  29.658  1.00  0.00     0.014 A 
ATOM      9  C   UNL A   1      40.992  30.193  30.698  1.00  0.00     0.010 A 
ATOM     10  C   UNL A   1      43.098  30.649  29.631  1.00  0.00     0.010 A 
ATOM     11  C   UNL A   1      42.246  29.741  30.243  1.00  0.00    -0.014 A 
BRANCH  11  12
ATOM     12  C   UNL A   1      42.482  28.294  30.091  1.00  0.00     0.031 A 
ATOM     13  C   UNL A   1      43.217  27.804  31.294  1.00  0.00     0.074 A 
ATOM     14  C   UNL A   1      42.084  27.484  29.071  1.00  0.00     0.049 A 
ATOM     15  N   UNL A   1      44.490  27.593  31.355  1.00  0.00    -0.248 NA
ATOM     16  C   UNL A   1      42.571  27.833  32.619  1.00  0.00     0.031 C 
ATOM     17  C   UNL A   1      41.213  27.792  27.933  1.00  0.00     0.029 A 
ATOM     18  N   UNL A   1      42.377  26.150  28.843  1.00  0.00    -0.354 N 
ATOM     19  C   UNL A   1      44.751  27.177  32.656  1.00  0.00     0.074 A 
ATOM     20  C   UNL A   1      43.600  27.557  33.426  1.00  0.00     0.031 C 
ATOM     21  C   UNL A   1      40.858  26.650  27.286  1.00  0.00     0.029 A 
ATOM     22  C   UNL A   1      41.587  25.526  27.848  1.00  0.00     0.049 A 
ATOM     23  H   UNL A   1      43.083  25.672  29.337  1.00  0.00     0.167 HD
ATOM     24  C   UNL A   1      45.752  26.280  32.873  1.00  0.00     0.037 A 
ATOM     25  C   UNL A   1      41.578  24.199  27.496  1.00  0.00     0.037 A 
ATOM     26  C   UNL A   1      46.625  26.246  31.719  1.00  0.00     0.049 A 
ATOM     27  C   UNL A   1      42.865  23.615  27.945  1.00  0.00     0.074 A 
ATOM     28  C   UNL A   1      47.447  27.146  31.072  1.00  0.00     0.029 A 
ATOM     29  N   UNL A   1      46.356  25.251  30.814  1.00  0.00    -0.354 N 
ATOM     30  N   UNL A   1      44.009  23.938  27.414  1.00  0.00    -0.248 NA
ATOM     31  C   UNL A   1      42.903  23.134  29.314  1.00  0.00     0.031 C 
ATOM     32  C   UNL A   1      47.278  26.871  29.680  1.00  0.00     0.029 A 
ATOM     33  C   UNL A   1      46.474  25.740  29.546  1.00  0.00     0.049 A 
ATOM     34  H   UNL A   1      46.114  24.326  31.045  1.00  0.00     0.167 HD
ATOM     35  C   UNL A   1      44.811  24.208  28.509  1.00  0.00     0.074 A 
ATOM     36  C   UNL A   1      44.076  23.671  29.660  1.00  0.00     0.031 C 
ATOM     37  C   UNL A   1      45.824  25.120  28.419  1.00  0.00     0.037 A 
BRANCH  24  38
ATOM     38  C   UNL A   1      45.626  25.071  33.789  1.00  0.00     0.057 A 
ATOM     39  C   UNL A   1      44.707  24.016  33.619  1.00  0.00     0.134 A 
ATOM     40  C   UNL A   1      46.706  24.778  34.649  1.00  0.00     0.134 A 
ATOM     41  F   UNL A   1      43.620  24.113  32.848  1.00  0.00    -0.206 F 
ATOM     42  C   UNL A   1      44.901  22.746  34.172  1.00  0.00     0.040 A 
ATOM     43  C   UNL A   1      46.930  23.500  35.172  1.00  0.00     0.040 A 
ATOM     44  F   UNL A   1      47.642  25.701  34.918  1.00  0.00    -0.206 F 
ATOM     45  C   UNL A   1      46.035  22.471  34.917  1.00  0.00     0.006 A 
ENDBRANCH  24  38
BRANCH  25  46
ATOM     46  C   UNL A   1      40.468  23.275  27.094  1.00  0.00     0.057 A 
ATOM     47  C   UNL A   1      40.759  22.017  26.549  1.00  0.00     0.134 A 
ATOM     48  C   UNL A   1      39.138  23.716  26.907  1.00  0.00     0.134 A 
ATOM     49  F   UNL A   1      42.007  21.533  26.587  1.00  0.00    -0.206 F 
ATOM     50  C   UNL A   1      39.809  21.253  25.853  1.00  0.00     0.040 A 
ATOM     51  C   UNL A   1      38.173  22.956  26.215  1.00  0.00     0.040 A 
ATOM     52  F   UNL A   1      38.753  24.932  27.323  1.00  0.00    -0.206 F 
ATOM     53  C   UNL A   1      38.513  21.722  25.674  1.00  0.00     0.006 A 
ENDBRANCH  25  46
BRANCH  37  54
ATOM     54  C   UNL A   1      46.214  25.604  27.051  1.00  0.00     0.057 A 
ATOM     55  C   UNL A   1      47.387  25.085  26.494  1.00  0.00     0.134 A 
ATOM     56  C   UNL A   1      45.561  26.615  26.329  1.00  0.00     0.134 A 
ATOM     57  F   UNL A   1      48.096  24.160  27.159  1.00  0.00    -0.206 F 
ATOM     58  C   UNL A   1      47.882  25.526  25.268  1.00  0.00     0.040 A 
ATOM     59  C   UNL A   1      46.028  27.044  25.080  1.00  0.00     0.040 A 
ATOM     60  F   UNL A   1      44.489  27.247  26.829  1.00  0.00    -0.206 F 
ATOM     61  C   UNL A   1      47.193  26.497  24.547  1.00  0.00     0.006 A 
ENDBRANCH  37  54
ENDBRANCH  11  12
ENDBRANCH   4   6
ENDBRANCH   1   2
BRANCH   1  62
ATOM     62  C   UNL A   1      38.030  34.200  30.480  1.00  0.00     0.023 C 
BRANCH  62  63
ATOM     63  C   UNL A   1      38.031  34.608  31.953  1.00  0.00     0.023 C 
BRANCH  63  64
ATOM     64  C   UNL A   1      37.417  33.603  32.919  1.00  0.00     0.116 C 
BRANCH  64  65
ATOM     65  N   UNL A   1      36.008  33.345  32.686  1.00  0.00    -0.349 N 
ATOM     66  C   UNL A   1      35.441  32.274  32.036  1.00  0.00     0.287 C 
ATOM     67  H   UNL A   1      35.382  34.020  33.035  1.00  0.00     0.163 HD
ATOM     68  O   UNL A   1      34.219  32.335  31.805  1.00  0.00    -0.266 OA
BRANCH  66  69
ATOM     69  C   UNL A   1      36.266  31.152  31.655  1.00  0.00     0.195 A 
ATOM     70  O   UNL A   1      36.785  30.352  32.661  1.00  0.00    -0.451 OA
ATOM     71  C   UNL A   1      36.678  30.657  30.426  1.00  0.00     0.012 A 
ATOM     72  C   UNL A   1      37.459  29.323  32.066  1.00  0.00     0.135 A 
ATOM     73  C   UNL A   1      37.400  29.486  30.706  1.00  0.00     0.028 A 
ATOM     74  C   UNL A   1      36.500  31.060  29.002  1.00  0.00     0.041 C 
ATOM     75  C   UNL A   1      38.114  28.251  32.657  1.00  0.00     0.048 A 
ATOM     76  C   UNL A   1      37.991  28.598  29.807  1.00  0.00    -0.037 A 
ATOM     77  C   UNL A   1      37.604  30.424  28.109  1.00  0.00     0.010 C 
ATOM     78  C   UNL A   1      38.699  27.329  31.763  1.00  0.00     0.004 A 
ATOM     79  C   UNL A   1      38.633  27.490  30.364  1.00  0.00     0.004 A 
ATOM     80  C   UNL A   1      37.810  28.895  28.344  1.00  0.00     0.036 C 
ENDBRANCH  66  69
ENDBRANCH  64  65
ENDBRANCH  63  64
ENDBRANCH  62  63
ENDBRANCH   1  62
TORSDOF 11
ENDMDL
MODEL 2
REMARK VINA RESULT:     -10.8      3.652      9.944
REMARK SMILES O=C(NCCCCNC(=O)c1oc2cccc3c2c1CCC3)c1ccc(-c2c3nc(c(-c4c(F)cccc4F)c4ccc([nH]4)c(-c4c(F)cccc4F)c4nc(c(-c5c(F)cccc5F)c5ccc2[nH]5)C=C4)C=C3)cc1
REMARK SMILES IDX 4 1 3 2 1 3 2 4 23 6 24 7 76 8 25 9 75 10 26 11 27 12 28 13
REMARK SMILES IDX 69 14 29 15 74 16 68 17 70 18 30 19 73 20 67 21 66 22 31 24
REMARK SMILES IDX 57 25 40 26 56 27 41 28 44 29 55 30 71 31 42 32 43 33 54 35
REMARK SMILES IDX 72 36 45 37 32 38 33 39 38 40 34 41 35 42 37 43 39 44 36 45
REMARK SMILES IDX 58 46 59 47 64 48 60 49 61 50 63 51 65 52 62 53 46 54 47 55
REMARK SMILES IDX 52 56 48 57 49 58 51 59 53 60 50 61 5 62 6 63 7 64 8 65 9 66
REMARK SMILES IDX 10 68 11 69 12 70 19 71 13 72 18 73 20 74 14 75 17 76 21 77
REMARK SMILES IDX 15 78 16 79 22 80
REMARK H PARENT 3 5 70 23 44 34 8 67
REMARK Flexibility Score: inf
ROOT
ATOM      1  C   UNL A   1      41.692  20.874  27.283  1.00  0.00     0.116 C 
ENDROOT
BRANCH   1   2
ATOM      2  N   UNL A   1      40.329  21.208  26.926  1.00  0.00    -0.352 N 
ATOM      3  O   UNL A   1      38.613  22.301  26.055  1.00  0.00    -0.269 OA
ATOM      4  C   UNL A   1      39.691  22.389  26.649  1.00  0.00     0.251 C 
ATOM      5  H   UNL A   1      39.737  20.423  26.872  1.00  0.00     0.163 HD
BRANCH   4   6
ATOM      6  C   UNL A   1      40.126  23.723  27.154  1.00  0.00     0.039 A 
ATOM      7  C   UNL A   1      41.228  23.979  27.963  1.00  0.00     0.014 A 
ATOM      8  C   UNL A   1      39.259  24.792  26.856  1.00  0.00     0.014 A 
ATOM      9  C   UNL A   1      41.321  25.200  28.642  1.00  0.00     0.010 A 
ATOM     10  C   UNL A   1      39.361  26.017  27.513  1.00  0.00     0.010 A 
ATOM     11  C   UNL A   1      40.333  26.193  28.486  1.00  0.00    -0.014 A 
BRANCH  11  12
ATOM     12  C   UNL A   1      40.548  27.525  29.079  1.00  0.00     0.031 A 
ATOM     13  C   UNL A   1      41.776  28.121  28.475  1.00  0.00     0.074 A 
ATOM     14  C   UNL A   1      39.770  28.170  29.991  1.00  0.00     0.049 A 
ATOM     15  N   UNL A   1      42.945  28.135  29.025  1.00  0.00    -0.248 NA
ATOM     16  C   UNL A   1      41.808  28.457  27.040  1.00  0.00     0.031 C 
ATOM     17  C   UNL A   1      38.459  27.785  30.525  1.00  0.00     0.029 A 
ATOM     18  N   UNL A   1      39.995  29.369  30.647  1.00  0.00    -0.354 N 
ATOM     19  C   UNL A   1      43.794  28.754  28.113  1.00  0.00     0.074 A 
ATOM     20  C   UNL A   1      43.105  28.721  26.854  1.00  0.00     0.031 C 
ATOM     21  C   UNL A   1      37.908  28.818  31.216  1.00  0.00     0.029 A 
ATOM     22  C   UNL A   1      38.870  29.901  31.323  1.00  0.00     0.049 A 
ATOM     23  H   UNL A   1      40.872  29.817  30.643  1.00  0.00     0.167 HD
ATOM     24  C   UNL A   1      44.828  29.506  28.581  1.00  0.00     0.037 A 
ATOM     25  C   UNL A   1      38.770  31.117  31.954  1.00  0.00     0.037 A 
ATOM     26  C   UNL A   1      45.076  29.172  29.968  1.00  0.00     0.049 A 
ATOM     27  C   UNL A   1      40.148  31.566  32.265  1.00  0.00     0.074 A 
ATOM     28  C   UNL A   1      45.463  28.042  30.661  1.00  0.00     0.029 A 
ATOM     29  N   UNL A   1      44.475  29.997  30.882  1.00  0.00    -0.354 N 
ATOM     30  N   UNL A   1      40.904  30.967  33.140  1.00  0.00    -0.248 NA
ATOM     31  C   UNL A   1      40.834  32.297  31.215  1.00  0.00     0.031 C 
ATOM     32  C   UNL A   1      44.690  28.060  31.863  1.00  0.00     0.029 A 
ATOM     33  C   UNL A   1      43.974  29.255  31.912  1.00  0.00     0.049 A 
ATOM     34  H   UNL A   1      44.414  30.977  30.807  1.00  0.00     0.167 HD
ATOM     35  C   UNL A   1      42.103  30.795  32.471  1.00  0.00     0.074 A 
ATOM     36  C   UNL A   1      42.005  31.660  31.289  1.00  0.00     0.031 C 
ATOM     37  C   UNL A   1      42.913  29.734  32.761  1.00  0.00     0.037 A 
BRANCH  24  38
ATOM     38  C   UNL A   1      45.198  30.876  28.033  1.00  0.00     0.057 A 
ATOM     39  C   UNL A   1      46.402  31.188  27.371  1.00  0.00     0.134 A 
ATOM     40  C   UNL A   1      44.160  31.811  27.837  1.00  0.00     0.134 A 
ATOM     41  F   UNL A   1      47.495  30.422  27.447  1.00  0.00    -0.206 F 
ATOM     42  C   UNL A   1      46.530  32.278  26.504  1.00  0.00     0.040 A 
ATOM     43  C   UNL A   1      44.265  32.881  26.940  1.00  0.00     0.040 A 
ATOM     44  F   UNL A   1      42.966  31.650  28.429  1.00  0.00    -0.206 F 
ATOM     45  C   UNL A   1      45.449  33.105  26.254  1.00  0.00     0.006 A 
ENDBRANCH  24  38
BRANCH  25  46
ATOM     46  C   UNL A   1      37.649  32.107  32.051  1.00  0.00     0.057 A 
ATOM     47  C   UNL A   1      36.858  32.165  33.207  1.00  0.00     0.134 A 
ATOM     48  C   UNL A   1      37.108  32.762  30.922  1.00  0.00     0.134 A 
ATOM     49  F   UNL A   1      37.224  31.508  34.315  1.00  0.00    -0.206 F 
ATOM     50  C   UNL A   1      35.611  32.810  33.242  1.00  0.00     0.040 A 
ATOM     51  C   UNL A   1      35.861  33.419  30.945  1.00  0.00     0.040 A 
ATOM     52  F   UNL A   1      37.738  32.720  29.737  1.00  0.00    -0.206 F 
ATOM     53  C   UNL A   1      35.102  33.433  32.109  1.00  0.00     0.006 A 
ENDBRANCH  25  46
BRANCH  37  54
ATOM     54  C   UNL A   1      42.608  28.934  33.995  1.00  0.00     0.057 A 
ATOM     55  C   UNL A   1      43.359  29.208  35.143  1.00  0.00     0.134 A 
ATOM     56  C   UNL A   1      41.709  27.858  34.066  1.00  0.00     0.134 A 
ATOM     57  F   UNL A   1      44.282  30.182  35.128  1.00  0.00    -0.206 F 
ATOM     58  C   UNL A   1      43.213  28.469  36.317  1.00  0.00     0.040 A 
ATOM     59  C   UNL A   1      41.528  27.130  35.248  1.00  0.00     0.040 A 
ATOM     60  F   UNL A   1      41.023  27.453  32.988  1.00  0.00    -0.206 F 
ATOM     61  C   UNL A   1      42.283  27.437  36.378  1.00  0.00     0.006 A 
ENDBRANCH  37  54
ENDBRANCH  11  12
ENDBRANCH   4   6
ENDBRANCH   1   2
BRANCH   1  62
ATOM     62  C   UNL A   1      42.678  20.846  26.115  1.00  0.00     0.023 C 
BRANCH  62  63
ATOM     63  C   UNL A   1      43.784  21.899  26.166  1.00  0.00     0.023 C 
BRANCH  63  64
ATOM     64  C   UNL A   1      43.981  22.715  24.894  1.00  0.00     0.116 C 
BRANCH  64  65
ATOM     65  N   UNL A   1      43.021  23.790  24.728  1.00  0.00    -0.349 N 
ATOM     66  C   UNL A   1      43.161  25.111  25.083  1.00  0.00     0.287 C 
ATOM     67  H   UNL A   1      42.164  23.543  24.311  1.00  0.00     0.163 HD
ATOM     68  O   UNL A   1      42.148  25.830  25.000  1.00  0.00    -0.266 OA
BRANCH  66  69
ATOM     69  C   UNL A   1      44.445  25.597  25.530  1.00  0.00     0.195 A 
ATOM     70  O   UNL A   1      45.232  26.292  24.625  1.00  0.00    -0.451 OA
ATOM     71  C   UNL A   1      45.109  25.527  26.746  1.00  0.00     0.012 A 
ATOM     72  C   UNL A   1      46.350  26.715  25.287  1.00  0.00     0.135 A 
ATOM     73  C   UNL A   1      46.292  26.266  26.582  1.00  0.00     0.028 A 
ATOM     74  C   UNL A   1      44.835  24.911  28.077  1.00  0.00     0.041 C 
ATOM     75  C   UNL A   1      47.409  27.477  24.814  1.00  0.00     0.048 A 
ATOM     76  C   UNL A   1      47.285  26.532  27.524  1.00  0.00    -0.037 A 
ATOM     77  C   UNL A   1      46.154  24.729  28.880  1.00  0.00     0.010 C 
ATOM     78  C   UNL A   1      48.413  27.776  25.759  1.00  0.00     0.004 A 
ATOM     79  C   UNL A   1      48.352  27.321  27.092  1.00  0.00     0.004 A 
ATOM     80  C   UNL A   1      47.061  25.998  28.913  1.00  0.00     0.036 C 
ENDBRANCH  66  69
ENDBRANCH  64  65
ENDBRANCH  63  64
ENDBRANCH  62  63
ENDBRANCH   1  62
TORSDOF 11
ENDMDL
MODEL 3
REMARK VINA RESULT:     -10.8      3.998     10.335
REMARK SMILES O=C(NCCCCNC(=O)c1oc2cccc3c2c1CCC3)c1ccc(-c2c3nc(c(-c4c(F)cccc4F)c4ccc([nH]4)c(-c4c(F)cccc4F)c4nc(c(-c5c(F)cccc5F)c5ccc2[nH]5)C=C4)C=C3)cc1
REMARK SMILES IDX 4 1 3 2 1 3 2 4 23 6 24 7 76 8 25 9 75 10 26 11 27 12 28 13
REMARK SMILES IDX 69 14 29 15 74 16 68 17 70 18 30 19 73 20 67 21 66 22 31 24
REMARK SMILES IDX 57 25 40 26 56 27 41 28 44 29 55 30 71 31 42 32 43 33 54 35
REMARK SMILES IDX 72 36 45 37 32 38 33 39 38 40 34 41 35 42 37 43 39 44 36 45
REMARK SMILES IDX 58 46 59 47 64 48 60 49 61 50 63 51 65 52 62 53 46 54 47 55
REMARK SMILES IDX 52 56 48 57 49 58 51 59 53 60 50 61 5 62 6 63 7 64 8 65 9 66
REMARK SMILES IDX 10 68 11 69 12 70 19 71 13 72 18 73 20 74 14 75 17 76 21 77
REMARK SMILES IDX 15 78 16 79 22 80
REMARK H PARENT 3 5 70 23 44 34 8 67
REMARK Flexibility Score: inf
ROOT
ATOM      1  C   UNL A   1      46.859  26.163  28.996  1.00  0.00     0.116 C 
ENDROOT
BRANCH   1   2
ATOM      2  N   UNL A   1      46.440  25.662  30.287  1.00  0.00    -0.352 N 
ATOM      3  O   UNL A   1      45.137  24.858  31.886  1.00  0.00    -0.269 OA
ATOM      4  C   UNL A   1      45.240  25.656  30.951  1.00  0.00     0.251 C 
ATOM      5  H   UNL A   1      47.168  25.236  30.795  1.00  0.00     0.163 HD
BRANCH   4   6
ATOM      6  C   UNL A   1      44.146  26.643  30.727  1.00  0.00     0.039 A 
ATOM      7  C   UNL A   1      43.291  26.693  29.630  1.00  0.00     0.014 A 
ATOM      8  C   UNL A   1      44.061  27.677  31.679  1.00  0.00     0.014 A 
ATOM      9  C   UNL A   1      42.555  27.855  29.376  1.00  0.00     0.010 A 
ATOM     10  C   UNL A   1      43.312  28.827  31.441  1.00  0.00     0.010 A 
ATOM     11  C   UNL A   1      42.634  28.966  30.239  1.00  0.00    -0.014 A 
BRANCH  11  12
ATOM     12  C   UNL A   1      41.720  30.105  30.037  1.00  0.00     0.031 A 
ATOM     13  C   UNL A   1      42.535  31.329  29.779  1.00  0.00     0.074 A 
ATOM     14  C   UNL A   1      40.358  30.094  30.034  1.00  0.00     0.049 A 
ATOM     15  N   UNL A   1      42.818  32.234  30.655  1.00  0.00    -0.248 NA
ATOM     16  C   UNL A   1      43.358  31.426  28.560  1.00  0.00     0.031 C 
ATOM     17  C   UNL A   1      39.443  28.950  30.093  1.00  0.00     0.029 A 
ATOM     18  N   UNL A   1      39.471  31.154  29.955  1.00  0.00    -0.354 N 
ATOM     19  C   UNL A   1      43.615  33.168  30.002  1.00  0.00     0.074 A 
ATOM     20  C   UNL A   1      44.089  32.515  28.815  1.00  0.00     0.031 C 
ATOM     21  C   UNL A   1      38.173  29.344  29.810  1.00  0.00     0.029 A 
ATOM     22  C   UNL A   1      38.127  30.792  29.696  1.00  0.00     0.049 A 
ATOM     23  H   UNL A   1      39.755  32.090  30.071  1.00  0.00     0.167 HD
ATOM     24  C   UNL A   1      43.525  34.478  30.363  1.00  0.00     0.037 A 
ATOM     25  C   UNL A   1      37.065  31.629  29.457  1.00  0.00     0.037 A 
ATOM     26  C   UNL A   1      42.891  34.577  31.660  1.00  0.00     0.049 A 
ATOM     27  C   UNL A   1      37.419  32.959  30.008  1.00  0.00     0.074 A 
ATOM     28  C   UNL A   1      43.183  34.150  32.941  1.00  0.00     0.029 A 
ATOM     29  N   UNL A   1      41.542  34.818  31.633  1.00  0.00    -0.354 N 
ATOM     30  N   UNL A   1      37.543  33.181  31.285  1.00  0.00    -0.248 NA
ATOM     31  C   UNL A   1      38.164  33.838  29.126  1.00  0.00     0.031 C 
ATOM     32  C   UNL A   1      41.929  33.741  33.491  1.00  0.00     0.029 A 
ATOM     33  C   UNL A   1      40.921  34.060  32.583  1.00  0.00     0.049 A 
ATOM     34  H   UNL A   1      41.090  35.442  31.021  1.00  0.00     0.167 HD
ATOM     35  C   UNL A   1      38.752  33.847  31.384  1.00  0.00     0.074 A 
ATOM     36  C   UNL A   1      39.080  34.244  30.009  1.00  0.00     0.031 C 
ATOM     37  C   UNL A   1      39.521  33.725  32.506  1.00  0.00     0.037 A 
BRANCH  24  38
ATOM     38  C   UNL A   1      43.448  35.629  29.370  1.00  0.00     0.057 A 
ATOM     39  C   UNL A   1      42.415  35.824  28.432  1.00  0.00     0.134 A 
ATOM     40  C   UNL A   1      44.241  36.769  29.617  1.00  0.00     0.134 A 
ATOM     41  F   UNL A   1      41.569  34.856  28.067  1.00  0.00    -0.206 F 
ATOM     42  C   UNL A   1      42.128  37.072  27.868  1.00  0.00     0.040 A 
ATOM     43  C   UNL A   1      43.937  38.030  29.091  1.00  0.00     0.040 A 
ATOM     44  F   UNL A   1      45.275  36.717  30.471  1.00  0.00    -0.206 F 
ATOM     45  C   UNL A   1      42.863  38.188  28.228  1.00  0.00     0.006 A 
ENDBRANCH  24  38
BRANCH  25  46
ATOM     46  C   UNL A   1      35.894  31.521  28.528  1.00  0.00     0.057 A 
ATOM     47  C   UNL A   1      34.711  32.223  28.800  1.00  0.00     0.134 A 
ATOM     48  C   UNL A   1      35.772  30.489  27.569  1.00  0.00     0.134 A 
ATOM     49  F   UNL A   1      34.683  33.163  29.752  1.00  0.00    -0.206 F 
ATOM     50  C   UNL A   1      33.488  31.917  28.181  1.00  0.00     0.040 A 
ATOM     51  C   UNL A   1      34.551  30.177  26.936  1.00  0.00     0.040 A 
ATOM     52  F   UNL A   1      36.817  29.702  27.272  1.00  0.00    -0.206 F 
ATOM     53  C   UNL A   1      33.399  30.887  27.252  1.00  0.00     0.006 A 
ENDBRANCH  25  46
BRANCH  37  54
ATOM     54  C   UNL A   1      38.901  33.090  33.718  1.00  0.00     0.057 A 
ATOM     55  C   UNL A   1      38.436  33.941  34.726  1.00  0.00     0.134 A 
ATOM     56  C   UNL A   1      38.846  31.711  33.976  1.00  0.00     0.134 A 
ATOM     57  F   UNL A   1      38.516  35.272  34.573  1.00  0.00    -0.206 F 
ATOM     58  C   UNL A   1      37.919  33.455  35.925  1.00  0.00     0.040 A 
ATOM     59  C   UNL A   1      38.298  31.208  35.162  1.00  0.00     0.040 A 
ATOM     60  F   UNL A   1      39.363  30.821  33.116  1.00  0.00    -0.206 F 
ATOM     61  C   UNL A   1      37.832  32.083  36.140  1.00  0.00     0.006 A 
ENDBRANCH  37  54
ENDBRANCH  11  12
ENDBRANCH   4   6
ENDBRANCH   1   2
BRANCH   1  62
ATOM     62  C   UNL A   1      46.063  25.629  27.805  1.00  0.00     0.023 C 
BRANCH  62  63
ATOM     63  C   UNL A   1      46.122  24.115  27.603  1.00  0.00     0.023 C 
BRANCH  63  64
ATOM     64  C   UNL A   1      44.782  23.391  27.617  1.00  0.00     0.116 C 
BRANCH  64  65
ATOM     65  N   UNL A   1      44.382  22.866  26.325  1.00  0.00    -0.349 N 
ATOM     66  C   UNL A   1      43.389  23.330  25.494  1.00  0.00     0.287 C 
ATOM     67  H   UNL A   1      44.882  22.080  26.005  1.00  0.00     0.163 HD
ATOM     68  O   UNL A   1      43.105  22.628  24.506  1.00  0.00    -0.266 OA
BRANCH  66  69
ATOM     69  C   UNL A   1      42.732  24.579  25.797  1.00  0.00     0.195 A 
ATOM     70  O   UNL A   1      43.289  25.747  25.300  1.00  0.00    -0.451 OA
ATOM     71  C   UNL A   1      41.587  24.894  26.514  1.00  0.00     0.012 A 
ATOM     72  C   UNL A   1      42.462  26.779  25.644  1.00  0.00     0.135 A 
ATOM     73  C   UNL A   1      41.416  26.280  26.378  1.00  0.00     0.028 A 
ATOM     74  C   UNL A   1      40.578  24.127  27.300  1.00  0.00     0.041 C 
ATOM     75  C   UNL A   1      42.578  28.129  25.342  1.00  0.00     0.048 A 
ATOM     76  C   UNL A   1      40.390  27.080  26.880  1.00  0.00    -0.037 A 
ATOM     77  C   UNL A   1      39.824  25.064  28.287  1.00  0.00     0.010 C 
ATOM     78  C   UNL A   1      41.537  28.951  25.823  1.00  0.00     0.004 A 
ATOM     79  C   UNL A   1      40.457  28.440  26.570  1.00  0.00     0.004 A 
ATOM     80  C   UNL A   1      39.295  26.380  27.637  1.00  0.00     0.036 C 
ENDBRANCH  66  69
ENDBRANCH  64  65
ENDBRANCH  63  64
ENDBRANCH  62  63
ENDBRANCH   1  62
TORSDOF 11
ENDMDL
