MODEL 1
REMARK VINA RESULT:     -10.9      0.000      0.000
REMARK SMILES O=C(NCCCCNC(=O)[C@H](F)[C@H](O)C1CCOCC1)c1ccc(-c2c3nc(c(-c4c(F)cccc4F)c4ccc([nH]4)c(-c4c(F)cccc4F)c4nc(c(-c5c(F)cccc5F)c5ccc2[nH]5)C=C4)C=C3)cc1
REMARK SMILES IDX 5 1 4 2 3 3 1 4 2 5 21 7 22 8 74 9 23 10 73 11 24 12 25 13
REMARK SMILES IDX 26 14 67 15 27 16 72 17 66 18 68 19 28 20 71 21 65 22 64 23
REMARK SMILES IDX 29 25 55 26 38 27 54 28 39 29 42 30 53 31 69 32 40 33 41 34
REMARK SMILES IDX 52 36 70 37 43 38 30 39 31 40 36 41 32 42 33 43 35 44 37 45
REMARK SMILES IDX 34 46 56 47 57 48 62 49 58 50 59 51 61 52 63 53 60 54 44 55
REMARK SMILES IDX 45 56 50 57 46 58 47 59 49 60 51 61 48 62 6 63 7 64 8 65
REMARK SMILES IDX 9 66 10 68 11 69 12 70 13 71 15 72 16 73 20 74 17 75 19 76
REMARK SMILES IDX 18 77 14 78
REMARK H PARENT 3 6 68 24 42 35 8 67 14 79
REMARK Flexibility Score: inf
ROOT
ATOM      1  C   UNL A   1      37.994  19.631  24.794  1.00  0.00     0.023 C 
ENDROOT
BRANCH   1   2
ATOM      2  C   UNL A   1      39.015  20.098  25.807  1.00  0.00     0.116 C 
BRANCH   2   3
ATOM      3  N   UNL A   1      40.181  19.223  25.845  1.00  0.00    -0.352 N 
ATOM      4  O   UNL A   1      42.384  18.726  25.837  1.00  0.00    -0.269 OA
ATOM      5  C   UNL A   1      41.497  19.543  26.064  1.00  0.00     0.251 C 
ATOM      6  H   UNL A   1      39.998  18.269  25.691  1.00  0.00     0.163 HD
BRANCH   5   7
ATOM      7  C   UNL A   1      41.829  20.884  26.575  1.00  0.00     0.039 A 
ATOM      8  C   UNL A   1      41.775  21.126  27.949  1.00  0.00     0.014 A 
ATOM      9  C   UNL A   1      42.182  21.901  25.687  1.00  0.00     0.014 A 
ATOM     10  C   UNL A   1      41.911  22.418  28.422  1.00  0.00     0.010 A 
ATOM     11  C   UNL A   1      42.447  23.180  26.181  1.00  0.00     0.010 A 
ATOM     12  C   UNL A   1      42.296  23.448  27.550  1.00  0.00    -0.014 A 
BRANCH  12  13
ATOM     13  C   UNL A   1      42.647  24.761  28.132  1.00  0.00     0.031 A 
ATOM     14  C   UNL A   1      44.063  25.115  28.468  1.00  0.00     0.074 A 
ATOM     15  C   UNL A   1      41.649  25.648  28.310  1.00  0.00     0.049 A 
ATOM     16  N   UNL A   1      44.529  26.225  28.979  1.00  0.00    -0.248 NA
ATOM     17  C   UNL A   1      45.090  24.095  28.207  1.00  0.00     0.031 C 
ATOM     18  C   UNL A   1      40.234  25.394  28.013  1.00  0.00     0.029 A 
ATOM     19  N   UNL A   1      41.664  26.944  28.749  1.00  0.00    -0.354 N 
ATOM     20  C   UNL A   1      45.895  26.032  29.125  1.00  0.00     0.074 A 
ATOM     21  C   UNL A   1      46.184  24.691  28.663  1.00  0.00     0.031 C 
ATOM     22  C   UNL A   1      39.531  26.515  28.211  1.00  0.00     0.029 A 
ATOM     23  C   UNL A   1      40.426  27.539  28.734  1.00  0.00     0.049 A 
ATOM     24  H   UNL A   1      42.482  27.406  29.045  1.00  0.00     0.167 HD
ATOM     25  C   UNL A   1      46.818  26.902  29.601  1.00  0.00     0.037 A 
ATOM     26  C   UNL A   1      40.046  28.767  29.124  1.00  0.00     0.037 A 
ATOM     27  C   UNL A   1      46.509  28.238  30.045  1.00  0.00     0.049 A 
ATOM     28  C   UNL A   1      41.085  29.694  29.672  1.00  0.00     0.074 A 
ATOM     29  C   UNL A   1      47.370  29.207  30.529  1.00  0.00     0.029 A 
ATOM     30  N   UNL A   1      45.236  28.793  30.057  1.00  0.00    -0.354 N 
ATOM     31  N   UNL A   1      42.375  29.500  29.801  1.00  0.00    -0.248 NA
ATOM     32  C   UNL A   1      40.617  31.003  30.141  1.00  0.00     0.031 C 
ATOM     33  C   UNL A   1      46.613  30.333  30.873  1.00  0.00     0.029 A 
ATOM     34  C   UNL A   1      45.286  30.083  30.560  1.00  0.00     0.049 A 
ATOM     35  H   UNL A   1      44.419  28.337  29.754  1.00  0.00     0.167 HD
ATOM     36  C   UNL A   1      42.878  30.666  30.358  1.00  0.00     0.074 A 
ATOM     37  C   UNL A   1      41.755  31.569  30.518  1.00  0.00     0.031 C 
ATOM     38  C   UNL A   1      44.153  30.961  30.710  1.00  0.00     0.037 A 
BRANCH  25  39
ATOM     39  C   UNL A   1      48.240  26.430  29.692  1.00  0.00     0.057 A 
ATOM     40  C   UNL A   1      49.164  26.652  28.664  1.00  0.00     0.134 A 
ATOM     41  C   UNL A   1      48.702  25.780  30.845  1.00  0.00     0.134 A 
ATOM     42  F   UNL A   1      48.785  27.256  27.528  1.00  0.00    -0.206 F 
ATOM     43  C   UNL A   1      50.492  26.230  28.772  1.00  0.00     0.040 A 
ATOM     44  C   UNL A   1      50.032  25.374  30.974  1.00  0.00     0.040 A 
ATOM     45  F   UNL A   1      47.870  25.538  31.869  1.00  0.00    -0.206 F 
ATOM     46  C   UNL A   1      50.930  25.596  29.933  1.00  0.00     0.006 A 
ENDBRANCH  25  39
BRANCH  26  47
ATOM     47  C   UNL A   1      38.620  29.164  29.022  1.00  0.00     0.057 A 
ATOM     48  C   UNL A   1      37.778  29.128  30.137  1.00  0.00     0.134 A 
ATOM     49  C   UNL A   1      38.074  29.619  27.814  1.00  0.00     0.134 A 
ATOM     50  F   UNL A   1      38.239  28.692  31.318  1.00  0.00    -0.206 F 
ATOM     51  C   UNL A   1      36.440  29.519  30.054  1.00  0.00     0.040 A 
ATOM     52  C   UNL A   1      36.749  30.041  27.723  1.00  0.00     0.040 A 
ATOM     53  F   UNL A   1      38.835  29.691  26.711  1.00  0.00    -0.206 F 
ATOM     54  C   UNL A   1      35.925  29.985  28.845  1.00  0.00     0.006 A 
ENDBRANCH  26  47
BRANCH  38  55
ATOM     55  C   UNL A   1      44.392  32.326  31.278  1.00  0.00     0.057 A 
ATOM     56  C   UNL A   1      44.341  32.570  32.656  1.00  0.00     0.134 A 
ATOM     57  C   UNL A   1      44.690  33.404  30.437  1.00  0.00     0.134 A 
ATOM     58  F   UNL A   1      44.042  31.581  33.512  1.00  0.00    -0.206 F 
ATOM     59  C   UNL A   1      44.555  33.847  33.176  1.00  0.00     0.040 A 
ATOM     60  C   UNL A   1      44.931  34.680  30.946  1.00  0.00     0.040 A 
ATOM     61  F   UNL A   1      44.757  33.233  29.107  1.00  0.00    -0.206 F 
ATOM     62  C   UNL A   1      44.857  34.905  32.320  1.00  0.00     0.006 A 
ENDBRANCH  38  55
ENDBRANCH  12  13
ENDBRANCH   5   7
ENDBRANCH   2   3
ENDBRANCH   1   2
BRANCH   1  63
ATOM     63  C   UNL A   1      36.594  20.156  25.066  1.00  0.00     0.023 C 
BRANCH  63  64
ATOM     64  C   UNL A   1      36.302  21.592  24.599  1.00  0.00     0.116 C 
BRANCH  64  65
ATOM     65  N   UNL A   1      35.130  22.243  25.171  1.00  0.00    -0.353 N 
ATOM     66  C   UNL A   1      33.841  21.780  25.295  1.00  0.00     0.257 C 
ATOM     67  H   UNL A   1      35.283  23.150  25.520  1.00  0.00     0.163 HD
ATOM     68  O   UNL A   1      33.119  22.337  26.127  1.00  0.00    -0.272 OA
BRANCH  66  69
ATOM     69  C   UNL A   1      33.294  20.687  24.367  1.00  0.00     0.283 C 
ATOM     70  F   UNL A   1      32.374  21.201  23.496  1.00  0.00    -0.234 F 
BRANCH  69  71
ATOM     71  C   UNL A   1      32.635  19.578  25.190  1.00  0.00     0.161 C 
BRANCH  71  72
ATOM     72  C   UNL A   1      32.647  18.132  24.679  1.00  0.00     0.026 C 
ATOM     73  C   UNL A   1      32.666  17.073  25.781  1.00  0.00     0.035 C 
ATOM     74  C   UNL A   1      33.908  17.959  23.793  1.00  0.00     0.035 C 
ATOM     75  C   UNL A   1      32.871  15.688  25.173  1.00  0.00     0.160 C 
ATOM     76  C   UNL A   1      34.068  16.531  23.314  1.00  0.00     0.160 C 
ATOM     77  O   UNL A   1      34.083  15.636  24.424  1.00  0.00    -0.381 OA
ENDBRANCH  71  72
BRANCH  71  78
ATOM     78  O   UNL A   1      33.123  19.531  26.537  1.00  0.00    -0.389 OA
ATOM     79  H   UNL A   1      32.689  18.805  27.012  1.00  0.00     0.211 HD
ENDBRANCH  71  78
ENDBRANCH  69  71
ENDBRANCH  66  69
ENDBRANCH  64  65
ENDBRANCH  63  64
ENDBRANCH   1  63
TORSDOF 14
ENDMDL
MODEL 2
REMARK VINA RESULT:     -10.9      5.866     10.175
REMARK SMILES O=C(NCCCCNC(=O)[C@H](F)[C@H](O)C1CCOCC1)c1ccc(-c2c3nc(c(-c4c(F)cccc4F)c4ccc([nH]4)c(-c4c(F)cccc4F)c4nc(c(-c5c(F)cccc5F)c5ccc2[nH]5)C=C4)C=C3)cc1
REMARK SMILES IDX 5 1 4 2 3 3 1 4 2 5 21 7 22 8 74 9 23 10 73 11 24 12 25 13
REMARK SMILES IDX 26 14 67 15 27 16 72 17 66 18 68 19 28 20 71 21 65 22 64 23
REMARK SMILES IDX 29 25 55 26 38 27 54 28 39 29 42 30 53 31 69 32 40 33 41 34
REMARK SMILES IDX 52 36 70 37 43 38 30 39 31 40 36 41 32 42 33 43 35 44 37 45
REMARK SMILES IDX 34 46 56 47 57 48 62 49 58 50 59 51 61 52 63 53 60 54 44 55
REMARK SMILES IDX 45 56 50 57 46 58 47 59 49 60 51 61 48 62 6 63 7 64 8 65
REMARK SMILES IDX 9 66 10 68 11 69 12 70 13 71 15 72 16 73 20 74 17 75 19 76
REMARK SMILES IDX 18 77 14 78
REMARK H PARENT 3 6 68 24 42 35 8 67 14 79
REMARK Flexibility Score: inf
ROOT
ATOM      1  C   UNL A   1      31.359  31.798  26.526  1.00  0.00     0.023 C 
ENDROOT
BRANCH   1   2
ATOM      2  C   UNL A   1      32.678  32.466  26.847  1.00  0.00     0.116 C 
BRANCH   2   3
ATOM      3  N   UNL A   1      32.489  33.820  27.354  1.00  0.00    -0.352 N 
ATOM      4  O   UNL A   1      32.662  35.501  28.853  1.00  0.00    -0.269 OA
ATOM      5  C   UNL A   1      33.096  34.439  28.418  1.00  0.00     0.251 C 
ATOM      6  H   UNL A   1      31.833  34.367  26.865  1.00  0.00     0.163 HD
BRANCH   5   7
ATOM      7  C   UNL A   1      34.278  33.807  29.030  1.00  0.00     0.039 A 
ATOM      8  C   UNL A   1      34.105  32.734  29.905  1.00  0.00     0.014 A 
ATOM      9  C   UNL A   1      35.556  34.290  28.740  1.00  0.00     0.014 A 
ATOM     10  C   UNL A   1      35.187  32.250  30.618  1.00  0.00     0.010 A 
ATOM     11  C   UNL A   1      36.663  33.713  29.363  1.00  0.00     0.010 A 
ATOM     12  C   UNL A   1      36.482  32.701  30.319  1.00  0.00    -0.014 A 
BRANCH  12  13
ATOM     13  C   UNL A   1      37.626  32.001  30.943  1.00  0.00     0.031 A 
ATOM     14  C   UNL A   1      38.405  30.959  30.201  1.00  0.00     0.074 A 
ATOM     15  C   UNL A   1      37.971  32.367  32.193  1.00  0.00     0.049 A 
ATOM     16  N   UNL A   1      39.433  30.263  30.609  1.00  0.00    -0.248 NA
ATOM     17  C   UNL A   1      37.976  30.651  28.828  1.00  0.00     0.031 C 
ATOM     18  C   UNL A   1      37.270  33.374  32.998  1.00  0.00     0.029 A 
ATOM     19  N   UNL A   1      39.005  31.968  32.994  1.00  0.00    -0.354 N 
ATOM     20  C   UNL A   1      39.760  29.416  29.559  1.00  0.00     0.074 A 
ATOM     21  C   UNL A   1      38.810  29.674  28.497  1.00  0.00     0.031 C 
ATOM     22  C   UNL A   1      37.932  33.562  34.146  1.00  0.00     0.029 A 
ATOM     23  C   UNL A   1      39.049  32.629  34.197  1.00  0.00     0.049 A 
ATOM     24  H   UNL A   1      39.655  31.275  32.733  1.00  0.00     0.167 HD
ATOM     25  C   UNL A   1      40.764  28.509  29.496  1.00  0.00     0.037 A 
ATOM     26  C   UNL A   1      39.882  32.482  35.241  1.00  0.00     0.037 A 
ATOM     27  C   UNL A   1      41.706  28.277  30.562  1.00  0.00     0.049 A 
ATOM     28  C   UNL A   1      40.963  31.452  35.150  1.00  0.00     0.074 A 
ATOM     29  C   UNL A   1      42.772  27.395  30.595  1.00  0.00     0.029 A 
ATOM     30  N   UNL A   1      41.694  28.934  31.784  1.00  0.00    -0.354 N 
ATOM     31  N   UNL A   1      41.264  30.660  34.149  1.00  0.00    -0.248 NA
ATOM     32  C   UNL A   1      41.812  31.282  36.334  1.00  0.00     0.031 C 
ATOM     33  C   UNL A   1      43.378  27.488  31.852  1.00  0.00     0.029 A 
ATOM     34  C   UNL A   1      42.720  28.462  32.586  1.00  0.00     0.049 A 
ATOM     35  H   UNL A   1      41.050  29.632  32.044  1.00  0.00     0.167 HD
ATOM     36  C   UNL A   1      42.343  29.903  34.577  1.00  0.00     0.074 A 
ATOM     37  C   UNL A   1      42.659  30.350  35.920  1.00  0.00     0.031 C 
ATOM     38  C   UNL A   1      43.011  28.923  33.921  1.00  0.00     0.037 A 
BRANCH  25  39
ATOM     39  C   UNL A   1      40.880  27.684  28.247  1.00  0.00     0.057 A 
ATOM     40  C   UNL A   1      40.230  26.451  28.108  1.00  0.00     0.134 A 
ATOM     41  C   UNL A   1      41.619  28.151  27.151  1.00  0.00     0.134 A 
ATOM     42  F   UNL A   1      39.518  25.940  29.123  1.00  0.00    -0.206 F 
ATOM     43  C   UNL A   1      40.324  25.705  26.930  1.00  0.00     0.040 A 
ATOM     44  C   UNL A   1      41.702  27.425  25.961  1.00  0.00     0.040 A 
ATOM     45  F   UNL A   1      42.264  29.325  27.215  1.00  0.00    -0.206 F 
ATOM     46  C   UNL A   1      41.056  26.196  25.850  1.00  0.00     0.006 A 
ENDBRANCH  25  39
BRANCH  26  47
ATOM     47  C   UNL A   1      39.701  33.319  36.452  1.00  0.00     0.057 A 
ATOM     48  C   UNL A   1      40.383  34.531  36.602  1.00  0.00     0.134 A 
ATOM     49  C   UNL A   1      38.819  32.943  37.473  1.00  0.00     0.134 A 
ATOM     50  F   UNL A   1      41.248  34.940  35.663  1.00  0.00    -0.206 F 
ATOM     51  C   UNL A   1      40.202  35.334  37.730  1.00  0.00     0.040 A 
ATOM     52  C   UNL A   1      38.607  33.749  38.591  1.00  0.00     0.040 A 
ATOM     53  F   UNL A   1      38.125  31.798  37.382  1.00  0.00    -0.206 F 
ATOM     54  C   UNL A   1      39.306  34.946  38.724  1.00  0.00     0.006 A 
ENDBRANCH  26  47
BRANCH  38  55
ATOM     55  C   UNL A   1      44.161  28.295  34.646  1.00  0.00     0.057 A 
ATOM     56  C   UNL A   1      45.454  28.830  34.581  1.00  0.00     0.134 A 
ATOM     57  C   UNL A   1      43.969  27.150  35.428  1.00  0.00     0.134 A 
ATOM     58  F   UNL A   1      45.704  29.915  33.833  1.00  0.00    -0.206 F 
ATOM     59  C   UNL A   1      46.521  28.232  35.252  1.00  0.00     0.040 A 
ATOM     60  C   UNL A   1      45.023  26.559  36.124  1.00  0.00     0.040 A 
ATOM     61  F   UNL A   1      42.753  26.593  35.533  1.00  0.00    -0.206 F 
ATOM     62  C   UNL A   1      46.306  27.096  36.031  1.00  0.00     0.006 A 
ENDBRANCH  38  55
ENDBRANCH  12  13
ENDBRANCH   5   7
ENDBRANCH   2   3
ENDBRANCH   1   2
BRANCH   1  63
ATOM     63  C   UNL A   1      31.458  30.284  26.441  1.00  0.00     0.023 C 
BRANCH  63  64
ATOM     64  C   UNL A   1      31.898  29.705  25.085  1.00  0.00     0.116 C 
BRANCH  64  65
ATOM     65  N   UNL A   1      31.702  28.274  24.888  1.00  0.00    -0.353 N 
ATOM     66  C   UNL A   1      30.781  27.613  24.110  1.00  0.00     0.257 C 
ATOM     67  H   UNL A   1      32.322  27.694  25.385  1.00  0.00     0.163 HD
ATOM     68  O   UNL A   1      31.034  26.443  23.808  1.00  0.00    -0.272 OA
BRANCH  66  69
ATOM     69  C   UNL A   1      29.448  28.268  23.721  1.00  0.00     0.283 C 
ATOM     70  F   UNL A   1      28.441  27.345  23.690  1.00  0.00    -0.234 F 
BRANCH  69  71
ATOM     71  C   UNL A   1      29.566  28.924  22.344  1.00  0.00     0.161 C 
BRANCH  71  72
ATOM     72  C   UNL A   1      29.438  30.446  22.205  1.00  0.00     0.026 C 
ATOM     73  C   UNL A   1      29.035  31.166  23.492  1.00  0.00     0.035 C 
ATOM     74  C   UNL A   1      28.372  30.729  21.115  1.00  0.00     0.035 C 
ATOM     75  C   UNL A   1      28.749  32.636  23.202  1.00  0.00     0.160 C 
ATOM     76  C   UNL A   1      28.097  32.212  20.967  1.00  0.00     0.160 C 
ATOM     77  O   UNL A   1      27.721  32.772  22.223  1.00  0.00    -0.381 OA
ENDBRANCH  71  72
BRANCH  71  78
ATOM     78  O   UNL A   1      30.775  28.561  21.664  1.00  0.00    -0.389 OA
ATOM     79  H   UNL A   1      31.080  29.308  21.127  1.00  0.00     0.211 HD
ENDBRANCH  71  78
ENDBRANCH  69  71
ENDBRANCH  66  69
ENDBRANCH  64  65
ENDBRANCH  63  64
ENDBRANCH   1  63
TORSDOF 14
ENDMDL
MODEL 3
REMARK VINA RESULT:     -10.9      5.737     10.176
REMARK SMILES O=C(NCCCCNC(=O)[C@H](F)[C@H](O)C1CCOCC1)c1ccc(-c2c3nc(c(-c4c(F)cccc4F)c4ccc([nH]4)c(-c4c(F)cccc4F)c4nc(c(-c5c(F)cccc5F)c5ccc2[nH]5)C=C4)C=C3)cc1
REMARK SMILES IDX 5 1 4 2 3 3 1 4 2 5 21 7 22 8 74 9 23 10 73 11 24 12 25 13
REMARK SMILES IDX 26 14 67 15 27 16 72 17 66 18 68 19 28 20 71 21 65 22 64 23
REMARK SMILES IDX 29 25 55 26 38 27 54 28 39 29 42 30 53 31 69 32 40 33 41 34
REMARK SMILES IDX 52 36 70 37 43 38 30 39 31 40 36 41 32 42 33 43 35 44 37 45
REMARK SMILES IDX 34 46 56 47 57 48 62 49 58 50 59 51 61 52 63 53 60 54 44 55
REMARK SMILES IDX 45 56 50 57 46 58 47 59 49 60 51 61 48 62 6 63 7 64 8 65
REMARK SMILES IDX 9 66 10 68 11 69 12 70 13 71 15 72 16 73 20 74 17 75 19 76
REMARK SMILES IDX 18 77 14 78
REMARK H PARENT 3 6 68 24 42 35 8 67 14 79
REMARK Flexibility Score: inf
ROOT
ATOM      1  C   UNL A   1      31.292  31.872  26.333  1.00  0.00     0.023 C 
ENDROOT
BRANCH   1   2
ATOM      2  C   UNL A   1      32.531  32.434  26.993  1.00  0.00     0.116 C 
BRANCH   2   3
ATOM      3  N   UNL A   1      32.336  33.814  27.423  1.00  0.00    -0.352 N 
ATOM      4  O   UNL A   1      32.562  35.595  28.793  1.00  0.00    -0.269 OA
ATOM      5  C   UNL A   1      32.998  34.519  28.397  1.00  0.00     0.251 C 
ATOM      6  H   UNL A   1      31.630  34.309  26.949  1.00  0.00     0.163 HD
BRANCH   5   7
ATOM      7  C   UNL A   1      34.240  33.962  28.960  1.00  0.00     0.039 A 
ATOM      8  C   UNL A   1      34.166  33.061  30.025  1.00  0.00     0.014 A 
ATOM      9  C   UNL A   1      35.476  34.344  28.436  1.00  0.00     0.014 A 
ATOM     10  C   UNL A   1      35.323  32.671  30.673  1.00  0.00     0.010 A 
ATOM     11  C   UNL A   1      36.646  33.845  29.011  1.00  0.00     0.010 A 
ATOM     12  C   UNL A   1      36.575  33.019  30.143  1.00  0.00    -0.014 A 
BRANCH  12  13
ATOM     13  C   UNL A   1      37.780  32.399  30.735  1.00  0.00     0.031 A 
ATOM     14  C   UNL A   1      38.364  32.896  32.021  1.00  0.00     0.074 A 
ATOM     15  C   UNL A   1      38.310  31.338  30.095  1.00  0.00     0.049 A 
ATOM     16  N   UNL A   1      39.412  32.454  32.667  1.00  0.00    -0.248 NA
ATOM     17  C   UNL A   1      37.696  34.037  32.666  1.00  0.00     0.031 C 
ATOM     18  C   UNL A   1      37.810  30.781  28.833  1.00  0.00     0.029 A 
ATOM     19  N   UNL A   1      39.356  30.520  30.424  1.00  0.00    -0.354 N 
ATOM     20  C   UNL A   1      39.547  33.275  33.778  1.00  0.00     0.074 A 
ATOM     21  C   UNL A   1      38.483  34.254  33.712  1.00  0.00     0.031 C 
ATOM     22  C   UNL A   1      38.503  29.677  28.531  1.00  0.00     0.029 A 
ATOM     23  C   UNL A   1      39.551  29.499  29.527  1.00  0.00     0.049 A 
ATOM     24  H   UNL A   1      39.914  30.650  31.225  1.00  0.00     0.167 HD
ATOM     25  C   UNL A   1      40.479  33.210  34.760  1.00  0.00     0.037 A 
ATOM     26  C   UNL A   1      40.489  28.537  29.493  1.00  0.00     0.037 A 
ATOM     27  C   UNL A   1      41.524  32.219  34.811  1.00  0.00     0.049 A 
ATOM     28  C   UNL A   1      41.520  28.510  30.577  1.00  0.00     0.074 A 
ATOM     29  C   UNL A   1      42.509  32.052  35.769  1.00  0.00     0.029 A 
ATOM     30  N   UNL A   1      41.718  31.225  33.861  1.00  0.00    -0.354 N 
ATOM     31  N   UNL A   1      41.634  29.289  31.624  1.00  0.00    -0.248 NA
ATOM     32  C   UNL A   1      42.560  27.480  30.470  1.00  0.00     0.031 C 
ATOM     33  C   UNL A   1      43.323  30.984  35.378  1.00  0.00     0.029 A 
ATOM     34  C   UNL A   1      42.819  30.455  34.200  1.00  0.00     0.049 A 
ATOM     35  H   UNL A   1      41.158  31.088  33.064  1.00  0.00     0.167 HD
ATOM     36  C   UNL A   1      42.754  28.842  32.309  1.00  0.00     0.074 A 
ATOM     37  C   UNL A   1      43.267  27.705  31.569  1.00  0.00     0.031 C 
ATOM     38  C   UNL A   1      43.310  29.329  33.444  1.00  0.00     0.037 A 
BRANCH  25  39
ATOM     39  C   UNL A   1      40.427  34.250  35.840  1.00  0.00     0.057 A 
ATOM     40  C   UNL A   1      41.097  35.475  35.725  1.00  0.00     0.134 A 
ATOM     41  C   UNL A   1      39.659  34.042  36.994  1.00  0.00     0.134 A 
ATOM     42  F   UNL A   1      41.860  35.734  34.653  1.00  0.00    -0.206 F 
ATOM     43  C   UNL A   1      41.020  36.447  36.726  1.00  0.00     0.040 A 
ATOM     44  C   UNL A   1      39.555  35.014  37.991  1.00  0.00     0.040 A 
ATOM     45  F   UNL A   1      38.989  32.892  37.167  1.00  0.00    -0.206 F 
ATOM     46  C   UNL A   1      40.241  36.220  37.859  1.00  0.00     0.006 A 
ENDBRANCH  25  39
BRANCH  26  47
ATOM     47  C   UNL A   1      40.492  27.548  28.387  1.00  0.00     0.057 A 
ATOM     48  C   UNL A   1      39.755  26.364  28.473  1.00  0.00     0.134 A 
ATOM     49  C   UNL A   1      41.208  27.780  27.205  1.00  0.00     0.134 A 
ATOM     50  F   UNL A   1      39.058  26.081  29.583  1.00  0.00    -0.206 F 
ATOM     51  C   UNL A   1      39.737  25.438  27.428  1.00  0.00     0.040 A 
ATOM     52  C   UNL A   1      41.176  26.879  26.142  1.00  0.00     0.040 A 
ATOM     53  F   UNL A   1      41.924  28.905  27.056  1.00  0.00    -0.206 F 
ATOM     54  C   UNL A   1      40.443  25.700  26.255  1.00  0.00     0.006 A 
ENDBRANCH  26  47
BRANCH  38  55
ATOM     55  C   UNL A   1      44.520  28.612  33.959  1.00  0.00     0.057 A 
ATOM     56  C   UNL A   1      45.817  29.002  33.598  1.00  0.00     0.134 A 
ATOM     57  C   UNL A   1      44.387  27.528  34.834  1.00  0.00     0.134 A 
ATOM     58  F   UNL A   1      46.008  30.022  32.747  1.00  0.00    -0.206 F 
ATOM     59  C   UNL A   1      46.938  28.323  34.074  1.00  0.00     0.040 A 
ATOM     60  C   UNL A   1      45.502  26.857  35.337  1.00  0.00     0.040 A 
ATOM     61  F   UNL A   1      43.172  27.110  35.220  1.00  0.00    -0.206 F 
ATOM     62  C   UNL A   1      46.782  27.250  34.950  1.00  0.00     0.006 A 
ENDBRANCH  38  55
ENDBRANCH  12  13
ENDBRANCH   5   7
ENDBRANCH   2   3
ENDBRANCH   1   2
BRANCH   1  63
ATOM     63  C   UNL A   1      31.426  30.405  25.955  1.00  0.00     0.023 C 
BRANCH  63  64
ATOM     64  C   UNL A   1      32.857  29.846  25.894  1.00  0.00     0.116 C 
BRANCH  64  65
ATOM     65  N   UNL A   1      33.408  29.593  24.568  1.00  0.00    -0.353 N 
ATOM     66  C   UNL A   1      32.939  28.779  23.563  1.00  0.00     0.257 C 
ATOM     67  H   UNL A   1      34.239  30.076  24.360  1.00  0.00     0.163 HD
ATOM     68  O   UNL A   1      33.349  29.002  22.420  1.00  0.00    -0.272 OA
BRANCH  66  69
ATOM     69  C   UNL A   1      32.027  27.582  23.866  1.00  0.00     0.283 C 
ATOM     70  F   UNL A   1      32.684  26.402  23.657  1.00  0.00    -0.234 F 
BRANCH  69  71
ATOM     71  C   UNL A   1      30.786  27.626  22.972  1.00  0.00     0.161 C 
BRANCH  71  72
ATOM     72  C   UNL A   1      29.787  28.783  23.103  1.00  0.00     0.026 C 
ATOM     73  C   UNL A   1      28.320  28.356  23.078  1.00  0.00     0.035 C 
ATOM     74  C   UNL A   1      30.047  29.761  21.927  1.00  0.00     0.035 C 
ATOM     75  C   UNL A   1      27.418  29.586  23.020  1.00  0.00     0.160 C 
ATOM     76  C   UNL A   1      29.044  30.897  21.908  1.00  0.00     0.160 C 
ATOM     77  O   UNL A   1      27.716  30.382  21.874  1.00  0.00    -0.381 OA
ENDBRANCH  71  72
BRANCH  71  78
ATOM     78  O   UNL A   1      31.109  27.532  21.579  1.00  0.00    -0.389 OA
ATOM     79  H   UNL A   1      30.959  26.623  21.274  1.00  0.00     0.211 HD
ENDBRANCH  71  78
ENDBRANCH  69  71
ENDBRANCH  66  69
ENDBRANCH  64  65
ENDBRANCH  63  64
ENDBRANCH   1  63
TORSDOF 14
ENDMDL
