MODEL 1
REMARK VINA RESULT:     -11.2      0.000      0.000
REMARK SMILES CS(=O)(=O)CC(=O)N1CCO[C@@H](CC(=O)NCCCCNC(=O)c2ccc(-c3c4nc(c(-c5c(F)cccc5F)c5ccc([nH]5)c(-c5c(F)cccc5F)c5nc(c(-c6c(F)cccc6F)c6ccc3[nH]6)C=C5)C=C4)cc2)C1
REMARK SMILES IDX 17 1 16 2 14 3 15 4 13 6 12 7 8 8 9 9 78 10 10 11 11 12 6 13
REMARK SMILES IDX 7 14 5 15 2 16 1 17 3 18 4 19 18 20 19 21 20 22 21 23 22 24
REMARK SMILES IDX 23 26 24 27 25 28 77 29 26 30 76 31 27 32 28 33 29 34 70 35
REMARK SMILES IDX 30 36 75 37 69 38 71 39 31 40 74 41 68 42 67 43 32 45 58 46
REMARK SMILES IDX 41 47 57 48 42 49 45 50 56 51 72 52 43 53 44 54 55 56 73 57
REMARK SMILES IDX 46 58 33 59 34 60 39 61 35 62 36 63 38 64 40 65 37 66 59 67
REMARK SMILES IDX 60 68 65 69 61 70 62 71 64 72 66 73 63 74 47 75 48 76 53 77
REMARK SMILES IDX 49 78 50 79 52 80 54 81 51 82
REMARK H PARENT 16 5 21 25 71 44 45 55
REMARK Flexibility Score: inf
ROOT
ATOM      1  C   UNL A   1      33.093  30.120  26.473  1.00  0.00     0.116 C 
ENDROOT
BRANCH   1   2
ATOM      2  N   UNL A   1      33.631  29.666  25.200  1.00  0.00    -0.356 N 
ATOM      3  C   UNL A   1      33.662  28.420  24.642  1.00  0.00     0.222 C 
ATOM      4  O   UNL A   1      34.300  28.264  23.601  1.00  0.00    -0.275 OA
ATOM      5  H   UNL A   1      34.041  30.373  24.651  1.00  0.00     0.163 HD
BRANCH   3   6
ATOM      6  C   UNL A   1      32.954  27.255  25.299  1.00  0.00     0.133 C 
BRANCH   6   7
ATOM      7  C   UNL A   1      31.426  27.363  25.237  1.00  0.00     0.147 C 
ATOM      8  N   UNL A   1      29.578  28.051  23.659  1.00  0.00    -0.337 N 
ATOM      9  C   UNL A   1      29.109  26.669  23.685  1.00  0.00     0.148 C 
ATOM     10  C   UNL A   1      30.986  28.155  24.001  1.00  0.00     0.152 C 
ATOM     11  C   UNL A   1      29.485  26.002  25.004  1.00  0.00     0.182 C 
ATOM     12  O   UNL A   1      30.910  26.015  25.183  1.00  0.00    -0.374 OA
BRANCH   8  13
ATOM     13  C   UNL A   1      29.165  28.844  22.593  1.00  0.00     0.237 C 
ATOM     14  O   UNL A   1      29.883  29.070  21.620  1.00  0.00    -0.274 OA
BRANCH  13  15
ATOM     15  C   UNL A   1      27.845  29.520  22.767  1.00  0.00     0.236 C 
BRANCH  15  16
ATOM     16  S   UNL A   1      28.029  31.222  23.199  1.00  0.00     0.156 S 
ATOM     17  C   UNL A   1      28.185  32.115  21.668  1.00  0.00     0.158 C 
ATOM     18  O   UNL A   1      29.294  31.348  23.902  1.00  0.00    -0.229 OA
ATOM     19  O   UNL A   1      26.804  31.660  23.843  1.00  0.00    -0.229 OA
ENDBRANCH  15  16
ENDBRANCH  13  15
ENDBRANCH   8  13
ENDBRANCH   6   7
ENDBRANCH   3   6
ENDBRANCH   1   2
BRANCH   1  20
ATOM     20  C   UNL A   1      31.722  30.776  26.292  1.00  0.00     0.023 C 
BRANCH  20  21
ATOM     21  C   UNL A   1      31.484  32.029  27.116  1.00  0.00     0.023 C 
BRANCH  21  22
ATOM     22  C   UNL A   1      32.683  32.950  27.187  1.00  0.00     0.116 C 
BRANCH  22  23
ATOM     23  N   UNL A   1      32.358  34.302  27.627  1.00  0.00    -0.352 N 
ATOM     24  C   UNL A   1      32.981  35.062  28.591  1.00  0.00     0.251 C 
ATOM     25  H   UNL A   1      31.592  34.725  27.177  1.00  0.00     0.163 HD
ATOM     26  O   UNL A   1      32.544  36.159  28.908  1.00  0.00    -0.269 OA
BRANCH  24  27
ATOM     27  C   UNL A   1      34.165  34.502  29.272  1.00  0.00     0.039 A 
ATOM     28  C   UNL A   1      33.983  33.705  30.404  1.00  0.00     0.014 A 
ATOM     29  C   UNL A   1      35.439  34.690  28.732  1.00  0.00     0.014 A 
ATOM     30  C   UNL A   1      35.078  33.035  30.950  1.00  0.00     0.010 A 
ATOM     31  C   UNL A   1      36.498  33.930  29.202  1.00  0.00     0.010 A 
ATOM     32  C   UNL A   1      36.334  33.112  30.328  1.00  0.00    -0.014 A 
BRANCH  32  33
ATOM     33  C   UNL A   1      37.517  32.397  30.865  1.00  0.00     0.031 A 
ATOM     34  C   UNL A   1      38.142  32.877  32.147  1.00  0.00     0.074 A 
ATOM     35  C   UNL A   1      38.073  31.387  30.170  1.00  0.00     0.049 A 
ATOM     36  N   UNL A   1      39.245  32.485  32.729  1.00  0.00    -0.248 NA
ATOM     37  C   UNL A   1      37.460  33.984  32.840  1.00  0.00     0.031 C 
ATOM     38  C   UNL A   1      37.600  30.875  28.883  1.00  0.00     0.029 A 
ATOM     39  N   UNL A   1      39.172  30.614  30.450  1.00  0.00    -0.354 N 
ATOM     40  C   UNL A   1      39.406  33.321  33.826  1.00  0.00     0.074 A 
ATOM     41  C   UNL A   1      38.328  34.283  33.793  1.00  0.00     0.031 C 
ATOM     42  C   UNL A   1      38.383  29.851  28.502  1.00  0.00     0.029 A 
ATOM     43  C   UNL A   1      39.429  29.657  29.500  1.00  0.00     0.049 A 
ATOM     44  H   UNL A   1      39.723  30.736  31.257  1.00  0.00     0.167 HD
ATOM     45  C   UNL A   1      40.347  33.273  34.797  1.00  0.00     0.037 A 
ATOM     46  C   UNL A   1      40.400  28.725  29.450  1.00  0.00     0.037 A 
ATOM     47  C   UNL A   1      41.375  32.271  34.863  1.00  0.00     0.049 A 
ATOM     48  C   UNL A   1      41.395  28.647  30.574  1.00  0.00     0.074 A 
ATOM     49  C   UNL A   1      42.336  32.084  35.840  1.00  0.00     0.029 A 
ATOM     50  N   UNL A   1      41.559  31.273  33.918  1.00  0.00    -0.354 N 
ATOM     51  N   UNL A   1      41.503  29.407  31.637  1.00  0.00    -0.248 NA
ATOM     52  C   UNL A   1      42.394  27.572  30.500  1.00  0.00     0.031 C 
ATOM     53  C   UNL A   1      43.117  30.982  35.473  1.00  0.00     0.029 A 
ATOM     54  C   UNL A   1      42.618  30.465  34.288  1.00  0.00     0.049 A 
ATOM     55  H   UNL A   1      41.016  31.158  33.104  1.00  0.00     0.167 HD
ATOM     56  C   UNL A   1      42.558  28.885  32.373  1.00  0.00     0.074 A 
ATOM     57  C   UNL A   1      43.051  27.737  31.640  1.00  0.00     0.031 C 
ATOM     58  C   UNL A   1      43.073  29.314  33.551  1.00  0.00     0.037 A 
BRANCH  45  59
ATOM     59  C   UNL A   1      40.283  34.320  35.868  1.00  0.00     0.057 A 
ATOM     60  C   UNL A   1      40.981  35.532  35.761  1.00  0.00     0.134 A 
ATOM     61  C   UNL A   1      39.518  34.117  37.023  1.00  0.00     0.134 A 
ATOM     62  F   UNL A   1      41.748  35.781  34.689  1.00  0.00    -0.206 F 
ATOM     63  C   UNL A   1      40.950  36.486  36.777  1.00  0.00     0.040 A 
ATOM     64  C   UNL A   1      39.455  35.078  38.035  1.00  0.00     0.040 A 
ATOM     65  F   UNL A   1      38.824  32.981  37.190  1.00  0.00    -0.206 F 
ATOM     66  C   UNL A   1      40.180  36.262  37.917  1.00  0.00     0.006 A 
ENDBRANCH  45  59
BRANCH  46  67
ATOM     67  C   UNL A   1      40.446  27.758  28.325  1.00  0.00     0.057 A 
ATOM     68  C   UNL A   1      39.787  26.525  28.412  1.00  0.00     0.134 A 
ATOM     69  C   UNL A   1      41.146  28.032  27.145  1.00  0.00     0.134 A 
ATOM     70  F   UNL A   1      39.112  26.199  29.524  1.00  0.00    -0.206 F 
ATOM     71  C   UNL A   1      39.842  25.592  27.377  1.00  0.00     0.040 A 
ATOM     72  C   UNL A   1      41.191  27.117  26.092  1.00  0.00     0.040 A 
ATOM     73  F   UNL A   1      41.789  29.200  26.996  1.00  0.00    -0.206 F 
ATOM     74  C   UNL A   1      40.542  25.889  26.210  1.00  0.00     0.006 A 
ENDBRANCH  46  67
BRANCH  58  75
ATOM     75  C   UNL A   1      44.190  28.510  34.142  1.00  0.00     0.057 A 
ATOM     76  C   UNL A   1      43.950  27.431  35.001  1.00  0.00     0.134 A 
ATOM     77  C   UNL A   1      45.521  28.792  33.807  1.00  0.00     0.134 A 
ATOM     78  F   UNL A   1      42.698  27.119  35.366  1.00  0.00    -0.206 F 
ATOM     79  C   UNL A   1      44.997  26.672  35.524  1.00  0.00     0.040 A 
ATOM     80  C   UNL A   1      46.575  28.027  34.306  1.00  0.00     0.040 A 
ATOM     81  F   UNL A   1      45.814  29.808  32.981  1.00  0.00    -0.206 F 
ATOM     82  C   UNL A   1      46.314  26.966  35.171  1.00  0.00     0.006 A 
ENDBRANCH  58  75
ENDBRANCH  32  33
ENDBRANCH  24  27
ENDBRANCH  22  23
ENDBRANCH  21  22
ENDBRANCH  20  21
ENDBRANCH   1  20
TORSDOF 15
ENDMDL
MODEL 2
REMARK VINA RESULT:     -10.9      1.046      6.487
REMARK SMILES CS(=O)(=O)CC(=O)N1CCO[C@@H](CC(=O)NCCCCNC(=O)c2ccc(-c3c4nc(c(-c5c(F)cccc5F)c5ccc([nH]5)c(-c5c(F)cccc5F)c5nc(c(-c6c(F)cccc6F)c6ccc3[nH]6)C=C5)C=C4)cc2)C1
REMARK SMILES IDX 17 1 16 2 14 3 15 4 13 6 12 7 8 8 9 9 78 10 10 11 11 12 6 13
REMARK SMILES IDX 7 14 5 15 2 16 1 17 3 18 4 19 18 20 19 21 20 22 21 23 22 24
REMARK SMILES IDX 23 26 24 27 25 28 77 29 26 30 76 31 27 32 28 33 29 34 70 35
REMARK SMILES IDX 30 36 75 37 69 38 71 39 31 40 74 41 68 42 67 43 32 45 58 46
REMARK SMILES IDX 41 47 57 48 42 49 45 50 56 51 72 52 43 53 44 54 55 56 73 57
REMARK SMILES IDX 46 58 33 59 34 60 39 61 35 62 36 63 38 64 40 65 37 66 59 67
REMARK SMILES IDX 60 68 65 69 61 70 62 71 64 72 66 73 63 74 47 75 48 76 53 77
REMARK SMILES IDX 49 78 50 79 52 80 54 81 51 82
REMARK H PARENT 16 5 21 25 71 44 45 55
REMARK Flexibility Score: inf
ROOT
ATOM      1  C   UNL A   1      31.825  29.217  27.174  1.00  0.00     0.116 C 
ENDROOT
BRANCH   1   2
ATOM      2  N   UNL A   1      32.875  28.282  26.802  1.00  0.00    -0.356 N 
ATOM      3  C   UNL A   1      32.805  27.067  26.184  1.00  0.00     0.222 C 
ATOM      4  O   UNL A   1      33.835  26.397  26.098  1.00  0.00    -0.275 OA
ATOM      5  H   UNL A   1      33.786  28.573  27.035  1.00  0.00     0.163 HD
BRANCH   3   6
ATOM      6  C   UNL A   1      31.493  26.544  25.641  1.00  0.00     0.133 C 
BRANCH   6   7
ATOM      7  C   UNL A   1      31.228  26.964  24.191  1.00  0.00     0.147 C 
ATOM      8  N   UNL A   1      29.670  28.413  22.830  1.00  0.00    -0.337 N 
ATOM      9  C   UNL A   1      30.825  29.226  22.464  1.00  0.00     0.148 C 
ATOM     10  C   UNL A   1      29.883  27.690  24.071  1.00  0.00     0.152 C 
ATOM     11  C   UNL A   1      32.099  28.386  22.490  1.00  0.00     0.182 C 
ATOM     12  O   UNL A   1      32.310  27.839  23.800  1.00  0.00    -0.374 OA
BRANCH   8  13
ATOM     13  C   UNL A   1      28.412  28.992  22.687  1.00  0.00     0.237 C 
ATOM     14  O   UNL A   1      27.385  28.448  23.089  1.00  0.00    -0.274 OA
BRANCH  13  15
ATOM     15  C   UNL A   1      28.372  30.255  21.891  1.00  0.00     0.236 C 
BRANCH  15  16
ATOM     16  S   UNL A   1      27.976  31.653  22.894  1.00  0.00     0.156 S 
ATOM     17  C   UNL A   1      29.388  31.938  23.939  1.00  0.00     0.158 C 
ATOM     18  O   UNL A   1      26.876  31.259  23.757  1.00  0.00    -0.229 OA
ATOM     19  O   UNL A   1      27.829  32.806  22.025  1.00  0.00    -0.229 OA
ENDBRANCH  15  16
ENDBRANCH  13  15
ENDBRANCH   8  13
ENDBRANCH   6   7
ENDBRANCH   3   6
ENDBRANCH   1   2
BRANCH   1  20
ATOM     20  C   UNL A   1      31.746  30.384  26.185  1.00  0.00     0.023 C 
BRANCH  20  21
ATOM     21  C   UNL A   1      31.445  31.740  26.798  1.00  0.00     0.023 C 
BRANCH  21  22
ATOM     22  C   UNL A   1      32.625  32.688  26.795  1.00  0.00     0.116 C 
BRANCH  22  23
ATOM     23  N   UNL A   1      32.376  33.936  27.505  1.00  0.00    -0.352 N 
ATOM     24  C   UNL A   1      33.095  34.492  28.539  1.00  0.00     0.251 C 
ATOM     25  H   UNL A   1      31.590  34.448  27.206  1.00  0.00     0.163 HD
ATOM     26  O   UNL A   1      32.716  35.515  29.090  1.00  0.00    -0.269 OA
BRANCH  24  27
ATOM     27  C   UNL A   1      34.311  33.796  29.004  1.00  0.00     0.039 A 
ATOM     28  C   UNL A   1      35.561  34.350  28.721  1.00  0.00     0.014 A 
ATOM     29  C   UNL A   1      34.204  32.652  29.798  1.00  0.00     0.014 A 
ATOM     30  C   UNL A   1      36.701  33.794  29.300  1.00  0.00     0.010 A 
ATOM     31  C   UNL A   1      35.321  32.178  30.467  1.00  0.00     0.010 A 
ATOM     32  C   UNL A   1      36.584  32.730  30.208  1.00  0.00    -0.014 A 
BRANCH  32  33
ATOM     33  C   UNL A   1      37.770  32.126  30.862  1.00  0.00     0.031 A 
ATOM     34  C   UNL A   1      38.521  31.033  30.149  1.00  0.00     0.074 A 
ATOM     35  C   UNL A   1      38.118  32.492  32.110  1.00  0.00     0.049 A 
ATOM     36  N   UNL A   1      39.502  30.284  30.581  1.00  0.00    -0.248 NA
ATOM     37  C   UNL A   1      38.072  30.705  28.785  1.00  0.00     0.031 C 
ATOM     38  C   UNL A   1      37.428  33.490  32.930  1.00  0.00     0.029 A 
ATOM     39  N   UNL A   1      39.139  32.052  32.913  1.00  0.00    -0.354 N 
ATOM     40  C   UNL A   1      39.755  29.377  29.560  1.00  0.00     0.074 A 
ATOM     41  C   UNL A   1      38.784  29.623  28.518  1.00  0.00     0.031 C 
ATOM     42  C   UNL A   1      38.067  33.611  34.106  1.00  0.00     0.029 A 
ATOM     43  C   UNL A   1      39.189  32.678  34.134  1.00  0.00     0.049 A 
ATOM     44  H   UNL A   1      39.777  31.354  32.639  1.00  0.00     0.167 HD
ATOM     45  C   UNL A   1      40.731  28.444  29.480  1.00  0.00     0.037 A 
ATOM     46  C   UNL A   1      40.050  32.517  35.156  1.00  0.00     0.037 A 
ATOM     47  C   UNL A   1      41.736  28.250  30.488  1.00  0.00     0.049 A 
ATOM     48  C   UNL A   1      41.168  31.521  35.018  1.00  0.00     0.074 A 
ATOM     49  C   UNL A   1      42.814  27.384  30.479  1.00  0.00     0.029 A 
ATOM     50  N   UNL A   1      41.794  28.955  31.682  1.00  0.00    -0.354 N 
ATOM     51  N   UNL A   1      41.432  30.707  34.024  1.00  0.00    -0.248 NA
ATOM     52  C   UNL A   1      42.116  31.429  36.137  1.00  0.00     0.031 C 
ATOM     53  C   UNL A   1      43.513  27.550  31.679  1.00  0.00     0.029 A 
ATOM     54  C   UNL A   1      42.891  28.544  32.417  1.00  0.00     0.049 A 
ATOM     55  H   UNL A   1      41.150  29.645  31.963  1.00  0.00     0.167 HD
ATOM     56  C   UNL A   1      42.592  30.033  34.381  1.00  0.00     0.074 A 
ATOM     57  C   UNL A   1      42.986  30.539  35.680  1.00  0.00     0.031 C 
ATOM     58  C   UNL A   1      43.273  29.081  33.697  1.00  0.00     0.037 A 
BRANCH  45  59
ATOM     59  C   UNL A   1      40.761  27.586  28.250  1.00  0.00     0.057 A 
ATOM     60  C   UNL A   1      40.037  26.389  28.165  1.00  0.00     0.134 A 
ATOM     61  C   UNL A   1      41.526  27.957  27.137  1.00  0.00     0.134 A 
ATOM     62  F   UNL A   1      39.300  25.965  29.204  1.00  0.00    -0.206 F 
ATOM     63  C   UNL A   1      40.099  25.574  27.034  1.00  0.00     0.040 A 
ATOM     64  C   UNL A   1      41.573  27.166  25.988  1.00  0.00     0.040 A 
ATOM     65  F   UNL A   1      42.242  29.091  27.150  1.00  0.00    -0.206 F 
ATOM     66  C   UNL A   1      40.866  25.966  25.938  1.00  0.00     0.006 A 
ENDBRANCH  45  59
BRANCH  46  67
ATOM     67  C   UNL A   1      39.924  33.353  36.376  1.00  0.00     0.057 A 
ATOM     68  C   UNL A   1      39.092  32.961  37.432  1.00  0.00     0.134 A 
ATOM     69  C   UNL A   1      40.621  34.559  36.518  1.00  0.00     0.134 A 
ATOM     70  F   UNL A   1      38.388  31.822  37.346  1.00  0.00    -0.206 F 
ATOM     71  C   UNL A   1      38.939  33.746  38.574  1.00  0.00     0.040 A 
ATOM     72  C   UNL A   1      40.495  35.344  37.666  1.00  0.00     0.040 A 
ATOM     73  F   UNL A   1      41.441  34.984  35.547  1.00  0.00    -0.206 F 
ATOM     74  C   UNL A   1      39.646  34.940  38.695  1.00  0.00     0.006 A 
ENDBRANCH  46  67
BRANCH  58  75
ATOM     75  C   UNL A   1      44.537  28.567  34.316  1.00  0.00     0.057 A 
ATOM     76  C   UNL A   1      45.772  29.186  34.095  1.00  0.00     0.134 A 
ATOM     77  C   UNL A   1      44.505  27.466  35.182  1.00  0.00     0.134 A 
ATOM     78  F   UNL A   1      45.868  30.237  33.268  1.00  0.00    -0.206 F 
ATOM     79  C   UNL A   1      46.939  28.714  34.698  1.00  0.00     0.040 A 
ATOM     80  C   UNL A   1      45.660  26.999  35.808  1.00  0.00     0.040 A 
ATOM     81  F   UNL A   1      43.348  26.837  35.440  1.00  0.00    -0.206 F 
ATOM     82  C   UNL A   1      46.882  27.621  35.562  1.00  0.00     0.006 A 
ENDBRANCH  58  75
ENDBRANCH  32  33
ENDBRANCH  24  27
ENDBRANCH  22  23
ENDBRANCH  21  22
ENDBRANCH  20  21
ENDBRANCH   1  20
TORSDOF 15
ENDMDL
MODEL 3
REMARK VINA RESULT:     -10.8      4.451      9.291
REMARK SMILES CS(=O)(=O)CC(=O)N1CCO[C@@H](CC(=O)NCCCCNC(=O)c2ccc(-c3c4nc(c(-c5c(F)cccc5F)c5ccc([nH]5)c(-c5c(F)cccc5F)c5nc(c(-c6c(F)cccc6F)c6ccc3[nH]6)C=C5)C=C4)cc2)C1
REMARK SMILES IDX 17 1 16 2 14 3 15 4 13 6 12 7 8 8 9 9 78 10 10 11 11 12 6 13
REMARK SMILES IDX 7 14 5 15 2 16 1 17 3 18 4 19 18 20 19 21 20 22 21 23 22 24
REMARK SMILES IDX 23 26 24 27 25 28 77 29 26 30 76 31 27 32 28 33 29 34 70 35
REMARK SMILES IDX 30 36 75 37 69 38 71 39 31 40 74 41 68 42 67 43 32 45 58 46
REMARK SMILES IDX 41 47 57 48 42 49 45 50 56 51 72 52 43 53 44 54 55 56 73 57
REMARK SMILES IDX 46 58 33 59 34 60 39 61 35 62 36 63 38 64 40 65 37 66 59 67
REMARK SMILES IDX 60 68 65 69 61 70 62 71 64 72 66 73 63 74 47 75 48 76 53 77
REMARK SMILES IDX 49 78 50 79 52 80 54 81 51 82
REMARK H PARENT 16 5 21 25 71 44 45 55
REMARK Flexibility Score: inf
ROOT
ATOM      1  C   UNL A   1      37.642  23.318  25.899  1.00  0.00     0.116 C 
ENDROOT
BRANCH   1   2
ATOM      2  N   UNL A   1      37.467  23.420  24.458  1.00  0.00    -0.356 N 
ATOM      3  C   UNL A   1      36.519  22.882  23.637  1.00  0.00     0.222 C 
ATOM      4  O   UNL A   1      36.664  23.003  22.420  1.00  0.00    -0.275 OA
ATOM      5  H   UNL A   1      38.146  23.967  23.999  1.00  0.00     0.163 HD
BRANCH   3   6
ATOM      6  C   UNL A   1      35.333  22.131  24.204  1.00  0.00     0.133 C 
BRANCH   6   7
ATOM      7  C   UNL A   1      34.076  22.998  24.337  1.00  0.00     0.147 C 
ATOM      8  N   UNL A   1      32.946  24.980  23.253  1.00  0.00    -0.337 N 
ATOM      9  C   UNL A   1      31.846  24.092  22.891  1.00  0.00     0.148 C 
ATOM     10  C   UNL A   1      34.186  24.254  23.465  1.00  0.00     0.152 C 
ATOM     11  C   UNL A   1      31.737  22.942  23.888  1.00  0.00     0.182 C 
ATOM     12  O   UNL A   1      32.958  22.187  23.914  1.00  0.00    -0.374 OA
BRANCH   8  13
ATOM     13  C   UNL A   1      33.067  26.169  22.539  1.00  0.00     0.237 C 
ATOM     14  O   UNL A   1      33.500  26.206  21.389  1.00  0.00    -0.274 OA
BRANCH  13  15
ATOM     15  C   UNL A   1      32.770  27.414  23.307  1.00  0.00     0.236 C 
BRANCH  15  16
ATOM     16  S   UNL A   1      31.035  27.728  23.404  1.00  0.00     0.156 S 
ATOM     17  C   UNL A   1      30.858  29.390  24.015  1.00  0.00     0.158 C 
ATOM     18  O   UNL A   1      30.497  26.838  24.417  1.00  0.00    -0.229 OA
ATOM     19  O   UNL A   1      30.493  27.693  22.057  1.00  0.00    -0.229 OA
ENDBRANCH  15  16
ENDBRANCH  13  15
ENDBRANCH   8  13
ENDBRANCH   6   7
ENDBRANCH   3   6
ENDBRANCH   1   2
BRANCH   1  20
ATOM     20  C   UNL A   1      38.917  22.546  26.249  1.00  0.00     0.023 C 
BRANCH  20  21
ATOM     21  C   UNL A   1      39.083  21.209  25.549  1.00  0.00     0.023 C 
BRANCH  21  22
ATOM     22  C   UNL A   1      39.575  20.101  26.456  1.00  0.00     0.116 C 
BRANCH  22  23
ATOM     23  N   UNL A   1      40.693  19.345  25.904  1.00  0.00    -0.352 N 
ATOM     24  C   UNL A   1      42.017  19.713  25.822  1.00  0.00     0.251 C 
ATOM     25  H   UNL A   1      40.472  18.457  25.543  1.00  0.00     0.163 HD
ATOM     26  O   UNL A   1      42.834  19.000  25.258  1.00  0.00    -0.269 OA
BRANCH  24  27
ATOM     27  C   UNL A   1      42.423  21.016  26.387  1.00  0.00     0.039 A 
ATOM     28  C   UNL A   1      42.735  22.064  25.520  1.00  0.00     0.014 A 
ATOM     29  C   UNL A   1      42.400  21.218  27.769  1.00  0.00     0.014 A 
ATOM     30  C   UNL A   1      42.952  23.340  26.041  1.00  0.00     0.010 A 
ATOM     31  C   UNL A   1      42.495  22.506  28.271  1.00  0.00     0.010 A 
ATOM     32  C   UNL A   1      42.794  23.576  27.416  1.00  0.00    -0.014 A 
BRANCH  32  33
ATOM     33  C   UNL A   1      42.994  24.921  28.006  1.00  0.00     0.031 A 
ATOM     34  C   UNL A   1      44.367  25.317  28.477  1.00  0.00     0.074 A 
ATOM     35  C   UNL A   1      41.944  25.744  28.193  1.00  0.00     0.049 A 
ATOM     36  N   UNL A   1      44.744  26.385  29.131  1.00  0.00    -0.248 NA
ATOM     37  C   UNL A   1      45.454  24.355  28.223  1.00  0.00     0.031 C 
ATOM     38  C   UNL A   1      40.554  25.447  27.841  1.00  0.00     0.029 A 
ATOM     39  N   UNL A   1      41.886  27.000  28.742  1.00  0.00    -0.354 N 
ATOM     40  C   UNL A   1      46.094  26.201  29.398  1.00  0.00     0.074 A 
ATOM     41  C   UNL A   1      46.456  24.895  28.897  1.00  0.00     0.031 C 
ATOM     42  C   UNL A   1      39.786  26.506  28.150  1.00  0.00     0.029 A 
ATOM     43  C   UNL A   1      40.623  27.539  28.751  1.00  0.00     0.049 A 
ATOM     44  H   UNL A   1      42.675  27.470  29.095  1.00  0.00     0.167 HD
ATOM     45  C   UNL A   1      46.966  27.058  29.978  1.00  0.00     0.037 A 
ATOM     46  C   UNL A   1      40.196  28.738  29.190  1.00  0.00     0.037 A 
ATOM     47  C   UNL A   1      46.616  28.383  30.410  1.00  0.00     0.049 A 
ATOM     48  C   UNL A   1      41.196  29.701  29.769  1.00  0.00     0.074 A 
ATOM     49  C   UNL A   1      47.435  29.361  30.944  1.00  0.00     0.029 A 
ATOM     50  N   UNL A   1      45.339  28.919  30.336  1.00  0.00    -0.354 N 
ATOM     51  N   UNL A   1      42.482  29.539  29.965  1.00  0.00    -0.248 NA
ATOM     52  C   UNL A   1      40.687  31.018  30.176  1.00  0.00     0.031 C 
ATOM     53  C   UNL A   1      46.647  30.485  31.213  1.00  0.00     0.029 A 
ATOM     54  C   UNL A   1      45.347  30.217  30.814  1.00  0.00     0.049 A 
ATOM     55  H   UNL A   1      44.547  28.447  29.995  1.00  0.00     0.167 HD
ATOM     56  C   UNL A   1      42.943  30.741  30.485  1.00  0.00     0.074 A 
ATOM     57  C   UNL A   1      41.799  31.626  30.566  1.00  0.00     0.031 C 
ATOM     58  C   UNL A   1      44.198  31.084  30.861  1.00  0.00     0.037 A 
BRANCH  45  59
ATOM     59  C   UNL A   1      48.380  26.587  30.150  1.00  0.00     0.057 A 
ATOM     60  C   UNL A   1      48.786  25.862  31.279  1.00  0.00     0.134 A 
ATOM     61  C   UNL A   1      49.350  26.862  29.178  1.00  0.00     0.134 A 
ATOM     62  F   UNL A   1      47.911  25.582  32.257  1.00  0.00    -0.206 F 
ATOM     63  C   UNL A   1      50.110  25.461  31.454  1.00  0.00     0.040 A 
ATOM     64  C   UNL A   1      50.672  26.440  29.326  1.00  0.00     0.040 A 
ATOM     65  F   UNL A   1      49.029  27.550  28.071  1.00  0.00    -0.206 F 
ATOM     66  C   UNL A   1      51.057  25.745  30.471  1.00  0.00     0.006 A 
ENDBRANCH  45  59
BRANCH  46  67
ATOM     67  C   UNL A   1      38.768  29.118  29.050  1.00  0.00     0.057 A 
ATOM     68  C   UNL A   1      37.893  29.027  30.140  1.00  0.00     0.134 A 
ATOM     69  C   UNL A   1      38.242  29.573  27.837  1.00  0.00     0.134 A 
ATOM     70  F   UNL A   1      38.336  28.582  31.325  1.00  0.00    -0.206 F 
ATOM     71  C   UNL A   1      36.542  29.352  30.022  1.00  0.00     0.040 A 
ATOM     72  C   UNL A   1      36.896  29.924  27.710  1.00  0.00     0.040 A 
ATOM     73  F   UNL A   1      39.031  29.692  26.759  1.00  0.00    -0.206 F 
ATOM     74  C   UNL A   1      36.041  29.807  28.804  1.00  0.00     0.006 A 
ENDBRANCH  46  67
BRANCH  58  75
ATOM     75  C   UNL A   1      44.409  32.488  31.342  1.00  0.00     0.057 A 
ATOM     76  C   UNL A   1      44.326  32.825  32.698  1.00  0.00     0.134 A 
ATOM     77  C   UNL A   1      44.746  33.503  30.438  1.00  0.00     0.134 A 
ATOM     78  F   UNL A   1      43.996  31.899  33.610  1.00  0.00    -0.206 F 
ATOM     79  C   UNL A   1      44.549  34.130  33.136  1.00  0.00     0.040 A 
ATOM     80  C   UNL A   1      44.994  34.806  30.866  1.00  0.00     0.040 A 
ATOM     81  F   UNL A   1      44.851  33.239  29.126  1.00  0.00    -0.206 F 
ATOM     82  C   UNL A   1      44.892  35.123  32.219  1.00  0.00     0.006 A 
ENDBRANCH  58  75
ENDBRANCH  32  33
ENDBRANCH  24  27
ENDBRANCH  22  23
ENDBRANCH  21  22
ENDBRANCH  20  21
ENDBRANCH   1  20
TORSDOF 15
ENDMDL
