MODEL 1
REMARK VINA RESULT:     -12.2      0.000      0.000
REMARK SMILES Cc1ccc([N+](=O)[O-])c(N2CCC[C@H](CC(=O)NCCCCNC(=O)c3ccc(-c4c5nc(c(-c6c(F)cccc6F)c6ccc([nH]6)c(-c6c(F)cccc6F)c6nc(c(-c7c(F)cccc7F)c7ccc4[nH]7)C=C6)C=C5)cc3)C2)c1
REMARK SMILES IDX 20 1 19 2 18 3 16 4 17 5 15 7 14 8 10 9 11 10 80 11 12 12
REMARK SMILES IDX 13 13 9 14 1 15 2 16 3 17 81 18 4 19 5 20 6 21 7 22 8 23
REMARK SMILES IDX 21 24 22 25 23 26 24 27 25 29 26 30 27 31 79 32 28 33 78 34
REMARK SMILES IDX 29 35 30 36 31 37 72 38 32 39 77 40 71 41 73 42 33 43 76 44
REMARK SMILES IDX 70 45 69 46 34 48 60 49 43 50 59 51 44 52 47 53 58 54 74 55
REMARK SMILES IDX 45 56 46 57 57 59 75 60 48 61 35 62 36 63 41 64 37 65 38 66
REMARK SMILES IDX 40 67 42 68 39 69 61 70 62 71 67 72 63 73 64 74 66 75 68 76
REMARK SMILES IDX 65 77 49 78 50 79 55 80 51 81 52 82 54 83 56 84 53 85
REMARK H PARENT 18 6 23 28 73 47 47 58
REMARK Flexibility Score: inf
ROOT
ATOM      1  C   UNL A   1      31.566  30.864  25.929  1.00  0.00     0.023 C 
ENDROOT
BRANCH   1   2
ATOM      2  C   UNL A   1      31.022  29.942  24.827  1.00  0.00     0.116 C 
BRANCH   2   3
ATOM      3  N   UNL A   1      32.062  29.599  23.877  1.00  0.00    -0.356 N 
ATOM      4  C   UNL A   1      32.631  28.390  23.611  1.00  0.00     0.220 C 
ATOM      5  O   UNL A   1      33.625  28.361  22.883  1.00  0.00    -0.275 OA
ATOM      6  H   UNL A   1      32.409  30.352  23.345  1.00  0.00     0.163 HD
BRANCH   4   7
ATOM      7  C   UNL A   1      32.047  27.115  24.184  1.00  0.00     0.105 C 
BRANCH   7   8
ATOM      8  C   UNL A   1      32.382  26.892  25.675  1.00  0.00     0.018 C 
ATOM      9  N   UNL A   1      33.526  24.777  25.281  1.00  0.00    -0.366 N 
ATOM     10  C   UNL A   1      32.529  23.935  25.950  1.00  0.00     0.117 C 
ATOM     11  C   UNL A   1      33.711  26.136  25.799  1.00  0.00     0.120 C 
ATOM     12  C   UNL A   1      31.184  24.651  25.966  1.00  0.00     0.022 C 
ATOM     13  C   UNL A   1      31.341  26.084  26.468  1.00  0.00     0.008 C 
BRANCH   9  14
ATOM     14  C   UNL A   1      34.675  24.122  24.852  1.00  0.00     0.116 A 
ATOM     15  C   UNL A   1      38.187  23.442  26.188  1.00  0.00     0.044 C 
ATOM     16  C   UNL A   1      36.997  23.463  25.274  1.00  0.00    -0.049 A 
ATOM     17  C   UNL A   1      37.091  22.942  23.978  1.00  0.00     0.010 A 
ATOM     18  C   UNL A   1      35.793  24.043  25.696  1.00  0.00     0.036 A 
ATOM     19  C   UNL A   1      35.990  22.985  23.122  1.00  0.00     0.088 A 
ATOM     20  C   UNL A   1      34.795  23.564  23.568  1.00  0.00     0.292 A 
BRANCH  20  21
ATOM     21  N   UNL A   1      33.684  23.623  22.631  1.00  0.00     0.064 N 
ATOM     22  O   UNL A   1      32.893  22.666  22.640  1.00  0.00    -0.258 OA
ATOM     23  O   UNL A   1      33.558  24.641  21.934  1.00  0.00    -0.258 OA
ENDBRANCH  20  21
ENDBRANCH   9  14
ENDBRANCH   7   8
ENDBRANCH   4   7
ENDBRANCH   2   3
ENDBRANCH   1   2
BRANCH   1  24
ATOM     24  C   UNL A   1      32.191  30.164  27.128  1.00  0.00     0.023 C 
BRANCH  24  25
ATOM     25  C   UNL A   1      33.691  30.357  27.221  1.00  0.00     0.116 C 
BRANCH  25  26
ATOM     26  N   UNL A   1      34.148  31.313  28.220  1.00  0.00    -0.352 N 
ATOM     27  C   UNL A   1      35.261  31.220  29.051  1.00  0.00     0.251 C 
ATOM     28  H   UNL A   1      33.603  32.126  28.320  1.00  0.00     0.163 HD
ATOM     29  O   UNL A   1      35.499  32.090  29.869  1.00  0.00    -0.269 OA
BRANCH  27  30
ATOM     30  C   UNL A   1      36.235  30.118  28.818  1.00  0.00     0.039 A 
ATOM     31  C   UNL A   1      36.633  29.359  29.922  1.00  0.00     0.014 A 
ATOM     32  C   UNL A   1      36.947  30.039  27.625  1.00  0.00     0.014 A 
ATOM     33  C   UNL A   1      37.896  28.771  29.918  1.00  0.00     0.010 A 
ATOM     34  C   UNL A   1      38.248  29.583  27.668  1.00  0.00     0.010 A 
ATOM     35  C   UNL A   1      38.746  29.003  28.834  1.00  0.00    -0.014 A 
BRANCH  35  36
ATOM     36  C   UNL A   1      40.179  28.734  28.880  1.00  0.00     0.031 A 
ATOM     37  C   UNL A   1      40.701  27.459  28.353  1.00  0.00     0.074 A 
ATOM     38  C   UNL A   1      41.039  29.633  29.410  1.00  0.00     0.049 A 
ATOM     39  N   UNL A   1      41.688  26.813  28.876  1.00  0.00    -0.248 NA
ATOM     40  C   UNL A   1      40.121  26.793  27.192  1.00  0.00     0.031 C 
ATOM     41  C   UNL A   1      42.498  29.556  29.416  1.00  0.00     0.029 A 
ATOM     42  N   UNL A   1      40.744  30.713  30.253  1.00  0.00    -0.354 N 
ATOM     43  C   UNL A   1      42.037  25.814  27.999  1.00  0.00     0.074 A 
ATOM     44  C   UNL A   1      40.998  25.805  26.996  1.00  0.00     0.031 C 
ATOM     45  C   UNL A   1      42.964  30.305  30.427  1.00  0.00     0.029 A 
ATOM     46  C   UNL A   1      41.818  30.807  31.165  1.00  0.00     0.049 A 
ATOM     47  H   UNL A   1      39.947  31.290  30.217  1.00  0.00     0.167 HD
ATOM     48  C   UNL A   1      43.237  25.182  28.125  1.00  0.00     0.037 A 
ATOM     49  C   UNL A   1      41.624  30.681  32.508  1.00  0.00     0.037 A 
ATOM     50  C   UNL A   1      44.013  25.719  29.238  1.00  0.00     0.049 A 
ATOM     51  C   UNL A   1      42.353  29.508  33.122  1.00  0.00     0.074 A 
ATOM     52  C   UNL A   1      45.008  26.681  29.292  1.00  0.00     0.029 A 
ATOM     53  N   UNL A   1      43.577  25.530  30.544  1.00  0.00    -0.354 N 
ATOM     54  N   UNL A   1      42.892  28.542  32.431  1.00  0.00    -0.248 NA
ATOM     55  C   UNL A   1      42.493  29.305  34.562  1.00  0.00     0.031 C 
ATOM     56  C   UNL A   1      45.131  27.114  30.633  1.00  0.00     0.029 A 
ATOM     57  C   UNL A   1      44.225  26.402  31.399  1.00  0.00     0.049 A 
ATOM     58  H   UNL A   1      42.903  24.868  30.821  1.00  0.00     0.167 HD
ATOM     59  C   UNL A   1      43.382  27.587  33.283  1.00  0.00     0.074 A 
ATOM     60  C   UNL A   1      43.140  28.127  34.606  1.00  0.00     0.031 C 
ATOM     61  C   UNL A   1      43.925  26.420  32.823  1.00  0.00     0.037 A 
BRANCH  48  62
ATOM     62  C   UNL A   1      43.802  24.317  27.027  1.00  0.00     0.057 A 
ATOM     63  C   UNL A   1      44.544  24.866  25.965  1.00  0.00     0.134 A 
ATOM     64  C   UNL A   1      43.591  22.929  26.940  1.00  0.00     0.134 A 
ATOM     65  F   UNL A   1      44.920  26.151  25.957  1.00  0.00    -0.206 F 
ATOM     66  C   UNL A   1      44.928  24.121  24.843  1.00  0.00     0.040 A 
ATOM     67  C   UNL A   1      43.922  22.182  25.800  1.00  0.00     0.040 A 
ATOM     68  F   UNL A   1      43.073  22.242  27.968  1.00  0.00    -0.206 F 
ATOM     69  C   UNL A   1      44.579  22.783  24.736  1.00  0.00     0.006 A 
ENDBRANCH  48  62
BRANCH  49  70
ATOM     70  C   UNL A   1      40.312  31.213  32.955  1.00  0.00     0.057 A 
ATOM     71  C   UNL A   1      39.281  30.295  33.228  1.00  0.00     0.134 A 
ATOM     72  C   UNL A   1      40.179  32.496  33.490  1.00  0.00     0.134 A 
ATOM     73  F   UNL A   1      39.339  29.049  32.732  1.00  0.00    -0.206 F 
ATOM     74  C   UNL A   1      38.235  30.595  34.103  1.00  0.00     0.040 A 
ATOM     75  C   UNL A   1      39.125  32.813  34.356  1.00  0.00     0.040 A 
ATOM     76  F   UNL A   1      41.124  33.423  33.282  1.00  0.00    -0.206 F 
ATOM     77  C   UNL A   1      38.177  31.849  34.702  1.00  0.00     0.006 A 
ENDBRANCH  49  70
BRANCH  61  78
ATOM     78  C   UNL A   1      44.306  25.227  33.662  1.00  0.00     0.057 A 
ATOM     79  C   UNL A   1      45.599  24.687  33.726  1.00  0.00     0.134 A 
ATOM     80  C   UNL A   1      43.376  24.663  34.564  1.00  0.00     0.134 A 
ATOM     81  F   UNL A   1      46.609  25.198  33.010  1.00  0.00    -0.206 F 
ATOM     82  C   UNL A   1      45.927  23.625  34.581  1.00  0.00     0.040 A 
ATOM     83  C   UNL A   1      43.706  23.640  35.458  1.00  0.00     0.040 A 
ATOM     84  F   UNL A   1      42.108  25.097  34.631  1.00  0.00    -0.206 F 
ATOM     85  C   UNL A   1      44.984  23.106  35.458  1.00  0.00     0.006 A 
ENDBRANCH  61  78
ENDBRANCH  35  36
ENDBRANCH  27  30
ENDBRANCH  25  26
ENDBRANCH  24  25
ENDBRANCH   1  24
TORSDOF 14
ENDMDL
MODEL 2
REMARK VINA RESULT:     -12.0      2.097      3.052
REMARK SMILES Cc1ccc([N+](=O)[O-])c(N2CCC[C@H](CC(=O)NCCCCNC(=O)c3ccc(-c4c5nc(c(-c6c(F)cccc6F)c6ccc([nH]6)c(-c6c(F)cccc6F)c6nc(c(-c7c(F)cccc7F)c7ccc4[nH]7)C=C6)C=C5)cc3)C2)c1
REMARK SMILES IDX 20 1 19 2 18 3 16 4 17 5 15 7 14 8 10 9 11 10 80 11 12 12
REMARK SMILES IDX 13 13 9 14 1 15 2 16 3 17 81 18 4 19 5 20 6 21 7 22 8 23
REMARK SMILES IDX 21 24 22 25 23 26 24 27 25 29 26 30 27 31 79 32 28 33 78 34
REMARK SMILES IDX 29 35 30 36 31 37 72 38 32 39 77 40 71 41 73 42 33 43 76 44
REMARK SMILES IDX 70 45 69 46 34 48 60 49 43 50 59 51 44 52 47 53 58 54 74 55
REMARK SMILES IDX 45 56 46 57 57 59 75 60 48 61 35 62 36 63 41 64 37 65 38 66
REMARK SMILES IDX 40 67 42 68 39 69 61 70 62 71 67 72 63 73 64 74 66 75 68 76
REMARK SMILES IDX 65 77 49 78 50 79 55 80 51 81 52 82 54 83 56 84 53 85
REMARK H PARENT 18 6 23 28 73 47 47 58
REMARK Flexibility Score: inf
ROOT
ATOM      1  C   UNL A   1      32.315  30.513  26.979  1.00  0.00     0.023 C 
ENDROOT
BRANCH   1   2
ATOM      2  C   UNL A   1      32.453  29.883  25.584  1.00  0.00     0.116 C 
BRANCH   2   3
ATOM      3  N   UNL A   1      31.333  30.246  24.737  1.00  0.00    -0.356 N 
ATOM      4  C   UNL A   1      30.567  29.463  23.929  1.00  0.00     0.220 C 
ATOM      5  O   UNL A   1      29.775  30.014  23.162  1.00  0.00    -0.275 OA
ATOM      6  H   UNL A   1      31.092  31.201  24.748  1.00  0.00     0.163 HD
BRANCH   4   7
ATOM      7  C   UNL A   1      30.674  27.953  23.983  1.00  0.00     0.105 C 
BRANCH   7   8
ATOM      8  C   UNL A   1      31.296  27.328  22.715  1.00  0.00     0.018 C 
ATOM      9  N   UNL A   1      32.237  25.421  23.906  1.00  0.00    -0.366 N 
ATOM     10  C   UNL A   1      33.641  25.807  23.733  1.00  0.00     0.117 C 
ATOM     11  C   UNL A   1      31.302  25.798  22.842  1.00  0.00     0.120 C 
ATOM     12  C   UNL A   1      33.731  27.310  23.499  1.00  0.00     0.022 C 
ATOM     13  C   UNL A   1      32.745  27.749  22.418  1.00  0.00     0.008 C 
BRANCH   9  14
ATOM     14  C   UNL A   1      32.024  24.181  24.499  1.00  0.00     0.116 A 
ATOM     15  C   UNL A   1      32.656  20.513  23.647  1.00  0.00     0.044 C 
ATOM     16  C   UNL A   1      32.206  21.740  24.384  1.00  0.00    -0.049 A 
ATOM     17  C   UNL A   1      31.483  21.624  25.576  1.00  0.00     0.010 A 
ATOM     18  C   UNL A   1      32.470  23.014  23.861  1.00  0.00     0.036 A 
ATOM     19  C   UNL A   1      31.045  22.767  26.246  1.00  0.00     0.088 A 
ATOM     20  C   UNL A   1      31.326  24.029  25.709  1.00  0.00     0.292 A 
BRANCH  20  21
ATOM     21  N   UNL A   1      30.818  25.193  26.419  1.00  0.00     0.064 N 
ATOM     22  O   UNL A   1      29.584  25.313  26.486  1.00  0.00    -0.258 OA
ATOM     23  O   UNL A   1      31.635  25.950  26.963  1.00  0.00    -0.258 OA
ENDBRANCH  20  21
ENDBRANCH   9  14
ENDBRANCH   7   8
ENDBRANCH   4   7
ENDBRANCH   2   3
ENDBRANCH   1   2
BRANCH   1  24
ATOM     24  C   UNL A   1      33.476  31.391  27.425  1.00  0.00     0.023 C 
BRANCH  24  25
ATOM     25  C   UNL A   1      34.595  30.614  28.088  1.00  0.00     0.116 C 
BRANCH  25  26
ATOM     26  N   UNL A   1      35.333  31.323  29.126  1.00  0.00    -0.352 N 
ATOM     27  C   UNL A   1      36.441  30.883  29.843  1.00  0.00     0.251 C 
ATOM     28  H   UNL A   1      35.007  32.224  29.347  1.00  0.00     0.163 HD
ATOM     29  O   UNL A   1      36.934  31.579  30.712  1.00  0.00    -0.269 OA
BRANCH  27  30
ATOM     30  C   UNL A   1      37.105  29.617  29.426  1.00  0.00     0.039 A 
ATOM     31  C   UNL A   1      37.500  28.729  30.430  1.00  0.00     0.014 A 
ATOM     32  C   UNL A   1      37.583  29.459  28.129  1.00  0.00     0.014 A 
ATOM     33  C   UNL A   1      38.590  27.891  30.201  1.00  0.00     0.010 A 
ATOM     34  C   UNL A   1      38.745  28.739  27.942  1.00  0.00     0.010 A 
ATOM     35  C   UNL A   1      39.285  28.002  28.996  1.00  0.00    -0.014 A 
BRANCH  35  36
ATOM     36  C   UNL A   1      40.615  27.437  28.794  1.00  0.00     0.031 A 
ATOM     37  C   UNL A   1      40.759  26.010  28.448  1.00  0.00     0.074 A 
ATOM     38  C   UNL A   1      41.723  28.200  28.930  1.00  0.00     0.049 A 
ATOM     39  N   UNL A   1      41.716  25.258  28.875  1.00  0.00    -0.248 NA
ATOM     40  C   UNL A   1      39.801  25.306  27.602  1.00  0.00     0.031 C 
ATOM     41  C   UNL A   1      43.102  27.807  28.645  1.00  0.00     0.029 A 
ATOM     42  N   UNL A   1      41.840  29.441  29.570  1.00  0.00    -0.354 N 
ATOM     43  C   UNL A   1      41.656  24.077  28.174  1.00  0.00     0.074 A 
ATOM     44  C   UNL A   1      40.416  24.132  27.437  1.00  0.00     0.031 C 
ATOM     45  C   UNL A   1      43.927  28.591  29.355  1.00  0.00     0.029 A 
ATOM     46  C   UNL A   1      43.107  29.445  30.195  1.00  0.00     0.049 A 
ATOM     47  H   UNL A   1      41.173  30.165  29.582  1.00  0.00     0.167 HD
ATOM     48  C   UNL A   1      42.721  23.227  28.174  1.00  0.00     0.037 A 
ATOM     49  C   UNL A   1      43.234  29.586  31.545  1.00  0.00     0.037 A 
ATOM     50  C   UNL A   1      43.830  23.755  28.961  1.00  0.00     0.049 A 
ATOM     51  C   UNL A   1      43.876  28.398  32.224  1.00  0.00     0.074 A 
ATOM     52  C   UNL A   1      44.959  24.472  28.601  1.00  0.00     0.029 A 
ATOM     53  N   UNL A   1      43.706  23.882  30.339  1.00  0.00    -0.354 N 
ATOM     54  N   UNL A   1      44.049  27.238  31.653  1.00  0.00    -0.248 NA
ATOM     55  C   UNL A   1      44.331  28.407  33.612  1.00  0.00     0.031 C 
ATOM     56  C   UNL A   1      45.486  25.080  29.765  1.00  0.00     0.029 A 
ATOM     57  C   UNL A   1      44.688  24.718  30.836  1.00  0.00     0.049 A 
ATOM     58  H   UNL A   1      43.017  23.438  30.885  1.00  0.00     0.167 HD
ATOM     59  C   UNL A   1      44.560  26.351  32.564  1.00  0.00     0.074 A 
ATOM     60  C   UNL A   1      44.753  27.139  33.765  1.00  0.00     0.031 C 
ATOM     61  C   UNL A   1      44.759  25.034  32.255  1.00  0.00     0.037 A 
BRANCH  48  62
ATOM     62  C   UNL A   1      42.835  22.091  27.189  1.00  0.00     0.057 A 
ATOM     63  C   UNL A   1      42.056  20.927  27.316  1.00  0.00     0.134 A 
ATOM     64  C   UNL A   1      43.749  22.073  26.120  1.00  0.00     0.134 A 
ATOM     65  F   UNL A   1      41.069  20.832  28.214  1.00  0.00    -0.206 F 
ATOM     66  C   UNL A   1      42.262  19.787  26.528  1.00  0.00     0.040 A 
ATOM     67  C   UNL A   1      44.004  20.924  25.360  1.00  0.00     0.040 A 
ATOM     68  F   UNL A   1      44.416  23.180  25.761  1.00  0.00    -0.206 F 
ATOM     69  C   UNL A   1      43.269  19.766  25.575  1.00  0.00     0.006 A 
ENDBRANCH  48  62
BRANCH  49  70
ATOM     70  C   UNL A   1      42.187  30.458  32.137  1.00  0.00     0.057 A 
ATOM     71  C   UNL A   1      42.324  31.851  31.993  1.00  0.00     0.134 A 
ATOM     72  C   UNL A   1      40.918  29.973  32.458  1.00  0.00     0.134 A 
ATOM     73  F   UNL A   1      43.520  32.384  31.700  1.00  0.00    -0.206 F 
ATOM     74  C   UNL A   1      41.224  32.710  32.032  1.00  0.00     0.040 A 
ATOM     75  C   UNL A   1      39.810  30.827  32.516  1.00  0.00     0.040 A 
ATOM     76  F   UNL A   1      40.706  28.657  32.602  1.00  0.00    -0.206 F 
ATOM     77  C   UNL A   1      39.953  32.191  32.256  1.00  0.00     0.006 A 
ENDBRANCH  49  70
BRANCH  61  78
ATOM     78  C   UNL A   1      45.123  23.940  33.227  1.00  0.00     0.057 A 
ATOM     79  C   UNL A   1      46.367  23.831  33.865  1.00  0.00     0.134 A 
ATOM     80  C   UNL A   1      44.144  23.019  33.663  1.00  0.00     0.134 A 
ATOM     81  F   UNL A   1      47.354  24.708  33.633  1.00  0.00    -0.206 F 
ATOM     82  C   UNL A   1      46.636  22.843  34.822  1.00  0.00     0.040 A 
ATOM     83  C   UNL A   1      44.384  22.064  34.654  1.00  0.00     0.040 A 
ATOM     84  F   UNL A   1      42.900  23.022  33.159  1.00  0.00    -0.206 F 
ATOM     85  C   UNL A   1      45.641  21.962  35.228  1.00  0.00     0.006 A 
ENDBRANCH  61  78
ENDBRANCH  35  36
ENDBRANCH  27  30
ENDBRANCH  25  26
ENDBRANCH  24  25
ENDBRANCH   1  24
TORSDOF 14
ENDMDL
MODEL 3
REMARK VINA RESULT:     -12.0      1.126      2.010
REMARK SMILES Cc1ccc([N+](=O)[O-])c(N2CCC[C@H](CC(=O)NCCCCNC(=O)c3ccc(-c4c5nc(c(-c6c(F)cccc6F)c6ccc([nH]6)c(-c6c(F)cccc6F)c6nc(c(-c7c(F)cccc7F)c7ccc4[nH]7)C=C6)C=C5)cc3)C2)c1
REMARK SMILES IDX 20 1 19 2 18 3 16 4 17 5 15 7 14 8 10 9 11 10 80 11 12 12
REMARK SMILES IDX 13 13 9 14 1 15 2 16 3 17 81 18 4 19 5 20 6 21 7 22 8 23
REMARK SMILES IDX 21 24 22 25 23 26 24 27 25 29 26 30 27 31 79 32 28 33 78 34
REMARK SMILES IDX 29 35 30 36 31 37 72 38 32 39 77 40 71 41 73 42 33 43 76 44
REMARK SMILES IDX 70 45 69 46 34 48 60 49 43 50 59 51 44 52 47 53 58 54 74 55
REMARK SMILES IDX 45 56 46 57 57 59 75 60 48 61 35 62 36 63 41 64 37 65 38 66
REMARK SMILES IDX 40 67 42 68 39 69 61 70 62 71 67 72 63 73 64 74 66 75 68 76
REMARK SMILES IDX 65 77 49 78 50 79 55 80 51 81 52 82 54 83 56 84 53 85
REMARK H PARENT 18 6 23 28 73 47 47 58
REMARK Flexibility Score: inf
ROOT
ATOM      1  C   UNL A   1      32.107  30.220  26.921  1.00  0.00     0.023 C 
ENDROOT
BRANCH   1   2
ATOM      2  C   UNL A   1      31.626  30.102  25.466  1.00  0.00     0.116 C 
BRANCH   2   3
ATOM      3  N   UNL A   1      32.714  29.713  24.590  1.00  0.00    -0.356 N 
ATOM      4  C   UNL A   1      33.116  28.470  24.205  1.00  0.00     0.220 C 
ATOM      5  O   UNL A   1      34.179  28.365  23.590  1.00  0.00    -0.275 OA
ATOM      6  H   UNL A   1      33.240  30.458  24.219  1.00  0.00     0.163 HD
BRANCH   4   7
ATOM      7  C   UNL A   1      32.271  27.251  24.512  1.00  0.00     0.105 C 
BRANCH   7   8
ATOM      8  C   UNL A   1      32.460  26.708  25.945  1.00  0.00     0.018 C 
ATOM      9  N   UNL A   1      33.468  24.616  25.205  1.00  0.00    -0.366 N 
ATOM     10  C   UNL A   1      32.357  23.753  25.619  1.00  0.00     0.117 C 
ATOM     11  C   UNL A   1      33.712  25.822  26.001  1.00  0.00     0.120 C 
ATOM     12  C   UNL A   1      31.074  24.573  25.689  1.00  0.00     0.022 C 
ATOM     13  C   UNL A   1      31.297  25.857  26.484  1.00  0.00     0.008 C 
BRANCH   9  14
ATOM     14  C   UNL A   1      34.596  23.956  24.729  1.00  0.00     0.116 A 
ATOM     15  C   UNL A   1      38.041  22.971  26.050  1.00  0.00     0.044 C 
ATOM     16  C   UNL A   1      36.875  23.146  25.122  1.00  0.00    -0.049 A 
ATOM     17  C   UNL A   1      36.976  22.762  23.780  1.00  0.00     0.010 A 
ATOM     18  C   UNL A   1      35.689  23.735  25.581  1.00  0.00     0.036 A 
ATOM     19  C   UNL A   1      35.899  22.948  22.913  1.00  0.00     0.088 A 
ATOM     20  C   UNL A   1      34.721  23.532  23.396  1.00  0.00     0.292 A 
BRANCH  20  21
ATOM     21  N   UNL A   1      33.637  23.744  22.450  1.00  0.00     0.064 N 
ATOM     22  O   UNL A   1      33.545  24.875  21.946  1.00  0.00    -0.258 OA
ATOM     23  O   UNL A   1      32.917  22.777  22.158  1.00  0.00    -0.258 OA
ENDBRANCH  20  21
ENDBRANCH   9  14
ENDBRANCH   7   8
ENDBRANCH   4   7
ENDBRANCH   2   3
ENDBRANCH   1   2
BRANCH   1  24
ATOM     24  C   UNL A   1      33.325  31.106  27.145  1.00  0.00     0.023 C 
BRANCH  24  25
ATOM     25  C   UNL A   1      34.435  30.419  27.913  1.00  0.00     0.116 C 
BRANCH  25  26
ATOM     26  N   UNL A   1      35.100  31.226  28.927  1.00  0.00    -0.352 N 
ATOM     27  C   UNL A   1      36.271  30.937  29.621  1.00  0.00     0.251 C 
ATOM     28  H   UNL A   1      34.668  32.081  29.149  1.00  0.00     0.163 HD
ATOM     29  O   UNL A   1      36.691  31.698  30.473  1.00  0.00    -0.269 OA
BRANCH  27  30
ATOM     30  C   UNL A   1      37.080  29.760  29.198  1.00  0.00     0.039 A 
ATOM     31  C   UNL A   1      37.437  28.831  30.179  1.00  0.00     0.014 A 
ATOM     32  C   UNL A   1      37.707  29.738  27.957  1.00  0.00     0.014 A 
ATOM     33  C   UNL A   1      38.612  28.098  30.020  1.00  0.00     0.010 A 
ATOM     34  C   UNL A   1      38.939  29.125  27.855  1.00  0.00     0.010 A 
ATOM     35  C   UNL A   1      39.422  28.353  28.912  1.00  0.00    -0.014 A 
BRANCH  35  36
ATOM     36  C   UNL A   1      40.808  27.907  28.825  1.00  0.00     0.031 A 
ATOM     37  C   UNL A   1      41.111  26.552  28.326  1.00  0.00     0.074 A 
ATOM     38  C   UNL A   1      41.824  28.715  29.207  1.00  0.00     0.049 A 
ATOM     39  N   UNL A   1      42.065  25.813  28.783  1.00  0.00    -0.248 NA
ATOM     40  C   UNL A   1      40.331  25.909  27.275  1.00  0.00     0.031 C 
ATOM     41  C   UNL A   1      43.255  28.454  29.067  1.00  0.00     0.029 A 
ATOM     42  N   UNL A   1      41.756  29.863  30.008  1.00  0.00    -0.354 N 
ATOM     43  C   UNL A   1      42.192  24.736  27.939  1.00  0.00     0.074 A 
ATOM     44  C   UNL A   1      41.056  24.811  27.051  1.00  0.00     0.031 C 
ATOM     45  C   UNL A   1      43.916  29.187  29.976  1.00  0.00     0.029 A 
ATOM     46  C   UNL A   1      42.928  29.865  30.796  1.00  0.00     0.049 A 
ATOM     47  H   UNL A   1      41.035  30.534  30.019  1.00  0.00     0.167 HD
ATOM     48  C   UNL A   1      43.314  23.965  27.978  1.00  0.00     0.037 A 
ATOM     49  C   UNL A   1      42.869  29.829  32.158  1.00  0.00     0.037 A 
ATOM     50  C   UNL A   1      44.266  24.453  28.970  1.00  0.00     0.049 A 
ATOM     51  C   UNL A   1      43.514  28.605  32.764  1.00  0.00     0.074 A 
ATOM     52  C   UNL A   1      45.370  25.282  28.861  1.00  0.00     0.029 A 
ATOM     53  N   UNL A   1      43.958  24.383  30.323  1.00  0.00    -0.354 N 
ATOM     54  N   UNL A   1      43.853  27.546  32.081  1.00  0.00    -0.248 NA
ATOM     55  C   UNL A   1      43.786  28.455  34.192  1.00  0.00     0.031 C 
ATOM     56  C   UNL A   1      45.692  25.760  30.153  1.00  0.00     0.029 A 
ATOM     57  C   UNL A   1      44.797  25.207  31.051  1.00  0.00     0.049 A 
ATOM     58  H   UNL A   1      43.244  23.826  30.709  1.00  0.00     0.167 HD
ATOM     59  C   UNL A   1      44.315  26.579  32.935  1.00  0.00     0.074 A 
ATOM     60  C   UNL A   1      44.288  27.208  34.241  1.00  0.00     0.031 C 
ATOM     61  C   UNL A   1      44.660  25.332  32.495  1.00  0.00     0.037 A 
BRANCH  48  62
ATOM     62  C   UNL A   1      43.646  22.983  26.883  1.00  0.00     0.057 A 
ATOM     63  C   UNL A   1      43.007  21.732  26.799  1.00  0.00     0.134 A 
ATOM     64  C   UNL A   1      44.639  23.201  25.912  1.00  0.00     0.134 A 
ATOM     65  F   UNL A   1      41.969  21.415  27.582  1.00  0.00    -0.206 F 
ATOM     66  C   UNL A   1      43.414  20.731  25.908  1.00  0.00     0.040 A 
ATOM     67  C   UNL A   1      45.094  22.193  25.052  1.00  0.00     0.040 A 
ATOM     68  F   UNL A   1      45.193  24.412  25.749  1.00  0.00    -0.206 F 
ATOM     69  C   UNL A   1      44.491  20.943  25.059  1.00  0.00     0.006 A 
ENDBRANCH  48  62
BRANCH  49  70
ATOM     70  C   UNL A   1      41.688  30.544  32.704  1.00  0.00     0.057 A 
ATOM     71  C   UNL A   1      41.717  31.950  32.736  1.00  0.00     0.134 A 
ATOM     72  C   UNL A   1      40.437  29.932  32.806  1.00  0.00     0.134 A 
ATOM     73  F   UNL A   1      42.888  32.601  32.658  1.00  0.00    -0.206 F 
ATOM     74  C   UNL A   1      40.549  32.715  32.730  1.00  0.00     0.040 A 
ATOM     75  C   UNL A   1      39.259  30.689  32.817  1.00  0.00     0.040 A 
ATOM     76  F   UNL A   1      40.326  28.596  32.774  1.00  0.00    -0.206 F 
ATOM     77  C   UNL A   1      39.311  32.081  32.731  1.00  0.00     0.006 A 
ENDBRANCH  49  70
BRANCH  61  78
ATOM     78  C   UNL A   1      44.985  24.142  33.362  1.00  0.00     0.057 A 
ATOM     79  C   UNL A   1      44.143  23.032  33.529  1.00  0.00     0.134 A 
ATOM     80  C   UNL A   1      46.260  24.022  33.959  1.00  0.00     0.134 A 
ATOM     81  F   UNL A   1      42.949  22.960  32.925  1.00  0.00    -0.206 F 
ATOM     82  C   UNL A   1      44.519  21.912  34.282  1.00  0.00     0.040 A 
ATOM     83  C   UNL A   1      46.665  22.887  34.668  1.00  0.00     0.040 A 
ATOM     84  F   UNL A   1      47.178  24.995  33.861  1.00  0.00    -0.206 F 
ATOM     85  C   UNL A   1      45.787  21.831  34.846  1.00  0.00     0.006 A 
ENDBRANCH  61  78
ENDBRANCH  35  36
ENDBRANCH  27  30
ENDBRANCH  25  26
ENDBRANCH  24  25
ENDBRANCH   1  24
TORSDOF 14
ENDMDL
