MODEL 1
REMARK VINA RESULT:     -12.8      0.000      0.000
REMARK SMILES Cc1cc(OC(F)(F)F)cc2c1O[C@H](C(F)(F)F)C(C(=O)NCCCCNC(=O)c1ccc(-c3c4nc(c(-c5c(F)cccc5F)c5ccc([nH]5)c(-c5c(F)cccc5F)c5nc(c(-c6c(F)cccc6F)c6ccc3[nH]6)C=C5)C=C4)cc1)=C2
REMARK SMILES IDX 24 1 23 2 22 3 20 4 21 5 19 7 1 8 2 9 3 10 12 11 4 12 11 13
REMARK SMILES IDX 13 14 10 15 84 16 14 17 5 18 6 19 7 20 8 21 9 22 15 23 16 24
REMARK SMILES IDX 17 25 18 26 25 27 26 28 27 29 28 30 29 32 30 33 31 34 83 35
REMARK SMILES IDX 32 36 82 37 33 38 34 39 35 40 76 41 36 42 81 43 75 44 77 45
REMARK SMILES IDX 37 46 80 47 74 48 73 49 38 51 64 52 47 53 63 54 48 55 51 56
REMARK SMILES IDX 62 57 78 58 49 59 50 60 61 62 79 63 52 64 39 65 40 66 45 67
REMARK SMILES IDX 41 68 42 69 44 70 46 71 43 72 65 73 66 74 71 75 67 76 68 77
REMARK SMILES IDX 70 78 72 79 69 80 53 81 54 82 59 83 55 84 56 85 58 86 60 87
REMARK SMILES IDX 57 88
REMARK H PARENT 22 6 27 31 77 50 51 61
REMARK Flexibility Score: inf
ROOT
ATOM      1  C   UNL A   1      31.897  30.360  26.832  1.00  0.00     0.023 C 
ENDROOT
BRANCH   1   2
ATOM      2  C   UNL A   1      33.353  29.929  26.677  1.00  0.00     0.116 C 
BRANCH   2   3
ATOM      3  N   UNL A   1      33.666  29.561  25.309  1.00  0.00    -0.352 N 
ATOM      4  C   UNL A   1      33.599  28.441  24.550  1.00  0.00     0.251 C 
ATOM      5  O   UNL A   1      34.004  28.570  23.390  1.00  0.00    -0.270 OA
ATOM      6  H   UNL A   1      34.019  30.324  24.798  1.00  0.00     0.163 HD
BRANCH   4   7
ATOM      7  C   UNL A   1      33.089  27.116  25.010  1.00  0.00     0.067 C 
ATOM      8  C   UNL A   1      30.413  23.155  26.878  1.00  0.00     0.048 C 
ATOM      9  C   UNL A   1      31.848  23.381  26.493  1.00  0.00    -0.005 A 
ATOM     10  C   UNL A   1      32.774  22.328  26.553  1.00  0.00     0.054 A 
ATOM     11  C   UNL A   1      32.277  24.639  26.051  1.00  0.00     0.131 A 
ATOM     12  C   UNL A   1      34.109  22.531  26.192  1.00  0.00     0.130 A 
ATOM     13  C   UNL A   1      33.607  24.856  25.687  1.00  0.00     0.021 A 
ATOM     14  O   UNL A   1      31.356  25.649  26.039  1.00  0.00    -0.475 OA
ATOM     15  C   UNL A   1      34.518  23.798  25.760  1.00  0.00     0.058 A 
ATOM     16  C   UNL A   1      34.028  26.188  25.270  1.00  0.00     0.025 C 
ATOM     17  C   UNL A   1      31.634  26.763  25.148  1.00  0.00     0.314 C 
BRANCH  12  18
ATOM     18  O   UNL A   1      35.104  21.595  26.214  1.00  0.00    -0.406 OA
BRANCH  18  19
ATOM     19  C   UNL A   1      35.415  20.931  25.001  1.00  0.00     0.573 C 
ATOM     20  F   UNL A   1      35.612  21.813  23.998  1.00  0.00    -0.132 F 
ATOM     21  F   UNL A   1      36.509  20.152  25.140  1.00  0.00    -0.132 F 
ATOM     22  F   UNL A   1      34.374  20.137  24.663  1.00  0.00    -0.132 F 
ENDBRANCH  18  19
ENDBRANCH  12  18
BRANCH  17  23
ATOM     23  C   UNL A   1      30.950  26.513  23.791  1.00  0.00     0.429 C 
ATOM     24  F   UNL A   1      29.890  25.680  23.944  1.00  0.00    -0.167 F 
ATOM     25  F   UNL A   1      30.465  27.650  23.238  1.00  0.00    -0.167 F 
ATOM     26  F   UNL A   1      31.778  25.954  22.881  1.00  0.00    -0.167 F 
ENDBRANCH  17  23
ENDBRANCH   4   7
ENDBRANCH   2   3
ENDBRANCH   1   2
BRANCH   1  27
ATOM     27  C   UNL A   1      31.683  31.871  26.736  1.00  0.00     0.023 C 
BRANCH  27  28
ATOM     28  C   UNL A   1      32.807  32.729  27.315  1.00  0.00     0.116 C 
BRANCH  28  29
ATOM     29  N   UNL A   1      32.406  34.094  27.627  1.00  0.00    -0.352 N 
ATOM     30  C   UNL A   1      32.991  34.944  28.537  1.00  0.00     0.251 C 
ATOM     31  H   UNL A   1      31.631  34.448  27.133  1.00  0.00     0.163 HD
ATOM     32  O   UNL A   1      32.542  36.062  28.753  1.00  0.00    -0.269 OA
BRANCH  30  33
ATOM     33  C   UNL A   1      34.156  34.443  29.284  1.00  0.00     0.039 A 
ATOM     34  C   UNL A   1      33.937  33.725  30.460  1.00  0.00     0.014 A 
ATOM     35  C   UNL A   1      35.436  34.575  28.738  1.00  0.00     0.014 A 
ATOM     36  C   UNL A   1      35.009  33.066  31.060  1.00  0.00     0.010 A 
ATOM     37  C   UNL A   1      36.494  33.883  29.315  1.00  0.00     0.010 A 
ATOM     38  C   UNL A   1      36.282  33.113  30.471  1.00  0.00    -0.014 A 
BRANCH  38  39
ATOM     39  C   UNL A   1      37.409  32.351  31.052  1.00  0.00     0.031 A 
ATOM     40  C   UNL A   1      37.918  32.698  32.418  1.00  0.00     0.074 A 
ATOM     41  C   UNL A   1      38.000  31.383  30.327  1.00  0.00     0.049 A 
ATOM     42  N   UNL A   1      38.898  32.159  33.095  1.00  0.00    -0.248 NA
ATOM     43  C   UNL A   1      37.247  33.813  33.104  1.00  0.00     0.031 C 
ATOM     44  C   UNL A   1      37.622  30.989  28.968  1.00  0.00     0.029 A 
ATOM     45  N   UNL A   1      39.051  30.557  30.634  1.00  0.00    -0.354 N 
ATOM     46  C   UNL A   1      38.960  32.867  34.287  1.00  0.00     0.074 A 
ATOM     47  C   UNL A   1      37.957  33.906  34.219  1.00  0.00     0.031 C 
ATOM     48  C   UNL A   1      38.420  29.985  28.565  1.00  0.00     0.029 A 
ATOM     49  C   UNL A   1      39.371  29.678  29.629  1.00  0.00     0.049 A 
ATOM     50  H   UNL A   1      39.530  30.592  31.493  1.00  0.00     0.167 HD
ATOM     51  C   UNL A   1      39.765  32.652  35.354  1.00  0.00     0.037 A 
ATOM     52  C   UNL A   1      40.322  28.728  29.580  1.00  0.00     0.037 A 
ATOM     53  C   UNL A   1      40.756  31.612  35.424  1.00  0.00     0.049 A 
ATOM     54  C   UNL A   1      41.210  28.517  30.774  1.00  0.00     0.074 A 
ATOM     55  C   UNL A   1      41.592  31.283  36.477  1.00  0.00     0.029 A 
ATOM     56  N   UNL A   1      41.046  30.734  34.391  1.00  0.00    -0.354 N 
ATOM     57  N   UNL A   1      41.212  29.146  31.924  1.00  0.00    -0.248 NA
ATOM     58  C   UNL A   1      42.222  27.457  30.664  1.00  0.00     0.031 C 
ATOM     59  C   UNL A   1      42.405  30.218  36.070  1.00  0.00     0.029 A 
ATOM     60  C   UNL A   1      42.057  29.870  34.775  1.00  0.00     0.049 A 
ATOM     61  H   UNL A   1      40.600  30.727  33.514  1.00  0.00     0.167 HD
ATOM     62  C   UNL A   1      42.205  28.541  32.684  1.00  0.00     0.074 A 
ATOM     63  C   UNL A   1      42.777  27.491  31.867  1.00  0.00     0.031 C 
ATOM     64  C   UNL A   1      42.606  28.829  33.946  1.00  0.00     0.037 A 
BRANCH  51  65
ATOM     65  C   UNL A   1      39.584  33.561  36.530  1.00  0.00     0.057 A 
ATOM     66  C   UNL A   1      38.694  33.238  37.560  1.00  0.00     0.134 A 
ATOM     67  C   UNL A   1      40.307  34.756  36.646  1.00  0.00     0.134 A 
ATOM     68  F   UNL A   1      37.974  32.107  37.508  1.00  0.00    -0.206 F 
ATOM     69  C   UNL A   1      38.534  34.069  38.669  1.00  0.00     0.040 A 
ATOM     70  C   UNL A   1      40.171  35.585  37.760  1.00  0.00     0.040 A 
ATOM     71  F   UNL A   1      41.191  35.109  35.701  1.00  0.00    -0.206 F 
ATOM     72  C   UNL A   1      39.279  35.243  38.775  1.00  0.00     0.006 A 
ENDBRANCH  51  65
BRANCH  52  73
ATOM     73  C   UNL A   1      40.465  27.875  28.377  1.00  0.00     0.057 A 
ATOM     74  C   UNL A   1      41.255  28.266  27.291  1.00  0.00     0.134 A 
ATOM     75  C   UNL A   1      39.829  26.631  28.301  1.00  0.00     0.134 A 
ATOM     76  F   UNL A   1      41.886  29.450  27.305  1.00  0.00    -0.206 F 
ATOM     77  C   UNL A   1      41.410  27.448  26.171  1.00  0.00     0.040 A 
ATOM     78  C   UNL A   1      39.988  25.795  27.195  1.00  0.00     0.040 A 
ATOM     79  F   UNL A   1      39.074  26.197  29.321  1.00  0.00    -0.206 F 
ATOM     80  C   UNL A   1      40.782  26.205  26.124  1.00  0.00     0.006 A 
ENDBRANCH  52  73
BRANCH  64  81
ATOM     81  C   UNL A   1      43.693  27.974  34.520  1.00  0.00     0.057 A 
ATOM     82  C   UNL A   1      43.392  26.748  35.126  1.00  0.00     0.134 A 
ATOM     83  C   UNL A   1      45.035  28.372  34.487  1.00  0.00     0.134 A 
ATOM     84  F   UNL A   1      42.125  26.314  35.191  1.00  0.00    -0.206 F 
ATOM     85  C   UNL A   1      44.390  25.946  35.679  1.00  0.00     0.040 A 
ATOM     86  C   UNL A   1      46.045  27.570  35.020  1.00  0.00     0.040 A 
ATOM     87  F   UNL A   1      45.387  29.529  33.904  1.00  0.00    -0.206 F 
ATOM     88  C   UNL A   1      45.722  26.356  35.623  1.00  0.00     0.006 A 
ENDBRANCH  64  81
ENDBRANCH  38  39
ENDBRANCH  30  33
ENDBRANCH  28  29
ENDBRANCH  27  28
ENDBRANCH   1  27
TORSDOF 14
ENDMDL
MODEL 2
REMARK VINA RESULT:     -12.7      2.004      2.666
REMARK SMILES Cc1cc(OC(F)(F)F)cc2c1O[C@H](C(F)(F)F)C(C(=O)NCCCCNC(=O)c1ccc(-c3c4nc(c(-c5c(F)cccc5F)c5ccc([nH]5)c(-c5c(F)cccc5F)c5nc(c(-c6c(F)cccc6F)c6ccc3[nH]6)C=C5)C=C4)cc1)=C2
REMARK SMILES IDX 24 1 23 2 22 3 20 4 21 5 19 7 1 8 2 9 3 10 12 11 4 12 11 13
REMARK SMILES IDX 13 14 10 15 84 16 14 17 5 18 6 19 7 20 8 21 9 22 15 23 16 24
REMARK SMILES IDX 17 25 18 26 25 27 26 28 27 29 28 30 29 32 30 33 31 34 83 35
REMARK SMILES IDX 32 36 82 37 33 38 34 39 35 40 76 41 36 42 81 43 75 44 77 45
REMARK SMILES IDX 37 46 80 47 74 48 73 49 38 51 64 52 47 53 63 54 48 55 51 56
REMARK SMILES IDX 62 57 78 58 49 59 50 60 61 62 79 63 52 64 39 65 40 66 45 67
REMARK SMILES IDX 41 68 42 69 44 70 46 71 43 72 65 73 66 74 71 75 67 76 68 77
REMARK SMILES IDX 70 78 72 79 69 80 53 81 54 82 59 83 55 84 56 85 58 86 60 87
REMARK SMILES IDX 57 88
REMARK H PARENT 22 6 27 31 77 50 51 61
REMARK Flexibility Score: inf
ROOT
ATOM      1  C   UNL A   1      34.565  30.791  27.989  1.00  0.00     0.023 C 
ENDROOT
BRANCH   1   2
ATOM      2  C   UNL A   1      34.444  29.316  27.618  1.00  0.00     0.116 C 
BRANCH   2   3
ATOM      3  N   UNL A   1      33.116  28.798  27.889  1.00  0.00    -0.352 N 
ATOM      4  C   UNL A   1      32.246  27.952  27.286  1.00  0.00     0.251 C 
ATOM      5  O   UNL A   1      31.171  27.800  27.875  1.00  0.00    -0.270 OA
ATOM      6  H   UNL A   1      32.750  29.154  28.730  1.00  0.00     0.163 HD
BRANCH   4   7
ATOM      7  C   UNL A   1      32.498  27.222  26.009  1.00  0.00     0.067 C 
ATOM      8  C   UNL A   1      32.534  25.372  21.222  1.00  0.00     0.048 C 
ATOM      9  C   UNL A   1      33.126  24.939  22.533  1.00  0.00    -0.005 A 
ATOM     10  C   UNL A   1      33.958  23.809  22.599  1.00  0.00     0.054 A 
ATOM     11  C   UNL A   1      32.874  25.665  23.704  1.00  0.00     0.131 A 
ATOM     12  C   UNL A   1      34.516  23.405  23.814  1.00  0.00     0.130 A 
ATOM     13  C   UNL A   1      33.425  25.273  24.924  1.00  0.00     0.021 A 
ATOM     14  O   UNL A   1      32.033  26.739  23.608  1.00  0.00    -0.475 OA
ATOM     15  C   UNL A   1      34.245  24.142  24.973  1.00  0.00     0.058 A 
ATOM     16  C   UNL A   1      33.109  26.029  26.130  1.00  0.00     0.025 C 
ATOM     17  C   UNL A   1      32.161  27.751  24.643  1.00  0.00     0.314 C 
BRANCH  12  18
ATOM     18  O   UNL A   1      35.329  22.325  24.011  1.00  0.00    -0.406 OA
BRANCH  18  19
ATOM     19  C   UNL A   1      36.710  22.476  23.727  1.00  0.00     0.573 C 
ATOM     20  F   UNL A   1      36.924  22.604  22.400  1.00  0.00    -0.132 F 
ATOM     21  F   UNL A   1      37.225  23.544  24.373  1.00  0.00    -0.132 F 
ATOM     22  F   UNL A   1      37.363  21.372  24.152  1.00  0.00    -0.132 F 
ENDBRANCH  18  19
ENDBRANCH  12  18
BRANCH  17  23
ATOM     23  C   UNL A   1      33.138  28.843  24.169  1.00  0.00     0.429 C 
ATOM     24  F   UNL A   1      34.419  28.466  24.407  1.00  0.00    -0.167 F 
ATOM     25  F   UNL A   1      33.050  29.075  22.838  1.00  0.00    -0.167 F 
ATOM     26  F   UNL A   1      32.942  30.028  24.788  1.00  0.00    -0.167 F 
ENDBRANCH  17  23
ENDBRANCH   4   7
ENDBRANCH   2   3
ENDBRANCH   1   2
BRANCH   1  27
ATOM     27  C   UNL A   1      33.288  31.599  27.748  1.00  0.00     0.023 C 
BRANCH  27  28
ATOM     28  C   UNL A   1      33.502  33.012  27.207  1.00  0.00     0.116 C 
BRANCH  28  29
ATOM     29  N   UNL A   1      32.844  34.049  27.990  1.00  0.00    -0.352 N 
ATOM     30  C   UNL A   1      33.305  34.637  29.144  1.00  0.00     0.251 C 
ATOM     31  H   UNL A   1      31.973  34.365  27.655  1.00  0.00     0.163 HD
ATOM     32  O   UNL A   1      32.645  35.474  29.747  1.00  0.00    -0.269 OA
BRANCH  30  33
ATOM     33  C   UNL A   1      34.609  34.191  29.661  1.00  0.00     0.039 A 
ATOM     34  C   UNL A   1      34.634  33.372  30.791  1.00  0.00     0.014 A 
ATOM     35  C   UNL A   1      35.773  34.477  28.942  1.00  0.00     0.014 A 
ATOM     36  C   UNL A   1      35.834  32.770  31.164  1.00  0.00     0.010 A 
ATOM     37  C   UNL A   1      36.958  33.842  29.292  1.00  0.00     0.010 A 
ATOM     38  C   UNL A   1      36.992  32.974  30.397  1.00  0.00    -0.014 A 
BRANCH  38  39
ATOM     39  C   UNL A   1      38.252  32.276  30.734  1.00  0.00     0.031 A 
ATOM     40  C   UNL A   1      39.183  32.868  31.748  1.00  0.00     0.074 A 
ATOM     41  C   UNL A   1      38.573  31.139  30.090  1.00  0.00     0.049 A 
ATOM     42  N   UNL A   1      40.335  32.418  32.171  1.00  0.00    -0.248 NA
ATOM     43  C   UNL A   1      38.772  34.146  32.350  1.00  0.00     0.031 C 
ATOM     44  C   UNL A   1      37.768  30.494  29.050  1.00  0.00     0.029 A 
ATOM     45  N   UNL A   1      39.671  30.326  30.214  1.00  0.00    -0.354 N 
ATOM     46  C   UNL A   1      40.785  33.354  33.090  1.00  0.00     0.074 A 
ATOM     47  C   UNL A   1      39.811  34.423  33.124  1.00  0.00     0.031 C 
ATOM     48  C   UNL A   1      38.393  29.376  28.643  1.00  0.00     0.029 A 
ATOM     49  C   UNL A   1      39.644  29.235  29.380  1.00  0.00     0.049 A 
ATOM     50  H   UNL A   1      40.408  30.508  30.840  1.00  0.00     0.167 HD
ATOM     51  C   UNL A   1      41.900  33.314  33.859  1.00  0.00     0.037 A 
ATOM     52  C   UNL A   1      40.531  28.234  29.237  1.00  0.00     0.037 A 
ATOM     53  C   UNL A   1      42.863  32.247  33.832  1.00  0.00     0.049 A 
ATOM     54  C   UNL A   1      41.765  28.218  30.093  1.00  0.00     0.074 A 
ATOM     55  C   UNL A   1      44.003  32.091  34.601  1.00  0.00     0.029 A 
ATOM     56  N   UNL A   1      42.799  31.153  32.982  1.00  0.00    -0.354 N 
ATOM     57  N   UNL A   1      42.146  29.073  31.011  1.00  0.00    -0.248 NA
ATOM     58  C   UNL A   1      42.690  27.091  29.899  1.00  0.00     0.031 C 
ATOM     59  C   UNL A   1      44.641  30.911  34.199  1.00  0.00     0.029 A 
ATOM     60  C   UNL A   1      43.884  30.322  33.198  1.00  0.00     0.049 A 
ATOM     61  H   UNL A   1      42.087  30.992  32.322  1.00  0.00     0.167 HD
ATOM     62  C   UNL A   1      43.337  28.576  31.522  1.00  0.00     0.074 A 
ATOM     63  C   UNL A   1      43.612  27.341  30.817  1.00  0.00     0.031 C 
ATOM     64  C   UNL A   1      44.133  29.095  32.488  1.00  0.00     0.037 A 
BRANCH  51  65
ATOM     65  C   UNL A   1      42.114  34.461  34.797  1.00  0.00     0.057 A 
ATOM     66  C   UNL A   1      42.810  35.605  34.389  1.00  0.00     0.134 A 
ATOM     67  C   UNL A   1      41.617  34.435  36.107  1.00  0.00     0.134 A 
ATOM     68  F   UNL A   1      43.308  35.691  33.146  1.00  0.00    -0.206 F 
ATOM     69  C   UNL A   1      42.997  36.686  35.250  1.00  0.00     0.040 A 
ATOM     70  C   UNL A   1      41.780  35.519  36.970  1.00  0.00     0.040 A 
ATOM     71  F   UNL A   1      40.924  33.375  36.549  1.00  0.00    -0.206 F 
ATOM     72  C   UNL A   1      42.475  36.648  36.542  1.00  0.00     0.006 A 
ENDBRANCH  51  65
BRANCH  52  73
ATOM     73  C   UNL A   1      40.271  27.138  28.274  1.00  0.00     0.057 A 
ATOM     74  C   UNL A   1      40.842  27.135  26.997  1.00  0.00     0.134 A 
ATOM     75  C   UNL A   1      39.459  26.053  28.624  1.00  0.00     0.134 A 
ATOM     76  F   UNL A   1      41.625  28.150  26.603  1.00  0.00    -0.206 F 
ATOM     77  C   UNL A   1      40.618  26.088  26.101  1.00  0.00     0.040 A 
ATOM     78  C   UNL A   1      39.240  24.991  27.745  1.00  0.00     0.040 A 
ATOM     79  F   UNL A   1      38.900  25.995  29.842  1.00  0.00    -0.206 F 
ATOM     80  C   UNL A   1      39.821  25.008  26.478  1.00  0.00     0.006 A 
ENDBRANCH  52  73
BRANCH  64  81
ATOM     81  C   UNL A   1      45.354  28.308  32.852  1.00  0.00     0.057 A 
ATOM     82  C   UNL A   1      45.296  27.319  33.842  1.00  0.00     0.134 A 
ATOM     83  C   UNL A   1      46.589  28.540  32.235  1.00  0.00     0.134 A 
ATOM     84  F   UNL A   1      44.142  27.052  34.471  1.00  0.00    -0.206 F 
ATOM     85  C   UNL A   1      46.426  26.587  34.205  1.00  0.00     0.040 A 
ATOM     86  C   UNL A   1      47.722  27.801  32.576  1.00  0.00     0.040 A 
ATOM     87  F   UNL A   1      46.702  29.463  31.267  1.00  0.00    -0.206 F 
ATOM     88  C   UNL A   1      47.643  26.825  33.567  1.00  0.00     0.006 A 
ENDBRANCH  64  81
ENDBRANCH  38  39
ENDBRANCH  30  33
ENDBRANCH  28  29
ENDBRANCH  27  28
ENDBRANCH   1  27
TORSDOF 14
ENDMDL
MODEL 3
REMARK VINA RESULT:     -12.7      4.968     10.270
REMARK SMILES Cc1cc(OC(F)(F)F)cc2c1O[C@H](C(F)(F)F)C(C(=O)NCCCCNC(=O)c1ccc(-c3c4nc(c(-c5c(F)cccc5F)c5ccc([nH]5)c(-c5c(F)cccc5F)c5nc(c(-c6c(F)cccc6F)c6ccc3[nH]6)C=C5)C=C4)cc1)=C2
REMARK SMILES IDX 24 1 23 2 22 3 20 4 21 5 19 7 1 8 2 9 3 10 12 11 4 12 11 13
REMARK SMILES IDX 13 14 10 15 84 16 14 17 5 18 6 19 7 20 8 21 9 22 15 23 16 24
REMARK SMILES IDX 17 25 18 26 25 27 26 28 27 29 28 30 29 32 30 33 31 34 83 35
REMARK SMILES IDX 32 36 82 37 33 38 34 39 35 40 76 41 36 42 81 43 75 44 77 45
REMARK SMILES IDX 37 46 80 47 74 48 73 49 38 51 64 52 47 53 63 54 48 55 51 56
REMARK SMILES IDX 62 57 78 58 49 59 50 60 61 62 79 63 52 64 39 65 40 66 45 67
REMARK SMILES IDX 41 68 42 69 44 70 46 71 43 72 65 73 66 74 71 75 67 76 68 77
REMARK SMILES IDX 70 78 72 79 69 80 53 81 54 82 59 83 55 84 56 85 58 86 60 87
REMARK SMILES IDX 57 88
REMARK H PARENT 22 6 27 31 77 50 51 61
REMARK Flexibility Score: inf
ROOT
ATOM      1  C   UNL A   1      37.407  21.281  24.622  1.00  0.00     0.023 C 
ENDROOT
BRANCH   1   2
ATOM      2  C   UNL A   1      37.299  22.297  25.755  1.00  0.00     0.116 C 
BRANCH   2   3
ATOM      3  N   UNL A   1      36.074  22.131  26.515  1.00  0.00    -0.352 N 
ATOM      4  C   UNL A   1      34.803  22.596  26.452  1.00  0.00     0.251 C 
ATOM      5  O   UNL A   1      34.055  22.198  27.350  1.00  0.00    -0.270 OA
ATOM      6  H   UNL A   1      36.199  21.521  27.277  1.00  0.00     0.163 HD
BRANCH   4   7
ATOM      7  C   UNL A   1      34.275  23.521  25.406  1.00  0.00     0.067 C 
ATOM      8  C   UNL A   1      32.701  25.846  21.110  1.00  0.00     0.048 C 
ATOM      9  C   UNL A   1      32.995  26.293  22.514  1.00  0.00    -0.005 A 
ATOM     10  C   UNL A   1      32.773  27.626  22.896  1.00  0.00     0.054 A 
ATOM     11  C   UNL A   1      33.474  25.385  23.465  1.00  0.00     0.131 A 
ATOM     12  C   UNL A   1      33.039  28.046  24.201  1.00  0.00     0.130 A 
ATOM     13  C   UNL A   1      33.744  25.791  24.772  1.00  0.00     0.021 A 
ATOM     14  O   UNL A   1      33.711  24.104  23.049  1.00  0.00    -0.475 OA
ATOM     15  C   UNL A   1      33.524  27.123  25.134  1.00  0.00     0.058 A 
ATOM     16  C   UNL A   1      34.281  24.828  25.728  1.00  0.00     0.025 C 
ATOM     17  C   UNL A   1      33.716  23.082  24.082  1.00  0.00     0.314 C 
BRANCH  12  18
ATOM     18  O   UNL A   1      32.875  29.311  24.693  1.00  0.00    -0.406 OA
BRANCH  18  19
ATOM     19  C   UNL A   1      31.627  29.633  25.284  1.00  0.00     0.573 C 
ATOM     20  F   UNL A   1      31.405  28.891  26.390  1.00  0.00    -0.132 F 
ATOM     21  F   UNL A   1      31.563  30.944  25.600  1.00  0.00    -0.132 F 
ATOM     22  F   UNL A   1      30.644  29.366  24.396  1.00  0.00    -0.132 F 
ENDBRANCH  18  19
ENDBRANCH  12  18
BRANCH  17  23
ATOM     23  C   UNL A   1      32.306  22.473  24.202  1.00  0.00     0.429 C 
ATOM     24  F   UNL A   1      32.383  21.182  24.612  1.00  0.00    -0.167 F 
ATOM     25  F   UNL A   1      31.540  23.117  25.114  1.00  0.00    -0.167 F 
ATOM     26  F   UNL A   1      31.626  22.489  23.034  1.00  0.00    -0.167 F 
ENDBRANCH  17  23
ENDBRANCH   4   7
ENDBRANCH   2   3
ENDBRANCH   1   2
BRANCH   1  27
ATOM     27  C   UNL A   1      38.140  19.995  25.008  1.00  0.00     0.023 C 
BRANCH  27  28
ATOM     28  C   UNL A   1      39.418  20.190  25.822  1.00  0.00     0.116 C 
BRANCH  28  29
ATOM     29  N   UNL A   1      40.313  19.041  25.799  1.00  0.00    -0.352 N 
ATOM     30  C   UNL A   1      41.657  19.030  26.087  1.00  0.00     0.251 C 
ATOM     31  H   UNL A   1      39.911  18.177  25.549  1.00  0.00     0.163 HD
ATOM     32  O   UNL A   1      42.327  18.009  25.992  1.00  0.00    -0.269 OA
BRANCH  30  33
ATOM     33  C   UNL A   1      42.282  20.306  26.471  1.00  0.00     0.039 A 
ATOM     34  C   UNL A   1      42.788  21.132  25.466  1.00  0.00     0.014 A 
ATOM     35  C   UNL A   1      42.233  20.726  27.803  1.00  0.00     0.014 A 
ATOM     36  C   UNL A   1      43.185  22.427  25.790  1.00  0.00     0.010 A 
ATOM     37  C   UNL A   1      42.590  22.033  28.116  1.00  0.00     0.010 A 
ATOM     38  C   UNL A   1      43.055  22.894  27.108  1.00  0.00    -0.014 A 
BRANCH  38  39
ATOM     39  C   UNL A   1      43.395  24.293  27.448  1.00  0.00     0.031 A 
ATOM     40  C   UNL A   1      44.824  24.744  27.406  1.00  0.00     0.074 A 
ATOM     41  C   UNL A   1      42.422  25.136  27.840  1.00  0.00     0.049 A 
ATOM     42  N   UNL A   1      45.325  25.920  27.679  1.00  0.00    -0.248 NA
ATOM     43  C   UNL A   1      45.821  23.731  27.027  1.00  0.00     0.031 C 
ATOM     44  C   UNL A   1      41.003  24.797  27.966  1.00  0.00     0.029 A 
ATOM     45  N   UNL A   1      42.484  26.455  28.213  1.00  0.00    -0.354 N 
ATOM     46  C   UNL A   1      46.695  25.790  27.501  1.00  0.00     0.074 A 
ATOM     47  C   UNL A   1      46.952  24.409  27.151  1.00  0.00     0.031 C 
ATOM     48  C   UNL A   1      40.326  25.885  28.370  1.00  0.00     0.029 A 
ATOM     49  C   UNL A   1      41.264  26.990  28.546  1.00  0.00     0.049 A 
ATOM     50  H   UNL A   1      43.323  26.968  28.239  1.00  0.00     0.167 HD
ATOM     51  C   UNL A   1      47.653  26.742  27.596  1.00  0.00     0.037 A 
ATOM     52  C   UNL A   1      40.944  28.235  28.941  1.00  0.00     0.037 A 
ATOM     53  C   UNL A   1      47.396  28.116  27.935  1.00  0.00     0.049 A 
ATOM     54  C   UNL A   1      42.026  29.272  29.050  1.00  0.00     0.074 A 
ATOM     55  C   UNL A   1      48.291  29.169  28.014  1.00  0.00     0.029 A 
ATOM     56  N   UNL A   1      46.147  28.625  28.257  1.00  0.00    -0.354 N 
ATOM     57  N   UNL A   1      43.310  29.155  28.810  1.00  0.00    -0.248 NA
ATOM     58  C   UNL A   1      41.612  30.616  29.475  1.00  0.00     0.031 C 
ATOM     59  C   UNL A   1      47.583  30.312  28.408  1.00  0.00     0.029 A 
ATOM     60  C   UNL A   1      46.246  29.974  28.548  1.00  0.00     0.049 A 
ATOM     61  H   UNL A   1      45.313  28.103  28.276  1.00  0.00     0.167 HD
ATOM     62  C   UNL A   1      43.853  30.414  29.029  1.00  0.00     0.074 A 
ATOM     63  C   UNL A   1      42.757  31.281  29.413  1.00  0.00     0.031 C 
ATOM     64  C   UNL A   1      45.141  30.817  28.921  1.00  0.00     0.037 A 
BRANCH  51  65
ATOM     65  C   UNL A   1      49.060  26.316  27.313  1.00  0.00     0.057 A 
ATOM     66  C   UNL A   1      49.564  26.316  26.008  1.00  0.00     0.134 A 
ATOM     67  C   UNL A   1      49.922  25.917  28.343  1.00  0.00     0.134 A 
ATOM     68  F   UNL A   1      48.789  26.690  24.979  1.00  0.00    -0.206 F 
ATOM     69  C   UNL A   1      50.879  25.940  25.737  1.00  0.00     0.040 A 
ATOM     70  C   UNL A   1      51.246  25.558  28.088  1.00  0.00     0.040 A 
ATOM     71  F   UNL A   1      49.503  25.917  29.618  1.00  0.00    -0.206 F 
ATOM     72  C   UNL A   1      51.727  25.567  26.780  1.00  0.00     0.006 A 
ENDBRANCH  51  65
BRANCH  52  73
ATOM     73  C   UNL A   1      39.534  28.588  29.228  1.00  0.00     0.057 A 
ATOM     74  C   UNL A   1      38.980  28.415  30.501  1.00  0.00     0.134 A 
ATOM     75  C   UNL A   1      38.715  29.134  28.233  1.00  0.00     0.134 A 
ATOM     76  F   UNL A   1      39.715  27.893  31.494  1.00  0.00    -0.206 F 
ATOM     77  C   UNL A   1      37.659  28.775  30.776  1.00  0.00     0.040 A 
ATOM     78  C   UNL A   1      37.398  29.513  28.498  1.00  0.00     0.040 A 
ATOM     79  F   UNL A   1      39.199  29.339  26.999  1.00  0.00    -0.206 F 
ATOM     80  C   UNL A   1      36.867  29.333  29.774  1.00  0.00     0.006 A 
ENDBRANCH  52  73
BRANCH  64  81
ATOM     81  C   UNL A   1      45.421  32.262  29.196  1.00  0.00     0.057 A 
ATOM     82  C   UNL A   1      45.349  33.210  28.167  1.00  0.00     0.134 A 
ATOM     83  C   UNL A   1      45.779  32.713  30.472  1.00  0.00     0.134 A 
ATOM     84  F   UNL A   1      45.014  32.840  26.922  1.00  0.00    -0.206 F 
ATOM     85  C   UNL A   1      45.622  34.558  28.401  1.00  0.00     0.040 A 
ATOM     86  C   UNL A   1      46.035  34.061  30.722  1.00  0.00     0.040 A 
ATOM     87  F   UNL A   1      45.848  31.853  31.501  1.00  0.00    -0.206 F 
ATOM     88  C   UNL A   1      45.962  34.987  29.683  1.00  0.00     0.006 A 
ENDBRANCH  64  81
ENDBRANCH  38  39
ENDBRANCH  30  33
ENDBRANCH  28  29
ENDBRANCH  27  28
ENDBRANCH   1  27
TORSDOF 14
ENDMDL
