MODEL 1
REMARK VINA RESULT:     -12.0      0.000      0.000
REMARK SMILES CCc1c(Cl)ccc2c1C=C(C(=O)NCCCCNC(=O)c1ccc(-c3c4nc(c(-c5c(F)cccc5F)c5ccc([nH]5)c(-c5c(F)cccc5F)c5nc(c(-c6c(F)cccc6F)c6ccc3[nH]6)C=C5)C=C4)cc1)[C@@H](C(F)(F)F)O2
REMARK SMILES IDX 17 1 16 2 15 3 14 4 12 5 13 6 11 8 3 9 4 10 9 11 5 12 6 13
REMARK SMILES IDX 8 14 10 15 7 16 81 17 76 18 2 19 1 20 77 21 78 22 79 23
REMARK SMILES IDX 80 24 18 25 19 26 20 27 21 29 22 30 23 31 75 32 24 33 74 34
REMARK SMILES IDX 25 35 26 36 27 37 68 38 28 39 73 40 67 41 69 42 29 43 72 44
REMARK SMILES IDX 66 45 65 46 30 48 56 49 39 50 55 51 40 52 43 53 54 54 70 55
REMARK SMILES IDX 41 56 42 57 53 59 71 60 44 61 31 62 32 63 37 64 33 65 34 66
REMARK SMILES IDX 36 67 38 68 35 69 57 70 58 71 63 72 59 73 60 74 62 75 64 76
REMARK SMILES IDX 61 77 45 78 46 79 51 80 47 81 48 82 50 83 52 84 49 85
REMARK H PARENT 14 7 19 28 69 47 43 58
REMARK Flexibility Score: inf
ROOT
ATOM      1  C   UNL A   1      31.361  31.963  26.885  1.00  0.00     0.023 C 
ENDROOT
BRANCH   1   2
ATOM      2  C   UNL A   1      31.776  30.490  26.888  1.00  0.00     0.023 C 
BRANCH   2   3
ATOM      3  C   UNL A   1      33.269  30.258  26.678  1.00  0.00     0.116 C 
BRANCH   3   4
ATOM      4  N   UNL A   1      33.562  29.773  25.339  1.00  0.00    -0.352 N 
ATOM      5  C   UNL A   1      33.502  28.594  24.675  1.00  0.00     0.251 C 
ATOM      6  O   UNL A   1      33.876  28.639  23.499  1.00  0.00    -0.270 OA
ATOM      7  H   UNL A   1      33.891  30.497  24.758  1.00  0.00     0.163 HD
BRANCH   5   8
ATOM      8  C   UNL A   1      33.020  27.299  25.244  1.00  0.00     0.067 C 
ATOM      9  C   UNL A   1      34.299  23.790  25.615  1.00  0.00    -0.019 A 
ATOM     10  C   UNL A   1      33.761  22.572  26.102  1.00  0.00     0.045 A 
ATOM     11  C   UNL A   1      33.529  24.971  25.791  1.00  0.00     0.022 A 
ATOM     12  Cl  UNL A   1      34.526  21.039  25.844  1.00  0.00    -0.084 Cl
ATOM     13  C   UNL A   1      32.544  22.533  26.789  1.00  0.00     0.024 A 
ATOM     14  C   UNL A   1      32.288  24.892  26.452  1.00  0.00     0.128 A 
ATOM     15  C   UNL A   1      33.933  26.309  25.330  1.00  0.00     0.026 C 
ATOM     16  C   UNL A   1      31.811  23.696  26.973  1.00  0.00     0.048 A 
ATOM     17  O   UNL A   1      31.477  25.977  26.649  1.00  0.00    -0.475 OA
ATOM     18  C   UNL A   1      31.608  27.042  25.674  1.00  0.00     0.314 C 
BRANCH   9  19
ATOM     19  C   UNL A   1      35.636  23.795  24.889  1.00  0.00     0.034 C 
ATOM     20  C   UNL A   1      36.856  23.841  25.806  1.00  0.00     0.009 C 
ENDBRANCH   9  19
BRANCH  18  21
ATOM     21  C   UNL A   1      30.649  26.806  24.491  1.00  0.00     0.429 C 
ATOM     22  F   UNL A   1      31.282  26.133  23.498  1.00  0.00    -0.167 F 
ATOM     23  F   UNL A   1      29.577  26.056  24.838  1.00  0.00    -0.167 F 
ATOM     24  F   UNL A   1      30.171  27.955  23.962  1.00  0.00    -0.167 F 
ENDBRANCH  18  21
ENDBRANCH   5   8
ENDBRANCH   3   4
ENDBRANCH   2   3
ENDBRANCH   1   2
BRANCH   1  25
ATOM     25  C   UNL A   1      32.503  32.968  26.755  1.00  0.00     0.116 C 
BRANCH  25  26
ATOM     26  N   UNL A   1      32.413  34.105  27.663  1.00  0.00    -0.352 N 
ATOM     27  C   UNL A   1      33.281  34.444  28.677  1.00  0.00     0.251 C 
ATOM     28  H   UNL A   1      31.640  34.701  27.536  1.00  0.00     0.163 HD
ATOM     29  O   UNL A   1      33.056  35.399  29.411  1.00  0.00    -0.269 OA
BRANCH  27  30
ATOM     30  C   UNL A   1      34.462  33.588  28.902  1.00  0.00     0.039 A 
ATOM     31  C   UNL A   1      34.314  32.344  29.517  1.00  0.00     0.014 A 
ATOM     32  C   UNL A   1      35.730  34.095  28.607  1.00  0.00     0.014 A 
ATOM     33  C   UNL A   1      35.438  31.691  30.007  1.00  0.00     0.010 A 
ATOM     34  C   UNL A   1      36.862  33.398  29.035  1.00  0.00     0.010 A 
ATOM     35  C   UNL A   1      36.721  32.226  29.795  1.00  0.00    -0.014 A 
BRANCH  35  36
ATOM     36  C   UNL A   1      37.893  31.567  30.423  1.00  0.00     0.031 A 
ATOM     37  C   UNL A   1      38.251  31.849  31.859  1.00  0.00     0.074 A 
ATOM     38  C   UNL A   1      38.594  30.658  29.720  1.00  0.00     0.049 A 
ATOM     39  N   UNL A   1      39.225  31.354  32.580  1.00  0.00    -0.248 NA
ATOM     40  C   UNL A   1      37.406  32.815  32.580  1.00  0.00     0.031 C 
ATOM     41  C   UNL A   1      38.331  30.284  28.330  1.00  0.00     0.029 A 
ATOM     42  N   UNL A   1      39.648  29.864  30.089  1.00  0.00    -0.354 N 
ATOM     43  C   UNL A   1      39.126  31.963  33.825  1.00  0.00     0.074 A 
ATOM     44  C   UNL A   1      38.010  32.881  33.758  1.00  0.00     0.031 C 
ATOM     45  C   UNL A   1      39.166  29.294  27.979  1.00  0.00     0.029 A 
ATOM     46  C   UNL A   1      40.057  29.007  29.097  1.00  0.00     0.049 A 
ATOM     47  H   UNL A   1      40.071  29.905  30.976  1.00  0.00     0.167 HD
ATOM     48  C   UNL A   1      39.890  31.769  34.927  1.00  0.00     0.037 A 
ATOM     49  C   UNL A   1      41.048  28.098  29.087  1.00  0.00     0.037 A 
ATOM     50  C   UNL A   1      40.983  30.834  35.005  1.00  0.00     0.049 A 
ATOM     51  C   UNL A   1      41.901  27.928  30.310  1.00  0.00     0.074 A 
ATOM     52  C   UNL A   1      41.800  30.546  36.085  1.00  0.00     0.029 A 
ATOM     53  N   UNL A   1      41.407  30.030  33.958  1.00  0.00    -0.354 N 
ATOM     54  N   UNL A   1      41.800  28.518  31.475  1.00  0.00    -0.248 NA
ATOM     55  C   UNL A   1      43.016  26.978  30.207  1.00  0.00     0.031 C 
ATOM     56  C   UNL A   1      42.740  29.591  35.681  1.00  0.00     0.029 A 
ATOM     57  C   UNL A   1      42.486  29.261  34.359  1.00  0.00     0.049 A 
ATOM     58  H   UNL A   1      41.002  30.010  33.061  1.00  0.00     0.167 HD
ATOM     59  C   UNL A   1      42.835  28.009  32.248  1.00  0.00     0.074 A 
ATOM     60  C   UNL A   1      43.536  27.044  31.424  1.00  0.00     0.031 C 
ATOM     61  C   UNL A   1      43.179  28.317  33.521  1.00  0.00     0.037 A 
BRANCH  48  62
ATOM     62  C   UNL A   1      39.579  32.600  36.137  1.00  0.00     0.057 A 
ATOM     63  C   UNL A   1      38.595  32.194  37.047  1.00  0.00     0.134 A 
ATOM     64  C   UNL A   1      40.232  33.814  36.389  1.00  0.00     0.134 A 
ATOM     65  F   UNL A   1      37.930  31.044  36.861  1.00  0.00    -0.206 F 
ATOM     66  C   UNL A   1      38.271  32.964  38.165  1.00  0.00     0.040 A 
ATOM     67  C   UNL A   1      39.931  34.583  37.515  1.00  0.00     0.040 A 
ATOM     68  F   UNL A   1      41.196  34.251  35.565  1.00  0.00    -0.206 F 
ATOM     69  C   UNL A   1      38.945  34.161  38.405  1.00  0.00     0.006 A 
ENDBRANCH  48  62
BRANCH  49  70
ATOM     70  C   UNL A   1      41.289  27.286  27.871  1.00  0.00     0.057 A 
ATOM     71  C   UNL A   1      42.179  27.710  26.877  1.00  0.00     0.134 A 
ATOM     72  C   UNL A   1      40.626  26.070  27.674  1.00  0.00     0.134 A 
ATOM     73  F   UNL A   1      42.840  28.868  27.010  1.00  0.00    -0.206 F 
ATOM     74  C   UNL A   1      42.388  26.961  25.719  1.00  0.00     0.040 A 
ATOM     75  C   UNL A   1      40.844  25.300  26.531  1.00  0.00     0.040 A 
ATOM     76  F   UNL A   1      39.777  25.606  28.602  1.00  0.00    -0.206 F 
ATOM     77  C   UNL A   1      41.723  25.750  25.547  1.00  0.00     0.006 A 
ENDBRANCH  49  70
BRANCH  61  78
ATOM     78  C   UNL A   1      44.362  27.597  34.090  1.00  0.00     0.057 A 
ATOM     79  C   UNL A   1      44.211  26.358  34.724  1.00  0.00     0.134 A 
ATOM     80  C   UNL A   1      45.653  28.134  34.012  1.00  0.00     0.134 A 
ATOM     81  F   UNL A   1      42.999  25.792  34.835  1.00  0.00    -0.206 F 
ATOM     82  C   UNL A   1      45.305  25.675  35.258  1.00  0.00     0.040 A 
ATOM     83  C   UNL A   1      46.757  27.453  34.523  1.00  0.00     0.040 A 
ATOM     84  F   UNL A   1      45.862  29.310  33.400  1.00  0.00    -0.206 F 
ATOM     85  C   UNL A   1      46.584  26.220  35.152  1.00  0.00     0.006 A 
ENDBRANCH  61  78
ENDBRANCH  35  36
ENDBRANCH  27  30
ENDBRANCH  25  26
ENDBRANCH   1  25
TORSDOF 13
ENDMDL
MODEL 2
REMARK VINA RESULT:     -11.9      0.320      6.180
REMARK SMILES CCc1c(Cl)ccc2c1C=C(C(=O)NCCCCNC(=O)c1ccc(-c3c4nc(c(-c5c(F)cccc5F)c5ccc([nH]5)c(-c5c(F)cccc5F)c5nc(c(-c6c(F)cccc6F)c6ccc3[nH]6)C=C5)C=C4)cc1)[C@@H](C(F)(F)F)O2
REMARK SMILES IDX 17 1 16 2 15 3 14 4 12 5 13 6 11 8 3 9 4 10 9 11 5 12 6 13
REMARK SMILES IDX 8 14 10 15 7 16 81 17 76 18 2 19 1 20 77 21 78 22 79 23
REMARK SMILES IDX 80 24 18 25 19 26 20 27 21 29 22 30 23 31 75 32 24 33 74 34
REMARK SMILES IDX 25 35 26 36 27 37 68 38 28 39 73 40 67 41 69 42 29 43 72 44
REMARK SMILES IDX 66 45 65 46 30 48 56 49 39 50 55 51 40 52 43 53 54 54 70 55
REMARK SMILES IDX 41 56 42 57 53 59 71 60 44 61 31 62 32 63 37 64 33 65 34 66
REMARK SMILES IDX 36 67 38 68 35 69 57 70 58 71 63 72 59 73 60 74 62 75 64 76
REMARK SMILES IDX 61 77 45 78 46 79 51 80 47 81 48 82 50 83 52 84 49 85
REMARK H PARENT 14 7 19 28 69 47 43 58
REMARK Flexibility Score: inf
ROOT
ATOM      1  C   UNL A   1      31.270  31.946  26.840  1.00  0.00     0.023 C 
ENDROOT
BRANCH   1   2
ATOM      2  C   UNL A   1      31.643  30.471  26.677  1.00  0.00     0.023 C 
BRANCH   2   3
ATOM      3  C   UNL A   1      33.143  30.211  26.565  1.00  0.00     0.116 C 
BRANCH   3   4
ATOM      4  N   UNL A   1      33.512  29.706  25.253  1.00  0.00    -0.352 N 
ATOM      5  C   UNL A   1      33.494  28.517  24.606  1.00  0.00     0.251 C 
ATOM      6  O   UNL A   1      33.934  28.546  23.452  1.00  0.00    -0.270 OA
ATOM      7  H   UNL A   1      33.871  30.423  24.680  1.00  0.00     0.163 HD
BRANCH   5   8
ATOM      8  C   UNL A   1      32.985  27.229  25.167  1.00  0.00     0.067 C 
ATOM      9  C   UNL A   1      34.197  23.696  25.533  1.00  0.00    -0.019 A 
ATOM     10  C   UNL A   1      33.634  22.486  26.013  1.00  0.00     0.045 A 
ATOM     11  C   UNL A   1      33.448  24.890  25.709  1.00  0.00     0.022 A 
ATOM     12  Cl  UNL A   1      34.372  20.941  25.753  1.00  0.00    -0.084 Cl
ATOM     13  C   UNL A   1      32.412  22.468  26.692  1.00  0.00     0.024 A 
ATOM     14  C   UNL A   1      32.202  24.832  26.362  1.00  0.00     0.128 A 
ATOM     15  C   UNL A   1      33.879  26.222  25.255  1.00  0.00     0.026 C 
ATOM     16  C   UNL A   1      31.700  23.643  26.876  1.00  0.00     0.048 A 
ATOM     17  O   UNL A   1      31.410  25.931  26.558  1.00  0.00    -0.475 OA
ATOM     18  C   UNL A   1      31.566  26.997  25.588  1.00  0.00     0.314 C 
BRANCH   9  19
ATOM     19  C   UNL A   1      35.538  23.679  24.814  1.00  0.00     0.034 C 
ATOM     20  C   UNL A   1      36.753  23.707  25.738  1.00  0.00     0.009 C 
ENDBRANCH   9  19
BRANCH  18  21
ATOM     21  C   UNL A   1      30.610  26.783  24.399  1.00  0.00     0.429 C 
ATOM     22  F   UNL A   1      30.244  27.976  23.867  1.00  0.00    -0.167 F 
ATOM     23  F   UNL A   1      31.184  26.077  23.396  1.00  0.00    -0.167 F 
ATOM     24  F   UNL A   1      29.479  26.128  24.743  1.00  0.00    -0.167 F 
ENDBRANCH  18  21
ENDBRANCH   5   8
ENDBRANCH   3   4
ENDBRANCH   2   3
ENDBRANCH   1   2
BRANCH   1  25
ATOM     25  C   UNL A   1      32.417  32.938  26.667  1.00  0.00     0.116 C 
BRANCH  25  26
ATOM     26  N   UNL A   1      32.329  34.117  27.520  1.00  0.00    -0.352 N 
ATOM     27  C   UNL A   1      33.187  34.491  28.531  1.00  0.00     0.251 C 
ATOM     28  H   UNL A   1      31.567  34.717  27.353  1.00  0.00     0.163 HD
ATOM     29  O   UNL A   1      32.964  35.482  29.216  1.00  0.00    -0.269 OA
BRANCH  27  30
ATOM     30  C   UNL A   1      34.352  33.630  28.814  1.00  0.00     0.039 A 
ATOM     31  C   UNL A   1      34.159  32.317  29.247  1.00  0.00     0.014 A 
ATOM     32  C   UNL A   1      35.632  34.187  28.764  1.00  0.00     0.014 A 
ATOM     33  C   UNL A   1      35.224  31.624  29.807  1.00  0.00     0.010 A 
ATOM     34  C   UNL A   1      36.715  33.458  29.259  1.00  0.00     0.010 A 
ATOM     35  C   UNL A   1      36.508  32.198  29.843  1.00  0.00    -0.014 A 
BRANCH  35  36
ATOM     36  C   UNL A   1      37.602  31.483  30.546  1.00  0.00     0.031 A 
ATOM     37  C   UNL A   1      38.479  30.509  29.805  1.00  0.00     0.074 A 
ATOM     38  C   UNL A   1      37.852  31.768  31.837  1.00  0.00     0.049 A 
ATOM     39  N   UNL A   1      39.493  29.808  30.247  1.00  0.00    -0.248 NA
ATOM     40  C   UNL A   1      38.179  30.290  28.381  1.00  0.00     0.031 C 
ATOM     41  C   UNL A   1      37.086  32.709  32.656  1.00  0.00     0.029 A 
ATOM     42  N   UNL A   1      38.837  31.316  32.676  1.00  0.00    -0.354 N 
ATOM     43  C   UNL A   1      39.934  29.051  29.169  1.00  0.00     0.074 A 
ATOM     44  C   UNL A   1      39.065  29.361  28.054  1.00  0.00     0.031 C 
ATOM     45  C   UNL A   1      37.662  32.806  33.864  1.00  0.00     0.029 A 
ATOM     46  C   UNL A   1      38.798  31.893  33.922  1.00  0.00     0.049 A 
ATOM     47  H   UNL A   1      39.505  30.644  32.412  1.00  0.00     0.167 HD
ATOM     48  C   UNL A   1      40.973  28.184  29.110  1.00  0.00     0.037 A 
ATOM     49  C   UNL A   1      39.585  31.700  34.995  1.00  0.00     0.037 A 
ATOM     50  C   UNL A   1      41.857  27.897  30.210  1.00  0.00     0.049 A 
ATOM     51  C   UNL A   1      40.707  30.708  34.913  1.00  0.00     0.074 A 
ATOM     52  C   UNL A   1      42.953  27.053  30.242  1.00  0.00     0.029 A 
ATOM     53  N   UNL A   1      41.745  28.454  31.475  1.00  0.00    -0.354 N 
ATOM     54  N   UNL A   1      41.105  29.993  33.890  1.00  0.00    -0.248 NA
ATOM     55  C   UNL A   1      41.478  30.484  36.143  1.00  0.00     0.031 C 
ATOM     56  C   UNL A   1      43.486  27.075  31.537  1.00  0.00     0.029 A 
ATOM     57  C   UNL A   1      42.740  27.958  32.301  1.00  0.00     0.049 A 
ATOM     58  H   UNL A   1      41.059  29.105  31.747  1.00  0.00     0.167 HD
ATOM     59  C   UNL A   1      42.174  29.237  34.348  1.00  0.00     0.074 A 
ATOM     60  C   UNL A   1      42.377  29.599  35.737  1.00  0.00     0.031 C 
ATOM     61  C   UNL A   1      42.917  28.320  33.683  1.00  0.00     0.037 A 
BRANCH  48  62
ATOM     62  C   UNL A   1      41.200  27.466  27.812  1.00  0.00     0.057 A 
ATOM     63  C   UNL A   1      40.592  26.228  27.567  1.00  0.00     0.134 A 
ATOM     64  C   UNL A   1      42.038  27.983  26.816  1.00  0.00     0.134 A 
ATOM     65  F   UNL A   1      39.781  25.676  28.482  1.00  0.00    -0.206 F 
ATOM     66  C   UNL A   1      40.809  25.530  26.378  1.00  0.00     0.040 A 
ATOM     67  C   UNL A   1      42.248  27.304  25.615  1.00  0.00     0.040 A 
ATOM     68  F   UNL A   1      42.638  29.171  26.982  1.00  0.00    -0.206 F 
ATOM     69  C   UNL A   1      41.635  26.071  25.395  1.00  0.00     0.006 A 
ENDBRANCH  48  62
BRANCH  49  70
ATOM     70  C   UNL A   1      39.329  32.459  36.241  1.00  0.00     0.057 A 
ATOM     71  C   UNL A   1      39.971  33.675  36.499  1.00  0.00     0.134 A 
ATOM     72  C   UNL A   1      38.439  31.977  37.208  1.00  0.00     0.134 A 
ATOM     73  F   UNL A   1      40.837  34.184  35.610  1.00  0.00    -0.206 F 
ATOM     74  C   UNL A   1      39.752  34.380  37.682  1.00  0.00     0.040 A 
ATOM     75  C   UNL A   1      38.193  32.684  38.386  1.00  0.00     0.040 A 
ATOM     76  F   UNL A   1      37.780  30.827  37.006  1.00  0.00    -0.206 F 
ATOM     77  C   UNL A   1      38.857  33.885  38.628  1.00  0.00     0.006 A 
ENDBRANCH  49  70
BRANCH  61  78
ATOM     78  C   UNL A   1      44.014  27.656  34.456  1.00  0.00     0.057 A 
ATOM     79  C   UNL A   1      45.284  28.238  34.545  1.00  0.00     0.134 A 
ATOM     80  C   UNL A   1      43.811  26.434  35.110  1.00  0.00     0.134 A 
ATOM     81  F   UNL A   1      45.542  29.406  33.937  1.00  0.00    -0.206 F 
ATOM     82  C   UNL A   1      46.314  27.631  35.264  1.00  0.00     0.040 A 
ATOM     83  C   UNL A   1      44.828  25.827  35.848  1.00  0.00     0.040 A 
ATOM     84  F   UNL A   1      42.611  25.836  35.075  1.00  0.00    -0.206 F 
ATOM     85  C   UNL A   1      46.086  26.424  35.923  1.00  0.00     0.006 A 
ENDBRANCH  61  78
ENDBRANCH  35  36
ENDBRANCH  27  30
ENDBRANCH  25  26
ENDBRANCH   1  25
TORSDOF 13
ENDMDL
MODEL 3
REMARK VINA RESULT:     -11.8      5.030      9.892
REMARK SMILES CCc1c(Cl)ccc2c1C=C(C(=O)NCCCCNC(=O)c1ccc(-c3c4nc(c(-c5c(F)cccc5F)c5ccc([nH]5)c(-c5c(F)cccc5F)c5nc(c(-c6c(F)cccc6F)c6ccc3[nH]6)C=C5)C=C4)cc1)[C@@H](C(F)(F)F)O2
REMARK SMILES IDX 17 1 16 2 15 3 14 4 12 5 13 6 11 8 3 9 4 10 9 11 5 12 6 13
REMARK SMILES IDX 8 14 10 15 7 16 81 17 76 18 2 19 1 20 77 21 78 22 79 23
REMARK SMILES IDX 80 24 18 25 19 26 20 27 21 29 22 30 23 31 75 32 24 33 74 34
REMARK SMILES IDX 25 35 26 36 27 37 68 38 28 39 73 40 67 41 69 42 29 43 72 44
REMARK SMILES IDX 66 45 65 46 30 48 56 49 39 50 55 51 40 52 43 53 54 54 70 55
REMARK SMILES IDX 41 56 42 57 53 59 71 60 44 61 31 62 32 63 37 64 33 65 34 66
REMARK SMILES IDX 36 67 38 68 35 69 57 70 58 71 63 72 59 73 60 74 62 75 64 76
REMARK SMILES IDX 61 77 45 78 46 79 51 80 47 81 48 82 50 83 52 84 49 85
REMARK H PARENT 14 7 19 28 69 47 43 58
REMARK Flexibility Score: inf
ROOT
ATOM      1  C   UNL A   1      37.943  20.558  25.008  1.00  0.00     0.023 C 
ENDROOT
BRANCH   1   2
ATOM      2  C   UNL A   1      37.404  21.933  24.607  1.00  0.00     0.023 C 
BRANCH   2   3
ATOM      3  C   UNL A   1      37.326  22.936  25.755  1.00  0.00     0.116 C 
BRANCH   3   4
ATOM      4  N   UNL A   1      36.082  22.817  26.498  1.00  0.00    -0.352 N 
ATOM      5  C   UNL A   1      34.820  23.300  26.405  1.00  0.00     0.251 C 
ATOM      6  O   UNL A   1      34.055  22.931  27.302  1.00  0.00    -0.270 OA
ATOM      7  H   UNL A   1      36.185  22.226  27.279  1.00  0.00     0.163 HD
BRANCH   5   8
ATOM      8  C   UNL A   1      34.311  24.201  25.328  1.00  0.00     0.067 C 
ATOM      9  C   UNL A   1      32.327  27.378  25.080  1.00  0.00    -0.019 A 
ATOM     10  C   UNL A   1      31.805  28.154  24.015  1.00  0.00     0.045 A 
ATOM     11  C   UNL A   1      33.181  26.291  24.751  1.00  0.00     0.022 A 
ATOM     12  Cl  UNL A   1      30.652  29.424  24.258  1.00  0.00    -0.084 Cl
ATOM     13  C   UNL A   1      32.162  27.906  22.686  1.00  0.00     0.024 A 
ATOM     14  C   UNL A   1      33.490  26.043  23.399  1.00  0.00     0.128 A 
ATOM     15  C   UNL A   1      33.791  25.379  25.732  1.00  0.00     0.026 C 
ATOM     16  C   UNL A   1      33.013  26.856  22.378  1.00  0.00     0.048 A 
ATOM     17  O   UNL A   1      34.290  25.010  22.994  1.00  0.00    -0.475 OA
ATOM     18  C   UNL A   1      34.314  23.854  23.870  1.00  0.00     0.314 C 
BRANCH   9  19
ATOM     19  C   UNL A   1      31.930  27.690  26.516  1.00  0.00     0.034 C 
ATOM     20  C   UNL A   1      32.850  28.679  27.227  1.00  0.00     0.009 C 
ENDBRANCH   9  19
BRANCH  18  21
ATOM     21  C   UNL A   1      33.199  22.864  23.482  1.00  0.00     0.429 C 
ATOM     22  F   UNL A   1      32.915  22.969  22.159  1.00  0.00    -0.167 F 
ATOM     23  F   UNL A   1      33.556  21.576  23.695  1.00  0.00    -0.167 F 
ATOM     24  F   UNL A   1      32.049  23.072  24.161  1.00  0.00    -0.167 F 
ENDBRANCH  18  21
ENDBRANCH   5   8
ENDBRANCH   3   4
ENDBRANCH   2   3
ENDBRANCH   1   2
BRANCH   1  25
ATOM     25  C   UNL A   1      39.220  20.570  25.845  1.00  0.00     0.116 C 
BRANCH  25  26
ATOM     26  N   UNL A   1      40.008  19.347  25.760  1.00  0.00    -0.352 N 
ATOM     27  C   UNL A   1      41.358  19.197  25.990  1.00  0.00     0.251 C 
ATOM     28  H   UNL A   1      39.517  18.531  25.511  1.00  0.00     0.163 HD
ATOM     29  O   UNL A   1      41.912  18.117  25.826  1.00  0.00    -0.269 OA
BRANCH  27  30
ATOM     30  C   UNL A   1      42.138  20.389  26.378  1.00  0.00     0.039 A 
ATOM     31  C   UNL A   1      42.196  20.778  27.717  1.00  0.00     0.014 A 
ATOM     32  C   UNL A   1      42.702  21.183  25.377  1.00  0.00     0.014 A 
ATOM     33  C   UNL A   1      42.653  22.049  28.035  1.00  0.00     0.010 A 
ATOM     34  C   UNL A   1      43.231  22.431  25.710  1.00  0.00     0.010 A 
ATOM     35  C   UNL A   1      43.151  22.899  27.032  1.00  0.00    -0.014 A 
BRANCH  35  36
ATOM     36  C   UNL A   1      43.529  24.291  27.382  1.00  0.00     0.031 A 
ATOM     37  C   UNL A   1      44.953  24.758  27.232  1.00  0.00     0.074 A 
ATOM     38  C   UNL A   1      42.572  25.156  27.766  1.00  0.00     0.049 A 
ATOM     39  N   UNL A   1      45.464  25.940  27.470  1.00  0.00    -0.248 NA
ATOM     40  C   UNL A   1      45.933  23.769  26.756  1.00  0.00     0.031 C 
ATOM     41  C   UNL A   1      41.155  24.829  27.927  1.00  0.00     0.029 A 
ATOM     42  N   UNL A   1      42.644  26.493  28.061  1.00  0.00    -0.354 N 
ATOM     43  C   UNL A   1      46.822  25.831  27.198  1.00  0.00     0.074 A 
ATOM     44  C   UNL A   1      47.062  24.462  26.796  1.00  0.00     0.031 C 
ATOM     45  C   UNL A   1      40.481  25.946  28.240  1.00  0.00     0.029 A 
ATOM     46  C   UNL A   1      41.425  27.052  28.357  1.00  0.00     0.049 A 
ATOM     47  H   UNL A   1      43.486  27.001  28.062  1.00  0.00     0.167 HD
ATOM     48  C   UNL A   1      47.780  26.786  27.267  1.00  0.00     0.037 A 
ATOM     49  C   UNL A   1      41.106  28.313  28.695  1.00  0.00     0.037 A 
ATOM     50  C   UNL A   1      47.538  28.156  27.638  1.00  0.00     0.049 A 
ATOM     51  C   UNL A   1      42.192  29.343  28.798  1.00  0.00     0.074 A 
ATOM     52  C   UNL A   1      48.439  29.205  27.713  1.00  0.00     0.029 A 
ATOM     53  N   UNL A   1      46.299  28.668  27.993  1.00  0.00    -0.354 N 
ATOM     54  N   UNL A   1      43.471  29.222  28.546  1.00  0.00    -0.248 NA
ATOM     55  C   UNL A   1      41.788  30.681  29.251  1.00  0.00     0.031 C 
ATOM     56  C   UNL A   1      47.749  30.344  28.145  1.00  0.00     0.029 A 
ATOM     57  C   UNL A   1      46.414  30.012  28.307  1.00  0.00     0.049 A 
ATOM     58  H   UNL A   1      45.461  28.152  28.020  1.00  0.00     0.167 HD
ATOM     59  C   UNL A   1      44.028  30.467  28.805  1.00  0.00     0.074 A 
ATOM     60  C   UNL A   1      42.940  31.335  29.210  1.00  0.00     0.031 C 
ATOM     61  C   UNL A   1      45.323  30.855  28.722  1.00  0.00     0.037 A 
BRANCH  48  62
ATOM     62  C   UNL A   1      49.188  26.375  26.950  1.00  0.00     0.057 A 
ATOM     63  C   UNL A   1      50.049  25.941  27.966  1.00  0.00     0.134 A 
ATOM     64  C   UNL A   1      49.701  26.434  25.648  1.00  0.00     0.134 A 
ATOM     65  F   UNL A   1      49.620  25.866  29.235  1.00  0.00    -0.206 F 
ATOM     66  C   UNL A   1      51.370  25.579  27.699  1.00  0.00     0.040 A 
ATOM     67  C   UNL A   1      51.015  26.055  25.365  1.00  0.00     0.040 A 
ATOM     68  F   UNL A   1      48.924  26.826  24.628  1.00  0.00    -0.206 F 
ATOM     69  C   UNL A   1      51.855  25.629  26.393  1.00  0.00     0.006 A 
ENDBRANCH  48  62
BRANCH  49  70
ATOM     70  C   UNL A   1      39.693  28.666  28.970  1.00  0.00     0.057 A 
ATOM     71  C   UNL A   1      39.140  28.518  30.247  1.00  0.00     0.134 A 
ATOM     72  C   UNL A   1      38.861  29.151  27.954  1.00  0.00     0.134 A 
ATOM     73  F   UNL A   1      39.888  28.054  31.258  1.00  0.00    -0.206 F 
ATOM     74  C   UNL A   1      37.804  28.825  30.503  1.00  0.00     0.040 A 
ATOM     75  C   UNL A   1      37.529  29.483  28.202  1.00  0.00     0.040 A 
ATOM     76  F   UNL A   1      39.342  29.331  26.715  1.00  0.00    -0.206 F 
ATOM     77  C   UNL A   1      36.996  29.313  29.479  1.00  0.00     0.006 A 
ENDBRANCH  49  70
BRANCH  61  78
ATOM     78  C   UNL A   1      45.621  32.280  29.073  1.00  0.00     0.057 A 
ATOM     79  C   UNL A   1      45.981  32.636  30.378  1.00  0.00     0.134 A 
ATOM     80  C   UNL A   1      45.549  33.300  28.116  1.00  0.00     0.134 A 
ATOM     81  F   UNL A   1      46.065  31.705  31.341  1.00  0.00    -0.206 F 
ATOM     82  C   UNL A   1      46.264  33.960  30.719  1.00  0.00     0.040 A 
ATOM     83  C   UNL A   1      45.848  34.623  28.440  1.00  0.00     0.040 A 
ATOM     84  F   UNL A   1      45.226  33.017  26.846  1.00  0.00    -0.206 F 
ATOM     85  C   UNL A   1      46.203  34.957  29.747  1.00  0.00     0.006 A 
ENDBRANCH  61  78
ENDBRANCH  35  36
ENDBRANCH  27  30
ENDBRANCH  25  26
ENDBRANCH   1  25
TORSDOF 13
ENDMDL
