MODEL 1
REMARK VINA RESULT:     -11.7      0.000      0.000
REMARK SMILES CC(C)C[C@H](NC(=O)[C@@H](NC(=O)N1CC(NCCCCNC(=O)c2ccc(-c3c4nc(c(-c5c(F)cccc5F)c5ccc([nH]5)c(-c5c(F)cccc5F)c5nc(c(-c6c(F)cccc6F)c6ccc3[nH]6)C=C5)C=C4)cc2)=[NH+]c2ccccc21)C(C)C)C(=O)[O-]
REMARK SMILES IDX 17 1 16 2 13 3 14 4 84 5 15 6 79 7 83 8 78 9 80 10 82 11
REMARK SMILES IDX 81 14 11 15 10 16 12 18 9 19 7 20 6 21 8 23 5 24 4 25 2 26
REMARK SMILES IDX 1 27 3 28 88 29 89 30 90 31 85 32 86 33 87 34 18 35 19 36
REMARK SMILES IDX 20 37 21 38 22 39 23 41 24 42 25 43 77 44 26 45 76 46 27 47
REMARK SMILES IDX 28 48 29 49 70 50 30 51 75 52 69 53 71 54 31 55 74 56 68 57
REMARK SMILES IDX 67 58 32 60 58 61 41 62 57 63 42 64 45 65 56 66 72 67 43 68
REMARK SMILES IDX 44 69 55 71 73 72 46 73 33 74 34 75 39 76 35 77 36 78 38 79
REMARK SMILES IDX 40 80 37 81 59 82 60 83 65 84 61 85 62 86 64 87 66 88 63 89
REMARK SMILES IDX 47 90 48 91 53 92 49 93 50 94 52 95 54 96 51 97
REMARK H PARENT 16 12 78 13 10 17 6 22 21 40 71 59 45 70
REMARK Flexibility Score: inf
ROOT
ATOM      1  C   UNL A   1      37.906  23.301  25.478  1.00  0.00     0.233 C 
ENDROOT
BRANCH   1   2
ATOM      2  N   UNL A   1      36.695  23.647  26.190  1.00  0.00    -0.277 N 
ATOM      3  N   UNL A   1      33.763  23.845  24.207  1.00  0.00    -0.278 N 
ATOM      4  C   UNL A   1      34.940  23.000  24.439  1.00  0.00     0.255 C 
ATOM      5  C   UNL A   1      32.731  23.455  25.089  1.00  0.00     0.093 A 
ATOM      6  C   UNL A   1      35.385  23.361  25.865  1.00  0.00     0.268 C 
ATOM      7  C   UNL A   1      33.135  23.229  26.428  1.00  0.00     0.148 A 
ATOM      8  C   UNL A   1      31.412  23.269  24.681  1.00  0.00     0.031 A 
ATOM      9  N   UNL A   1      34.489  23.423  26.823  1.00  0.00    -0.241 N 
ATOM     10  C   UNL A   1      32.159  22.938  27.372  1.00  0.00     0.054 A 
ATOM     11  C   UNL A   1      30.457  22.925  25.634  1.00  0.00     0.002 A 
ATOM     12  H   UNL A   1      36.823  24.157  27.020  1.00  0.00     0.304 HD
ATOM     13  H   UNL A   1      34.738  23.593  27.760  1.00  0.00     0.312 HD
ATOM     14  C   UNL A   1      30.823  22.791  26.978  1.00  0.00     0.005 A 
BRANCH   3  15
ATOM     15  C   UNL A   1      33.607  24.598  23.090  1.00  0.00     0.323 C 
ATOM     16  N   UNL A   1      33.113  25.863  23.128  1.00  0.00    -0.326 N 
ATOM     17  H   UNL A   1      32.943  26.171  22.209  1.00  0.00     0.166 HD
ATOM     18  O   UNL A   1      33.982  24.197  21.985  1.00  0.00    -0.248 OA
BRANCH  16  19
ATOM     19  C   UNL A   1      32.738  26.950  24.089  1.00  0.00     0.175 C 
BRANCH  19  20
ATOM     20  C   UNL A   1      32.880  28.444  23.678  1.00  0.00     0.243 C 
ATOM     21  N   UNL A   1      31.862  29.320  23.559  1.00  0.00    -0.346 N 
ATOM     22  H   UNL A   1      32.110  30.156  23.103  1.00  0.00     0.164 HD
ATOM     23  O   UNL A   1      33.978  28.860  23.279  1.00  0.00    -0.273 OA
BRANCH  21  24
ATOM     24  C   UNL A   1      30.460  29.268  23.975  1.00  0.00     0.128 C 
BRANCH  24  25
ATOM     25  C   UNL A   1      29.831  30.662  23.777  1.00  0.00     0.034 C 
BRANCH  25  26
ATOM     26  C   UNL A   1      28.479  30.776  23.036  1.00  0.00    -0.015 C 
ATOM     27  C   UNL A   1      27.334  31.334  23.855  1.00  0.00     0.007 C 
ATOM     28  C   UNL A   1      28.633  31.668  21.804  1.00  0.00     0.007 C 
ENDBRANCH  25  26
ENDBRANCH  24  25
BRANCH  24  29
ATOM     29  C   UNL A   1      29.838  28.145  23.121  1.00  0.00     0.064 C 
ATOM     30  O   UNL A   1      29.150  27.226  23.547  1.00  0.00    -0.548 OA
ATOM     31  O   UNL A   1      30.132  28.179  21.810  1.00  0.00    -0.548 OA
ENDBRANCH  24  29
ENDBRANCH  21  24
ENDBRANCH  19  20
BRANCH  19  32
ATOM     32  C   UNL A   1      33.071  26.729  25.580  1.00  0.00     0.015 C 
ATOM     33  C   UNL A   1      34.004  27.723  26.278  1.00  0.00     0.010 C 
ATOM     34  C   UNL A   1      31.762  26.669  26.378  1.00  0.00     0.010 C 
ENDBRANCH  19  32
ENDBRANCH  16  19
ENDBRANCH   3  15
ENDBRANCH   1   2
BRANCH   1  35
ATOM     35  C   UNL A   1      38.711  22.220  26.208  1.00  0.00     0.048 C 
BRANCH  35  36
ATOM     36  C   UNL A   1      39.029  20.955  25.422  1.00  0.00     0.025 C 
BRANCH  36  37
ATOM     37  C   UNL A   1      39.367  19.757  26.285  1.00  0.00     0.116 C 
BRANCH  37  38
ATOM     38  N   UNL A   1      40.601  19.096  25.885  1.00  0.00    -0.352 N 
ATOM     39  C   UNL A   1      41.886  19.589  25.884  1.00  0.00     0.251 C 
ATOM     40  H   UNL A   1      40.503  18.168  25.571  1.00  0.00     0.163 HD
ATOM     41  O   UNL A   1      42.793  18.936  25.390  1.00  0.00    -0.269 OA
BRANCH  39  42
ATOM     42  C   UNL A   1      42.158  20.928  26.457  1.00  0.00     0.039 A 
ATOM     43  C   UNL A   1      42.509  21.973  25.599  1.00  0.00     0.014 A 
ATOM     44  C   UNL A   1      42.063  21.155  27.832  1.00  0.00     0.014 A 
ATOM     45  C   UNL A   1      42.724  23.250  26.120  1.00  0.00     0.010 A 
ATOM     46  C   UNL A   1      42.159  22.445  28.331  1.00  0.00     0.010 A 
ATOM     47  C   UNL A   1      42.531  23.500  27.487  1.00  0.00    -0.014 A 
BRANCH  47  48
ATOM     48  C   UNL A   1      42.776  24.840  28.072  1.00  0.00     0.031 A 
ATOM     49  C   UNL A   1      44.164  25.214  28.519  1.00  0.00     0.074 A 
ATOM     50  C   UNL A   1      41.751  25.693  28.248  1.00  0.00     0.049 A 
ATOM     51  N   UNL A   1      44.583  26.318  29.084  1.00  0.00    -0.248 NA
ATOM     52  C   UNL A   1      45.215  24.197  28.345  1.00  0.00     0.031 C 
ATOM     53  C   UNL A   1      40.353  25.419  27.915  1.00  0.00     0.029 A 
ATOM     54  N   UNL A   1      41.729  26.967  28.757  1.00  0.00    -0.354 N 
ATOM     55  C   UNL A   1      45.932  26.116  29.350  1.00  0.00     0.074 A 
ATOM     56  C   UNL A   1      46.244  24.761  28.956  1.00  0.00     0.031 C 
ATOM     57  C   UNL A   1      39.614  26.503  28.197  1.00  0.00     0.029 A 
ATOM     58  C   UNL A   1      40.478  27.535  28.761  1.00  0.00     0.049 A 
ATOM     59  H   UNL A   1      42.532  27.429  29.087  1.00  0.00     0.167 HD
ATOM     60  C   UNL A   1      46.839  26.990  29.846  1.00  0.00     0.037 A 
ATOM     61  C   UNL A   1      40.079  28.753  29.171  1.00  0.00     0.037 A 
ATOM     62  C   UNL A   1      46.526  28.345  30.209  1.00  0.00     0.049 A 
ATOM     63  C   UNL A   1      41.106  29.716  29.699  1.00  0.00     0.074 A 
ATOM     64  C   UNL A   1      47.378  29.339  30.658  1.00  0.00     0.029 A 
ATOM     65  N   UNL A   1      45.252  28.896  30.169  1.00  0.00    -0.354 N 
ATOM     66  N   UNL A   1      42.395  29.544  29.868  1.00  0.00    -0.248 NA
ATOM     67  C   UNL A   1      40.624  31.052  30.075  1.00  0.00     0.031 C 
ATOM     68  C   UNL A   1      46.611  30.473  30.942  1.00  0.00     0.029 A 
ATOM     69  C   UNL A   1      45.292  30.209  30.607  1.00  0.00     0.049 A 
ATOM     70  H   UNL A   1      44.442  28.424  29.872  1.00  0.00     0.167 HD
ATOM     71  C   UNL A   1      42.885  30.756  30.338  1.00  0.00     0.074 A 
ATOM     72  C   UNL A   1      41.752  31.658  30.415  1.00  0.00     0.031 C 
ATOM     73  C   UNL A   1      44.154  31.093  30.673  1.00  0.00     0.037 A 
BRANCH  60  74
ATOM     74  C   UNL A   1      48.248  26.495  30.024  1.00  0.00     0.057 A 
ATOM     75  C   UNL A   1      48.659  25.813  31.179  1.00  0.00     0.134 A 
ATOM     76  C   UNL A   1      49.211  26.708  29.029  1.00  0.00     0.134 A 
ATOM     77  F   UNL A   1      47.794  25.586  32.179  1.00  0.00    -0.206 F 
ATOM     78  C   UNL A   1      49.981  25.401  31.356  1.00  0.00     0.040 A 
ATOM     79  C   UNL A   1      50.528  26.269  29.179  1.00  0.00     0.040 A 
ATOM     80  F   UNL A   1      48.889  27.348  27.896  1.00  0.00    -0.206 F 
ATOM     81  C   UNL A   1      50.919  25.625  30.351  1.00  0.00     0.006 A 
ENDBRANCH  60  74
BRANCH  61  82
ATOM     82  C   UNL A   1      38.650  29.138  29.056  1.00  0.00     0.057 A 
ATOM     83  C   UNL A   1      37.795  29.094  30.164  1.00  0.00     0.134 A 
ATOM     84  C   UNL A   1      38.107  29.575  27.841  1.00  0.00     0.134 A 
ATOM     85  F   UNL A   1      38.253  28.671  31.352  1.00  0.00    -0.206 F 
ATOM     86  C   UNL A   1      36.450  29.452  30.066  1.00  0.00     0.040 A 
ATOM     87  C   UNL A   1      36.770  29.962  27.735  1.00  0.00     0.040 A 
ATOM     88  F   UNL A   1      38.876  29.652  26.745  1.00  0.00    -0.206 F 
ATOM     89  C   UNL A   1      35.936  29.894  28.849  1.00  0.00     0.006 A 
ENDBRANCH  61  82
BRANCH  73  90
ATOM     90  C   UNL A   1      44.395  32.512  31.106  1.00  0.00     0.057 A 
ATOM     91  C   UNL A   1      44.342  32.902  32.450  1.00  0.00     0.134 A 
ATOM     92  C   UNL A   1      44.712  33.496  30.159  1.00  0.00     0.134 A 
ATOM     93  F   UNL A   1      44.035  32.012  33.405  1.00  0.00    -0.206 F 
ATOM     94  C   UNL A   1      44.561  34.226  32.833  1.00  0.00     0.040 A 
ATOM     95  C   UNL A   1      44.966  34.815  30.534  1.00  0.00     0.040 A 
ATOM     96  F   UNL A   1      44.792  33.188  28.856  1.00  0.00    -0.206 F 
ATOM     97  C   UNL A   1      44.880  35.186  31.873  1.00  0.00     0.006 A 
ENDBRANCH  73  90
ENDBRANCH  47  48
ENDBRANCH  39  42
ENDBRANCH  37  38
ENDBRANCH  36  37
ENDBRANCH  35  36
ENDBRANCH   1  35
TORSDOF 18
ENDMDL
MODEL 2
REMARK VINA RESULT:     -11.4      0.644      5.946
REMARK SMILES CC(C)C[C@H](NC(=O)[C@@H](NC(=O)N1CC(NCCCCNC(=O)c2ccc(-c3c4nc(c(-c5c(F)cccc5F)c5ccc([nH]5)c(-c5c(F)cccc5F)c5nc(c(-c6c(F)cccc6F)c6ccc3[nH]6)C=C5)C=C4)cc2)=[NH+]c2ccccc21)C(C)C)C(=O)[O-]
REMARK SMILES IDX 17 1 16 2 13 3 14 4 84 5 15 6 79 7 83 8 78 9 80 10 82 11
REMARK SMILES IDX 81 14 11 15 10 16 12 18 9 19 7 20 6 21 8 23 5 24 4 25 2 26
REMARK SMILES IDX 1 27 3 28 88 29 89 30 90 31 85 32 86 33 87 34 18 35 19 36
REMARK SMILES IDX 20 37 21 38 22 39 23 41 24 42 25 43 77 44 26 45 76 46 27 47
REMARK SMILES IDX 28 48 29 49 70 50 30 51 75 52 69 53 71 54 31 55 74 56 68 57
REMARK SMILES IDX 67 58 32 60 58 61 41 62 57 63 42 64 45 65 56 66 72 67 43 68
REMARK SMILES IDX 44 69 55 71 73 72 46 73 33 74 34 75 39 76 35 77 36 78 38 79
REMARK SMILES IDX 40 80 37 81 59 82 60 83 65 84 61 85 62 86 64 87 66 88 63 89
REMARK SMILES IDX 47 90 48 91 53 92 49 93 50 94 52 95 54 96 51 97
REMARK H PARENT 16 12 78 13 10 17 6 22 21 40 71 59 45 70
REMARK Flexibility Score: inf
ROOT
ATOM      1  C   UNL A   1      37.927  23.347  25.490  1.00  0.00     0.233 C 
ENDROOT
BRANCH   1   2
ATOM      2  N   UNL A   1      36.717  23.695  26.202  1.00  0.00    -0.277 N 
ATOM      3  N   UNL A   1      33.782  23.881  24.224  1.00  0.00    -0.278 N 
ATOM      4  C   UNL A   1      34.959  23.038  24.458  1.00  0.00     0.255 C 
ATOM      5  C   UNL A   1      32.752  23.495  25.110  1.00  0.00     0.093 A 
ATOM      6  C   UNL A   1      35.407  23.407  25.882  1.00  0.00     0.268 C 
ATOM      7  C   UNL A   1      33.158  23.275  26.449  1.00  0.00     0.148 A 
ATOM      8  C   UNL A   1      31.432  23.305  24.705  1.00  0.00     0.031 A 
ATOM      9  N   UNL A   1      34.512  23.472  26.840  1.00  0.00    -0.241 N 
ATOM     10  C   UNL A   1      32.184  22.989  27.397  1.00  0.00     0.054 A 
ATOM     11  C   UNL A   1      30.479  22.965  25.662  1.00  0.00     0.002 A 
ATOM     12  H   UNL A   1      36.846  24.210  27.030  1.00  0.00     0.304 HD
ATOM     13  H   UNL A   1      34.764  23.647  27.776  1.00  0.00     0.312 HD
ATOM     14  C   UNL A   1      30.848  22.838  27.006  1.00  0.00     0.005 A 
BRANCH   3  15
ATOM     15  C   UNL A   1      33.622  24.628  23.104  1.00  0.00     0.323 C 
ATOM     16  N   UNL A   1      33.131  25.894  23.137  1.00  0.00    -0.326 N 
ATOM     17  H   UNL A   1      32.958  26.197  22.217  1.00  0.00     0.166 HD
ATOM     18  O   UNL A   1      33.994  24.221  22.000  1.00  0.00    -0.248 OA
BRANCH  16  19
ATOM     19  C   UNL A   1      32.760  26.987  24.093  1.00  0.00     0.175 C 
BRANCH  19  20
ATOM     20  C   UNL A   1      32.881  28.478  23.667  1.00  0.00     0.243 C 
ATOM     21  N   UNL A   1      31.854  29.344  23.558  1.00  0.00    -0.346 N 
ATOM     22  H   UNL A   1      32.085  30.178  23.090  1.00  0.00     0.164 HD
ATOM     23  O   UNL A   1      33.968  28.900  23.244  1.00  0.00    -0.273 OA
BRANCH  21  24
ATOM     24  C   UNL A   1      30.460  29.284  24.000  1.00  0.00     0.128 C 
BRANCH  24  25
ATOM     25  C   UNL A   1      29.837  30.689  23.874  1.00  0.00     0.034 C 
BRANCH  25  26
ATOM     26  C   UNL A   1      28.539  30.863  23.053  1.00  0.00    -0.015 C 
ATOM     27  C   UNL A   1      27.336  31.347  23.835  1.00  0.00     0.007 C 
ATOM     28  C   UNL A   1      28.772  31.858  21.915  1.00  0.00     0.007 C 
ENDBRANCH  25  26
ENDBRANCH  24  25
BRANCH  24  29
ATOM     29  C   UNL A   1      29.812  28.202  23.113  1.00  0.00     0.064 C 
ATOM     30  O   UNL A   1      29.045  27.330  23.500  1.00  0.00    -0.548 OA
ATOM     31  O   UNL A   1      30.176  28.216  21.819  1.00  0.00    -0.548 OA
ENDBRANCH  24  29
ENDBRANCH  21  24
ENDBRANCH  19  20
BRANCH  19  32
ATOM     32  C   UNL A   1      33.118  26.783  25.581  1.00  0.00     0.015 C 
ATOM     33  C   UNL A   1      34.046  27.798  26.257  1.00  0.00     0.010 C 
ATOM     34  C   UNL A   1      31.822  26.709  26.398  1.00  0.00     0.010 C 
ENDBRANCH  19  32
ENDBRANCH  16  19
ENDBRANCH   3  15
ENDBRANCH   1   2
BRANCH   1  35
ATOM     35  C   UNL A   1      38.787  22.349  26.274  1.00  0.00     0.048 C 
BRANCH  35  36
ATOM     36  C   UNL A   1      39.224  21.092  25.535  1.00  0.00     0.025 C 
BRANCH  36  37
ATOM     37  C   UNL A   1      39.554  19.923  26.440  1.00  0.00     0.116 C 
BRANCH  37  38
ATOM     38  N   UNL A   1      40.721  19.173  25.999  1.00  0.00    -0.352 N 
ATOM     39  C   UNL A   1      42.033  19.582  25.920  1.00  0.00     0.251 C 
ATOM     40  H   UNL A   1      40.549  18.245  25.720  1.00  0.00     0.163 HD
ATOM     41  O   UNL A   1      42.871  18.858  25.402  1.00  0.00    -0.269 OA
BRANCH  39  42
ATOM     42  C   UNL A   1      42.418  20.916  26.438  1.00  0.00     0.039 A 
ATOM     43  C   UNL A   1      42.769  21.919  25.532  1.00  0.00     0.014 A 
ATOM     44  C   UNL A   1      42.429  21.179  27.810  1.00  0.00     0.014 A 
ATOM     45  C   UNL A   1      43.091  23.193  26.002  1.00  0.00     0.010 A 
ATOM     46  C   UNL A   1      42.631  22.473  28.267  1.00  0.00     0.010 A 
ATOM     47  C   UNL A   1      43.004  23.484  27.372  1.00  0.00    -0.014 A 
BRANCH  47  48
ATOM     48  C   UNL A   1      43.364  24.821  27.904  1.00  0.00     0.031 A 
ATOM     49  C   UNL A   1      42.280  25.827  28.184  1.00  0.00     0.074 A 
ATOM     50  C   UNL A   1      44.657  25.147  28.081  1.00  0.00     0.049 A 
ATOM     51  N   UNL A   1      42.384  27.058  28.617  1.00  0.00    -0.248 NA
ATOM     52  C   UNL A   1      40.896  25.408  27.904  1.00  0.00     0.031 C 
ATOM     53  C   UNL A   1      45.798  24.281  27.782  1.00  0.00     0.029 A 
ATOM     54  N   UNL A   1      45.229  26.300  28.554  1.00  0.00    -0.354 N 
ATOM     55  C   UNL A   1      41.088  27.560  28.638  1.00  0.00     0.074 A 
ATOM     56  C   UNL A   1      40.226  26.531  28.103  1.00  0.00     0.031 C 
ATOM     57  C   UNL A   1      46.932  24.920  28.109  1.00  0.00     0.029 A 
ATOM     58  C   UNL A   1      46.601  26.250  28.608  1.00  0.00     0.049 A 
ATOM     59  H   UNL A   1      44.706  27.087  28.828  1.00  0.00     0.167 HD
ATOM     60  C   UNL A   1      40.649  28.758  29.092  1.00  0.00     0.037 A 
ATOM     61  C   UNL A   1      47.488  27.176  29.019  1.00  0.00     0.037 A 
ATOM     62  C   UNL A   1      41.512  29.765  29.648  1.00  0.00     0.049 A 
ATOM     63  C   UNL A   1      46.979  28.491  29.540  1.00  0.00     0.074 A 
ATOM     64  C   UNL A   1      41.170  30.987  30.200  1.00  0.00     0.029 A 
ATOM     65  N   UNL A   1      42.895  29.666  29.717  1.00  0.00    -0.354 N 
ATOM     66  N   UNL A   1      45.745  28.925  29.633  1.00  0.00    -0.248 NA
ATOM     67  C   UNL A   1      47.987  29.440  30.031  1.00  0.00     0.031 C 
ATOM     68  C   UNL A   1      42.350  31.650  30.552  1.00  0.00     0.029 A 
ATOM     69  C   UNL A   1      43.423  30.815  30.281  1.00  0.00     0.049 A 
ATOM     70  H   UNL A   1      43.421  28.894  29.411  1.00  0.00     0.167 HD
ATOM     71  C   UNL A   1      45.823  30.180  30.222  1.00  0.00     0.074 A 
ATOM     72  C   UNL A   1      47.228  30.431  30.475  1.00  0.00     0.031 C 
ATOM     73  C   UNL A   1      44.825  31.045  30.529  1.00  0.00     0.037 A 
BRANCH  60  74
ATOM     74  C   UNL A   1      39.174  29.033  28.997  1.00  0.00     0.057 A 
ATOM     75  C   UNL A   1      38.571  29.465  27.805  1.00  0.00     0.134 A 
ATOM     76  C   UNL A   1      38.344  28.870  30.113  1.00  0.00     0.134 A 
ATOM     77  F   UNL A   1      39.308  29.656  26.700  1.00  0.00    -0.206 F 
ATOM     78  C   UNL A   1      37.209  29.766  27.740  1.00  0.00     0.040 A 
ATOM     79  C   UNL A   1      36.974  29.134  30.051  1.00  0.00     0.040 A 
ATOM     80  F   UNL A   1      38.850  28.456  31.283  1.00  0.00    -0.206 F 
ATOM     81  C   UNL A   1      36.406  29.595  28.865  1.00  0.00     0.006 A 
ENDBRANCH  60  74
BRANCH  61  82
ATOM     82  C   UNL A   1      48.939  26.869  28.992  1.00  0.00     0.057 A 
ATOM     83  C   UNL A   1      49.722  27.158  27.868  1.00  0.00     0.134 A 
ATOM     84  C   UNL A   1      49.585  26.295  30.095  1.00  0.00     0.134 A 
ATOM     85  F   UNL A   1      49.159  27.696  26.776  1.00  0.00    -0.206 F 
ATOM     86  C   UNL A   1      51.087  26.871  27.832  1.00  0.00     0.040 A 
ATOM     87  C   UNL A   1      50.955  26.027  30.082  1.00  0.00     0.040 A 
ATOM     88  F   UNL A   1      48.895  26.005  31.208  1.00  0.00    -0.206 F 
ATOM     89  C   UNL A   1      51.709  26.310  28.945  1.00  0.00     0.006 A 
ENDBRANCH  61  82
BRANCH  73  90
ATOM     90  C   UNL A   1      45.213  32.323  31.218  1.00  0.00     0.057 A 
ATOM     91  C   UNL A   1      45.294  32.425  32.612  1.00  0.00     0.134 A 
ATOM     92  C   UNL A   1      45.536  33.461  30.466  1.00  0.00     0.134 A 
ATOM     93  F   UNL A   1      44.988  31.376  33.390  1.00  0.00    -0.206 F 
ATOM     94  C   UNL A   1      45.648  33.623  33.236  1.00  0.00     0.040 A 
ATOM     95  C   UNL A   1      45.923  34.654  31.077  1.00  0.00     0.040 A 
ATOM     96  F   UNL A   1      45.492  33.429  29.126  1.00  0.00    -0.206 F 
ATOM     97  C   UNL A   1      45.970  34.740  32.466  1.00  0.00     0.006 A 
ENDBRANCH  73  90
ENDBRANCH  47  48
ENDBRANCH  39  42
ENDBRANCH  37  38
ENDBRANCH  36  37
ENDBRANCH  35  36
ENDBRANCH   1  35
TORSDOF 18
ENDMDL
MODEL 3
REMARK VINA RESULT:     -11.4      4.066      9.437
REMARK SMILES CC(C)C[C@H](NC(=O)[C@@H](NC(=O)N1CC(NCCCCNC(=O)c2ccc(-c3c4nc(c(-c5c(F)cccc5F)c5ccc([nH]5)c(-c5c(F)cccc5F)c5nc(c(-c6c(F)cccc6F)c6ccc3[nH]6)C=C5)C=C4)cc2)=[NH+]c2ccccc21)C(C)C)C(=O)[O-]
REMARK SMILES IDX 17 1 16 2 13 3 14 4 84 5 15 6 79 7 83 8 78 9 80 10 82 11
REMARK SMILES IDX 81 14 11 15 10 16 12 18 9 19 7 20 6 21 8 23 5 24 4 25 2 26
REMARK SMILES IDX 1 27 3 28 88 29 89 30 90 31 85 32 86 33 87 34 18 35 19 36
REMARK SMILES IDX 20 37 21 38 22 39 23 41 24 42 25 43 77 44 26 45 76 46 27 47
REMARK SMILES IDX 28 48 29 49 70 50 30 51 75 52 69 53 71 54 31 55 74 56 68 57
REMARK SMILES IDX 67 58 32 60 58 61 41 62 57 63 42 64 45 65 56 66 72 67 43 68
REMARK SMILES IDX 44 69 55 71 73 72 46 73 33 74 34 75 39 76 35 77 36 78 38 79
REMARK SMILES IDX 40 80 37 81 59 82 60 83 65 84 61 85 62 86 64 87 66 88 63 89
REMARK SMILES IDX 47 90 48 91 53 92 49 93 50 94 52 95 54 96 51 97
REMARK H PARENT 16 12 78 13 10 17 6 22 21 40 71 59 45 70
REMARK Flexibility Score: inf
ROOT
ATOM      1  C   UNL A   1      32.744  29.875  26.817  1.00  0.00     0.233 C 
ENDROOT
BRANCH   1   2
ATOM      2  N   UNL A   1      33.406  29.060  25.822  1.00  0.00    -0.277 N 
ATOM      3  N   UNL A   1      31.874  25.938  25.138  1.00  0.00    -0.278 N 
ATOM      4  C   UNL A   1      31.557  27.358  25.325  1.00  0.00     0.255 C 
ATOM      5  C   UNL A   1      32.174  25.705  23.778  1.00  0.00     0.093 A 
ATOM      6  C   UNL A   1      32.876  28.081  25.008  1.00  0.00     0.268 C 
ATOM      7  C   UNL A   1      33.026  26.661  23.175  1.00  0.00     0.148 A 
ATOM      8  C   UNL A   1      31.649  24.634  23.057  1.00  0.00     0.031 A 
ATOM      9  N   UNL A   1      33.548  27.750  23.930  1.00  0.00    -0.241 N 
ATOM     10  C   UNL A   1      33.443  26.445  21.868  1.00  0.00     0.054 A 
ATOM     11  C   UNL A   1      32.038  24.464  21.731  1.00  0.00     0.002 A 
ATOM     12  H   UNL A   1      34.369  29.228  25.710  1.00  0.00     0.304 HD
ATOM     13  H   UNL A   1      34.365  28.227  23.659  1.00  0.00     0.312 HD
ATOM     14  C   UNL A   1      32.954  25.347  21.149  1.00  0.00     0.005 A 
BRANCH   3  15
ATOM     15  C   UNL A   1      31.560  24.988  26.054  1.00  0.00     0.323 C 
ATOM     16  N   UNL A   1      32.291  23.853  26.204  1.00  0.00    -0.326 N 
ATOM     17  H   UNL A   1      31.814  23.239  26.808  1.00  0.00     0.166 HD
ATOM     18  O   UNL A   1      30.635  25.146  26.855  1.00  0.00    -0.248 OA
BRANCH  16  19
ATOM     19  C   UNL A   1      33.573  23.213  25.766  1.00  0.00     0.175 C 
BRANCH  19  20
ATOM     20  C   UNL A   1      34.137  21.981  26.530  1.00  0.00     0.243 C 
ATOM     21  N   UNL A   1      34.262  20.738  26.022  1.00  0.00    -0.346 N 
ATOM     22  H   UNL A   1      34.448  20.049  26.700  1.00  0.00     0.164 HD
ATOM     23  O   UNL A   1      34.362  22.074  27.747  1.00  0.00    -0.273 OA
BRANCH  21  24
ATOM     24  C   UNL A   1      34.174  20.215  24.659  1.00  0.00     0.128 C 
BRANCH  24  25
ATOM     25  C   UNL A   1      34.604  18.734  24.665  1.00  0.00     0.034 C 
BRANCH  25  26
ATOM     26  C   UNL A   1      33.598  17.659  24.196  1.00  0.00    -0.015 C 
ATOM     27  C   UNL A   1      34.122  16.685  23.162  1.00  0.00     0.007 C 
ATOM     28  C   UNL A   1      33.120  16.837  25.393  1.00  0.00     0.007 C 
ENDBRANCH  25  26
ENDBRANCH  24  25
BRANCH  24  29
ATOM     29  C   UNL A   1      32.713  20.467  24.235  1.00  0.00     0.064 C 
ATOM     30  O   UNL A   1      32.356  20.999  23.191  1.00  0.00    -0.548 OA
ATOM     31  O   UNL A   1      31.776  20.104  25.128  1.00  0.00    -0.548 OA
ENDBRANCH  24  29
ENDBRANCH  21  24
ENDBRANCH  19  20
BRANCH  19  32
ATOM     32  C   UNL A   1      34.699  24.144  25.265  1.00  0.00     0.015 C 
ATOM     33  C   UNL A   1      35.966  24.285  26.115  1.00  0.00     0.010 C 
ATOM     34  C   UNL A   1      35.120  23.702  23.858  1.00  0.00     0.010 C 
ENDBRANCH  19  32
ENDBRANCH  16  19
ENDBRANCH   3  15
ENDBRANCH   1   2
BRANCH   1  35
ATOM     35  C   UNL A   1      31.637  30.740  26.206  1.00  0.00     0.048 C 
BRANCH  35  36
ATOM     36  C   UNL A   1      31.438  32.125  26.806  1.00  0.00     0.025 C 
BRANCH  36  37
ATOM     37  C   UNL A   1      32.724  32.889  27.043  1.00  0.00     0.116 C 
BRANCH  37  38
ATOM     38  N   UNL A   1      32.514  34.168  27.705  1.00  0.00    -0.352 N 
ATOM     39  C   UNL A   1      33.178  34.704  28.785  1.00  0.00     0.251 C 
ATOM     40  H   UNL A   1      31.798  34.729  27.327  1.00  0.00     0.163 HD
ATOM     41  O   UNL A   1      32.783  35.742  29.295  1.00  0.00    -0.269 OA
BRANCH  39  42
ATOM     42  C   UNL A   1      34.355  33.999  29.345  1.00  0.00     0.039 A 
ATOM     43  C   UNL A   1      34.153  32.983  30.282  1.00  0.00     0.014 A 
ATOM     44  C   UNL A   1      35.651  34.334  28.946  1.00  0.00     0.014 A 
ATOM     45  C   UNL A   1      35.249  32.280  30.785  1.00  0.00     0.010 A 
ATOM     46  C   UNL A   1      36.725  33.558  29.354  1.00  0.00     0.010 A 
ATOM     47  C   UNL A   1      36.542  32.549  30.309  1.00  0.00    -0.014 A 
BRANCH  47  48
ATOM     48  C   UNL A   1      37.727  31.836  30.843  1.00  0.00     0.031 A 
ATOM     49  C   UNL A   1      38.244  32.175  32.215  1.00  0.00     0.074 A 
ATOM     50  C   UNL A   1      38.366  30.931  30.079  1.00  0.00     0.049 A 
ATOM     51  N   UNL A   1      39.282  31.695  32.852  1.00  0.00    -0.248 NA
ATOM     52  C   UNL A   1      37.521  33.221  32.958  1.00  0.00     0.031 C 
ATOM     53  C   UNL A   1      38.000  30.568  28.710  1.00  0.00     0.029 A 
ATOM     54  N   UNL A   1      39.464  30.154  30.348  1.00  0.00    -0.354 N 
ATOM     55  C   UNL A   1      39.345  32.395  34.051  1.00  0.00     0.074 A 
ATOM     56  C   UNL A   1      38.290  33.382  34.021  1.00  0.00     0.031 C 
ATOM     57  C   UNL A   1      38.837  29.615  28.270  1.00  0.00     0.029 A 
ATOM     58  C   UNL A   1      39.817  29.325  29.312  1.00  0.00     0.049 A 
ATOM     59  H   UNL A   1      39.951  30.188  31.202  1.00  0.00     0.167 HD
ATOM     60  C   UNL A   1      40.183  32.210  35.098  1.00  0.00     0.037 A 
ATOM     61  C   UNL A   1      40.818  28.430  29.217  1.00  0.00     0.037 A 
ATOM     62  C   UNL A   1      41.212  31.206  35.129  1.00  0.00     0.049 A 
ATOM     63  C   UNL A   1      41.725  28.225  30.399  1.00  0.00     0.074 A 
ATOM     64  C   UNL A   1      42.075  30.886  36.162  1.00  0.00     0.029 A 
ATOM     65  N   UNL A   1      41.519  30.362  34.071  1.00  0.00    -0.354 N 
ATOM     66  N   UNL A   1      41.724  28.834  31.561  1.00  0.00    -0.248 NA
ATOM     67  C   UNL A   1      42.762  27.194  30.263  1.00  0.00     0.031 C 
ATOM     68  C   UNL A   1      42.941  29.885  35.709  1.00  0.00     0.029 A 
ATOM     69  C   UNL A   1      42.575  29.535  34.419  1.00  0.00     0.049 A 
ATOM     70  H   UNL A   1      41.056  30.351  33.204  1.00  0.00     0.167 HD
ATOM     71  C   UNL A   1      42.734  28.240  32.306  1.00  0.00     0.074 A 
ATOM     72  C   UNL A   1      43.318  27.213  31.466  1.00  0.00     0.031 C 
ATOM     73  C   UNL A   1      43.140  28.515  33.570  1.00  0.00     0.037 A 
BRANCH  60  74
ATOM     74  C   UNL A   1      40.016  33.120  36.283  1.00  0.00     0.057 A 
ATOM     75  C   UNL A   1      40.762  34.300  36.429  1.00  0.00     0.134 A 
ATOM     76  C   UNL A   1      39.102  32.810  37.298  1.00  0.00     0.134 A 
ATOM     77  F   UNL A   1      41.667  34.652  35.503  1.00  0.00    -0.206 F 
ATOM     78  C   UNL A   1      40.635  35.113  37.557  1.00  0.00     0.040 A 
ATOM     79  C   UNL A   1      38.941  33.633  38.414  1.00  0.00     0.040 A 
ATOM     80  F   UNL A   1      38.352  31.702  37.224  1.00  0.00    -0.206 F 
ATOM     81  C   UNL A   1      39.718  34.782  38.552  1.00  0.00     0.006 A 
ENDBRANCH  60  74
BRANCH  61  82
ATOM     82  C   UNL A   1      40.982  27.635  27.975  1.00  0.00     0.057 A 
ATOM     83  C   UNL A   1      40.332  26.406  27.810  1.00  0.00     0.134 A 
ATOM     84  C   UNL A   1      41.777  28.090  26.916  1.00  0.00     0.134 A 
ATOM     85  F   UNL A   1      39.567  25.910  28.795  1.00  0.00    -0.206 F 
ATOM     86  C   UNL A   1      40.480  25.649  26.647  1.00  0.00     0.040 A 
ATOM     87  C   UNL A   1      41.913  27.355  25.737  1.00  0.00     0.040 A 
ATOM     88  F   UNL A   1      42.416  29.265  27.006  1.00  0.00    -0.206 F 
ATOM     89  C   UNL A   1      41.269  26.128  25.603  1.00  0.00     0.006 A 
ENDBRANCH  61  82
BRANCH  73  90
ATOM     90  C   UNL A   1      44.237  27.661  34.139  1.00  0.00     0.057 A 
ATOM     91  C   UNL A   1      45.584  28.039  34.081  1.00  0.00     0.134 A 
ATOM     92  C   UNL A   1      43.932  26.452  34.778  1.00  0.00     0.134 A 
ATOM     93  F   UNL A   1      45.946  29.179  33.475  1.00  0.00    -0.206 F 
ATOM     94  C   UNL A   1      46.591  27.228  34.609  1.00  0.00     0.040 A 
ATOM     95  C   UNL A   1      44.926  25.650  35.339  1.00  0.00     0.040 A 
ATOM     96  F   UNL A   1      42.660  26.036  34.881  1.00  0.00    -0.206 F 
ATOM     97  C   UNL A   1      46.262  26.032  35.245  1.00  0.00     0.006 A 
ENDBRANCH  73  90
ENDBRANCH  47  48
ENDBRANCH  39  42
ENDBRANCH  37  38
ENDBRANCH  36  37
ENDBRANCH  35  36
ENDBRANCH   1  35
TORSDOF 18
ENDMDL
