MODEL 1
REMARK VINA RESULT:     -13.3      0.000      0.000
REMARK SMILES Cc1ccc2c(CC(=O)N3CCC(C(=O)NCCCCNC(=O)c4ccc(-c5c6nc(c(-c7c(F)cccc7F)c7ccc([nH]7)c(-c7c(F)cccc7F)c7nc(c(-c8c(F)cccc8F)c8ccc5[nH]8)C=C7)C=C6)cc4)CC3)coc2c1
REMARK SMILES IDX 18 1 17 2 16 3 14 4 15 5 13 7 8 8 9 9 10 10 11 11 79 12
REMARK SMILES IDX 12 13 78 14 7 15 6 16 1 17 2 18 3 19 83 20 4 21 82 22 5 23
REMARK SMILES IDX 81 24 80 25 19 26 20 27 21 28 22 29 23 31 24 32 25 33 77 34
REMARK SMILES IDX 26 35 76 36 27 37 28 38 29 39 70 40 30 41 75 42 69 43 71 44
REMARK SMILES IDX 31 45 74 46 68 47 67 48 32 50 58 51 41 52 57 53 42 54 45 55
REMARK SMILES IDX 56 56 72 57 43 58 44 59 55 61 73 62 46 63 33 64 34 65 39 66
REMARK SMILES IDX 35 67 36 68 38 69 40 70 37 71 59 72 60 73 65 74 61 75 62 76
REMARK SMILES IDX 64 77 66 78 63 79 47 80 48 81 53 82 49 83 50 84 52 85 54 86
REMARK SMILES IDX 51 87
REMARK H PARENT 16 6 21 30 71 49 45 60
REMARK Flexibility Score: inf
ROOT
ATOM      1  C   UNL A   1      32.577  30.157  26.484  1.00  0.00     0.023 C 
ENDROOT
BRANCH   1   2
ATOM      2  C   UNL A   1      31.999  29.766  25.125  1.00  0.00     0.116 C 
BRANCH   2   3
ATOM      3  N   UNL A   1      33.043  29.555  24.136  1.00  0.00    -0.356 N 
ATOM      4  C   UNL A   1      33.495  28.409  23.557  1.00  0.00     0.223 C 
ATOM      5  O   UNL A   1      34.395  28.503  22.719  1.00  0.00    -0.275 OA
ATOM      6  H   UNL A   1      33.497  30.375  23.835  1.00  0.00     0.163 HD
BRANCH   4   7
ATOM      7  C   UNL A   1      32.902  27.052  23.904  1.00  0.00     0.082 C 
ATOM      8  C   UNL A   1      34.264  23.334  23.368  1.00  0.00     0.227 C 
ATOM      9  O   UNL A   1      34.578  23.354  22.172  1.00  0.00    -0.275 OA
ATOM     10  N   UNL A   1      33.299  24.206  23.861  1.00  0.00    -0.342 N 
ATOM     11  C   UNL A   1      32.314  24.764  22.945  1.00  0.00     0.120 C 
ATOM     12  C   UNL A   1      33.350  24.881  25.151  1.00  0.00     0.120 C 
ATOM     13  C   UNL A   1      32.575  26.232  22.647  1.00  0.00     0.035 C 
ATOM     14  C   UNL A   1      33.761  26.336  24.960  1.00  0.00     0.035 C 
BRANCH   8  15
ATOM     15  C   UNL A   1      34.750  22.182  24.246  1.00  0.00     0.139 C 
BRANCH  15  16
ATOM     16  C   UNL A   1      33.744  21.169  24.652  1.00  0.00     0.008 A 
ATOM     17  C   UNL A   1      33.356  15.490  24.982  1.00  0.00     0.044 C 
ATOM     18  C   UNL A   1      33.564  16.977  24.921  1.00  0.00    -0.047 A 
ATOM     19  C   UNL A   1      34.828  17.504  24.624  1.00  0.00     0.004 A 
ATOM     20  C   UNL A   1      32.476  17.836  25.158  1.00  0.00     0.051 A 
ATOM     21  C   UNL A   1      35.039  18.887  24.535  1.00  0.00     0.012 A 
ATOM     22  C   UNL A   1      32.718  19.204  25.062  1.00  0.00     0.134 A 
ATOM     23  C   UNL A   1      33.953  19.755  24.748  1.00  0.00     0.024 A 
ATOM     24  O   UNL A   1      31.794  20.191  25.231  1.00  0.00    -0.464 OA
ATOM     25  C   UNL A   1      32.422  21.373  24.998  1.00  0.00     0.200 A 
ENDBRANCH  15  16
ENDBRANCH   8  15
ENDBRANCH   4   7
ENDBRANCH   2   3
ENDBRANCH   1   2
BRANCH   1  26
ATOM     26  C   UNL A   1      33.240  29.009  27.255  1.00  0.00     0.023 C 
BRANCH  26  27
ATOM     27  C   UNL A   1      34.754  29.152  27.427  1.00  0.00     0.116 C 
BRANCH  27  28
ATOM     28  N   UNL A   1      35.136  29.839  28.645  1.00  0.00    -0.352 N 
ATOM     29  C   UNL A   1      36.295  29.999  29.341  1.00  0.00     0.251 C 
ATOM     30  H   UNL A   1      34.377  30.301  29.068  1.00  0.00     0.163 HD
ATOM     31  O   UNL A   1      36.246  30.779  30.299  1.00  0.00    -0.269 OA
BRANCH  29  32
ATOM     32  C   UNL A   1      37.559  29.264  29.084  1.00  0.00     0.039 A 
ATOM     33  C   UNL A   1      38.143  28.327  29.937  1.00  0.00     0.014 A 
ATOM     34  C   UNL A   1      38.250  29.644  27.918  1.00  0.00     0.014 A 
ATOM     35  C   UNL A   1      39.439  27.885  29.707  1.00  0.00     0.010 A 
ATOM     36  C   UNL A   1      39.536  29.193  27.673  1.00  0.00     0.010 A 
ATOM     37  C   UNL A   1      40.150  28.373  28.611  1.00  0.00    -0.014 A 
BRANCH  37  38
ATOM     38  C   UNL A   1      41.547  27.992  28.480  1.00  0.00     0.031 A 
ATOM     39  C   UNL A   1      41.795  26.708  27.768  1.00  0.00     0.074 A 
ATOM     40  C   UNL A   1      42.538  28.802  28.904  1.00  0.00     0.049 A 
ATOM     41  N   UNL A   1      42.373  25.640  28.212  1.00  0.00    -0.248 NA
ATOM     42  C   UNL A   1      41.226  26.557  26.419  1.00  0.00     0.031 C 
ATOM     43  C   UNL A   1      42.445  30.184  29.387  1.00  0.00     0.029 A 
ATOM     44  N   UNL A   1      43.877  28.573  28.904  1.00  0.00    -0.354 N 
ATOM     45  C   UNL A   1      42.388  24.732  27.152  1.00  0.00     0.074 A 
ATOM     46  C   UNL A   1      41.563  25.303  26.119  1.00  0.00     0.031 C 
ATOM     47  C   UNL A   1      43.679  30.737  29.401  1.00  0.00     0.029 A 
ATOM     48  C   UNL A   1      44.652  29.711  29.069  1.00  0.00     0.049 A 
ATOM     49  H   UNL A   1      44.265  27.675  28.796  1.00  0.00     0.167 HD
ATOM     50  C   UNL A   1      43.224  23.656  27.135  1.00  0.00     0.037 A 
ATOM     51  C   UNL A   1      45.991  29.803  28.872  1.00  0.00     0.037 A 
ATOM     52  C   UNL A   1      43.734  23.367  28.448  1.00  0.00     0.049 A 
ATOM     53  C   UNL A   1      46.544  28.425  28.911  1.00  0.00     0.074 A 
ATOM     54  C   UNL A   1      43.177  22.943  29.637  1.00  0.00     0.029 A 
ATOM     55  N   UNL A   1      44.987  23.827  28.766  1.00  0.00    -0.354 N 
ATOM     56  N   UNL A   1      46.592  27.700  29.994  1.00  0.00    -0.248 NA
ATOM     57  C   UNL A   1      46.595  27.682  27.660  1.00  0.00     0.031 C 
ATOM     58  C   UNL A   1      43.913  23.624  30.650  1.00  0.00     0.029 A 
ATOM     59  C   UNL A   1      44.906  24.375  30.018  1.00  0.00     0.049 A 
ATOM     60  H   UNL A   1      45.792  23.773  28.201  1.00  0.00     0.167 HD
ATOM     61  C   UNL A   1      46.254  26.419  29.581  1.00  0.00     0.074 A 
ATOM     62  C   UNL A   1      46.338  26.454  28.122  1.00  0.00     0.031 C 
ATOM     63  C   UNL A   1      45.660  25.533  30.434  1.00  0.00     0.037 A 
BRANCH  50  64
ATOM     64  C   UNL A   1      43.852  23.068  25.897  1.00  0.00     0.057 A 
ATOM     65  C   UNL A   1      44.789  23.746  25.094  1.00  0.00     0.134 A 
ATOM     66  C   UNL A   1      43.771  21.679  25.676  1.00  0.00     0.134 A 
ATOM     67  F   UNL A   1      45.023  25.058  25.220  1.00  0.00    -0.206 F 
ATOM     68  C   UNL A   1      45.618  23.090  24.180  1.00  0.00     0.040 A 
ATOM     69  C   UNL A   1      44.629  21.006  24.798  1.00  0.00     0.040 A 
ATOM     70  F   UNL A   1      42.911  20.919  26.371  1.00  0.00    -0.206 F 
ATOM     71  C   UNL A   1      45.569  21.711  24.057  1.00  0.00     0.006 A 
ENDBRANCH  50  64
BRANCH  51  72
ATOM     72  C   UNL A   1      46.745  30.954  28.326  1.00  0.00     0.057 A 
ATOM     73  C   UNL A   1      47.477  31.812  29.169  1.00  0.00     0.134 A 
ATOM     74  C   UNL A   1      46.563  31.396  27.010  1.00  0.00     0.134 A 
ATOM     75  F   UNL A   1      47.636  31.532  30.471  1.00  0.00    -0.206 F 
ATOM     76  C   UNL A   1      47.997  33.032  28.731  1.00  0.00     0.040 A 
ATOM     77  C   UNL A   1      47.076  32.620  26.558  1.00  0.00     0.040 A 
ATOM     78  F   UNL A   1      45.837  30.673  26.145  1.00  0.00    -0.206 F 
ATOM     79  C   UNL A   1      47.789  33.447  27.422  1.00  0.00     0.006 A 
ENDBRANCH  51  72
BRANCH  63  80
ATOM     80  C   UNL A   1      45.560  25.918  31.883  1.00  0.00     0.057 A 
ATOM     81  C   UNL A   1      44.429  26.611  32.326  1.00  0.00     0.134 A 
ATOM     82  C   UNL A   1      46.609  25.764  32.803  1.00  0.00     0.134 A 
ATOM     83  F   UNL A   1      43.414  26.856  31.481  1.00  0.00    -0.206 F 
ATOM     84  C   UNL A   1      44.337  27.116  33.624  1.00  0.00     0.040 A 
ATOM     85  C   UNL A   1      46.515  26.234  34.116  1.00  0.00     0.040 A 
ATOM     86  F   UNL A   1      47.773  25.213  32.439  1.00  0.00    -0.206 F 
ATOM     87  C   UNL A   1      45.377  26.918  34.529  1.00  0.00     0.006 A 
ENDBRANCH  63  80
ENDBRANCH  37  38
ENDBRANCH  29  32
ENDBRANCH  27  28
ENDBRANCH  26  27
ENDBRANCH   1  26
TORSDOF 13
ENDMDL
MODEL 2
REMARK VINA RESULT:     -13.1      3.387      8.282
REMARK SMILES Cc1ccc2c(CC(=O)N3CCC(C(=O)NCCCCNC(=O)c4ccc(-c5c6nc(c(-c7c(F)cccc7F)c7ccc([nH]7)c(-c7c(F)cccc7F)c7nc(c(-c8c(F)cccc8F)c8ccc5[nH]8)C=C7)C=C6)cc4)CC3)coc2c1
REMARK SMILES IDX 18 1 17 2 16 3 14 4 15 5 13 7 8 8 9 9 10 10 11 11 79 12
REMARK SMILES IDX 12 13 78 14 7 15 6 16 1 17 2 18 3 19 83 20 4 21 82 22 5 23
REMARK SMILES IDX 81 24 80 25 19 26 20 27 21 28 22 29 23 31 24 32 25 33 77 34
REMARK SMILES IDX 26 35 76 36 27 37 28 38 29 39 70 40 30 41 75 42 69 43 71 44
REMARK SMILES IDX 31 45 74 46 68 47 67 48 32 50 58 51 41 52 57 53 42 54 45 55
REMARK SMILES IDX 56 56 72 57 43 58 44 59 55 61 73 62 46 63 33 64 34 65 39 66
REMARK SMILES IDX 35 67 36 68 38 69 40 70 37 71 59 72 60 73 65 74 61 75 62 76
REMARK SMILES IDX 64 77 66 78 63 79 47 80 48 81 53 82 49 83 50 84 52 85 54 86
REMARK SMILES IDX 51 87
REMARK H PARENT 16 6 21 30 71 49 45 60
REMARK Flexibility Score: inf
ROOT
ATOM      1  C   UNL A   1      37.764  21.527  24.695  1.00  0.00     0.023 C 
ENDROOT
BRANCH   1   2
ATOM      2  C   UNL A   1      36.694  20.496  25.044  1.00  0.00     0.116 C 
BRANCH   2   3
ATOM      3  N   UNL A   1      35.710  21.032  25.971  1.00  0.00    -0.356 N 
ATOM      4  C   UNL A   1      34.577  21.749  25.742  1.00  0.00     0.223 C 
ATOM      5  O   UNL A   1      33.894  22.074  26.716  1.00  0.00    -0.275 OA
ATOM      6  H   UNL A   1      35.894  20.846  26.920  1.00  0.00     0.163 HD
BRANCH   4   7
ATOM      7  C   UNL A   1      34.140  22.122  24.333  1.00  0.00     0.082 C 
ATOM      8  C   UNL A   1      31.477  24.778  22.986  1.00  0.00     0.227 C 
ATOM      9  O   UNL A   1      30.482  24.501  23.667  1.00  0.00    -0.275 OA
ATOM     10  N   UNL A   1      32.456  23.822  22.741  1.00  0.00    -0.342 N 
ATOM     11  C   UNL A   1      32.105  22.411  22.825  1.00  0.00     0.120 C 
ATOM     12  C   UNL A   1      33.891  24.069  22.716  1.00  0.00     0.120 C 
ATOM     13  C   UNL A   1      32.672  21.752  24.072  1.00  0.00     0.035 C 
ATOM     14  C   UNL A   1      34.526  23.575  24.010  1.00  0.00     0.035 C 
BRANCH   8  15
ATOM     15  C   UNL A   1      31.501  26.091  22.205  1.00  0.00     0.139 C 
BRANCH  15  16
ATOM     16  C   UNL A   1      31.264  27.340  22.972  1.00  0.00     0.008 A 
ATOM     17  C   UNL A   1      33.699  30.192  27.267  1.00  0.00     0.044 C 
ATOM     18  C   UNL A   1      33.156  29.409  26.104  1.00  0.00    -0.047 A 
ATOM     19  C   UNL A   1      33.869  28.316  25.593  1.00  0.00     0.004 A 
ATOM     20  C   UNL A   1      31.924  29.780  25.538  1.00  0.00     0.051 A 
ATOM     21  C   UNL A   1      33.370  27.555  24.526  1.00  0.00     0.012 A 
ATOM     22  C   UNL A   1      31.456  29.004  24.480  1.00  0.00     0.134 A 
ATOM     23  C   UNL A   1      32.127  27.904  23.966  1.00  0.00     0.024 A 
ATOM     24  O   UNL A   1      30.279  29.186  23.818  1.00  0.00    -0.464 OA
ATOM     25  C   UNL A   1      30.177  28.189  22.900  1.00  0.00     0.200 A 
ENDBRANCH  15  16
ENDBRANCH   8  15
ENDBRANCH   4   7
ENDBRANCH   2   3
ENDBRANCH   1   2
BRANCH   1  26
ATOM     26  C   UNL A   1      38.392  22.238  25.900  1.00  0.00     0.023 C 
BRANCH  26  27
ATOM     27  C   UNL A   1      39.645  21.559  26.456  1.00  0.00     0.116 C 
BRANCH  27  28
ATOM     28  N   UNL A   1      40.876  22.040  25.860  1.00  0.00    -0.352 N 
ATOM     29  C   UNL A   1      41.656  23.145  26.014  1.00  0.00     0.251 C 
ATOM     30  H   UNL A   1      41.233  21.420  25.185  1.00  0.00     0.163 HD
ATOM     31  O   UNL A   1      42.726  23.141  25.394  1.00  0.00    -0.269 OA
BRANCH  29  32
ATOM     32  C   UNL A   1      41.289  24.354  26.794  1.00  0.00     0.039 A 
ATOM     33  C   UNL A   1      40.347  25.312  26.414  1.00  0.00     0.014 A 
ATOM     34  C   UNL A   1      42.045  24.572  27.961  1.00  0.00     0.014 A 
ATOM     35  C   UNL A   1      40.260  26.515  27.099  1.00  0.00     0.010 A 
ATOM     36  C   UNL A   1      41.950  25.763  28.659  1.00  0.00     0.010 A 
ATOM     37  C   UNL A   1      41.109  26.759  28.178  1.00  0.00    -0.014 A 
BRANCH  37  38
ATOM     38  C   UNL A   1      41.082  28.081  28.784  1.00  0.00     0.031 A 
ATOM     39  C   UNL A   1      42.197  28.986  28.392  1.00  0.00     0.074 A 
ATOM     40  C   UNL A   1      40.060  28.468  29.573  1.00  0.00     0.049 A 
ATOM     41  N   UNL A   1      43.092  29.533  29.150  1.00  0.00    -0.248 NA
ATOM     42  C   UNL A   1      42.408  29.224  26.956  1.00  0.00     0.031 C 
ATOM     43  C   UNL A   1      38.793  27.778  29.833  1.00  0.00     0.029 A 
ATOM     44  N   UNL A   1      39.910  29.636  30.251  1.00  0.00    -0.354 N 
ATOM     45  C   UNL A   1      43.887  30.316  28.312  1.00  0.00     0.074 A 
ATOM     46  C   UNL A   1      43.499  29.992  26.965  1.00  0.00     0.031 C 
ATOM     47  C   UNL A   1      37.923  28.639  30.408  1.00  0.00     0.029 A 
ATOM     48  C   UNL A   1      38.616  29.885  30.684  1.00  0.00     0.049 A 
ATOM     49  H   UNL A   1      40.658  30.254  30.421  1.00  0.00     0.167 HD
ATOM     50  C   UNL A   1      44.688  31.307  28.796  1.00  0.00     0.037 A 
ATOM     51  C   UNL A   1      38.146  31.063  31.164  1.00  0.00     0.037 A 
ATOM     52  C   UNL A   1      44.912  31.157  30.209  1.00  0.00     0.049 A 
ATOM     53  C   UNL A   1      39.318  31.874  31.583  1.00  0.00     0.074 A 
ATOM     54  C   UNL A   1      45.551  30.224  30.999  1.00  0.00     0.029 A 
ATOM     55  N   UNL A   1      44.147  31.910  31.064  1.00  0.00    -0.354 N 
ATOM     56  N   UNL A   1      40.073  31.575  32.604  1.00  0.00    -0.248 NA
ATOM     57  C   UNL A   1      39.934  32.737  30.585  1.00  0.00     0.031 C 
ATOM     58  C   UNL A   1      44.763  30.146  32.184  1.00  0.00     0.029 A 
ATOM     59  C   UNL A   1      43.727  31.074  32.064  1.00  0.00     0.049 A 
ATOM     60  H   UNL A   1      43.940  32.868  30.976  1.00  0.00     0.167 HD
ATOM     61  C   UNL A   1      41.367  31.849  32.184  1.00  0.00     0.074 A 
ATOM     62  C   UNL A   1      41.212  32.630  30.958  1.00  0.00     0.031 C 
ATOM     63  C   UNL A   1      42.436  31.177  32.702  1.00  0.00     0.037 A 
BRANCH  50  64
ATOM     64  C   UNL A   1      44.997  32.598  28.081  1.00  0.00     0.057 A 
ATOM     65  C   UNL A   1      46.125  32.789  27.259  1.00  0.00     0.134 A 
ATOM     66  C   UNL A   1      43.987  33.570  27.944  1.00  0.00     0.134 A 
ATOM     67  F   UNL A   1      47.146  31.925  27.232  1.00  0.00    -0.206 F 
ATOM     68  C   UNL A   1      46.220  33.835  26.336  1.00  0.00     0.040 A 
ATOM     69  C   UNL A   1      44.051  34.592  26.990  1.00  0.00     0.040 A 
ATOM     70  F   UNL A   1      42.865  33.506  28.677  1.00  0.00    -0.206 F 
ATOM     71  C   UNL A   1      45.166  34.717  26.170  1.00  0.00     0.006 A 
ENDBRANCH  50  64
BRANCH  51  72
ATOM     72  C   UNL A   1      36.798  31.643  30.970  1.00  0.00     0.057 A 
ATOM     73  C   UNL A   1      36.397  32.153  29.721  1.00  0.00     0.134 A 
ATOM     74  C   UNL A   1      35.966  31.949  32.054  1.00  0.00     0.134 A 
ATOM     75  F   UNL A   1      37.164  31.997  28.632  1.00  0.00    -0.206 F 
ATOM     76  C   UNL A   1      35.239  32.918  29.558  1.00  0.00     0.040 A 
ATOM     77  C   UNL A   1      34.804  32.720  31.905  1.00  0.00     0.040 A 
ATOM     78  F   UNL A   1      36.290  31.552  33.293  1.00  0.00    -0.206 F 
ATOM     79  C   UNL A   1      34.442  33.214  30.655  1.00  0.00     0.006 A 
ENDBRANCH  51  72
BRANCH  63  80
ATOM     80  C   UNL A   1      42.191  30.272  33.877  1.00  0.00     0.057 A 
ATOM     81  C   UNL A   1      42.479  30.736  35.164  1.00  0.00     0.134 A 
ATOM     82  C   UNL A   1      41.833  28.920  33.756  1.00  0.00     0.134 A 
ATOM     83  F   UNL A   1      42.892  32.000  35.349  1.00  0.00    -0.206 F 
ATOM     84  C   UNL A   1      42.403  29.901  36.281  1.00  0.00     0.040 A 
ATOM     85  C   UNL A   1      41.721  28.083  34.869  1.00  0.00     0.040 A 
ATOM     86  F   UNL A   1      41.648  28.359  32.556  1.00  0.00    -0.206 F 
ATOM     87  C   UNL A   1      42.011  28.572  36.138  1.00  0.00     0.006 A 
ENDBRANCH  63  80
ENDBRANCH  37  38
ENDBRANCH  29  32
ENDBRANCH  27  28
ENDBRANCH  26  27
ENDBRANCH   1  26
TORSDOF 13
ENDMDL
MODEL 3
REMARK VINA RESULT:     -13.0      1.385      2.123
REMARK SMILES Cc1ccc2c(CC(=O)N3CCC(C(=O)NCCCCNC(=O)c4ccc(-c5c6nc(c(-c7c(F)cccc7F)c7ccc([nH]7)c(-c7c(F)cccc7F)c7nc(c(-c8c(F)cccc8F)c8ccc5[nH]8)C=C7)C=C6)cc4)CC3)coc2c1
REMARK SMILES IDX 18 1 17 2 16 3 14 4 15 5 13 7 8 8 9 9 10 10 11 11 79 12
REMARK SMILES IDX 12 13 78 14 7 15 6 16 1 17 2 18 3 19 83 20 4 21 82 22 5 23
REMARK SMILES IDX 81 24 80 25 19 26 20 27 21 28 22 29 23 31 24 32 25 33 77 34
REMARK SMILES IDX 26 35 76 36 27 37 28 38 29 39 70 40 30 41 75 42 69 43 71 44
REMARK SMILES IDX 31 45 74 46 68 47 67 48 32 50 58 51 41 52 57 53 42 54 45 55
REMARK SMILES IDX 56 56 72 57 43 58 44 59 55 61 73 62 46 63 33 64 34 65 39 66
REMARK SMILES IDX 35 67 36 68 38 69 40 70 37 71 59 72 60 73 65 74 61 75 62 76
REMARK SMILES IDX 64 77 66 78 63 79 47 80 48 81 53 82 49 83 50 84 52 85 54 86
REMARK SMILES IDX 51 87
REMARK H PARENT 16 6 21 30 71 49 45 60
REMARK Flexibility Score: inf
ROOT
ATOM      1  C   UNL A   1      32.671  30.474  26.969  1.00  0.00     0.023 C 
ENDROOT
BRANCH   1   2
ATOM      2  C   UNL A   1      31.578  30.548  25.905  1.00  0.00     0.116 C 
BRANCH   2   3
ATOM      3  N   UNL A   1      32.042  30.054  24.620  1.00  0.00    -0.356 N 
ATOM      4  C   UNL A   1      31.757  28.899  23.959  1.00  0.00     0.223 C 
ATOM      5  O   UNL A   1      32.277  28.723  22.855  1.00  0.00    -0.275 OA
ATOM      6  H   UNL A   1      32.666  30.653  24.149  1.00  0.00     0.163 HD
BRANCH   4   7
ATOM      7  C   UNL A   1      30.808  27.861  24.540  1.00  0.00     0.082 C 
ATOM      8  C   UNL A   1      30.830  23.868  24.419  1.00  0.00     0.227 C 
ATOM      9  O   UNL A   1      30.983  23.656  23.210  1.00  0.00    -0.275 OA
ATOM     10  N   UNL A   1      30.264  25.058  24.863  1.00  0.00    -0.342 N 
ATOM     11  C   UNL A   1      29.405  25.813  23.962  1.00  0.00     0.120 C 
ATOM     12  C   UNL A   1      30.689  25.809  26.037  1.00  0.00     0.120 C 
ATOM     13  C   UNL A   1      30.083  27.070  23.441  1.00  0.00     0.035 C 
ATOM     14  C   UNL A   1      31.517  27.015  25.611  1.00  0.00     0.035 C 
BRANCH   8  15
ATOM     15  C   UNL A   1      31.027  22.718  25.406  1.00  0.00     0.139 C 
BRANCH  15  16
ATOM     16  C   UNL A   1      32.357  22.058  25.420  1.00  0.00     0.008 A 
ATOM     17  C   UNL A   1      37.837  23.592  25.767  1.00  0.00     0.044 C 
ATOM     18  C   UNL A   1      36.369  23.272  25.740  1.00  0.00    -0.047 A 
ATOM     19  C   UNL A   1      35.420  24.282  25.945  1.00  0.00     0.004 A 
ATOM     20  C   UNL A   1      35.956  21.949  25.502  1.00  0.00     0.051 A 
ATOM     21  C   UNL A   1      34.045  24.012  25.899  1.00  0.00     0.012 A 
ATOM     22  C   UNL A   1      34.584  21.713  25.461  1.00  0.00     0.134 A 
ATOM     23  C   UNL A   1      33.621  22.696  25.638  1.00  0.00     0.024 A 
ATOM     24  O   UNL A   1      33.989  20.511  25.220  1.00  0.00    -0.464 OA
ATOM     25  C   UNL A   1      32.646  20.723  25.212  1.00  0.00     0.200 A 
ENDBRANCH  15  16
ENDBRANCH   8  15
ENDBRANCH   4   7
ENDBRANCH   2   3
ENDBRANCH   1   2
BRANCH   1  26
ATOM     26  C   UNL A   1      33.995  29.866  26.491  1.00  0.00     0.023 C 
BRANCH  26  27
ATOM     27  C   UNL A   1      34.715  29.010  27.536  1.00  0.00     0.116 C 
BRANCH  27  28
ATOM     28  N   UNL A   1      35.120  29.753  28.712  1.00  0.00    -0.352 N 
ATOM     29  C   UNL A   1      36.296  29.958  29.368  1.00  0.00     0.251 C 
ATOM     30  H   UNL A   1      34.367  30.221  29.138  1.00  0.00     0.163 HD
ATOM     31  O   UNL A   1      36.262  30.777  30.294  1.00  0.00    -0.269 OA
BRANCH  29  32
ATOM     32  C   UNL A   1      37.564  29.232  29.104  1.00  0.00     0.039 A 
ATOM     33  C   UNL A   1      38.154  28.292  29.951  1.00  0.00     0.014 A 
ATOM     34  C   UNL A   1      38.252  29.623  27.940  1.00  0.00     0.014 A 
ATOM     35  C   UNL A   1      39.451  27.858  29.716  1.00  0.00     0.010 A 
ATOM     36  C   UNL A   1      39.540  29.181  27.691  1.00  0.00     0.010 A 
ATOM     37  C   UNL A   1      40.159  28.358  28.623  1.00  0.00    -0.014 A 
BRANCH  37  38
ATOM     38  C   UNL A   1      41.558  27.984  28.488  1.00  0.00     0.031 A 
ATOM     39  C   UNL A   1      41.811  26.703  27.773  1.00  0.00     0.074 A 
ATOM     40  C   UNL A   1      42.545  28.800  28.910  1.00  0.00     0.049 A 
ATOM     41  N   UNL A   1      42.397  25.637  28.215  1.00  0.00    -0.248 NA
ATOM     42  C   UNL A   1      41.239  26.551  26.426  1.00  0.00     0.031 C 
ATOM     43  C   UNL A   1      42.445  30.180  29.395  1.00  0.00     0.029 A 
ATOM     44  N   UNL A   1      43.885  28.579  28.907  1.00  0.00    -0.354 N 
ATOM     45  C   UNL A   1      42.414  24.732  27.154  1.00  0.00     0.074 A 
ATOM     46  C   UNL A   1      41.583  25.299  26.124  1.00  0.00     0.031 C 
ATOM     47  C   UNL A   1      43.676  30.741  29.407  1.00  0.00     0.029 A 
ATOM     48  C   UNL A   1      44.655  29.721  29.071  1.00  0.00     0.049 A 
ATOM     49  H   UNL A   1      44.278  27.683  28.796  1.00  0.00     0.167 HD
ATOM     50  C   UNL A   1      43.256  23.660  27.133  1.00  0.00     0.037 A 
ATOM     51  C   UNL A   1      45.992  29.821  28.871  1.00  0.00     0.037 A 
ATOM     52  C   UNL A   1      43.771  23.373  28.444  1.00  0.00     0.049 A 
ATOM     53  C   UNL A   1      46.553  28.446  28.907  1.00  0.00     0.074 A 
ATOM     54  C   UNL A   1      43.219  22.944  29.634  1.00  0.00     0.029 A 
ATOM     55  N   UNL A   1      45.023  23.839  28.760  1.00  0.00    -0.354 N 
ATOM     56  N   UNL A   1      46.608  27.720  29.989  1.00  0.00    -0.248 NA
ATOM     57  C   UNL A   1      46.605  27.704  27.655  1.00  0.00     0.031 C 
ATOM     58  C   UNL A   1      43.954  23.628  30.646  1.00  0.00     0.029 A 
ATOM     59  C   UNL A   1      44.941  24.386  30.012  1.00  0.00     0.049 A 
ATOM     60  H   UNL A   1      45.827  23.790  28.193  1.00  0.00     0.167 HD
ATOM     61  C   UNL A   1      46.277  26.437  29.575  1.00  0.00     0.074 A 
ATOM     62  C   UNL A   1      46.357  26.475  28.116  1.00  0.00     0.031 C 
ATOM     63  C   UNL A   1      45.690  25.547  30.428  1.00  0.00     0.037 A 
BRANCH  50  64
ATOM     64  C   UNL A   1      43.884  23.077  25.893  1.00  0.00     0.057 A 
ATOM     65  C   UNL A   1      44.816  23.761  25.089  1.00  0.00     0.134 A 
ATOM     66  C   UNL A   1      43.809  21.688  25.669  1.00  0.00     0.134 A 
ATOM     67  F   UNL A   1      45.045  25.073  25.217  1.00  0.00    -0.206 F 
ATOM     68  C   UNL A   1      45.647  23.111  24.172  1.00  0.00     0.040 A 
ATOM     69  C   UNL A   1      44.669  21.021  24.789  1.00  0.00     0.040 A 
ATOM     70  F   UNL A   1      42.954  20.923  26.365  1.00  0.00    -0.206 F 
ATOM     71  C   UNL A   1      45.604  21.732  24.047  1.00  0.00     0.006 A 
ENDBRANCH  50  64
BRANCH  51  72
ATOM     72  C   UNL A   1      46.739  30.977  28.325  1.00  0.00     0.057 A 
ATOM     73  C   UNL A   1      47.443  31.855  29.169  1.00  0.00     0.134 A 
ATOM     74  C   UNL A   1      46.572  31.401  27.000  1.00  0.00     0.134 A 
ATOM     75  F   UNL A   1      47.585  31.591  30.477  1.00  0.00    -0.206 F 
ATOM     76  C   UNL A   1      47.953  33.078  28.726  1.00  0.00     0.040 A 
ATOM     77  C   UNL A   1      47.074  32.627  26.543  1.00  0.00     0.040 A 
ATOM     78  F   UNL A   1      45.871  30.658  26.132  1.00  0.00    -0.206 F 
ATOM     79  C   UNL A   1      47.760  33.474  27.410  1.00  0.00     0.006 A 
ENDBRANCH  51  72
BRANCH  63  80
ATOM     80  C   UNL A   1      45.591  25.930  31.878  1.00  0.00     0.057 A 
ATOM     81  C   UNL A   1      44.459  26.620  32.323  1.00  0.00     0.134 A 
ATOM     82  C   UNL A   1      46.641  25.776  32.797  1.00  0.00     0.134 A 
ATOM     83  F   UNL A   1      43.443  26.865  31.481  1.00  0.00    -0.206 F 
ATOM     84  C   UNL A   1      44.368  27.123  33.623  1.00  0.00     0.040 A 
ATOM     85  C   UNL A   1      46.549  26.244  34.110  1.00  0.00     0.040 A 
ATOM     86  F   UNL A   1      47.805  25.228  32.430  1.00  0.00    -0.206 F 
ATOM     87  C   UNL A   1      45.410  26.926  34.526  1.00  0.00     0.006 A 
ENDBRANCH  63  80
ENDBRANCH  37  38
ENDBRANCH  29  32
ENDBRANCH  27  28
ENDBRANCH  26  27
ENDBRANCH   1  26
TORSDOF 13
ENDMDL
