MODEL 1
REMARK VINA RESULT:     -13.1      0.000      0.000
REMARK SMILES O=C(NCCCCNC(=O)c1ccc2nc(-c3c[nH]nc3-c3ccc(F)cc3F)[nH]c2c1)c1ccc(-c2c3nc(c(-c4c(F)cccc4F)c4ccc([nH]4)c(-c4c(F)cccc4F)c4nc(c(-c5c(F)cccc5F)c5ccc2[nH]5)C=C4)C=C3)cc1
REMARK SMILES IDX 5 1 4 2 3 3 1 4 2 5 33 7 34 8 86 9 35 10 85 11 36 12 37 13
REMARK SMILES IDX 38 14 79 15 39 16 84 17 78 18 80 19 40 20 83 21 77 22 76 23
REMARK SMILES IDX 41 25 67 26 50 27 66 28 51 29 54 30 65 31 81 32 52 33 53 34
REMARK SMILES IDX 64 36 82 37 55 38 42 39 43 40 48 41 44 42 45 43 47 44 49 45
REMARK SMILES IDX 46 46 68 47 69 48 74 49 70 50 71 51 73 52 75 53 72 54 56 55
REMARK SMILES IDX 57 56 62 57 58 58 59 59 61 60 63 61 60 62 6 63 7 64 8 65
REMARK SMILES IDX 9 66 10 68 11 69 12 70 32 71 13 72 31 73 14 74 30 75 15 76
REMARK SMILES IDX 16 77 17 79 18 80 21 81 19 82 20 83 22 85 23 86 28 87 24 88
REMARK SMILES IDX 27 89 29 90 25 91 26 92
REMARK H PARENT 3 6 80 24 54 35 8 67 30 78 19 84
REMARK Flexibility Score: inf
ROOT
ATOM      1  C   UNL A   1      37.802  20.061  24.664  1.00  0.00     0.023 C 
ENDROOT
BRANCH   1   2
ATOM      2  C   UNL A   1      38.740  20.176  25.858  1.00  0.00     0.116 C 
BRANCH   2   3
ATOM      3  N   UNL A   1      39.869  19.263  25.782  1.00  0.00    -0.352 N 
ATOM      4  O   UNL A   1      42.038  18.640  25.798  1.00  0.00    -0.269 OA
ATOM      5  C   UNL A   1      41.196  19.498  26.046  1.00  0.00     0.251 C 
ATOM      6  H   UNL A   1      39.651  18.344  25.501  1.00  0.00     0.163 HD
BRANCH   5   7
ATOM      7  C   UNL A   1      41.615  20.801  26.605  1.00  0.00     0.039 A 
ATOM      8  C   UNL A   1      41.586  21.029  27.983  1.00  0.00     0.014 A 
ATOM      9  C   UNL A   1      42.038  21.810  25.735  1.00  0.00     0.014 A 
ATOM     10  C   UNL A   1      41.839  22.303  28.476  1.00  0.00     0.010 A 
ATOM     11  C   UNL A   1      42.374  23.069  26.241  1.00  0.00     0.010 A 
ATOM     12  C   UNL A   1      42.248  23.334  27.613  1.00  0.00    -0.014 A 
BRANCH  12  13
ATOM     13  C   UNL A   1      42.591  24.661  28.181  1.00  0.00     0.031 A 
ATOM     14  C   UNL A   1      44.013  25.030  28.498  1.00  0.00     0.074 A 
ATOM     15  C   UNL A   1      41.602  25.556  28.367  1.00  0.00     0.049 A 
ATOM     16  N   UNL A   1      44.482  26.154  28.978  1.00  0.00    -0.248 NA
ATOM     17  C   UNL A   1      45.043  24.010  28.247  1.00  0.00     0.031 C 
ATOM     18  C   UNL A   1      40.184  25.311  28.089  1.00  0.00     0.029 A 
ATOM     19  N   UNL A   1      41.635  26.855  28.802  1.00  0.00    -0.354 N 
ATOM     20  C   UNL A   1      45.854  25.976  29.094  1.00  0.00     0.074 A 
ATOM     21  C   UNL A   1      46.143  24.626  28.661  1.00  0.00     0.031 C 
ATOM     22  C   UNL A   1      39.493  26.440  28.303  1.00  0.00     0.029 A 
ATOM     23  C   UNL A   1      40.405  27.467  28.793  1.00  0.00     0.049 A 
ATOM     24  H   UNL A   1      42.460  27.307  29.094  1.00  0.00     0.167 HD
ATOM     25  C   UNL A   1      46.788  26.864  29.515  1.00  0.00     0.037 A 
ATOM     26  C   UNL A   1      40.046  28.713  29.149  1.00  0.00     0.037 A 
ATOM     27  C   UNL A   1      46.497  28.211  29.935  1.00  0.00     0.049 A 
ATOM     28  C   UNL A   1      41.095  29.660  29.652  1.00  0.00     0.074 A 
ATOM     29  C   UNL A   1      47.378  29.186  30.373  1.00  0.00     0.029 A 
ATOM     30  N   UNL A   1      45.230  28.775  29.965  1.00  0.00    -0.354 N 
ATOM     31  N   UNL A   1      42.388  29.474  29.759  1.00  0.00    -0.248 NA
ATOM     32  C   UNL A   1      40.636  30.983  30.095  1.00  0.00     0.031 C 
ATOM     33  C   UNL A   1      46.640  30.327  30.701  1.00  0.00     0.029 A 
ATOM     34  C   UNL A   1      45.305  30.078  30.429  1.00  0.00     0.049 A 
ATOM     35  H   UNL A   1      44.401  28.317  29.696  1.00  0.00     0.167 HD
ATOM     36  C   UNL A   1      42.898  30.658  30.272  1.00  0.00     0.074 A 
ATOM     37  C   UNL A   1      41.779  31.562  30.435  1.00  0.00     0.031 C 
ATOM     38  C   UNL A   1      44.180  30.965  30.585  1.00  0.00     0.037 A 
BRANCH  25  39
ATOM     39  C   UNL A   1      48.218  26.413  29.549  1.00  0.00     0.057 A 
ATOM     40  C   UNL A   1      48.755  25.816  30.697  1.00  0.00     0.134 A 
ATOM     41  C   UNL A   1      49.086  26.643  28.474  1.00  0.00     0.134 A 
ATOM     42  F   UNL A   1      47.979  25.576  31.765  1.00  0.00    -0.206 F 
ATOM     43  C   UNL A   1      50.106  25.475  30.780  1.00  0.00     0.040 A 
ATOM     44  C   UNL A   1      50.435  26.288  28.538  1.00  0.00     0.040 A 
ATOM     45  F   UNL A   1      48.633  27.202  27.342  1.00  0.00    -0.206 F 
ATOM     46  C   UNL A   1      50.950  25.711  29.697  1.00  0.00     0.006 A 
ENDBRANCH  25  39
BRANCH  26  47
ATOM     47  C   UNL A   1      38.628  29.131  29.035  1.00  0.00     0.057 A 
ATOM     48  C   UNL A   1      38.108  29.637  27.837  1.00  0.00     0.134 A 
ATOM     49  C   UNL A   1      37.766  29.061  30.134  1.00  0.00     0.134 A 
ATOM     50  F   UNL A   1      38.888  29.736  26.750  1.00  0.00    -0.206 F 
ATOM     51  C   UNL A   1      36.789  30.078  27.742  1.00  0.00     0.040 A 
ATOM     52  C   UNL A   1      36.436  29.475  30.047  1.00  0.00     0.040 A 
ATOM     53  F   UNL A   1      38.202  28.570  31.304  1.00  0.00    -0.206 F 
ATOM     54  C   UNL A   1      35.947  29.993  28.849  1.00  0.00     0.006 A 
ENDBRANCH  26  47
BRANCH  38  55
ATOM     55  C   UNL A   1      44.442  32.338  31.122  1.00  0.00     0.057 A 
ATOM     56  C   UNL A   1      44.733  33.400  30.256  1.00  0.00     0.134 A 
ATOM     57  C   UNL A   1      44.455  32.598  32.497  1.00  0.00     0.134 A 
ATOM     58  F   UNL A   1      44.743  33.213  28.928  1.00  0.00    -0.206 F 
ATOM     59  C   UNL A   1      45.034  34.673  30.743  1.00  0.00     0.040 A 
ATOM     60  C   UNL A   1      44.734  33.871  32.995  1.00  0.00     0.040 A 
ATOM     61  F   UNL A   1      44.172  31.624  33.376  1.00  0.00    -0.206 F 
ATOM     62  C   UNL A   1      45.032  34.911  32.115  1.00  0.00     0.006 A 
ENDBRANCH  38  55
ENDBRANCH  12  13
ENDBRANCH   5   7
ENDBRANCH   2   3
ENDBRANCH   1   2
BRANCH   1  63
ATOM     63  C   UNL A   1      36.842  21.234  24.475  1.00  0.00     0.023 C 
BRANCH  63  64
ATOM     64  C   UNL A   1      35.740  21.340  25.526  1.00  0.00     0.116 C 
BRANCH  64  65
ATOM     65  N   UNL A   1      34.806  20.229  25.449  1.00  0.00    -0.352 N 
ATOM     66  C   UNL A   1      33.449  20.244  25.630  1.00  0.00     0.251 C 
ATOM     67  H   UNL A   1      35.201  19.352  25.241  1.00  0.00     0.163 HD
ATOM     68  O   UNL A   1      32.806  19.203  25.696  1.00  0.00    -0.269 OA
BRANCH  66  69
ATOM     69  C   UNL A   1      32.763  21.541  25.757  1.00  0.00     0.042 A 
ATOM     70  C   UNL A   1      32.925  22.294  26.929  1.00  0.00     0.016 A 
ATOM     71  C   UNL A   1      31.972  21.979  24.687  1.00  0.00     0.042 A 
ATOM     72  C   UNL A   1      32.289  23.530  27.063  1.00  0.00     0.031 A 
ATOM     73  C   UNL A   1      31.332  23.204  24.866  1.00  0.00     0.067 A 
ATOM     74  C   UNL A   1      31.501  23.992  26.000  1.00  0.00     0.089 A 
ATOM     75  N   UNL A   1      30.459  23.922  24.086  1.00  0.00    -0.338 N 
ATOM     76  N   UNL A   1      30.848  25.184  25.864  1.00  0.00    -0.228 NA
ATOM     77  C   UNL A   1      30.238  25.128  24.698  1.00  0.00     0.142 A 
ATOM     78  H   UNL A   1      30.062  23.622  23.236  1.00  0.00     0.168 HD
BRANCH  77  79
ATOM     79  C   UNL A   1      29.472  26.253  24.123  1.00  0.00     0.063 A 
ATOM     80  C   UNL A   1      28.109  26.325  23.963  1.00  0.00     0.117 A 
ATOM     81  C   UNL A   1      29.992  27.468  23.595  1.00  0.00     0.106 A 
ATOM     82  N   UNL A   1      27.876  27.570  23.455  1.00  0.00    -0.284 N 
ATOM     83  N   UNL A   1      28.992  28.262  23.177  1.00  0.00    -0.175 NA
ATOM     84  H   UNL A   1      26.971  27.928  23.307  1.00  0.00     0.189 HD
BRANCH  81  85
ATOM     85  C   UNL A   1      31.389  27.804  23.347  1.00  0.00     0.039 A 
ATOM     86  C   UNL A   1      32.009  28.796  24.131  1.00  0.00     0.016 A 
ATOM     87  C   UNL A   1      32.135  27.171  22.350  1.00  0.00     0.135 A 
ATOM     88  C   UNL A   1      33.338  29.150  23.905  1.00  0.00     0.040 A 
ATOM     89  C   UNL A   1      33.467  27.517  22.125  1.00  0.00     0.079 A 
ATOM     90  F   UNL A   1      31.584  26.231  21.567  1.00  0.00    -0.206 F 
ATOM     91  C   UNL A   1      34.054  28.506  22.904  1.00  0.00     0.126 A 
ATOM     92  F   UNL A   1      35.331  28.847  22.687  1.00  0.00    -0.207 F 
ENDBRANCH  81  85
ENDBRANCH  77  79
ENDBRANCH  66  69
ENDBRANCH  64  65
ENDBRANCH  63  64
ENDBRANCH   1  63
TORSDOF 13
ENDMDL
MODEL 2
REMARK VINA RESULT:     -13.0      0.544      1.721
REMARK SMILES O=C(NCCCCNC(=O)c1ccc2nc(-c3c[nH]nc3-c3ccc(F)cc3F)[nH]c2c1)c1ccc(-c2c3nc(c(-c4c(F)cccc4F)c4ccc([nH]4)c(-c4c(F)cccc4F)c4nc(c(-c5c(F)cccc5F)c5ccc2[nH]5)C=C4)C=C3)cc1
REMARK SMILES IDX 5 1 4 2 3 3 1 4 2 5 33 7 34 8 86 9 35 10 85 11 36 12 37 13
REMARK SMILES IDX 38 14 79 15 39 16 84 17 78 18 80 19 40 20 83 21 77 22 76 23
REMARK SMILES IDX 41 25 67 26 50 27 66 28 51 29 54 30 65 31 81 32 52 33 53 34
REMARK SMILES IDX 64 36 82 37 55 38 42 39 43 40 48 41 44 42 45 43 47 44 49 45
REMARK SMILES IDX 46 46 68 47 69 48 74 49 70 50 71 51 73 52 75 53 72 54 56 55
REMARK SMILES IDX 57 56 62 57 58 58 59 59 61 60 63 61 60 62 6 63 7 64 8 65
REMARK SMILES IDX 9 66 10 68 11 69 12 70 32 71 13 72 31 73 14 74 30 75 15 76
REMARK SMILES IDX 16 77 17 79 18 80 21 81 19 82 20 83 22 85 23 86 28 87 24 88
REMARK SMILES IDX 27 89 29 90 25 91 26 92
REMARK H PARENT 3 6 80 24 54 35 8 67 30 78 19 84
REMARK Flexibility Score: inf
ROOT
ATOM      1  C   UNL A   1      37.742  20.061  24.711  1.00  0.00     0.023 C 
ENDROOT
BRANCH   1   2
ATOM      2  C   UNL A   1      38.727  20.250  25.856  1.00  0.00     0.116 C 
BRANCH   2   3
ATOM      3  N   UNL A   1      39.840  19.316  25.807  1.00  0.00    -0.352 N 
ATOM      4  O   UNL A   1      41.997  18.656  25.853  1.00  0.00    -0.269 OA
ATOM      5  C   UNL A   1      41.169  19.533  26.078  1.00  0.00     0.251 C 
ATOM      6  H   UNL A   1      39.608  18.397  25.542  1.00  0.00     0.163 HD
BRANCH   5   7
ATOM      7  C   UNL A   1      41.605  20.839  26.616  1.00  0.00     0.039 A 
ATOM      8  C   UNL A   1      41.516  21.113  27.983  1.00  0.00     0.014 A 
ATOM      9  C   UNL A   1      42.107  21.804  25.738  1.00  0.00     0.014 A 
ATOM     10  C   UNL A   1      41.791  22.393  28.449  1.00  0.00     0.010 A 
ATOM     11  C   UNL A   1      42.462  23.066  26.221  1.00  0.00     0.010 A 
ATOM     12  C   UNL A   1      42.278  23.381  27.575  1.00  0.00    -0.014 A 
BRANCH  12  13
ATOM     13  C   UNL A   1      42.640  24.713  28.119  1.00  0.00     0.031 A 
ATOM     14  C   UNL A   1      44.072  25.088  28.375  1.00  0.00     0.074 A 
ATOM     15  C   UNL A   1      41.656  25.607  28.337  1.00  0.00     0.049 A 
ATOM     16  N   UNL A   1      44.557  26.217  28.827  1.00  0.00    -0.248 NA
ATOM     17  C   UNL A   1      45.094  24.069  28.091  1.00  0.00     0.031 C 
ATOM     18  C   UNL A   1      40.229  25.356  28.119  1.00  0.00     0.029 A 
ATOM     19  N   UNL A   1      41.703  26.910  28.760  1.00  0.00    -0.354 N 
ATOM     20  C   UNL A   1      45.933  26.044  28.889  1.00  0.00     0.074 A 
ATOM     21  C   UNL A   1      46.208  24.691  28.456  1.00  0.00     0.031 C 
ATOM     22  C   UNL A   1      39.544  26.485  28.352  1.00  0.00     0.029 A 
ATOM     23  C   UNL A   1      40.472  27.518  28.796  1.00  0.00     0.049 A 
ATOM     24  H   UNL A   1      42.538  27.366  29.015  1.00  0.00     0.167 HD
ATOM     25  C   UNL A   1      46.880  26.938  29.264  1.00  0.00     0.037 A 
ATOM     26  C   UNL A   1      40.124  28.766  29.156  1.00  0.00     0.037 A 
ATOM     27  C   UNL A   1      46.603  28.288  29.685  1.00  0.00     0.049 A 
ATOM     28  C   UNL A   1      41.189  29.720  29.608  1.00  0.00     0.074 A 
ATOM     29  C   UNL A   1      47.497  29.268  30.079  1.00  0.00     0.029 A 
ATOM     30  N   UNL A   1      45.336  28.848  29.762  1.00  0.00    -0.354 N 
ATOM     31  N   UNL A   1      42.486  29.539  29.665  1.00  0.00    -0.248 NA
ATOM     32  C   UNL A   1      40.744  31.045  30.059  1.00  0.00     0.031 C 
ATOM     33  C   UNL A   1      46.770  30.411  30.428  1.00  0.00     0.029 A 
ATOM     34  C   UNL A   1      45.426  30.156  30.211  1.00  0.00     0.049 A 
ATOM     35  H   UNL A   1      44.499  28.386  29.530  1.00  0.00     0.167 HD
ATOM     36  C   UNL A   1      43.013  30.728  30.147  1.00  0.00     0.074 A 
ATOM     37  C   UNL A   1      41.898  31.630  30.348  1.00  0.00     0.031 C 
ATOM     38  C   UNL A   1      44.306  31.040  30.406  1.00  0.00     0.037 A 
BRANCH  25  39
ATOM     39  C   UNL A   1      48.312  26.491  29.244  1.00  0.00     0.057 A 
ATOM     40  C   UNL A   1      49.094  26.643  28.092  1.00  0.00     0.134 A 
ATOM     41  C   UNL A   1      48.892  25.837  30.338  1.00  0.00     0.134 A 
ATOM     42  F   UNL A   1      48.596  27.253  27.006  1.00  0.00    -0.206 F 
ATOM     43  C   UNL A   1      50.399  26.150  28.025  1.00  0.00     0.040 A 
ATOM     44  C   UNL A   1      50.204  25.358  30.290  1.00  0.00     0.040 A 
ATOM     45  F   UNL A   1      48.200  25.669  31.475  1.00  0.00    -0.206 F 
ATOM     46  C   UNL A   1      50.957  25.506  29.127  1.00  0.00     0.006 A 
ENDBRANCH  25  39
BRANCH  26  47
ATOM     47  C   UNL A   1      38.701  29.179  29.095  1.00  0.00     0.057 A 
ATOM     48  C   UNL A   1      37.862  29.083  30.213  1.00  0.00     0.134 A 
ATOM     49  C   UNL A   1      38.138  29.650  27.904  1.00  0.00     0.134 A 
ATOM     50  F   UNL A   1      38.342  28.630  31.381  1.00  0.00    -0.206 F 
ATOM     51  C   UNL A   1      36.512  29.421  30.144  1.00  0.00     0.040 A 
ATOM     52  C   UNL A   1      36.793  30.016  27.827  1.00  0.00     0.040 A 
ATOM     53  F   UNL A   1      38.895  29.779  26.805  1.00  0.00    -0.206 F 
ATOM     54  C   UNL A   1      35.975  29.894  28.949  1.00  0.00     0.006 A 
ENDBRANCH  26  47
BRANCH  38  55
ATOM     55  C   UNL A   1      44.585  32.419  30.920  1.00  0.00     0.057 A 
ATOM     56  C   UNL A   1      44.597  32.680  32.296  1.00  0.00     0.134 A 
ATOM     57  C   UNL A   1      44.793  33.497  30.052  1.00  0.00     0.134 A 
ATOM     58  F   UNL A   1      44.397  31.690  33.179  1.00  0.00    -0.206 F 
ATOM     59  C   UNL A   1      44.800  33.969  32.790  1.00  0.00     0.040 A 
ATOM     60  C   UNL A   1      45.018  34.787  30.534  1.00  0.00     0.040 A 
ATOM     61  F   UNL A   1      44.806  33.308  28.724  1.00  0.00    -0.206 F 
ATOM     62  C   UNL A   1      45.015  35.026  31.908  1.00  0.00     0.006 A 
ENDBRANCH  38  55
ENDBRANCH  12  13
ENDBRANCH   5   7
ENDBRANCH   2   3
ENDBRANCH   1   2
BRANCH   1  63
ATOM     63  C   UNL A   1      36.705  21.172  24.553  1.00  0.00     0.023 C 
BRANCH  63  64
ATOM     64  C   UNL A   1      35.655  21.235  25.659  1.00  0.00     0.116 C 
BRANCH  64  65
ATOM     65  N   UNL A   1      34.685  20.158  25.549  1.00  0.00    -0.352 N 
ATOM     66  C   UNL A   1      33.323  20.222  25.682  1.00  0.00     0.251 C 
ATOM     67  H   UNL A   1      35.054  19.267  25.355  1.00  0.00     0.163 HD
ATOM     68  O   UNL A   1      32.642  19.205  25.726  1.00  0.00    -0.269 OA
BRANCH  66  69
ATOM     69  C   UNL A   1      32.681  21.543  25.785  1.00  0.00     0.042 A 
ATOM     70  C   UNL A   1      32.915  22.337  26.917  1.00  0.00     0.016 A 
ATOM     71  C   UNL A   1      31.856  21.962  24.732  1.00  0.00     0.042 A 
ATOM     72  C   UNL A   1      32.321  23.596  27.027  1.00  0.00     0.031 A 
ATOM     73  C   UNL A   1      31.259  23.212  24.888  1.00  0.00     0.067 A 
ATOM     74  C   UNL A   1      31.500  24.039  25.980  1.00  0.00     0.089 A 
ATOM     75  N   UNL A   1      30.375  23.925  24.117  1.00  0.00    -0.338 N 
ATOM     76  N   UNL A   1      30.876  25.243  25.823  1.00  0.00    -0.228 NA
ATOM     77  C   UNL A   1      30.215  25.160  24.688  1.00  0.00     0.142 A 
ATOM     78  H   UNL A   1      29.932  23.603  23.298  1.00  0.00     0.168 HD
BRANCH  77  79
ATOM     79  C   UNL A   1      29.456  26.283  24.100  1.00  0.00     0.063 A 
ATOM     80  C   UNL A   1      28.098  26.347  23.905  1.00  0.00     0.117 A 
ATOM     81  C   UNL A   1      29.981  27.506  23.595  1.00  0.00     0.106 A 
ATOM     82  N   UNL A   1      27.869  27.595  23.399  1.00  0.00    -0.284 N 
ATOM     83  N   UNL A   1      28.987  28.296  23.156  1.00  0.00    -0.175 NA
ATOM     84  H   UNL A   1      26.966  27.948  23.229  1.00  0.00     0.189 HD
BRANCH  81  85
ATOM     85  C   UNL A   1      31.382  27.853  23.387  1.00  0.00     0.039 A 
ATOM     86  C   UNL A   1      32.124  27.167  22.407  1.00  0.00     0.016 A 
ATOM     87  C   UNL A   1      32.015  28.847  24.137  1.00  0.00     0.135 A 
ATOM     88  C   UNL A   1      33.471  27.465  22.199  1.00  0.00     0.040 A 
ATOM     89  C   UNL A   1      33.359  29.154  23.928  1.00  0.00     0.079 A 
ATOM     90  F   UNL A   1      31.354  29.517  25.093  1.00  0.00    -0.206 F 
ATOM     91  C   UNL A   1      34.074  28.457  22.962  1.00  0.00     0.126 A 
ATOM     92  F   UNL A   1      35.367  28.743  22.762  1.00  0.00    -0.207 F 
ENDBRANCH  81  85
ENDBRANCH  77  79
ENDBRANCH  66  69
ENDBRANCH  64  65
ENDBRANCH  63  64
ENDBRANCH   1  63
TORSDOF 13
ENDMDL
MODEL 3
REMARK VINA RESULT:     -12.9      0.247      6.117
REMARK SMILES O=C(NCCCCNC(=O)c1ccc2nc(-c3c[nH]nc3-c3ccc(F)cc3F)[nH]c2c1)c1ccc(-c2c3nc(c(-c4c(F)cccc4F)c4ccc([nH]4)c(-c4c(F)cccc4F)c4nc(c(-c5c(F)cccc5F)c5ccc2[nH]5)C=C4)C=C3)cc1
REMARK SMILES IDX 5 1 4 2 3 3 1 4 2 5 33 7 34 8 86 9 35 10 85 11 36 12 37 13
REMARK SMILES IDX 38 14 79 15 39 16 84 17 78 18 80 19 40 20 83 21 77 22 76 23
REMARK SMILES IDX 41 25 67 26 50 27 66 28 51 29 54 30 65 31 81 32 52 33 53 34
REMARK SMILES IDX 64 36 82 37 55 38 42 39 43 40 48 41 44 42 45 43 47 44 49 45
REMARK SMILES IDX 46 46 68 47 69 48 74 49 70 50 71 51 73 52 75 53 72 54 56 55
REMARK SMILES IDX 57 56 62 57 58 58 59 59 61 60 63 61 60 62 6 63 7 64 8 65
REMARK SMILES IDX 9 66 10 68 11 69 12 70 32 71 13 72 31 73 14 74 30 75 15 76
REMARK SMILES IDX 16 77 17 79 18 80 21 81 19 82 20 83 22 85 23 86 28 87 24 88
REMARK SMILES IDX 27 89 29 90 25 91 26 92
REMARK H PARENT 3 6 80 24 54 35 8 67 30 78 19 84
REMARK Flexibility Score: inf
ROOT
ATOM      1  C   UNL A   1      37.771  19.737  24.986  1.00  0.00     0.023 C 
ENDROOT
BRANCH   1   2
ATOM      2  C   UNL A   1      38.955  20.238  25.802  1.00  0.00     0.116 C 
BRANCH   2   3
ATOM      3  N   UNL A   1      40.079  19.316  25.794  1.00  0.00    -0.352 N 
ATOM      4  O   UNL A   1      42.243  18.681  25.895  1.00  0.00    -0.269 OA
ATOM      5  C   UNL A   1      41.401  19.554  26.085  1.00  0.00     0.251 C 
ATOM      6  H   UNL A   1      39.863  18.388  25.546  1.00  0.00     0.163 HD
BRANCH   5   7
ATOM      7  C   UNL A   1      41.813  20.877  26.600  1.00  0.00     0.039 A 
ATOM      8  C   UNL A   1      41.754  21.160  27.966  1.00  0.00     0.014 A 
ATOM      9  C   UNL A   1      42.260  21.848  25.700  1.00  0.00     0.014 A 
ATOM     10  C   UNL A   1      42.003  22.452  28.413  1.00  0.00     0.010 A 
ATOM     11  C   UNL A   1      42.591  23.125  26.162  1.00  0.00     0.010 A 
ATOM     12  C   UNL A   1      42.436  23.446  27.519  1.00  0.00    -0.014 A 
BRANCH  12  13
ATOM     13  C   UNL A   1      42.773  24.793  28.041  1.00  0.00     0.031 A 
ATOM     14  C   UNL A   1      41.711  25.831  28.267  1.00  0.00     0.074 A 
ATOM     15  C   UNL A   1      44.056  25.057  28.355  1.00  0.00     0.049 A 
ATOM     16  N   UNL A   1      41.836  27.047  28.737  1.00  0.00    -0.248 NA
ATOM     17  C   UNL A   1      40.329  25.463  27.923  1.00  0.00     0.031 C 
ATOM     18  C   UNL A   1      45.173  24.124  28.183  1.00  0.00     0.029 A 
ATOM     19  N   UNL A   1      44.635  26.169  28.910  1.00  0.00    -0.354 N 
ATOM     20  C   UNL A   1      40.559  27.590  28.738  1.00  0.00     0.074 A 
ATOM     21  C   UNL A   1      39.672  26.584  28.196  1.00  0.00     0.031 C 
ATOM     22  C   UNL A   1      46.289  24.679  28.677  1.00  0.00     0.029 A 
ATOM     23  C   UNL A   1      45.982  26.027  29.141  1.00  0.00     0.049 A 
ATOM     24  H   UNL A   1      44.135  26.990  29.121  1.00  0.00     0.167 HD
ATOM     25  C   UNL A   1      40.163  28.814  29.163  1.00  0.00     0.037 A 
ATOM     26  C   UNL A   1      46.875  26.889  29.660  1.00  0.00     0.037 A 
ATOM     27  C   UNL A   1      41.048  29.810  29.712  1.00  0.00     0.049 A 
ATOM     28  C   UNL A   1      46.415  28.252  30.082  1.00  0.00     0.074 A 
ATOM     29  C   UNL A   1      40.738  31.078  30.174  1.00  0.00     0.029 A 
ATOM     30  N   UNL A   1      42.416  29.648  29.878  1.00  0.00    -0.354 N 
ATOM     31  N   UNL A   1      45.203  28.752  30.072  1.00  0.00    -0.248 NA
ATOM     32  C   UNL A   1      47.446  29.176  30.573  1.00  0.00     0.031 C 
ATOM     33  C   UNL A   1      41.923  31.696  30.587  1.00  0.00     0.029 A 
ATOM     34  C   UNL A   1      42.965  30.798  30.421  1.00  0.00     0.049 A 
ATOM     35  H   UNL A   1      42.921  28.836  29.645  1.00  0.00     0.167 HD
ATOM     36  C   UNL A   1      45.323  30.043  30.564  1.00  0.00     0.074 A 
ATOM     37  C   UNL A   1      46.722  30.243  30.882  1.00  0.00     0.031 C 
ATOM     38  C   UNL A   1      44.360  30.981  30.731  1.00  0.00     0.037 A 
BRANCH  25  39
ATOM     39  C   UNL A   1      38.707  29.158  29.050  1.00  0.00     0.057 A 
ATOM     40  C   UNL A   1      38.175  29.640  27.847  1.00  0.00     0.134 A 
ATOM     41  C   UNL A   1      37.850  29.089  30.154  1.00  0.00     0.134 A 
ATOM     42  F   UNL A   1      38.946  29.739  26.753  1.00  0.00    -0.206 F 
ATOM     43  C   UNL A   1      36.845  30.052  27.749  1.00  0.00     0.040 A 
ATOM     44  C   UNL A   1      36.511  29.479  30.064  1.00  0.00     0.040 A 
ATOM     45  F   UNL A   1      38.294  28.627  31.333  1.00  0.00    -0.206 F 
ATOM     46  C   UNL A   1      36.009  29.971  28.861  1.00  0.00     0.006 A 
ENDBRANCH  25  39
BRANCH  26  47
ATOM     47  C   UNL A   1      48.291  26.476  29.811  1.00  0.00     0.057 A 
ATOM     48  C   UNL A   1      48.740  25.802  30.954  1.00  0.00     0.134 A 
ATOM     49  C   UNL A   1      49.237  26.777  28.825  1.00  0.00     0.134 A 
ATOM     50  F   UNL A   1      47.881  25.494  31.937  1.00  0.00    -0.206 F 
ATOM     51  C   UNL A   1      50.081  25.459  31.120  1.00  0.00     0.040 A 
ATOM     52  C   UNL A   1      50.579  26.417  28.967  1.00  0.00     0.040 A 
ATOM     53  F   UNL A   1      48.865  27.406  27.702  1.00  0.00    -0.206 F 
ATOM     54  C   UNL A   1      51.004  25.763  30.122  1.00  0.00     0.006 A 
ENDBRANCH  26  47
BRANCH  38  55
ATOM     55  C   UNL A   1      44.783  32.302  31.295  1.00  0.00     0.057 A 
ATOM     56  C   UNL A   1      44.772  32.525  32.678  1.00  0.00     0.134 A 
ATOM     57  C   UNL A   1      45.155  33.368  30.467  1.00  0.00     0.134 A 
ATOM     58  F   UNL A   1      44.419  31.545  33.523  1.00  0.00    -0.206 F 
ATOM     59  C   UNL A   1      45.110  33.767  33.216  1.00  0.00     0.040 A 
ATOM     60  C   UNL A   1      45.515  34.608  30.995  1.00  0.00     0.040 A 
ATOM     61  F   UNL A   1      45.197  33.211  29.135  1.00  0.00    -0.206 F 
ATOM     62  C   UNL A   1      45.486  34.811  32.374  1.00  0.00     0.006 A 
ENDBRANCH  38  55
ENDBRANCH  12  13
ENDBRANCH   5   7
ENDBRANCH   2   3
ENDBRANCH   1   2
BRANCH   1  63
ATOM     63  C   UNL A   1      36.800  20.819  24.515  1.00  0.00     0.023 C 
BRANCH  63  64
ATOM     64  C   UNL A   1      35.619  21.075  25.448  1.00  0.00     0.116 C 
BRANCH  64  65
ATOM     65  N   UNL A   1      34.621  20.022  25.363  1.00  0.00    -0.352 N 
ATOM     66  C   UNL A   1      33.266  20.119  25.534  1.00  0.00     0.251 C 
ATOM     67  H   UNL A   1      34.963  19.124  25.156  1.00  0.00     0.163 HD
ATOM     68  O   UNL A   1      32.561  19.119  25.595  1.00  0.00    -0.269 OA
BRANCH  66  69
ATOM     69  C   UNL A   1      32.658  21.455  25.659  1.00  0.00     0.042 A 
ATOM     70  C   UNL A   1      32.956  22.245  26.779  1.00  0.00     0.016 A 
ATOM     71  C   UNL A   1      31.803  21.890  24.639  1.00  0.00     0.042 A 
ATOM     72  C   UNL A   1      32.396  23.518  26.909  1.00  0.00     0.031 A 
ATOM     73  C   UNL A   1      31.242  23.155  24.814  1.00  0.00     0.067 A 
ATOM     74  C   UNL A   1      31.545  23.978  25.894  1.00  0.00     0.089 A 
ATOM     75  N   UNL A   1      30.344  23.886  24.077  1.00  0.00    -0.338 N 
ATOM     76  N   UNL A   1      30.943  25.196  25.758  1.00  0.00    -0.228 NA
ATOM     77  C   UNL A   1      30.236  25.126  24.651  1.00  0.00     0.142 A 
ATOM     78  H   UNL A   1      29.862  23.574  23.277  1.00  0.00     0.168 HD
BRANCH  77  79
ATOM     79  C   UNL A   1      29.481  26.266  24.090  1.00  0.00     0.063 A 
ATOM     80  C   UNL A   1      28.119  26.351  23.927  1.00  0.00     0.117 A 
ATOM     81  C   UNL A   1      30.012  27.485  23.583  1.00  0.00     0.106 A 
ATOM     82  N   UNL A   1      27.898  27.606  23.437  1.00  0.00    -0.284 N 
ATOM     83  N   UNL A   1      29.020  28.293  23.173  1.00  0.00    -0.175 NA
ATOM     84  H   UNL A   1      26.997  27.974  23.291  1.00  0.00     0.189 HD
BRANCH  81  85
ATOM     85  C   UNL A   1      31.413  27.813  23.345  1.00  0.00     0.039 A 
ATOM     86  C   UNL A   1      32.037  28.789  24.145  1.00  0.00     0.016 A 
ATOM     87  C   UNL A   1      32.158  27.188  22.343  1.00  0.00     0.135 A 
ATOM     88  C   UNL A   1      33.370  29.136  23.930  1.00  0.00     0.040 A 
ATOM     89  C   UNL A   1      33.493  27.526  22.127  1.00  0.00     0.079 A 
ATOM     90  F   UNL A   1      31.603  26.263  21.545  1.00  0.00    -0.206 F 
ATOM     91  C   UNL A   1      34.085  28.500  22.923  1.00  0.00     0.126 A 
ATOM     92  F   UNL A   1      35.366  28.834  22.715  1.00  0.00    -0.207 F 
ENDBRANCH  81  85
ENDBRANCH  77  79
ENDBRANCH  66  69
ENDBRANCH  64  65
ENDBRANCH  63  64
ENDBRANCH   1  63
TORSDOF 13
ENDMDL
