MODEL 1
REMARK VINA RESULT:     -11.2      0.000      0.000
REMARK SMILES CCC(CC)(NC(=O)NC[C@H](C)[NH+]1CCCCC1)C(=O)NCCCCNC(=O)c1ccc(-c2c3nc(c(-c4c(F)cccc4F)c4ccc([nH]4)c(-c4c(F)cccc4F)c4nc(c(-c5c(F)cccc5F)c5ccc2[nH]5)C=C4)C=C3)cc1
REMARK SMILES IDX 22 1 21 2 19 3 20 4 3 6 2 7 1 8 4 9 5 10 6 11 7 12 8 14 9 15
REMARK SMILES IDX 10 17 11 18 12 19 13 20 14 21 18 22 15 24 17 25 16 26 23 27
REMARK SMILES IDX 24 28 25 29 26 30 27 31 28 33 29 34 30 35 82 36 31 37 81 38
REMARK SMILES IDX 32 39 33 40 34 41 75 42 35 43 80 44 74 45 76 46 36 47 79 48
REMARK SMILES IDX 73 49 72 50 37 52 63 53 46 54 62 55 47 56 50 57 61 58 77 59
REMARK SMILES IDX 48 60 49 61 60 63 78 64 51 65 38 66 39 67 44 68 40 69 41 70
REMARK SMILES IDX 43 71 45 72 42 73 64 74 65 75 70 76 66 77 67 78 69 79 71 80
REMARK SMILES IDX 68 81 52 82 53 83 58 84 54 85 55 86 57 87 59 88 56 89
REMARK H PARENT 21 5 6 13 9 16 13 23 26 32 76 51 50 62
REMARK Flexibility Score: inf
ROOT
ATOM      1  C   UNL A   1      32.038  29.696  25.500  1.00  0.00     0.116 C 
ENDROOT
BRANCH   1   2
ATOM      2  N   UNL A   1      33.118  29.662  24.517  1.00  0.00    -0.354 N 
ATOM      3  C   UNL A   1      33.459  28.752  23.545  1.00  0.00     0.245 C 
ATOM      4  O   UNL A   1      34.267  29.145  22.697  1.00  0.00    -0.272 OA
ATOM      5  H   UNL A   1      33.718  30.441  24.560  1.00  0.00     0.163 HD
BRANCH   3   6
ATOM      6  C   UNL A   1      32.760  27.361  23.435  1.00  0.00     0.120 C 
BRANCH   6   7
ATOM      7  C   UNL A   1      31.259  27.295  23.844  1.00  0.00     0.035 C 
ATOM      8  C   UNL A   1      30.225  27.816  22.852  1.00  0.00     0.007 C 
ENDBRANCH   6   7
BRANCH   6   9
ATOM      9  C   UNL A   1      33.594  26.414  24.370  1.00  0.00     0.035 C 
ATOM     10  C   UNL A   1      33.115  26.280  25.811  1.00  0.00     0.007 C 
ENDBRANCH   6   9
BRANCH   6  11
ATOM     11  N   UNL A   1      32.859  26.945  22.021  1.00  0.00    -0.324 N 
ATOM     12  C   UNL A   1      32.749  25.795  21.355  1.00  0.00     0.315 C 
ATOM     13  H   UNL A   1      33.052  27.703  21.424  1.00  0.00     0.166 HD
ATOM     14  O   UNL A   1      33.076  25.825  20.163  1.00  0.00    -0.249 OA
ATOM     15  N   UNL A   1      32.287  24.638  21.820  1.00  0.00    -0.332 N 
ATOM     16  H   UNL A   1      32.236  23.979  21.090  1.00  0.00     0.165 HD
BRANCH  15  17
ATOM     17  C   UNL A   1      31.831  24.031  23.073  1.00  0.00     0.182 C 
BRANCH  17  18
ATOM     18  C   UNL A   1      32.713  22.845  23.577  1.00  0.00     0.200 C 
ATOM     19  C   UNL A   1      32.201  21.512  23.007  1.00  0.00     0.077 C 
BRANCH  18  20
ATOM     20  N   UNL A   1      33.012  22.837  25.027  1.00  0.00    -0.331 N 
ATOM     21  C   UNL A   1      31.961  22.350  25.920  1.00  0.00     0.262 C 
ATOM     22  C   UNL A   1      34.298  22.207  25.370  1.00  0.00     0.262 C 
ATOM     23  H   UNL A   1      33.075  23.839  25.207  1.00  0.00     0.348 HD
ATOM     24  C   UNL A   1      32.279  22.834  27.339  1.00  0.00     0.062 C 
ATOM     25  C   UNL A   1      34.728  22.620  26.781  1.00  0.00     0.062 C 
ATOM     26  C   UNL A   1      33.641  22.337  27.814  1.00  0.00     0.012 C 
ENDBRANCH  18  20
ENDBRANCH  17  18
ENDBRANCH  15  17
ENDBRANCH   6  11
ENDBRANCH   3   6
ENDBRANCH   1   2
BRANCH   1  27
ATOM     27  C   UNL A   1      30.920  30.715  25.263  1.00  0.00     0.023 C 
BRANCH  27  28
ATOM     28  C   UNL A   1      30.962  31.994  26.081  1.00  0.00     0.023 C 
BRANCH  28  29
ATOM     29  C   UNL A   1      32.217  32.244  26.902  1.00  0.00     0.116 C 
BRANCH  29  30
ATOM     30  N   UNL A   1      32.307  33.615  27.365  1.00  0.00    -0.352 N 
ATOM     31  C   UNL A   1      33.185  34.198  28.244  1.00  0.00     0.251 C 
ATOM     32  H   UNL A   1      31.631  34.223  26.990  1.00  0.00     0.163 HD
ATOM     33  O   UNL A   1      32.950  35.341  28.644  1.00  0.00    -0.269 OA
BRANCH  31  34
ATOM     34  C   UNL A   1      34.403  33.501  28.733  1.00  0.00     0.039 A 
ATOM     35  C   UNL A   1      34.248  32.251  29.346  1.00  0.00     0.014 A 
ATOM     36  C   UNL A   1      35.673  34.083  28.691  1.00  0.00     0.014 A 
ATOM     37  C   UNL A   1      35.352  31.585  29.890  1.00  0.00     0.010 A 
ATOM     38  C   UNL A   1      36.788  33.384  29.164  1.00  0.00     0.010 A 
ATOM     39  C   UNL A   1      36.637  32.139  29.795  1.00  0.00    -0.014 A 
BRANCH  39  40
ATOM     40  C   UNL A   1      37.813  31.457  30.404  1.00  0.00     0.031 A 
ATOM     41  C   UNL A   1      38.222  31.768  31.822  1.00  0.00     0.074 A 
ATOM     42  C   UNL A   1      38.534  30.574  29.686  1.00  0.00     0.049 A 
ATOM     43  N   UNL A   1      39.238  31.311  32.512  1.00  0.00    -0.248 NA
ATOM     44  C   UNL A   1      37.392  32.737  32.554  1.00  0.00     0.031 C 
ATOM     45  C   UNL A   1      38.275  30.200  28.295  1.00  0.00     0.029 A 
ATOM     46  N   UNL A   1      39.637  29.831  30.032  1.00  0.00    -0.354 N 
ATOM     47  C   UNL A   1      39.180  31.950  33.744  1.00  0.00     0.074 A 
ATOM     48  C   UNL A   1      38.057  32.860  33.693  1.00  0.00     0.031 C 
ATOM     49  C   UNL A   1      39.178  29.283  27.913  1.00  0.00     0.029 A 
ATOM     50  C   UNL A   1      40.097  29.025  29.018  1.00  0.00     0.049 A 
ATOM     51  H   UNL A   1      40.057  29.873  30.920  1.00  0.00     0.167 HD
ATOM     52  C   UNL A   1      39.972  31.780  34.830  1.00  0.00     0.037 A 
ATOM     53  C   UNL A   1      41.142  28.176  28.982  1.00  0.00     0.037 A 
ATOM     54  C   UNL A   1      41.066  30.848  34.906  1.00  0.00     0.049 A 
ATOM     55  C   UNL A   1      41.999  27.994  30.204  1.00  0.00     0.074 A 
ATOM     56  C   UNL A   1      41.887  30.568  35.985  1.00  0.00     0.029 A 
ATOM     57  N   UNL A   1      41.487  30.039  33.863  1.00  0.00    -0.354 N 
ATOM     58  N   UNL A   1      41.900  28.571  31.376  1.00  0.00    -0.248 NA
ATOM     59  C   UNL A   1      43.111  27.036  30.097  1.00  0.00     0.031 C 
ATOM     60  C   UNL A   1      42.826  29.609  35.584  1.00  0.00     0.029 A 
ATOM     61  C   UNL A   1      42.565  29.269  34.268  1.00  0.00     0.049 A 
ATOM     62  H   UNL A   1      41.080  30.014  32.967  1.00  0.00     0.167 HD
ATOM     63  C   UNL A   1      42.920  28.034  32.151  1.00  0.00     0.074 A 
ATOM     64  C   UNL A   1      43.617  27.073  31.322  1.00  0.00     0.031 C 
ATOM     65  C   UNL A   1      43.248  28.312  33.436  1.00  0.00     0.037 A 
BRANCH  52  66
ATOM     66  C   UNL A   1      39.677  32.621  36.037  1.00  0.00     0.057 A 
ATOM     67  C   UNL A   1      38.712  32.243  36.980  1.00  0.00     0.134 A 
ATOM     68  C   UNL A   1      40.389  33.804  36.277  1.00  0.00     0.134 A 
ATOM     69  F   UNL A   1      37.989  31.128  36.802  1.00  0.00    -0.206 F 
ATOM     70  C   UNL A   1      38.447  33.025  38.106  1.00  0.00     0.040 A 
ATOM     71  C   UNL A   1      40.149  34.580  37.412  1.00  0.00     0.040 A 
ATOM     72  F   UNL A   1      41.331  34.218  35.418  1.00  0.00    -0.206 F 
ATOM     73  C   UNL A   1      39.171  34.195  38.328  1.00  0.00     0.006 A 
ENDBRANCH  52  66
BRANCH  53  74
ATOM     74  C   UNL A   1      41.425  27.408  27.744  1.00  0.00     0.057 A 
ATOM     75  C   UNL A   1      42.210  27.954  26.721  1.00  0.00     0.134 A 
ATOM     76  C   UNL A   1      40.916  26.120  27.553  1.00  0.00     0.134 A 
ATOM     77  F   UNL A   1      42.706  29.193  26.840  1.00  0.00    -0.206 F 
ATOM     78  C   UNL A   1      42.467  27.249  25.545  1.00  0.00     0.040 A 
ATOM     79  C   UNL A   1      41.183  25.395  26.389  1.00  0.00     0.040 A 
ATOM     80  F   UNL A   1      40.160  25.542  28.498  1.00  0.00    -0.206 F 
ATOM     81  C   UNL A   1      41.957  25.962  25.379  1.00  0.00     0.006 A 
ENDBRANCH  53  74
BRANCH  65  82
ATOM     82  C   UNL A   1      44.395  27.553  34.033  1.00  0.00     0.057 A 
ATOM     83  C   UNL A   1      45.702  28.056  34.011  1.00  0.00     0.134 A 
ATOM     84  C   UNL A   1      44.183  26.325  34.671  1.00  0.00     0.134 A 
ATOM     85  F   UNL A   1      45.972  29.222  33.404  1.00  0.00    -0.206 F 
ATOM     86  C   UNL A   1      46.762  27.354  34.587  1.00  0.00     0.040 A 
ATOM     87  C   UNL A   1      45.231  25.624  35.270  1.00  0.00     0.040 A 
ATOM     88  F   UNL A   1      42.954  25.792  34.734  1.00  0.00    -0.206 F 
ATOM     89  C   UNL A   1      46.527  26.137  35.225  1.00  0.00     0.006 A 
ENDBRANCH  65  82
ENDBRANCH  39  40
ENDBRANCH  31  34
ENDBRANCH  29  30
ENDBRANCH  28  29
ENDBRANCH  27  28
ENDBRANCH   1  27
TORSDOF 17
ENDMDL
MODEL 2
REMARK VINA RESULT:     -11.1      1.787      7.260
REMARK SMILES CCC(CC)(NC(=O)NC[C@H](C)[NH+]1CCCCC1)C(=O)NCCCCNC(=O)c1ccc(-c2c3nc(c(-c4c(F)cccc4F)c4ccc([nH]4)c(-c4c(F)cccc4F)c4nc(c(-c5c(F)cccc5F)c5ccc2[nH]5)C=C4)C=C3)cc1
REMARK SMILES IDX 22 1 21 2 19 3 20 4 3 6 2 7 1 8 4 9 5 10 6 11 7 12 8 14 9 15
REMARK SMILES IDX 10 17 11 18 12 19 13 20 14 21 18 22 15 24 17 25 16 26 23 27
REMARK SMILES IDX 24 28 25 29 26 30 27 31 28 33 29 34 30 35 82 36 31 37 81 38
REMARK SMILES IDX 32 39 33 40 34 41 75 42 35 43 80 44 74 45 76 46 36 47 79 48
REMARK SMILES IDX 73 49 72 50 37 52 63 53 46 54 62 55 47 56 50 57 61 58 77 59
REMARK SMILES IDX 48 60 49 61 60 63 78 64 51 65 38 66 39 67 44 68 40 69 41 70
REMARK SMILES IDX 43 71 45 72 42 73 64 74 65 75 70 76 66 77 67 78 69 79 71 80
REMARK SMILES IDX 68 81 52 82 53 83 58 84 54 85 55 86 57 87 59 88 56 89
REMARK H PARENT 21 5 6 13 9 16 13 23 26 32 76 51 50 62
REMARK Flexibility Score: inf
ROOT
ATOM      1  C   UNL A   1      32.611  30.038  26.298  1.00  0.00     0.116 C 
ENDROOT
BRANCH   1   2
ATOM      2  N   UNL A   1      33.533  29.611  25.248  1.00  0.00    -0.354 N 
ATOM      3  C   UNL A   1      33.646  28.444  24.532  1.00  0.00     0.245 C 
ATOM      4  O   UNL A   1      34.357  28.496  23.523  1.00  0.00    -0.272 OA
ATOM      5  H   UNL A   1      34.202  30.292  25.007  1.00  0.00     0.163 HD
BRANCH   3   6
ATOM      6  C   UNL A   1      32.814  27.172  24.889  1.00  0.00     0.120 C 
BRANCH   6   7
ATOM      7  C   UNL A   1      31.411  27.407  25.523  1.00  0.00     0.035 C 
ATOM      8  C   UNL A   1      30.655  26.192  26.051  1.00  0.00     0.007 C 
ENDBRANCH   6   7
BRANCH   6   9
ATOM      9  C   UNL A   1      33.712  26.371  25.898  1.00  0.00     0.035 C 
ATOM     10  C   UNL A   1      34.354  25.091  25.377  1.00  0.00     0.007 C 
ENDBRANCH   6   9
BRANCH   6  11
ATOM     11  N   UNL A   1      32.618  26.424  23.631  1.00  0.00    -0.324 N 
ATOM     12  C   UNL A   1      31.990  26.648  22.475  1.00  0.00     0.315 C 
ATOM     13  H   UNL A   1      33.060  25.545  23.649  1.00  0.00     0.166 HD
ATOM     14  O   UNL A   1      31.907  25.682  21.708  1.00  0.00    -0.249 OA
ATOM     15  N   UNL A   1      31.486  27.800  22.045  1.00  0.00    -0.332 N 
ATOM     16  H   UNL A   1      31.158  27.699  21.122  1.00  0.00     0.165 HD
BRANCH  15  17
ATOM     17  C   UNL A   1      31.264  29.173  22.505  1.00  0.00     0.182 C 
BRANCH  17  18
ATOM     18  C   UNL A   1      29.788  29.494  22.898  1.00  0.00     0.200 C 
ATOM     19  C   UNL A   1      28.919  28.228  22.808  1.00  0.00     0.077 C 
BRANCH  18  20
ATOM     20  N   UNL A   1      29.205  30.703  22.277  1.00  0.00    -0.331 N 
ATOM     21  C   UNL A   1      28.164  30.498  21.270  1.00  0.00     0.262 C 
ATOM     22  C   UNL A   1      28.775  31.727  23.244  1.00  0.00     0.262 C 
ATOM     23  H   UNL A   1      30.012  31.053  21.761  1.00  0.00     0.348 HD
ATOM     24  C   UNL A   1      28.028  31.789  20.454  1.00  0.00     0.062 C 
ATOM     25  C   UNL A   1      28.604  33.078  22.543  1.00  0.00     0.062 C 
ATOM     26  C   UNL A   1      27.672  32.981  21.338  1.00  0.00     0.012 C 
ENDBRANCH  18  20
ENDBRANCH  17  18
ENDBRANCH  15  17
ENDBRANCH   6  11
ENDBRANCH   3   6
ENDBRANCH   1   2
BRANCH   1  27
ATOM     27  C   UNL A   1      31.443  30.931  25.872  1.00  0.00     0.023 C 
BRANCH  27  28
ATOM     28  C   UNL A   1      31.350  32.305  26.513  1.00  0.00     0.023 C 
BRANCH  28  29
ATOM     29  C   UNL A   1      32.588  32.811  27.236  1.00  0.00     0.116 C 
BRANCH  29  30
ATOM     30  N   UNL A   1      32.466  34.202  27.625  1.00  0.00    -0.352 N 
ATOM     31  C   UNL A   1      33.081  34.898  28.636  1.00  0.00     0.251 C 
ATOM     32  H   UNL A   1      31.844  34.733  27.077  1.00  0.00     0.163 HD
ATOM     33  O   UNL A   1      32.675  36.031  28.908  1.00  0.00    -0.269 OA
BRANCH  31  34
ATOM     34  C   UNL A   1      34.212  34.332  29.418  1.00  0.00     0.039 A 
ATOM     35  C   UNL A   1      35.499  34.409  28.871  1.00  0.00     0.014 A 
ATOM     36  C   UNL A   1      34.027  33.646  30.622  1.00  0.00     0.014 A 
ATOM     37  C   UNL A   1      36.587  33.827  29.530  1.00  0.00     0.010 A 
ATOM     38  C   UNL A   1      35.125  33.133  31.320  1.00  0.00     0.010 A 
ATOM     39  C   UNL A   1      36.414  33.191  30.769  1.00  0.00    -0.014 A 
BRANCH  39  40
ATOM     40  C   UNL A   1      37.558  32.535  31.460  1.00  0.00     0.031 A 
ATOM     41  C   UNL A   1      38.268  31.370  30.818  1.00  0.00     0.074 A 
ATOM     42  C   UNL A   1      37.955  32.963  32.674  1.00  0.00     0.049 A 
ATOM     43  N   UNL A   1      39.255  30.642  31.281  1.00  0.00    -0.248 NA
ATOM     44  C   UNL A   1      37.791  30.953  29.490  1.00  0.00     0.031 C 
ATOM     45  C   UNL A   1      37.343  34.057  33.429  1.00  0.00     0.029 A 
ATOM     46  N   UNL A   1      38.971  32.524  33.489  1.00  0.00    -0.354 N 
ATOM     47  C   UNL A   1      39.500  29.675  30.314  1.00  0.00     0.074 A 
ATOM     48  C   UNL A   1      38.531  29.878  29.260  1.00  0.00     0.031 C 
ATOM     49  C   UNL A   1      38.008  34.219  34.585  1.00  0.00     0.029 A 
ATOM     50  C   UNL A   1      39.073  33.223  34.667  1.00  0.00     0.049 A 
ATOM     51  H   UNL A   1      39.568  31.779  33.250  1.00  0.00     0.167 HD
ATOM     52  C   UNL A   1      40.458  28.717  30.290  1.00  0.00     0.037 A 
ATOM     53  C   UNL A   1      39.926  33.077  35.699  1.00  0.00     0.037 A 
ATOM     54  C   UNL A   1      41.453  28.532  31.313  1.00  0.00     0.049 A 
ATOM     55  C   UNL A   1      40.990  32.017  35.645  1.00  0.00     0.074 A 
ATOM     56  C   UNL A   1      42.499  27.624  31.345  1.00  0.00     0.029 A 
ATOM     57  N   UNL A   1      41.532  29.272  32.482  1.00  0.00    -0.354 N 
ATOM     58  N   UNL A   1      41.237  31.142  34.701  1.00  0.00    -0.248 NA
ATOM     59  C   UNL A   1      41.898  31.929  36.799  1.00  0.00     0.031 C 
ATOM     60  C   UNL A   1      43.192  27.796  32.550  1.00  0.00     0.029 A 
ATOM     61  C   UNL A   1      42.598  28.834  33.248  1.00  0.00     0.049 A 
ATOM     62  H   UNL A   1      40.920  30.003  32.729  1.00  0.00     0.167 HD
ATOM     63  C   UNL A   1      42.338  30.415  35.136  1.00  0.00     0.074 A 
ATOM     64  C   UNL A   1      42.721  30.960  36.422  1.00  0.00     0.031 C 
ATOM     65  C   UNL A   1      42.974  29.387  34.523  1.00  0.00     0.037 A 
BRANCH  52  66
ATOM     66  C   UNL A   1      40.483  27.794  29.107  1.00  0.00     0.057 A 
ATOM     67  C   UNL A   1      41.302  28.041  27.997  1.00  0.00     0.134 A 
ATOM     68  C   UNL A   1      39.704  26.630  29.091  1.00  0.00     0.134 A 
ATOM     69  F   UNL A   1      42.062  29.144  27.946  1.00  0.00    -0.206 F 
ATOM     70  C   UNL A   1      41.327  27.175  26.903  1.00  0.00     0.040 A 
ATOM     71  C   UNL A   1      39.740  25.745  28.013  1.00  0.00     0.040 A 
ATOM     72  F   UNL A   1      38.904  26.331  30.125  1.00  0.00    -0.206 F 
ATOM     73  C   UNL A   1      40.548  26.019  26.911  1.00  0.00     0.006 A 
ENDBRANCH  52  66
BRANCH  53  74
ATOM     74  C   UNL A   1      39.824  33.981  36.873  1.00  0.00     0.057 A 
ATOM     75  C   UNL A   1      39.021  33.649  37.970  1.00  0.00     0.134 A 
ATOM     76  C   UNL A   1      40.520  35.193  36.921  1.00  0.00     0.134 A 
ATOM     77  F   UNL A   1      38.314  32.511  37.969  1.00  0.00    -0.206 F 
ATOM     78  C   UNL A   1      38.903  34.499  39.070  1.00  0.00     0.040 A 
ATOM     79  C   UNL A   1      40.428  36.044  38.025  1.00  0.00     0.040 A 
ATOM     80  F   UNL A   1      41.308  35.563  35.902  1.00  0.00    -0.206 F 
ATOM     81  C   UNL A   1      39.613  35.698  39.102  1.00  0.00     0.006 A 
ENDBRANCH  53  74
BRANCH  65  82
ATOM     82  C   UNL A   1      44.164  28.800  35.222  1.00  0.00     0.057 A 
ATOM     83  C   UNL A   1      44.041  27.722  36.108  1.00  0.00     0.134 A 
ATOM     84  C   UNL A   1      45.451  29.293  34.975  1.00  0.00     0.134 A 
ATOM     85  F   UNL A   1      42.833  27.213  36.395  1.00  0.00    -0.206 F 
ATOM     86  C   UNL A   1      45.155  27.167  36.739  1.00  0.00     0.040 A 
ATOM     87  C   UNL A   1      46.575  28.732  35.583  1.00  0.00     0.040 A 
ATOM     88  F   UNL A   1      45.639  30.318  34.131  1.00  0.00    -0.206 F 
ATOM     89  C   UNL A   1      46.428  27.668  36.472  1.00  0.00     0.006 A 
ENDBRANCH  65  82
ENDBRANCH  39  40
ENDBRANCH  31  34
ENDBRANCH  29  30
ENDBRANCH  28  29
ENDBRANCH  27  28
ENDBRANCH   1  27
TORSDOF 17
ENDMDL
MODEL 3
REMARK VINA RESULT:     -11.0      1.485      3.796
REMARK SMILES CCC(CC)(NC(=O)NC[C@H](C)[NH+]1CCCCC1)C(=O)NCCCCNC(=O)c1ccc(-c2c3nc(c(-c4c(F)cccc4F)c4ccc([nH]4)c(-c4c(F)cccc4F)c4nc(c(-c5c(F)cccc5F)c5ccc2[nH]5)C=C4)C=C3)cc1
REMARK SMILES IDX 22 1 21 2 19 3 20 4 3 6 2 7 1 8 4 9 5 10 6 11 7 12 8 14 9 15
REMARK SMILES IDX 10 17 11 18 12 19 13 20 14 21 18 22 15 24 17 25 16 26 23 27
REMARK SMILES IDX 24 28 25 29 26 30 27 31 28 33 29 34 30 35 82 36 31 37 81 38
REMARK SMILES IDX 32 39 33 40 34 41 75 42 35 43 80 44 74 45 76 46 36 47 79 48
REMARK SMILES IDX 73 49 72 50 37 52 63 53 46 54 62 55 47 56 50 57 61 58 77 59
REMARK SMILES IDX 48 60 49 61 60 63 78 64 51 65 38 66 39 67 44 68 40 69 41 70
REMARK SMILES IDX 43 71 45 72 42 73 64 74 65 75 70 76 66 77 67 78 69 79 71 80
REMARK SMILES IDX 68 81 52 82 53 83 58 84 54 85 55 86 57 87 59 88 56 89
REMARK H PARENT 21 5 6 13 9 16 13 23 26 32 76 51 50 62
REMARK Flexibility Score: inf
ROOT
ATOM      1  C   UNL A   1      32.440  29.821  26.354  1.00  0.00     0.116 C 
ENDROOT
BRANCH   1   2
ATOM      2  N   UNL A   1      33.450  29.479  25.355  1.00  0.00    -0.354 N 
ATOM      3  C   UNL A   1      33.671  28.344  24.612  1.00  0.00     0.245 C 
ATOM      4  O   UNL A   1      34.443  28.468  23.655  1.00  0.00    -0.272 OA
ATOM      5  H   UNL A   1      34.096  30.201  25.181  1.00  0.00     0.163 HD
BRANCH   3   6
ATOM      6  C   UNL A   1      32.887  27.020  24.872  1.00  0.00     0.120 C 
BRANCH   6   7
ATOM      7  C   UNL A   1      31.484  27.154  25.534  1.00  0.00     0.035 C 
ATOM      8  C   UNL A   1      31.081  26.111  26.571  1.00  0.00     0.007 C 
ENDBRANCH   6   7
BRANCH   6   9
ATOM      9  C   UNL A   1      33.822  26.173  25.807  1.00  0.00     0.035 C 
ATOM     10  C   UNL A   1      34.368  24.871  25.232  1.00  0.00     0.007 C 
ENDBRANCH   6   9
BRANCH   6  11
ATOM     11  N   UNL A   1      32.703  26.369  23.559  1.00  0.00    -0.324 N 
ATOM     12  C   UNL A   1      32.089  26.680  22.417  1.00  0.00     0.315 C 
ATOM     13  H   UNL A   1      33.142  25.489  23.517  1.00  0.00     0.166 HD
ATOM     14  O   UNL A   1      32.012  25.775  21.578  1.00  0.00    -0.249 OA
ATOM     15  N   UNL A   1      31.594  27.864  22.067  1.00  0.00    -0.332 N 
ATOM     16  H   UNL A   1      31.276  27.833  21.136  1.00  0.00     0.165 HD
BRANCH  15  17
ATOM     17  C   UNL A   1      31.371  29.199  22.627  1.00  0.00     0.182 C 
BRANCH  17  18
ATOM     18  C   UNL A   1      29.886  29.508  22.993  1.00  0.00     0.200 C 
ATOM     19  C   UNL A   1      29.023  28.242  22.860  1.00  0.00     0.077 C 
BRANCH  18  20
ATOM     20  N   UNL A   1      29.313  30.728  22.383  1.00  0.00    -0.331 N 
ATOM     21  C   UNL A   1      28.260  30.541  21.384  1.00  0.00     0.262 C 
ATOM     22  C   UNL A   1      28.905  31.753  23.358  1.00  0.00     0.262 C 
ATOM     23  H   UNL A   1      30.120  31.070  21.861  1.00  0.00     0.348 HD
ATOM     24  C   UNL A   1      28.133  31.837  20.576  1.00  0.00     0.062 C 
ATOM     25  C   UNL A   1      28.745  33.110  22.665  1.00  0.00     0.062 C 
ATOM     26  C   UNL A   1      27.801  33.029  21.468  1.00  0.00     0.012 C 
ENDBRANCH  18  20
ENDBRANCH  17  18
ENDBRANCH  15  17
ENDBRANCH   6  11
ENDBRANCH   3   6
ENDBRANCH   1   2
BRANCH   1  27
ATOM     27  C   UNL A   1      31.436  30.912  25.976  1.00  0.00     0.023 C 
BRANCH  27  28
ATOM     28  C   UNL A   1      31.417  32.166  26.835  1.00  0.00     0.023 C 
BRANCH  28  29
ATOM     29  C   UNL A   1      32.735  32.905  27.000  1.00  0.00     0.116 C 
BRANCH  29  30
ATOM     30  N   UNL A   1      32.572  34.169  27.691  1.00  0.00    -0.352 N 
ATOM     31  C   UNL A   1      33.186  34.648  28.821  1.00  0.00     0.251 C 
ATOM     32  H   UNL A   1      31.918  34.782  27.284  1.00  0.00     0.163 HD
ATOM     33  O   UNL A   1      32.746  35.675  29.344  1.00  0.00    -0.269 OA
BRANCH  31  34
ATOM     34  C   UNL A   1      34.355  33.970  29.439  1.00  0.00     0.039 A 
ATOM     35  C   UNL A   1      35.636  34.331  29.002  1.00  0.00     0.014 A 
ATOM     36  C   UNL A   1      34.221  32.928  30.362  1.00  0.00     0.014 A 
ATOM     37  C   UNL A   1      36.767  33.672  29.497  1.00  0.00     0.010 A 
ATOM     38  C   UNL A   1      35.355  32.323  30.915  1.00  0.00     0.010 A 
ATOM     39  C   UNL A   1      36.640  32.667  30.468  1.00  0.00    -0.014 A 
BRANCH  39  40
ATOM     40  C   UNL A   1      37.833  31.934  30.973  1.00  0.00     0.031 A 
ATOM     41  C   UNL A   1      38.409  32.258  32.329  1.00  0.00     0.074 A 
ATOM     42  C   UNL A   1      38.423  30.990  30.213  1.00  0.00     0.049 A 
ATOM     43  N   UNL A   1      39.466  31.760  32.922  1.00  0.00    -0.248 NA
ATOM     44  C   UNL A   1      37.718  33.295  33.111  1.00  0.00     0.031 C 
ATOM     45  C   UNL A   1      37.995  30.594  28.871  1.00  0.00     0.029 A 
ATOM     46  N   UNL A   1      39.512  30.192  30.465  1.00  0.00    -0.354 N 
ATOM     47  C   UNL A   1      39.576  32.435  34.131  1.00  0.00     0.074 A 
ATOM     48  C   UNL A   1      38.508  33.408  34.169  1.00  0.00     0.031 C 
ATOM     49  C   UNL A   1      38.799  29.614  28.426  1.00  0.00     0.029 A 
ATOM     50  C   UNL A   1      39.815  29.332  29.437  1.00  0.00     0.049 A 
ATOM     51  H   UNL A   1      40.027  30.232  31.302  1.00  0.00     0.167 HD
ATOM     52  C   UNL A   1      40.470  32.248  35.133  1.00  0.00     0.037 A 
ATOM     53  C   UNL A   1      40.800  28.421  29.319  1.00  0.00     0.037 A 
ATOM     54  C   UNL A   1      41.511  31.254  35.124  1.00  0.00     0.049 A 
ATOM     55  C   UNL A   1      41.771  28.222  30.449  1.00  0.00     0.074 A 
ATOM     56  C   UNL A   1      42.426  30.955  36.120  1.00  0.00     0.029 A 
ATOM     57  N   UNL A   1      41.772  30.393  34.071  1.00  0.00    -0.354 N 
ATOM     58  N   UNL A   1      41.832  28.836  31.605  1.00  0.00    -0.248 NA
ATOM     59  C   UNL A   1      42.809  27.197  30.257  1.00  0.00     0.031 C 
ATOM     60  C   UNL A   1      43.261  29.932  35.655  1.00  0.00     0.029 A 
ATOM     61  C   UNL A   1      42.841  29.572  34.385  1.00  0.00     0.049 A 
ATOM     62  H   UNL A   1      41.270  30.369  33.224  1.00  0.00     0.167 HD
ATOM     63  C   UNL A   1      42.897  28.260  32.286  1.00  0.00     0.074 A 
ATOM     64  C   UNL A   1      43.446  27.238  31.420  1.00  0.00     0.031 C 
ATOM     65  C   UNL A   1      43.376  28.554  33.519  1.00  0.00     0.037 A 
BRANCH  52  66
ATOM     66  C   UNL A   1      40.354  33.138  36.336  1.00  0.00     0.057 A 
ATOM     67  C   UNL A   1      39.441  32.870  37.365  1.00  0.00     0.134 A 
ATOM     68  C   UNL A   1      41.186  34.255  36.483  1.00  0.00     0.134 A 
ATOM     69  F   UNL A   1      38.609  31.823  37.279  1.00  0.00    -0.206 F 
ATOM     70  C   UNL A   1      39.343  33.696  38.485  1.00  0.00     0.040 A 
ATOM     71  C   UNL A   1      41.113  35.074  37.611  1.00  0.00     0.040 A 
ATOM     72  F   UNL A   1      42.087  34.563  35.538  1.00  0.00    -0.206 F 
ATOM     73  C   UNL A   1      40.185  34.799  38.614  1.00  0.00     0.006 A 
ENDBRANCH  52  66
BRANCH  53  74
ATOM     74  C   UNL A   1      40.905  27.605  28.084  1.00  0.00     0.057 A 
ATOM     75  C   UNL A   1      40.280  26.356  27.991  1.00  0.00     0.134 A 
ATOM     76  C   UNL A   1      41.632  28.050  26.975  1.00  0.00     0.134 A 
ATOM     77  F   UNL A   1      39.588  25.868  29.030  1.00  0.00    -0.206 F 
ATOM     78  C   UNL A   1      40.387  25.571  26.842  1.00  0.00     0.040 A 
ATOM     79  C   UNL A   1      41.730  27.285  25.811  1.00  0.00     0.040 A 
ATOM     80  F   UNL A   1      42.249  29.241  27.003  1.00  0.00    -0.206 F 
ATOM     81  C   UNL A   1      41.110  26.039  25.745  1.00  0.00     0.006 A 
ENDBRANCH  53  74
BRANCH  65  82
ATOM     82  C   UNL A   1      44.536  27.744  34.017  1.00  0.00     0.057 A 
ATOM     83  C   UNL A   1      44.352  26.521  34.674  1.00  0.00     0.134 A 
ATOM     84  C   UNL A   1      45.851  28.175  33.803  1.00  0.00     0.134 A 
ATOM     85  F   UNL A   1      43.116  26.061  34.920  1.00  0.00    -0.206 F 
ATOM     86  C   UNL A   1      45.436  25.762  35.116  1.00  0.00     0.040 A 
ATOM     87  C   UNL A   1      46.944  27.414  34.221  1.00  0.00     0.040 A 
ATOM     88  F   UNL A   1      46.096  29.333  33.173  1.00  0.00    -0.206 F 
ATOM     89  C   UNL A   1      46.737  26.205  34.885  1.00  0.00     0.006 A 
ENDBRANCH  65  82
ENDBRANCH  39  40
ENDBRANCH  31  34
ENDBRANCH  29  30
ENDBRANCH  28  29
ENDBRANCH  27  28
ENDBRANCH   1  27
TORSDOF 17
ENDMDL
