MODEL 1
REMARK VINA RESULT:     -10.7      0.000      0.000
REMARK SMILES CC(C)c1ccc2c(c1)c(SC(C)(C)C)c(CC(C)(C)C(=O)NCCCCNC(=O)c1ccc(-c3c4nc(c(-c5c(F)cccc5F)c5ccc([nH]5)c(-c5c(F)cccc5F)c5nc(c(-c6c(F)cccc6F)c6ccc3[nH]6)C=C5)C=C4)cc1)n2Cc1ccc(Cl)cc1
REMARK SMILES IDX 24 1 23 2 21 3 22 4 18 6 19 7 20 8 17 9 16 10 4 11 5 12 9 13
REMARK SMILES IDX 6 14 8 15 7 16 10 17 85 18 2 19 1 20 3 21 11 22 12 23 13 24
REMARK SMILES IDX 14 25 15 26 86 27 87 28 88 29 93 30 89 31 92 32 90 33 91 34
REMARK SMILES IDX 25 35 26 36 27 37 28 38 29 39 30 41 31 42 32 43 84 44 33 45
REMARK SMILES IDX 83 46 34 47 35 48 36 49 77 50 37 51 82 52 76 53 78 54 38 55
REMARK SMILES IDX 81 56 75 57 74 58 39 60 65 61 48 62 64 63 49 64 52 65 63 66
REMARK SMILES IDX 79 67 50 68 51 69 62 71 80 72 53 73 40 74 41 75 46 76 42 77
REMARK SMILES IDX 43 78 45 79 47 80 44 81 66 82 67 83 72 84 68 85 69 86 71 87
REMARK SMILES IDX 73 88 70 89 54 90 55 91 60 92 56 93 57 94 59 95 61 96 58 97
REMARK H PARENT 23 5 28 40 78 59 52 70
REMARK Flexibility Score: inf
ROOT
ATOM      1  C   UNL A   1      40.038  31.208  31.591  1.00  0.00     0.116 C 
ENDROOT
BRANCH   1   2
ATOM      2  N   UNL A   1      39.436  29.932  31.955  1.00  0.00    -0.356 N 
ATOM      3  C   UNL A   1      38.530  29.203  31.230  1.00  0.00     0.226 C 
ATOM      4  O   UNL A   1      38.494  27.980  31.446  1.00  0.00    -0.275 OA
ATOM      5  H   UNL A   1      39.713  29.550  32.820  1.00  0.00     0.163 HD
BRANCH   3   6
ATOM      6  C   UNL A   1      37.821  29.883  30.064  1.00  0.00     0.049 C 
ATOM      7  C   UNL A   1      36.394  29.364  30.392  1.00  0.00     0.022 C 
ATOM      8  C   UNL A   1      38.590  29.470  28.765  1.00  0.00     0.022 C 
BRANCH   6   9
ATOM      9  C   UNL A   1      37.827  31.434  29.929  1.00  0.00     0.071 C 
BRANCH   9  10
ATOM     10  C   UNL A   1      36.575  32.140  30.213  1.00  0.00     0.034 A 
ATOM     11  C   UNL A   1      33.437  35.369  31.319  1.00  0.00    -0.045 A 
ATOM     12  C   UNL A   1      33.296  35.352  29.929  1.00  0.00     0.006 A 
ATOM     13  C   UNL A   1      34.272  34.395  31.916  1.00  0.00     0.015 A 
ATOM     14  C   UNL A   1      34.004  34.451  29.127  1.00  0.00     0.027 A 
ATOM     15  C   UNL A   1      35.032  33.482  31.132  1.00  0.00     0.014 A 
ATOM     16  C   UNL A   1      34.900  33.558  29.738  1.00  0.00     0.050 A 
ATOM     17  C   UNL A   1      36.005  32.454  31.439  1.00  0.00     0.037 A 
ATOM     18  N   UNL A   1      35.780  32.640  29.186  1.00  0.00    -0.339 N 
BRANCH  11  19
ATOM     19  C   UNL A   1      32.757  36.414  32.200  1.00  0.00     0.013 C 
ATOM     20  C   UNL A   1      31.424  35.880  32.746  1.00  0.00     0.012 C 
ATOM     21  C   UNL A   1      33.593  36.925  33.383  1.00  0.00     0.012 C 
ENDBRANCH  11  19
BRANCH  17  22
ATOM     22  S   UNL A   1      36.436  32.050  33.128  1.00  0.00    -0.118 SA
BRANCH  22  23
ATOM     23  C   UNL A   1      37.104  33.380  34.281  1.00  0.00     0.012 C 
ATOM     24  C   UNL A   1      38.022  32.759  35.340  1.00  0.00     0.023 C 
ATOM     25  C   UNL A   1      37.753  34.701  33.800  1.00  0.00     0.023 C 
ATOM     26  C   UNL A   1      35.813  33.918  34.958  1.00  0.00     0.023 C 
ENDBRANCH  22  23
ENDBRANCH  17  22
BRANCH  18  27
ATOM     27  C   UNL A   1      35.705  32.149  27.782  1.00  0.00     0.158 C 
BRANCH  27  28
ATOM     28  C   UNL A   1      34.698  31.057  27.451  1.00  0.00    -0.028 A 
ATOM     29  C   UNL A   1      33.327  31.350  27.297  1.00  0.00     0.007 A 
ATOM     30  C   UNL A   1      35.092  29.716  27.308  1.00  0.00     0.007 A 
ATOM     31  C   UNL A   1      32.368  30.334  27.229  1.00  0.00     0.021 A 
ATOM     32  C   UNL A   1      34.134  28.697  27.173  1.00  0.00     0.021 A 
ATOM     33  C   UNL A   1      32.776  29.007  27.195  1.00  0.00     0.041 A 
ATOM     34  Cl  UNL A   1      31.598  27.752  27.225  1.00  0.00    -0.084 Cl
ENDBRANCH  27  28
ENDBRANCH  18  27
ENDBRANCH   9  10
ENDBRANCH   6   9
ENDBRANCH   3   6
ENDBRANCH   1   2
BRANCH   1  35
ATOM     35  C   UNL A   1      40.659  31.920  32.763  1.00  0.00     0.023 C 
BRANCH  35  36
ATOM     36  C   UNL A   1      40.617  33.428  32.586  1.00  0.00     0.023 C 
BRANCH  36  37
ATOM     37  C   UNL A   1      41.888  34.143  33.076  1.00  0.00     0.116 C 
BRANCH  37  38
ATOM     38  N   UNL A   1      42.508  34.988  32.069  1.00  0.00    -0.352 N 
ATOM     39  C   UNL A   1      43.181  34.728  30.914  1.00  0.00     0.251 C 
ATOM     40  H   UNL A   1      42.425  35.949  32.264  1.00  0.00     0.163 HD
ATOM     41  O   UNL A   1      43.508  35.707  30.226  1.00  0.00    -0.269 OA
BRANCH  39  42
ATOM     42  C   UNL A   1      43.598  33.375  30.476  1.00  0.00     0.039 A 
ATOM     43  C   UNL A   1      42.907  32.593  29.553  1.00  0.00     0.014 A 
ATOM     44  C   UNL A   1      44.731  32.829  31.104  1.00  0.00     0.014 A 
ATOM     45  C   UNL A   1      43.233  31.266  29.368  1.00  0.00     0.010 A 
ATOM     46  C   UNL A   1      45.103  31.510  30.880  1.00  0.00     0.010 A 
ATOM     47  C   UNL A   1      44.313  30.720  30.054  1.00  0.00    -0.014 A 
BRANCH  47  48
ATOM     48  C   UNL A   1      44.614  29.330  29.758  1.00  0.00     0.031 A 
ATOM     49  C   UNL A   1      45.390  29.147  28.502  1.00  0.00     0.074 A 
ATOM     50  C   UNL A   1      44.247  28.311  30.556  1.00  0.00     0.049 A 
ATOM     51  N   UNL A   1      44.998  28.595  27.402  1.00  0.00    -0.248 NA
ATOM     52  C   UNL A   1      46.700  29.807  28.406  1.00  0.00     0.031 C 
ATOM     53  C   UNL A   1      43.719  28.391  31.919  1.00  0.00     0.029 A 
ATOM     54  N   UNL A   1      44.355  26.970  30.340  1.00  0.00    -0.354 N 
ATOM     55  C   UNL A   1      46.092  28.652  26.539  1.00  0.00     0.074 A 
ATOM     56  C   UNL A   1      47.042  29.543  27.144  1.00  0.00     0.031 C 
ATOM     57  C   UNL A   1      43.780  27.168  32.491  1.00  0.00     0.029 A 
ATOM     58  C   UNL A   1      44.195  26.205  31.485  1.00  0.00     0.049 A 
ATOM     59  H   UNL A   1      44.531  26.580  29.453  1.00  0.00     0.167 HD
ATOM     60  C   UNL A   1      46.232  27.736  25.541  1.00  0.00     0.037 A 
ATOM     61  C   UNL A   1      44.432  24.878  31.609  1.00  0.00     0.037 A 
ATOM     62  C   UNL A   1      44.981  27.072  25.277  1.00  0.00     0.049 A 
ATOM     63  C   UNL A   1      44.386  24.278  30.258  1.00  0.00     0.074 A 
ATOM     64  C   UNL A   1      43.796  27.359  24.638  1.00  0.00     0.029 A 
ATOM     65  N   UNL A   1      44.768  25.975  26.066  1.00  0.00    -0.354 N 
ATOM     66  N   UNL A   1      43.297  24.180  29.549  1.00  0.00    -0.248 NA
ATOM     67  C   UNL A   1      45.629  24.074  29.522  1.00  0.00     0.031 C 
ATOM     68  C   UNL A   1      42.813  26.513  25.237  1.00  0.00     0.029 A 
ATOM     69  C   UNL A   1      43.434  25.720  26.201  1.00  0.00     0.049 A 
ATOM     70  H   UNL A   1      45.483  25.440  26.480  1.00  0.00     0.167 HD
ATOM     71  C   UNL A   1      43.721  24.333  28.243  1.00  0.00     0.074 A 
ATOM     72  C   UNL A   1      45.155  24.076  28.273  1.00  0.00     0.031 C 
ATOM     73  C   UNL A   1      42.932  24.962  27.325  1.00  0.00     0.037 A 
BRANCH  60  74
ATOM     74  C   UNL A   1      47.543  27.041  25.207  1.00  0.00     0.057 A 
ATOM     75  C   UNL A   1      48.283  27.256  24.026  1.00  0.00     0.134 A 
ATOM     76  C   UNL A   1      48.267  26.435  26.255  1.00  0.00     0.134 A 
ATOM     77  F   UNL A   1      47.765  27.848  22.946  1.00  0.00    -0.206 F 
ATOM     78  C   UNL A   1      49.646  26.964  23.920  1.00  0.00     0.040 A 
ATOM     79  C   UNL A   1      49.643  26.179  26.172  1.00  0.00     0.040 A 
ATOM     80  F   UNL A   1      47.680  26.162  27.431  1.00  0.00    -0.206 F 
ATOM     81  C   UNL A   1      50.341  26.462  25.008  1.00  0.00     0.006 A 
ENDBRANCH  60  74
BRANCH  61  82
ATOM     82  C   UNL A   1      44.927  24.139  32.787  1.00  0.00     0.057 A 
ATOM     83  C   UNL A   1      44.134  23.157  33.407  1.00  0.00     0.134 A 
ATOM     84  C   UNL A   1      46.058  24.561  33.494  1.00  0.00     0.134 A 
ATOM     85  F   UNL A   1      42.990  22.739  32.846  1.00  0.00    -0.206 F 
ATOM     86  C   UNL A   1      44.440  22.638  34.668  1.00  0.00     0.040 A 
ATOM     87  C   UNL A   1      46.374  24.052  34.761  1.00  0.00     0.040 A 
ATOM     88  F   UNL A   1      46.851  25.522  32.999  1.00  0.00    -0.206 F 
ATOM     89  C   UNL A   1      45.556  23.095  35.356  1.00  0.00     0.006 A 
ENDBRANCH  61  82
BRANCH  73  90
ATOM     90  C   UNL A   1      41.466  25.024  27.610  1.00  0.00     0.057 A 
ATOM     91  C   UNL A   1      40.985  26.101  28.362  1.00  0.00     0.134 A 
ATOM     92  C   UNL A   1      40.545  24.036  27.241  1.00  0.00     0.134 A 
ATOM     93  F   UNL A   1      41.826  27.059  28.785  1.00  0.00    -0.206 F 
ATOM     94  C   UNL A   1      39.645  26.199  28.732  1.00  0.00     0.040 A 
ATOM     95  C   UNL A   1      39.192  24.140  27.576  1.00  0.00     0.040 A 
ATOM     96  F   UNL A   1      40.933  22.933  26.587  1.00  0.00    -0.206 F 
ATOM     97  C   UNL A   1      38.739  25.221  28.329  1.00  0.00     0.006 A 
ENDBRANCH  73  90
ENDBRANCH  47  48
ENDBRANCH  39  42
ENDBRANCH  37  38
ENDBRANCH  36  37
ENDBRANCH  35  36
ENDBRANCH   1  35
TORSDOF 18
ENDMDL
MODEL 2
REMARK VINA RESULT:      -9.7      2.262      4.305
REMARK SMILES CC(C)c1ccc2c(c1)c(SC(C)(C)C)c(CC(C)(C)C(=O)NCCCCNC(=O)c1ccc(-c3c4nc(c(-c5c(F)cccc5F)c5ccc([nH]5)c(-c5c(F)cccc5F)c5nc(c(-c6c(F)cccc6F)c6ccc3[nH]6)C=C5)C=C4)cc1)n2Cc1ccc(Cl)cc1
REMARK SMILES IDX 24 1 23 2 21 3 22 4 18 6 19 7 20 8 17 9 16 10 4 11 5 12 9 13
REMARK SMILES IDX 6 14 8 15 7 16 10 17 85 18 2 19 1 20 3 21 11 22 12 23 13 24
REMARK SMILES IDX 14 25 15 26 86 27 87 28 88 29 93 30 89 31 92 32 90 33 91 34
REMARK SMILES IDX 25 35 26 36 27 37 28 38 29 39 30 41 31 42 32 43 84 44 33 45
REMARK SMILES IDX 83 46 34 47 35 48 36 49 77 50 37 51 82 52 76 53 78 54 38 55
REMARK SMILES IDX 81 56 75 57 74 58 39 60 65 61 48 62 64 63 49 64 52 65 63 66
REMARK SMILES IDX 79 67 50 68 51 69 62 71 80 72 53 73 40 74 41 75 46 76 42 77
REMARK SMILES IDX 43 78 45 79 47 80 44 81 66 82 67 83 72 84 68 85 69 86 71 87
REMARK SMILES IDX 73 88 70 89 54 90 55 91 60 92 56 93 57 94 59 95 61 96 58 97
REMARK H PARENT 23 5 28 40 78 59 52 70
REMARK Flexibility Score: inf
ROOT
ATOM      1  C   UNL A   1      42.149  31.004  34.470  1.00  0.00     0.116 C 
ENDROOT
BRANCH   1   2
ATOM      2  N   UNL A   1      41.018  30.926  35.386  1.00  0.00    -0.356 N 
ATOM      3  C   UNL A   1      39.730  30.562  35.088  1.00  0.00     0.226 C 
ATOM      4  O   UNL A   1      39.049  30.105  36.021  1.00  0.00    -0.275 OA
ATOM      5  H   UNL A   1      41.200  31.161  36.325  1.00  0.00     0.163 HD
BRANCH   3   6
ATOM      6  C   UNL A   1      39.312  30.511  33.623  1.00  0.00     0.049 C 
ATOM      7  C   UNL A   1      40.003  29.162  33.284  1.00  0.00     0.022 C 
ATOM      8  C   UNL A   1      39.752  31.868  32.980  1.00  0.00     0.022 C 
BRANCH   6   9
ATOM      9  C   UNL A   1      37.806  30.474  33.231  1.00  0.00     0.071 C 
BRANCH   9  10
ATOM     10  C   UNL A   1      37.257  31.653  32.556  1.00  0.00     0.034 A 
ATOM     11  C   UNL A   1      34.619  34.517  30.039  1.00  0.00    -0.045 A 
ATOM     12  C   UNL A   1      34.200  34.862  31.326  1.00  0.00     0.006 A 
ATOM     13  C   UNL A   1      35.710  33.626  29.910  1.00  0.00     0.015 A 
ATOM     14  C   UNL A   1      34.785  34.301  32.467  1.00  0.00     0.027 A 
ATOM     15  C   UNL A   1      36.311  33.011  31.044  1.00  0.00     0.014 A 
ATOM     16  C   UNL A   1      35.802  33.347  32.308  1.00  0.00     0.050 A 
ATOM     17  C   UNL A   1      37.359  32.028  31.224  1.00  0.00     0.037 A 
ATOM     18  N   UNL A   1      36.478  32.580  33.244  1.00  0.00    -0.339 N 
BRANCH  11  19
ATOM     19  C   UNL A   1      33.921  35.035  28.783  1.00  0.00     0.013 C 
ATOM     20  C   UNL A   1      33.153  33.903  28.083  1.00  0.00     0.012 C 
ATOM     21  C   UNL A   1      32.956  36.210  29.001  1.00  0.00     0.012 C 
ENDBRANCH  11  19
BRANCH  17  22
ATOM     22  S   UNL A   1      38.264  31.362  29.832  1.00  0.00    -0.118 SA
BRANCH  22  23
ATOM     23  C   UNL A   1      38.022  29.568  29.314  1.00  0.00     0.012 C 
ATOM     24  C   UNL A   1      38.783  29.279  28.015  1.00  0.00     0.023 C 
ATOM     25  C   UNL A   1      38.213  28.357  30.260  1.00  0.00     0.023 C 
ATOM     26  C   UNL A   1      36.493  29.497  29.051  1.00  0.00     0.023 C 
ENDBRANCH  22  23
ENDBRANCH  17  22
BRANCH  18  27
ATOM     27  C   UNL A   1      36.503  32.873  34.705  1.00  0.00     0.158 C 
BRANCH  27  28
ATOM     28  C   UNL A   1      37.681  33.657  35.263  1.00  0.00    -0.028 A 
ATOM     29  C   UNL A   1      38.092  33.501  36.604  1.00  0.00     0.007 A 
ATOM     30  C   UNL A   1      38.389  34.578  34.473  1.00  0.00     0.007 A 
ATOM     31  C   UNL A   1      39.011  34.378  37.190  1.00  0.00     0.021 A 
ATOM     32  C   UNL A   1      39.361  35.417  35.045  1.00  0.00     0.021 A 
ATOM     33  C   UNL A   1      39.622  35.353  36.411  1.00  0.00     0.041 A 
ATOM     34  Cl  UNL A   1      40.667  36.504  37.152  1.00  0.00    -0.084 Cl
ENDBRANCH  27  28
ENDBRANCH  18  27
ENDBRANCH   9  10
ENDBRANCH   6   9
ENDBRANCH   3   6
ENDBRANCH   1   2
BRANCH   1  35
ATOM     35  C   UNL A   1      43.054  32.172  34.754  1.00  0.00     0.023 C 
BRANCH  35  36
ATOM     36  C   UNL A   1      42.325  33.495  34.592  1.00  0.00     0.023 C 
BRANCH  36  37
ATOM     37  C   UNL A   1      43.111  34.538  33.779  1.00  0.00     0.116 C 
BRANCH  37  38
ATOM     38  N   UNL A   1      42.385  35.054  32.631  1.00  0.00    -0.352 N 
ATOM     39  C   UNL A   1      42.072  34.536  31.411  1.00  0.00     0.251 C 
ATOM     40  H   UNL A   1      42.048  35.969  32.763  1.00  0.00     0.163 HD
ATOM     41  O   UNL A   1      41.343  35.225  30.682  1.00  0.00    -0.269 OA
BRANCH  39  42
ATOM     42  C   UNL A   1      42.600  33.253  30.887  1.00  0.00     0.039 A 
ATOM     43  C   UNL A   1      41.840  32.299  30.215  1.00  0.00     0.014 A 
ATOM     44  C   UNL A   1      43.949  32.966  31.165  1.00  0.00     0.014 A 
ATOM     45  C   UNL A   1      42.349  31.044  29.961  1.00  0.00     0.010 A 
ATOM     46  C   UNL A   1      44.488  31.724  30.858  1.00  0.00     0.010 A 
ATOM     47  C   UNL A   1      43.664  30.749  30.308  1.00  0.00    -0.014 A 
BRANCH  47  48
ATOM     48  C   UNL A   1      44.131  29.420  29.954  1.00  0.00     0.031 A 
ATOM     49  C   UNL A   1      44.933  29.389  28.702  1.00  0.00     0.074 A 
ATOM     50  C   UNL A   1      43.882  28.330  30.701  1.00  0.00     0.049 A 
ATOM     51  N   UNL A   1      44.618  28.845  27.573  1.00  0.00    -0.248 NA
ATOM     52  C   UNL A   1      46.156  30.203  28.653  1.00  0.00     0.031 C 
ATOM     53  C   UNL A   1      43.337  28.283  32.060  1.00  0.00     0.029 A 
ATOM     54  N   UNL A   1      44.151  27.022  30.427  1.00  0.00    -0.354 N 
ATOM     55  C   UNL A   1      45.704  29.071  26.728  1.00  0.00     0.074 A 
ATOM     56  C   UNL A   1      46.537  30.040  27.385  1.00  0.00     0.031 C 
ATOM     57  C   UNL A   1      43.540  27.052  32.576  1.00  0.00     0.029 A 
ATOM     58  C   UNL A   1      44.074  26.192  31.534  1.00  0.00     0.049 A 
ATOM     59  H   UNL A   1      44.378  26.697  29.526  1.00  0.00     0.167 HD
ATOM     60  C   UNL A   1      45.960  28.225  25.692  1.00  0.00     0.037 A 
ATOM     61  C   UNL A   1      44.467  24.898  31.601  1.00  0.00     0.037 A 
ATOM     62  C   UNL A   1      44.799  27.430  25.383  1.00  0.00     0.049 A 
ATOM     63  C   UNL A   1      44.502  24.359  30.225  1.00  0.00     0.074 A 
ATOM     64  C   UNL A   1      43.593  27.603  24.741  1.00  0.00     0.029 A 
ATOM     65  N   UNL A   1      44.712  26.280  26.118  1.00  0.00    -0.354 N 
ATOM     66  N   UNL A   1      43.439  24.166  29.498  1.00  0.00    -0.248 NA
ATOM     67  C   UNL A   1      45.766  24.338  29.497  1.00  0.00     0.031 C 
ATOM     68  C   UNL A   1      42.714  26.620  25.288  1.00  0.00     0.029 A 
ATOM     69  C   UNL A   1      43.417  25.863  26.224  1.00  0.00     0.049 A 
ATOM     70  H   UNL A   1      45.482  25.815  26.518  1.00  0.00     0.167 HD
ATOM     71  C   UNL A   1      43.851  24.428  28.206  1.00  0.00     0.074 A 
ATOM     72  C   UNL A   1      45.306  24.342  28.243  1.00  0.00     0.031 C 
ATOM     73  C   UNL A   1      43.001  25.000  27.307  1.00  0.00     0.037 A 
BRANCH  60  74
ATOM     74  C   UNL A   1      47.347  27.707  25.345  1.00  0.00     0.057 A 
ATOM     75  C   UNL A   1      48.180  26.997  26.234  1.00  0.00     0.134 A 
ATOM     76  C   UNL A   1      47.697  27.584  23.984  1.00  0.00     0.134 A 
ATOM     77  F   UNL A   1      47.976  26.975  27.555  1.00  0.00    -0.206 F 
ATOM     78  C   UNL A   1      49.225  26.174  25.804  1.00  0.00     0.040 A 
ATOM     79  C   UNL A   1      48.715  26.729  23.540  1.00  0.00     0.040 A 
ATOM     80  F   UNL A   1      46.995  28.218  23.031  1.00  0.00    -0.206 F 
ATOM     81  C   UNL A   1      49.470  26.005  24.451  1.00  0.00     0.006 A 
ENDBRANCH  60  74
BRANCH  61  82
ATOM     82  C   UNL A   1      45.036  24.170  32.752  1.00  0.00     0.057 A 
ATOM     83  C   UNL A   1      44.311  23.148  33.390  1.00  0.00     0.134 A 
ATOM     84  C   UNL A   1      46.174  24.633  33.422  1.00  0.00     0.134 A 
ATOM     85  F   UNL A   1      43.165  22.686  32.866  1.00  0.00    -0.206 F 
ATOM     86  C   UNL A   1      44.686  22.630  34.632  1.00  0.00     0.040 A 
ATOM     87  C   UNL A   1      46.559  24.125  34.670  1.00  0.00     0.040 A 
ATOM     88  F   UNL A   1      46.906  25.633  32.909  1.00  0.00    -0.206 F 
ATOM     89  C   UNL A   1      45.807  23.129  35.284  1.00  0.00     0.006 A 
ENDBRANCH  61  82
BRANCH  73  90
ATOM     90  C   UNL A   1      41.535  24.875  27.575  1.00  0.00     0.057 A 
ATOM     91  C   UNL A   1      40.840  23.825  26.966  1.00  0.00     0.134 A 
ATOM     92  C   UNL A   1      40.788  25.785  28.333  1.00  0.00     0.134 A 
ATOM     93  F   UNL A   1      41.491  22.944  26.189  1.00  0.00    -0.206 F 
ATOM     94  C   UNL A   1      39.461  23.677  27.106  1.00  0.00     0.040 A 
ATOM     95  C   UNL A   1      39.410  25.630  28.509  1.00  0.00     0.040 A 
ATOM     96  F   UNL A   1      41.360  26.863  28.886  1.00  0.00    -0.206 F 
ATOM     97  C   UNL A   1      38.742  24.576  27.890  1.00  0.00     0.006 A 
ENDBRANCH  73  90
ENDBRANCH  47  48
ENDBRANCH  39  42
ENDBRANCH  37  38
ENDBRANCH  36  37
ENDBRANCH  35  36
ENDBRANCH   1  35
TORSDOF 18
ENDMDL
MODEL 3
REMARK VINA RESULT:      -9.7      4.042     11.860
REMARK SMILES CC(C)c1ccc2c(c1)c(SC(C)(C)C)c(CC(C)(C)C(=O)NCCCCNC(=O)c1ccc(-c3c4nc(c(-c5c(F)cccc5F)c5ccc([nH]5)c(-c5c(F)cccc5F)c5nc(c(-c6c(F)cccc6F)c6ccc3[nH]6)C=C5)C=C4)cc1)n2Cc1ccc(Cl)cc1
REMARK SMILES IDX 24 1 23 2 21 3 22 4 18 6 19 7 20 8 17 9 16 10 4 11 5 12 9 13
REMARK SMILES IDX 6 14 8 15 7 16 10 17 85 18 2 19 1 20 3 21 11 22 12 23 13 24
REMARK SMILES IDX 14 25 15 26 86 27 87 28 88 29 93 30 89 31 92 32 90 33 91 34
REMARK SMILES IDX 25 35 26 36 27 37 28 38 29 39 30 41 31 42 32 43 84 44 33 45
REMARK SMILES IDX 83 46 34 47 35 48 36 49 77 50 37 51 82 52 76 53 78 54 38 55
REMARK SMILES IDX 81 56 75 57 74 58 39 60 65 61 48 62 64 63 49 64 52 65 63 66
REMARK SMILES IDX 79 67 50 68 51 69 62 71 80 72 53 73 40 74 41 75 46 76 42 77
REMARK SMILES IDX 43 78 45 79 47 80 44 81 66 82 67 83 72 84 68 85 69 86 71 87
REMARK SMILES IDX 73 88 70 89 54 90 55 91 60 92 56 93 57 94 59 95 61 96 58 97
REMARK H PARENT 23 5 28 40 78 59 52 70
REMARK Flexibility Score: inf
ROOT
ATOM      1  C   UNL A   1      45.533  25.916  25.363  1.00  0.00     0.116 C 
ENDROOT
BRANCH   1   2
ATOM      2  N   UNL A   1      45.656  27.199  24.682  1.00  0.00    -0.356 N 
ATOM      3  C   UNL A   1      46.811  27.867  24.370  1.00  0.00     0.226 C 
ATOM      4  O   UNL A   1      46.757  28.660  23.415  1.00  0.00    -0.275 OA
ATOM      5  H   UNL A   1      44.813  27.634  24.417  1.00  0.00     0.163 HD
BRANCH   3   6
ATOM      6  C   UNL A   1      48.109  27.421  25.034  1.00  0.00     0.049 C 
ATOM      7  C   UNL A   1      48.409  28.760  25.762  1.00  0.00     0.022 C 
ATOM      8  C   UNL A   1      49.026  26.854  23.900  1.00  0.00     0.022 C 
BRANCH   6   9
ATOM      9  C   UNL A   1      48.115  26.232  26.040  1.00  0.00     0.071 C 
BRANCH   9  10
ATOM     10  C   UNL A   1      48.786  26.442  27.325  1.00  0.00     0.034 A 
ATOM     11  C   UNL A   1      51.415  28.126  30.753  1.00  0.00    -0.045 A 
ATOM     12  C   UNL A   1      50.160  28.592  31.152  1.00  0.00     0.006 A 
ATOM     13  C   UNL A   1      51.478  27.244  29.649  1.00  0.00     0.015 A 
ATOM     14  C   UNL A   1      48.994  28.264  30.450  1.00  0.00     0.027 A 
ATOM     15  C   UNL A   1      50.320  26.911  28.892  1.00  0.00     0.014 A 
ATOM     16  C   UNL A   1      49.097  27.465  29.301  1.00  0.00     0.050 A 
ATOM     17  C   UNL A   1      50.084  26.123  27.700  1.00  0.00     0.037 A 
ATOM     18  N   UNL A   1      48.135  27.071  28.383  1.00  0.00    -0.339 N 
BRANCH  11  19
ATOM     19  C   UNL A   1      52.707  28.561  31.439  1.00  0.00     0.013 C 
ATOM     20  C   UNL A   1      53.084  27.581  32.560  1.00  0.00     0.012 C 
ATOM     21  C   UNL A   1      53.923  28.726  30.513  1.00  0.00     0.012 C 
ENDBRANCH  11  19
BRANCH  17  22
ATOM     22  S   UNL A   1      51.410  25.242  26.884  1.00  0.00    -0.118 SA
BRANCH  22  23
ATOM     23  C   UNL A   1      52.678  26.178  25.853  1.00  0.00     0.012 C 
ATOM     24  C   UNL A   1      53.225  25.283  24.737  1.00  0.00     0.023 C 
ATOM     25  C   UNL A   1      52.446  27.591  25.263  1.00  0.00     0.023 C 
ATOM     26  C   UNL A   1      53.801  26.473  26.886  1.00  0.00     0.023 C 
ENDBRANCH  22  23
ENDBRANCH  17  22
BRANCH  18  27
ATOM     27  C   UNL A   1      46.668  27.136  28.630  1.00  0.00     0.158 C 
BRANCH  27  28
ATOM     28  C   UNL A   1      46.027  26.036  29.465  1.00  0.00    -0.028 A 
ATOM     29  C   UNL A   1      45.787  24.755  28.925  1.00  0.00     0.007 A 
ATOM     30  C   UNL A   1      45.632  26.261  30.794  1.00  0.00     0.007 A 
ATOM     31  C   UNL A   1      44.994  23.819  29.596  1.00  0.00     0.021 A 
ATOM     32  C   UNL A   1      44.890  25.296  31.496  1.00  0.00     0.021 A 
ATOM     33  C   UNL A   1      44.524  24.106  30.871  1.00  0.00     0.041 A 
ATOM     34  Cl  UNL A   1      43.456  23.006  31.654  1.00  0.00    -0.084 Cl
ENDBRANCH  27  28
ENDBRANCH  18  27
ENDBRANCH   9  10
ENDBRANCH   6   9
ENDBRANCH   3   6
ENDBRANCH   1   2
BRANCH   1  35
ATOM     35  C   UNL A   1      44.117  25.407  25.405  1.00  0.00     0.023 C 
BRANCH  35  36
ATOM     36  C   UNL A   1      44.070  23.912  25.674  1.00  0.00     0.023 C 
BRANCH  36  37
ATOM     37  C   UNL A   1      43.114  23.148  24.742  1.00  0.00     0.116 C 
BRANCH  37  38
ATOM     38  N   UNL A   1      42.096  22.385  25.447  1.00  0.00    -0.352 N 
ATOM     39  C   UNL A   1      41.137  22.719  26.354  1.00  0.00     0.251 C 
ATOM     40  H   UNL A   1      42.102  21.428  25.221  1.00  0.00     0.163 HD
ATOM     41  O   UNL A   1      40.354  21.820  26.695  1.00  0.00    -0.269 OA
BRANCH  39  42
ATOM     42  C   UNL A   1      41.021  24.050  26.996  1.00  0.00     0.039 A 
ATOM     43  C   UNL A   1      40.359  25.142  26.441  1.00  0.00     0.014 A 
ATOM     44  C   UNL A   1      41.698  24.223  28.217  1.00  0.00     0.014 A 
ATOM     45  C   UNL A   1      40.487  26.400  26.992  1.00  0.00     0.010 A 
ATOM     46  C   UNL A   1      41.782  25.475  28.811  1.00  0.00     0.010 A 
ATOM     47  C   UNL A   1      41.222  26.568  28.161  1.00  0.00    -0.014 A 
BRANCH  47  48
ATOM     48  C   UNL A   1      41.259  27.917  28.698  1.00  0.00     0.031 A 
ATOM     49  C   UNL A   1      42.487  28.669  28.326  1.00  0.00     0.074 A 
ATOM     50  C   UNL A   1      40.267  28.441  29.439  1.00  0.00     0.049 A 
ATOM     51  N   UNL A   1      43.444  29.057  29.103  1.00  0.00    -0.248 NA
ATOM     52  C   UNL A   1      42.762  28.866  26.895  1.00  0.00     0.031 C 
ATOM     53  C   UNL A   1      38.923  27.897  29.645  1.00  0.00     0.029 A 
ATOM     54  N   UNL A   1      40.226  29.633  30.099  1.00  0.00    -0.354 N 
ATOM     55  C   UNL A   1      44.347  29.735  28.283  1.00  0.00     0.074 A 
ATOM     56  C   UNL A   1      43.963  29.445  26.930  1.00  0.00     0.031 C 
ATOM     57  C   UNL A   1      38.131  28.857  30.171  1.00  0.00     0.029 A 
ATOM     58  C   UNL A   1      38.949  30.015  30.484  1.00  0.00     0.049 A 
ATOM     59  H   UNL A   1      41.028  30.172  30.287  1.00  0.00     0.167 HD
ATOM     60  C   UNL A   1      45.156  30.701  28.798  1.00  0.00     0.037 A 
ATOM     61  C   UNL A   1      38.584  31.220  30.982  1.00  0.00     0.037 A 
ATOM     62  C   UNL A   1      45.235  30.590  30.232  1.00  0.00     0.049 A 
ATOM     63  C   UNL A   1      39.792  31.872  31.532  1.00  0.00     0.074 A 
ATOM     64  C   UNL A   1      45.868  29.786  31.153  1.00  0.00     0.029 A 
ATOM     65  N   UNL A   1      44.243  31.265  30.889  1.00  0.00    -0.354 N 
ATOM     66  N   UNL A   1      40.423  31.447  32.589  1.00  0.00    -0.248 NA
ATOM     67  C   UNL A   1      40.525  32.829  30.711  1.00  0.00     0.031 C 
ATOM     68  C   UNL A   1      45.079  29.855  32.342  1.00  0.00     0.029 A 
ATOM     69  C   UNL A   1      44.007  30.718  32.116  1.00  0.00     0.049 A 
ATOM     70  H   UNL A   1      43.764  32.043  30.524  1.00  0.00     0.167 HD
ATOM     71  C   UNL A   1      41.751  31.735  32.337  1.00  0.00     0.074 A 
ATOM     72  C   UNL A   1      41.731  32.736  31.278  1.00  0.00     0.031 C 
ATOM     73  C   UNL A   1      42.738  30.908  32.784  1.00  0.00     0.037 A 
BRANCH  60  74
ATOM     74  C   UNL A   1      45.404  32.043  28.128  1.00  0.00     0.057 A 
ATOM     75  C   UNL A   1      46.600  32.400  27.472  1.00  0.00     0.134 A 
ATOM     76  C   UNL A   1      44.291  32.847  27.803  1.00  0.00     0.134 A 
ATOM     77  F   UNL A   1      47.743  31.727  27.636  1.00  0.00    -0.206 F 
ATOM     78  C   UNL A   1      46.669  33.420  26.518  1.00  0.00     0.040 A 
ATOM     79  C   UNL A   1      44.341  33.843  26.818  1.00  0.00     0.040 A 
ATOM     80  F   UNL A   1      43.093  32.626  28.366  1.00  0.00    -0.206 F 
ATOM     81  C   UNL A   1      45.529  34.118  26.157  1.00  0.00     0.006 A 
ENDBRANCH  60  74
BRANCH  61  82
ATOM     82  C   UNL A   1      37.308  31.939  30.803  1.00  0.00     0.057 A 
ATOM     83  C   UNL A   1      36.273  31.818  31.748  1.00  0.00     0.134 A 
ATOM     84  C   UNL A   1      36.967  32.534  29.583  1.00  0.00     0.134 A 
ATOM     85  F   UNL A   1      36.478  31.196  32.919  1.00  0.00    -0.206 F 
ATOM     86  C   UNL A   1      34.970  32.248  31.487  1.00  0.00     0.040 A 
ATOM     87  C   UNL A   1      35.663  32.967  29.307  1.00  0.00     0.040 A 
ATOM     88  F   UNL A   1      37.878  32.655  28.607  1.00  0.00    -0.206 F 
ATOM     89  C   UNL A   1      34.657  32.813  30.256  1.00  0.00     0.006 A 
ENDBRANCH  61  82
BRANCH  73  90
ATOM     90  C   UNL A   1      42.411  30.006  33.930  1.00  0.00     0.057 A 
ATOM     91  C   UNL A   1      42.667  30.466  35.226  1.00  0.00     0.134 A 
ATOM     92  C   UNL A   1      41.937  28.695  33.795  1.00  0.00     0.134 A 
ATOM     93  F   UNL A   1      43.165  31.698  35.420  1.00  0.00    -0.206 F 
ATOM     94  C   UNL A   1      42.457  29.663  36.346  1.00  0.00     0.040 A 
ATOM     95  C   UNL A   1      41.691  27.891  34.912  1.00  0.00     0.040 A 
ATOM     96  F   UNL A   1      41.740  28.147  32.589  1.00  0.00    -0.206 F 
ATOM     97  C   UNL A   1      41.956  28.373  36.192  1.00  0.00     0.006 A 
ENDBRANCH  73  90
ENDBRANCH  47  48
ENDBRANCH  39  42
ENDBRANCH  37  38
ENDBRANCH  36  37
ENDBRANCH  35  36
ENDBRANCH   1  35
TORSDOF 18
ENDMDL
