MODEL 1
REMARK VINA RESULT:     -10.6      0.000      0.000
REMARK SMILES NS(=O)(=O)c1ccc(-n2nc(C(=O)NCCCCCCCCCCC(=O)NCCCCNC(=O)c3ccc(-c4c5nc(c(-c6c(F)cccc6F)c6ccc([nH]6)c(-c6c(F)cccc6F)c6nc(c(-c7c(F)cccc7F)c7ccc4[nH]7)C=C6)C=C5)cc3)cc2-c2ccccc2)cc1
REMARK SMILES IDX 21 1 20 2 19 3 18 4 17 5 16 6 15 7 14 8 12 9 13 10 11 12
REMARK SMILES IDX 9 13 10 14 90 15 89 16 8 17 5 18 6 19 98 20 7 21 97 22 2 23
REMARK SMILES IDX 3 24 4 25 1 26 91 29 92 30 96 31 93 32 95 33 94 34 22 35
REMARK SMILES IDX 23 36 24 37 25 38 26 39 27 40 28 42 29 43 30 44 31 45 32 46
REMARK SMILES IDX 33 47 34 49 35 50 36 51 88 52 37 53 87 54 38 55 39 56 40 57
REMARK SMILES IDX 81 58 41 59 86 60 80 61 82 62 42 63 85 64 79 65 78 66 43 68
REMARK SMILES IDX 69 69 52 70 68 71 53 72 56 73 67 74 83 75 54 76 55 77 66 79
REMARK SMILES IDX 84 80 57 81 44 82 45 83 50 84 46 85 47 86 49 87 51 88 48 89
REMARK SMILES IDX 70 90 71 91 76 92 72 93 73 94 75 95 77 96 74 97 58 98 59 99
REMARK SMILES IDX 64 100 60 101 61 102 63 103 65 104 62 105
REMARK H PARENT 14 11 1 27 1 28 27 41 32 48 82 67 56 78
REMARK Flexibility Score: inf
ROOT
ATOM      1  C   UNL A   1      36.363  23.514  24.494  1.00  0.00     0.000 C 
ENDROOT
BRANCH   1   2
ATOM      2  C   UNL A   1      37.107  23.017  25.726  1.00  0.00     0.000 C 
BRANCH   2   3
ATOM      3  C   UNL A   1      38.154  24.007  26.240  1.00  0.00     0.000 C 
BRANCH   3   4
ATOM      4  C   UNL A   1      39.428  23.339  26.773  1.00  0.00     0.000 C 
BRANCH   4   5
ATOM      5  C   UNL A   1      40.285  24.252  27.660  1.00  0.00     0.002 C 
BRANCH   5   6
ATOM      6  C   UNL A   1      40.064  25.746  27.404  1.00  0.00     0.021 C 
BRANCH   6   7
ATOM      7  C   UNL A   1      41.373  26.533  27.452  1.00  0.00     0.116 C 
BRANCH   7   8
ATOM      8  N   UNL A   1      41.475  27.385  26.296  1.00  0.00    -0.351 N 
ATOM      9  C   UNL A   1      42.488  27.588  25.394  1.00  0.00     0.271 C 
ATOM     10  O   UNL A   1      42.279  28.454  24.542  1.00  0.00    -0.267 OA
ATOM     11  H   UNL A   1      40.668  27.921  26.121  1.00  0.00     0.163 HD
BRANCH   9  12
ATOM     12  C   UNL A   1      43.713  26.762  25.406  1.00  0.00     0.151 A 
ATOM     13  N   UNL A   1      44.814  24.917  25.438  1.00  0.00    -0.232 N 
ATOM     14  N   UNL A   1      43.628  25.457  25.095  1.00  0.00    -0.162 NA
ATOM     15  C   UNL A   1      45.731  25.876  25.826  1.00  0.00     0.075 A 
ATOM     16  C   UNL A   1      45.066  27.077  25.687  1.00  0.00     0.065 A 
BRANCH  13  17
ATOM     17  C   UNL A   1      44.988  23.520  25.349  1.00  0.00     0.065 A 
ATOM     18  C   UNL A   1      45.211  20.775  25.050  1.00  0.00     0.082 A 
ATOM     19  C   UNL A   1      46.244  21.603  24.598  1.00  0.00     0.024 A 
ATOM     20  C   UNL A   1      44.084  21.308  25.685  1.00  0.00     0.024 A 
ATOM     21  C   UNL A   1      46.124  22.983  24.733  1.00  0.00     0.030 A 
ATOM     22  C   UNL A   1      43.987  22.685  25.865  1.00  0.00     0.030 A 
BRANCH  18  23
ATOM     23  S   UNL A   1      45.266  19.031  24.786  1.00  0.00     0.238 S 
ATOM     24  O   UNL A   1      45.824  18.794  23.462  1.00  0.00    -0.207 OA
ATOM     25  O   UNL A   1      44.034  18.455  25.229  1.00  0.00    -0.207 OA
BRANCH  23  26
ATOM     26  N   UNL A   1      46.449  18.485  25.851  1.00  0.00    -0.225 NA
ATOM     27  H   UNL A   1      46.525  17.470  25.783  1.00  0.00     0.137 HD
ATOM     28  H   UNL A   1      46.193  18.743  26.805  1.00  0.00     0.137 HD
ENDBRANCH  23  26
ENDBRANCH  18  23
ENDBRANCH  13  17
BRANCH  15  29
ATOM     29  C   UNL A   1      47.131  25.658  26.171  1.00  0.00     0.000 A 
ATOM     30  C   UNL A   1      48.150  26.030  25.288  1.00  0.00     0.010 A 
ATOM     31  C   UNL A   1      47.466  25.092  27.409  1.00  0.00     0.010 A 
ATOM     32  C   UNL A   1      49.488  25.827  25.634  1.00  0.00     0.001 A 
ATOM     33  C   UNL A   1      48.804  24.886  27.750  1.00  0.00     0.001 A 
ATOM     34  C   UNL A   1      49.813  25.254  26.861  1.00  0.00     0.000 A 
ENDBRANCH  15  29
ENDBRANCH   9  12
ENDBRANCH   7   8
ENDBRANCH   6   7
ENDBRANCH   5   6
ENDBRANCH   4   5
ENDBRANCH   3   4
ENDBRANCH   2   3
ENDBRANCH   1   2
BRANCH   1  35
ATOM     35  C   UNL A   1      35.087  24.282  24.854  1.00  0.00     0.001 C 
BRANCH  35  36
ATOM     36  C   UNL A   1      33.964  23.409  25.395  1.00  0.00     0.010 C 
BRANCH  36  37
ATOM     37  C   UNL A   1      33.452  23.780  26.786  1.00  0.00     0.100 C 
BRANCH  37  38
ATOM     38  C   UNL A   1      31.955  24.015  26.857  1.00  0.00     0.219 C 
ATOM     39  O   UNL A   1      31.213  23.152  27.334  1.00  0.00    -0.275 OA
ATOM     40  N   UNL A   1      31.384  25.175  26.427  1.00  0.00    -0.356 N 
ATOM     41  H   UNL A   1      30.409  25.214  26.551  1.00  0.00     0.163 HD
BRANCH  40  42
ATOM     42  C   UNL A   1      31.958  26.363  25.820  1.00  0.00     0.116 C 
BRANCH  42  43
ATOM     43  C   UNL A   1      32.752  27.209  26.828  1.00  0.00     0.023 C 
BRANCH  43  44
ATOM     44  C   UNL A   1      32.460  28.714  26.861  1.00  0.00     0.023 C 
BRANCH  44  45
ATOM     45  C   UNL A   1      33.486  29.570  27.591  1.00  0.00     0.116 C 
BRANCH  45  46
ATOM     46  N   UNL A   1      33.309  31.012  27.385  1.00  0.00    -0.352 N 
ATOM     47  C   UNL A   1      33.975  32.041  28.031  1.00  0.00     0.251 C 
ATOM     48  H   UNL A   1      32.643  31.278  26.711  1.00  0.00     0.163 HD
ATOM     49  O   UNL A   1      33.511  33.171  28.098  1.00  0.00    -0.269 OA
BRANCH  47  50
ATOM     50  C   UNL A   1      35.285  31.733  28.624  1.00  0.00     0.039 A 
ATOM     51  C   UNL A   1      36.334  31.195  27.876  1.00  0.00     0.014 A 
ATOM     52  C   UNL A   1      35.466  32.134  29.943  1.00  0.00     0.014 A 
ATOM     53  C   UNL A   1      37.608  31.167  28.442  1.00  0.00     0.010 A 
ATOM     54  C   UNL A   1      36.742  32.273  30.419  1.00  0.00     0.010 A 
ATOM     55  C   UNL A   1      37.813  31.741  29.707  1.00  0.00    -0.014 A 
BRANCH  55  56
ATOM     56  C   UNL A   1      39.157  31.898  30.259  1.00  0.00     0.031 A 
ATOM     57  C   UNL A   1      39.819  30.639  30.709  1.00  0.00     0.074 A 
ATOM     58  C   UNL A   1      39.856  33.050  30.151  1.00  0.00     0.049 A 
ATOM     59  N   UNL A   1      40.159  30.306  31.910  1.00  0.00    -0.248 NA
ATOM     60  C   UNL A   1      40.028  29.572  29.717  1.00  0.00     0.031 C 
ATOM     61  C   UNL A   1      39.484  34.285  29.447  1.00  0.00     0.029 A 
ATOM     62  N   UNL A   1      41.123  33.322  30.567  1.00  0.00    -0.354 N 
ATOM     63  C   UNL A   1      40.818  29.083  31.802  1.00  0.00     0.074 A 
ATOM     64  C   UNL A   1      40.542  28.600  30.475  1.00  0.00     0.031 C 
ATOM     65  C   UNL A   1      40.575  35.060  29.275  1.00  0.00     0.029 A 
ATOM     66  C   UNL A   1      41.667  34.481  30.028  1.00  0.00     0.049 A 
ATOM     67  H   UNL A   1      41.613  32.746  31.197  1.00  0.00     0.167 HD
ATOM     68  C   UNL A   1      41.743  28.698  32.728  1.00  0.00     0.037 A 
ATOM     69  C   UNL A   1      42.932  34.939  30.185  1.00  0.00     0.037 A 
ATOM     70  C   UNL A   1      41.605  29.469  33.941  1.00  0.00     0.049 A 
ATOM     71  C   UNL A   1      43.493  34.275  31.383  1.00  0.00     0.074 A 
ATOM     72  C   UNL A   1      40.588  29.691  34.850  1.00  0.00     0.029 A 
ATOM     73  N   UNL A   1      42.523  30.465  34.170  1.00  0.00    -0.354 N 
ATOM     74  N   UNL A   1      43.072  34.489  32.598  1.00  0.00    -0.248 NA
ATOM     75  C   UNL A   1      44.227  33.035  31.186  1.00  0.00     0.031 C 
ATOM     76  C   UNL A   1      40.711  31.067  35.211  1.00  0.00     0.029 A 
ATOM     77  C   UNL A   1      41.831  31.581  34.557  1.00  0.00     0.049 A 
ATOM     78  H   UNL A   1      43.500  30.389  34.076  1.00  0.00     0.167 HD
ATOM     79  C   UNL A   1      43.097  33.243  33.205  1.00  0.00     0.074 A 
ATOM     80  C   UNL A   1      43.916  32.411  32.325  1.00  0.00     0.031 C 
ATOM     81  C   UNL A   1      42.221  32.928  34.205  1.00  0.00     0.037 A 
BRANCH  68  82
ATOM     82  C   UNL A   1      43.018  27.938  32.410  1.00  0.00     0.057 A 
ATOM     83  C   UNL A   1      43.392  26.861  33.240  1.00  0.00     0.134 A 
ATOM     84  C   UNL A   1      44.037  28.394  31.549  1.00  0.00     0.134 A 
ATOM     85  F   UNL A   1      42.517  26.315  34.098  1.00  0.00    -0.206 F 
ATOM     86  C   UNL A   1      44.702  26.368  33.298  1.00  0.00     0.040 A 
ATOM     87  C   UNL A   1      45.337  27.874  31.562  1.00  0.00     0.040 A 
ATOM     88  F   UNL A   1      43.875  29.424  30.713  1.00  0.00    -0.206 F 
ATOM     89  C   UNL A   1      45.685  26.887  32.468  1.00  0.00     0.006 A 
ENDBRANCH  68  82
BRANCH  69  90
ATOM     90  C   UNL A   1      43.763  35.702  29.231  1.00  0.00     0.057 A 
ATOM     91  C   UNL A   1      44.251  35.108  28.060  1.00  0.00     0.134 A 
ATOM     92  C   UNL A   1      43.866  37.103  29.306  1.00  0.00     0.134 A 
ATOM     93  F   UNL A   1      44.166  33.781  27.885  1.00  0.00    -0.206 F 
ATOM     94  C   UNL A   1      44.781  35.865  27.007  1.00  0.00     0.040 A 
ATOM     95  C   UNL A   1      44.397  37.870  28.264  1.00  0.00     0.040 A 
ATOM     96  F   UNL A   1      43.372  37.778  30.353  1.00  0.00    -0.206 F 
ATOM     97  C   UNL A   1      44.841  37.252  27.101  1.00  0.00     0.006 A 
ENDBRANCH  69  90
BRANCH  81  98
ATOM     98  C   UNL A   1      41.420  34.045  34.818  1.00  0.00     0.057 A 
ATOM     99  C   UNL A   1      40.136  34.422  34.397  1.00  0.00     0.134 A 
ATOM    100  C   UNL A   1      41.907  34.659  35.977  1.00  0.00     0.134 A 
ATOM    101  F   UNL A   1      39.542  33.825  33.358  1.00  0.00    -0.206 F 
ATOM    102  C   UNL A   1      39.390  35.394  35.074  1.00  0.00     0.040 A 
ATOM    103  C   UNL A   1      41.160  35.607  36.682  1.00  0.00     0.040 A 
ATOM    104  F   UNL A   1      43.105  34.310  36.474  1.00  0.00    -0.206 F 
ATOM    105  C   UNL A   1      39.900  35.983  36.225  1.00  0.00     0.006 A 
ENDBRANCH  81  98
ENDBRANCH  55  56
ENDBRANCH  47  50
ENDBRANCH  45  46
ENDBRANCH  44  45
ENDBRANCH  43  44
ENDBRANCH  42  43
ENDBRANCH  40  42
ENDBRANCH  37  38
ENDBRANCH  36  37
ENDBRANCH  35  36
ENDBRANCH   1  35
TORSDOF 26
ENDMDL
MODEL 2
REMARK VINA RESULT:     -10.2      4.455     10.195
REMARK SMILES NS(=O)(=O)c1ccc(-n2nc(C(=O)NCCCCCCCCCCC(=O)NCCCCNC(=O)c3ccc(-c4c5nc(c(-c6c(F)cccc6F)c6ccc([nH]6)c(-c6c(F)cccc6F)c6nc(c(-c7c(F)cccc7F)c7ccc4[nH]7)C=C6)C=C5)cc3)cc2-c2ccccc2)cc1
REMARK SMILES IDX 21 1 20 2 19 3 18 4 17 5 16 6 15 7 14 8 12 9 13 10 11 12
REMARK SMILES IDX 9 13 10 14 90 15 89 16 8 17 5 18 6 19 98 20 7 21 97 22 2 23
REMARK SMILES IDX 3 24 4 25 1 26 91 29 92 30 96 31 93 32 95 33 94 34 22 35
REMARK SMILES IDX 23 36 24 37 25 38 26 39 27 40 28 42 29 43 30 44 31 45 32 46
REMARK SMILES IDX 33 47 34 49 35 50 36 51 88 52 37 53 87 54 38 55 39 56 40 57
REMARK SMILES IDX 81 58 41 59 86 60 80 61 82 62 42 63 85 64 79 65 78 66 43 68
REMARK SMILES IDX 69 69 52 70 68 71 53 72 56 73 67 74 83 75 54 76 55 77 66 79
REMARK SMILES IDX 84 80 57 81 44 82 45 83 50 84 46 85 47 86 49 87 51 88 48 89
REMARK SMILES IDX 70 90 71 91 76 92 72 93 73 94 75 95 77 96 74 97 58 98 59 99
REMARK SMILES IDX 64 100 60 101 61 102 63 103 65 104 62 105
REMARK H PARENT 14 11 1 27 1 28 27 41 32 48 82 67 56 78
REMARK Flexibility Score: inf
ROOT
ATOM      1  C   UNL A   1      39.984  23.918  27.408  1.00  0.00     0.000 C 
ENDROOT
BRANCH   1   2
ATOM      2  C   UNL A   1      39.033  23.237  26.433  1.00  0.00     0.000 C 
BRANCH   2   3
ATOM      3  C   UNL A   1      37.780  24.062  26.134  1.00  0.00     0.000 C 
BRANCH   3   4
ATOM      4  C   UNL A   1      36.648  23.256  25.485  1.00  0.00     0.000 C 
BRANCH   4   5
ATOM      5  C   UNL A   1      36.750  23.157  23.957  1.00  0.00     0.002 C 
BRANCH   5   6
ATOM      6  C   UNL A   1      35.401  22.941  23.262  1.00  0.00     0.021 C 
BRANCH   6   7
ATOM      7  C   UNL A   1      34.423  22.164  24.144  1.00  0.00     0.116 C 
BRANCH   7   8
ATOM      8  N   UNL A   1      33.230  21.858  23.399  1.00  0.00    -0.351 N 
ATOM      9  C   UNL A   1      32.030  22.511  23.284  1.00  0.00     0.271 C 
ATOM     10  O   UNL A   1      31.172  21.938  22.608  1.00  0.00    -0.267 OA
ATOM     11  H   UNL A   1      33.287  21.026  22.875  1.00  0.00     0.163 HD
BRANCH   9  12
ATOM     12  C   UNL A   1      31.816  23.849  23.872  1.00  0.00     0.151 A 
ATOM     13  N   UNL A   1      31.147  25.891  23.866  1.00  0.00    -0.232 N 
ATOM     14  N   UNL A   1      30.945  24.691  23.288  1.00  0.00    -0.162 NA
ATOM     15  C   UNL A   1      32.030  25.818  24.926  1.00  0.00     0.075 A 
ATOM     16  C   UNL A   1      32.366  24.483  25.014  1.00  0.00     0.065 A 
BRANCH  13  17
ATOM     17  C   UNL A   1      30.462  27.021  23.368  1.00  0.00     0.065 A 
ATOM     18  C   UNL A   1      29.103  29.292  22.552  1.00  0.00     0.082 A 
ATOM     19  C   UNL A   1      30.476  29.185  22.305  1.00  0.00     0.024 A 
ATOM     20  C   UNL A   1      28.399  28.254  23.171  1.00  0.00     0.024 A 
ATOM     21  C   UNL A   1      31.162  28.051  22.730  1.00  0.00     0.030 A 
ATOM     22  C   UNL A   1      29.075  27.098  23.550  1.00  0.00     0.030 A 
BRANCH  18  23
ATOM     23  S   UNL A   1      28.221  30.765  22.143  1.00  0.00     0.238 S 
ATOM     24  O   UNL A   1      27.319  31.069  23.244  1.00  0.00    -0.207 OA
ATOM     25  O   UNL A   1      27.791  30.684  20.780  1.00  0.00    -0.207 OA
BRANCH  23  26
ATOM     26  N   UNL A   1      29.386  31.978  22.196  1.00  0.00    -0.225 NA
ATOM     27  H   UNL A   1      29.459  32.419  21.279  1.00  0.00     0.137 HD
ATOM     28  H   UNL A   1      30.287  31.573  22.451  1.00  0.00     0.137 HD
ENDBRANCH  23  26
ENDBRANCH  18  23
ENDBRANCH  13  17
BRANCH  15  29
ATOM     29  C   UNL A   1      32.404  26.901  25.829  1.00  0.00     0.000 A 
ATOM     30  C   UNL A   1      31.492  27.395  26.768  1.00  0.00     0.010 A 
ATOM     31  C   UNL A   1      33.696  27.440  25.777  1.00  0.00     0.010 A 
ATOM     32  C   UNL A   1      31.865  28.423  27.636  1.00  0.00     0.001 A 
ATOM     33  C   UNL A   1      34.065  28.471  26.642  1.00  0.00     0.001 A 
ATOM     34  C   UNL A   1      33.148  28.962  27.570  1.00  0.00     0.000 A 
ENDBRANCH  15  29
ENDBRANCH   9  12
ENDBRANCH   7   8
ENDBRANCH   6   7
ENDBRANCH   5   6
ENDBRANCH   4   5
ENDBRANCH   3   4
ENDBRANCH   2   3
ENDBRANCH   1   2
BRANCH   1  35
ATOM     35  C   UNL A   1      39.292  25.011  28.229  1.00  0.00     0.001 C 
BRANCH  35  36
ATOM     36  C   UNL A   1      40.127  26.267  28.426  1.00  0.00     0.010 C 
BRANCH  36  37
ATOM     37  C   UNL A   1      39.435  27.410  29.165  1.00  0.00     0.100 C 
BRANCH  37  38
ATOM     38  C   UNL A   1      38.998  28.557  28.273  1.00  0.00     0.219 C 
ATOM     39  O   UNL A   1      39.524  28.721  27.170  1.00  0.00    -0.275 OA
ATOM     40  N   UNL A   1      38.010  29.421  28.639  1.00  0.00    -0.356 N 
ATOM     41  H   UNL A   1      37.802  30.106  27.962  1.00  0.00     0.163 HD
BRANCH  40  42
ATOM     42  C   UNL A   1      37.209  29.513  29.847  1.00  0.00     0.116 C 
BRANCH  42  43
ATOM     43  C   UNL A   1      35.951  30.376  29.649  1.00  0.00     0.023 C 
BRANCH  43  44
ATOM     44  C   UNL A   1      36.121  31.896  29.769  1.00  0.00     0.023 C 
BRANCH  44  45
ATOM     45  C   UNL A   1      36.153  32.446  31.188  1.00  0.00     0.116 C 
BRANCH  45  46
ATOM     46  N   UNL A   1      37.004  33.631  31.345  1.00  0.00    -0.352 N 
ATOM     47  C   UNL A   1      38.346  33.662  31.688  1.00  0.00     0.251 C 
ATOM     48  H   UNL A   1      36.573  34.502  31.189  1.00  0.00     0.163 HD
ATOM     49  O   UNL A   1      38.867  34.656  32.176  1.00  0.00    -0.269 OA
BRANCH  47  50
ATOM     50  C   UNL A   1      39.141  32.453  31.425  1.00  0.00     0.039 A 
ATOM     51  C   UNL A   1      39.813  32.251  30.218  1.00  0.00     0.014 A 
ATOM     52  C   UNL A   1      39.298  31.582  32.497  1.00  0.00     0.014 A 
ATOM     53  C   UNL A   1      40.740  31.213  30.139  1.00  0.00     0.010 A 
ATOM     54  C   UNL A   1      40.335  30.688  32.472  1.00  0.00     0.010 A 
ATOM     55  C   UNL A   1      41.022  30.453  31.285  1.00  0.00    -0.014 A 
BRANCH  55  56
ATOM     56  C   UNL A   1      42.112  29.478  31.299  1.00  0.00     0.031 A 
ATOM     57  C   UNL A   1      42.307  28.749  32.586  1.00  0.00     0.074 A 
ATOM     58  C   UNL A   1      42.743  29.079  30.173  1.00  0.00     0.049 A 
ATOM     59  N   UNL A   1      43.323  28.801  33.382  1.00  0.00    -0.248 NA
ATOM     60  C   UNL A   1      41.187  27.950  33.107  1.00  0.00     0.031 C 
ATOM     61  C   UNL A   1      42.454  29.449  28.780  1.00  0.00     0.029 A 
ATOM     62  N   UNL A   1      43.729  28.152  30.028  1.00  0.00    -0.354 N 
ATOM     63  C   UNL A   1      43.069  27.879  34.397  1.00  0.00     0.074 A 
ATOM     64  C   UNL A   1      41.677  27.533  34.277  1.00  0.00     0.031 C 
ATOM     65  C   UNL A   1      43.062  28.586  27.941  1.00  0.00     0.029 A 
ATOM     66  C   UNL A   1      43.940  27.738  28.720  1.00  0.00     0.049 A 
ATOM     67  H   UNL A   1      44.249  27.804  30.788  1.00  0.00     0.167 HD
ATOM     68  C   UNL A   1      44.089  27.292  35.085  1.00  0.00     0.037 A 
ATOM     69  C   UNL A   1      44.779  26.763  28.298  1.00  0.00     0.037 A 
ATOM     70  C   UNL A   1      45.314  28.038  34.921  1.00  0.00     0.049 A 
ATOM     71  C   UNL A   1      45.767  26.536  29.377  1.00  0.00     0.074 A 
ATOM     72  C   UNL A   1      45.712  29.337  35.174  1.00  0.00     0.029 A 
ATOM     73  N   UNL A   1      46.261  27.528  34.067  1.00  0.00    -0.354 N 
ATOM     74  N   UNL A   1      46.669  27.407  29.732  1.00  0.00    -0.248 NA
ATOM     75  C   UNL A   1      45.465  25.511  30.364  1.00  0.00     0.031 C 
ATOM     76  C   UNL A   1      46.565  29.680  34.083  1.00  0.00     0.029 A 
ATOM     77  C   UNL A   1      46.693  28.554  33.270  1.00  0.00     0.049 A 
ATOM     78  H   UNL A   1      46.574  26.595  34.035  1.00  0.00     0.167 HD
ATOM     79  C   UNL A   1      46.725  27.312  31.114  1.00  0.00     0.074 A 
ATOM     80  C   UNL A   1      46.045  26.059  31.435  1.00  0.00     0.031 C 
ATOM     81  C   UNL A   1      47.062  28.392  31.882  1.00  0.00     0.037 A 
BRANCH  68  82
ATOM     82  C   UNL A   1      44.095  25.848  35.554  1.00  0.00     0.057 A 
ATOM     83  C   UNL A   1      44.493  25.565  36.878  1.00  0.00     0.134 A 
ATOM     84  C   UNL A   1      44.040  24.722  34.707  1.00  0.00     0.134 A 
ATOM     85  F   UNL A   1      44.572  26.539  37.797  1.00  0.00    -0.206 F 
ATOM     86  C   UNL A   1      44.921  24.296  37.285  1.00  0.00     0.040 A 
ATOM     87  C   UNL A   1      44.419  23.439  35.117  1.00  0.00     0.040 A 
ATOM     88  F   UNL A   1      43.714  24.803  33.413  1.00  0.00    -0.206 F 
ATOM     89  C   UNL A   1      44.902  23.229  36.398  1.00  0.00     0.006 A 
ENDBRANCH  68  82
BRANCH  69  90
ATOM     90  C   UNL A   1      44.627  25.846  27.148  1.00  0.00     0.057 A 
ATOM     91  C   UNL A   1      45.489  25.918  26.047  1.00  0.00     0.134 A 
ATOM     92  C   UNL A   1      43.813  24.701  27.226  1.00  0.00     0.134 A 
ATOM     93  F   UNL A   1      46.326  26.956  25.905  1.00  0.00    -0.206 F 
ATOM     94  C   UNL A   1      45.563  24.894  25.093  1.00  0.00     0.040 A 
ATOM     95  C   UNL A   1      43.873  23.675  26.278  1.00  0.00     0.040 A 
ATOM     96  F   UNL A   1      42.998  24.502  28.272  1.00  0.00    -0.206 F 
ATOM     97  C   UNL A   1      44.764  23.761  25.215  1.00  0.00     0.006 A 
ENDBRANCH  69  90
BRANCH  81  98
ATOM     98  C   UNL A   1      47.634  29.599  31.189  1.00  0.00     0.057 A 
ATOM     99  C   UNL A   1      46.869  30.671  30.706  1.00  0.00     0.134 A 
ATOM    100  C   UNL A   1      49.024  29.750  31.147  1.00  0.00     0.134 A 
ATOM    101  F   UNL A   1      45.534  30.666  30.790  1.00  0.00    -0.206 F 
ATOM    102  C   UNL A   1      47.460  31.820  30.170  1.00  0.00     0.040 A 
ATOM    103  C   UNL A   1      49.628  30.905  30.645  1.00  0.00     0.040 A 
ATOM    104  F   UNL A   1      49.822  28.790  31.641  1.00  0.00    -0.206 F 
ATOM    105  C   UNL A   1      48.845  31.942  30.145  1.00  0.00     0.006 A 
ENDBRANCH  81  98
ENDBRANCH  55  56
ENDBRANCH  47  50
ENDBRANCH  45  46
ENDBRANCH  44  45
ENDBRANCH  43  44
ENDBRANCH  42  43
ENDBRANCH  40  42
ENDBRANCH  37  38
ENDBRANCH  36  37
ENDBRANCH  35  36
ENDBRANCH   1  35
TORSDOF 26
ENDMDL
MODEL 3
REMARK VINA RESULT:     -10.0      2.049      5.827
REMARK SMILES NS(=O)(=O)c1ccc(-n2nc(C(=O)NCCCCCCCCCCC(=O)NCCCCNC(=O)c3ccc(-c4c5nc(c(-c6c(F)cccc6F)c6ccc([nH]6)c(-c6c(F)cccc6F)c6nc(c(-c7c(F)cccc7F)c7ccc4[nH]7)C=C6)C=C5)cc3)cc2-c2ccccc2)cc1
REMARK SMILES IDX 21 1 20 2 19 3 18 4 17 5 16 6 15 7 14 8 12 9 13 10 11 12
REMARK SMILES IDX 9 13 10 14 90 15 89 16 8 17 5 18 6 19 98 20 7 21 97 22 2 23
REMARK SMILES IDX 3 24 4 25 1 26 91 29 92 30 96 31 93 32 95 33 94 34 22 35
REMARK SMILES IDX 23 36 24 37 25 38 26 39 27 40 28 42 29 43 30 44 31 45 32 46
REMARK SMILES IDX 33 47 34 49 35 50 36 51 88 52 37 53 87 54 38 55 39 56 40 57
REMARK SMILES IDX 81 58 41 59 86 60 80 61 82 62 42 63 85 64 79 65 78 66 43 68
REMARK SMILES IDX 69 69 52 70 68 71 53 72 56 73 67 74 83 75 54 76 55 77 66 79
REMARK SMILES IDX 84 80 57 81 44 82 45 83 50 84 46 85 47 86 49 87 51 88 48 89
REMARK SMILES IDX 70 90 71 91 76 92 72 93 73 94 75 95 77 96 74 97 58 98 59 99
REMARK SMILES IDX 64 100 60 101 61 102 63 103 65 104 62 105
REMARK H PARENT 14 11 1 27 1 28 27 41 32 48 82 67 56 78
REMARK Flexibility Score: inf
ROOT
ATOM      1  C   UNL A   1      35.612  23.515  24.072  1.00  0.00     0.000 C 
ENDROOT
BRANCH   1   2
ATOM      2  C   UNL A   1      36.122  22.980  25.403  1.00  0.00     0.000 C 
BRANCH   2   3
ATOM      3  C   UNL A   1      37.296  23.783  25.968  1.00  0.00     0.000 C 
BRANCH   3   4
ATOM      4  C   UNL A   1      38.507  22.924  26.350  1.00  0.00     0.000 C 
BRANCH   4   5
ATOM      5  C   UNL A   1      39.715  23.732  26.843  1.00  0.00     0.002 C 
BRANCH   5   6
ATOM      6  C   UNL A   1      39.799  25.141  26.245  1.00  0.00     0.021 C 
BRANCH   6   7
ATOM      7  C   UNL A   1      41.024  25.902  26.750  1.00  0.00     0.116 C 
BRANCH   7   8
ATOM      8  N   UNL A   1      41.300  27.017  25.883  1.00  0.00    -0.351 N 
ATOM      9  C   UNL A   1      42.458  27.453  25.292  1.00  0.00     0.271 C 
ATOM     10  O   UNL A   1      42.369  28.501  24.650  1.00  0.00    -0.267 OA
ATOM     11  H   UNL A   1      40.511  27.569  25.676  1.00  0.00     0.163 HD
BRANCH   9  12
ATOM     12  C   UNL A   1      43.707  26.668  25.362  1.00  0.00     0.151 A 
ATOM     13  N   UNL A   1      44.868  24.859  25.405  1.00  0.00    -0.232 N 
ATOM     14  N   UNL A   1      43.691  25.374  24.997  1.00  0.00    -0.162 NA
ATOM     15  C   UNL A   1      45.719  25.831  25.896  1.00  0.00     0.075 A 
ATOM     16  C   UNL A   1      45.025  27.014  25.754  1.00  0.00     0.065 A 
BRANCH  13  17
ATOM     17  C   UNL A   1      45.096  23.473  25.276  1.00  0.00     0.065 A 
ATOM     18  C   UNL A   1      45.396  20.739  24.941  1.00  0.00     0.082 A 
ATOM     19  C   UNL A   1      46.191  21.616  24.195  1.00  0.00     0.024 A 
ATOM     20  C   UNL A   1      44.479  21.221  25.881  1.00  0.00     0.024 A 
ATOM     21  C   UNL A   1      46.028  22.990  24.351  1.00  0.00     0.030 A 
ATOM     22  C   UNL A   1      44.352  22.593  26.075  1.00  0.00     0.030 A 
BRANCH  18  23
ATOM     23  S   UNL A   1      45.482  18.996  24.682  1.00  0.00     0.238 S 
ATOM     24  O   UNL A   1      44.126  18.467  24.728  1.00  0.00    -0.207 OA
ATOM     25  O   UNL A   1      46.555  18.463  25.464  1.00  0.00    -0.207 OA
BRANCH  23  26
ATOM     26  N   UNL A   1      45.949  18.835  23.074  1.00  0.00    -0.225 NA
ATOM     27  H   UNL A   1      46.751  19.439  22.891  1.00  0.00     0.137 HD
ATOM     28  H   UNL A   1      45.176  19.104  22.466  1.00  0.00     0.137 HD
ENDBRANCH  23  26
ENDBRANCH  18  23
ENDBRANCH  13  17
BRANCH  15  29
ATOM     29  C   UNL A   1      47.098  25.644  26.335  1.00  0.00     0.000 A 
ATOM     30  C   UNL A   1      47.380  25.101  27.593  1.00  0.00     0.010 A 
ATOM     31  C   UNL A   1      48.155  25.987  25.481  1.00  0.00     0.010 A 
ATOM     32  C   UNL A   1      48.704  24.916  27.997  1.00  0.00     0.001 A 
ATOM     33  C   UNL A   1      49.477  25.805  25.889  1.00  0.00     0.001 A 
ATOM     34  C   UNL A   1      49.750  25.270  27.147  1.00  0.00     0.000 A 
ENDBRANCH  15  29
ENDBRANCH   9  12
ENDBRANCH   7   8
ENDBRANCH   6   7
ENDBRANCH   5   6
ENDBRANCH   4   5
ENDBRANCH   3   4
ENDBRANCH   2   3
ENDBRANCH   1   2
BRANCH   1  35
ATOM     35  C   UNL A   1      34.530  24.585  24.251  1.00  0.00     0.001 C 
BRANCH  35  36
ATOM     36  C   UNL A   1      33.377  24.162  25.149  1.00  0.00     0.010 C 
BRANCH  36  37
ATOM     37  C   UNL A   1      33.156  25.024  26.390  1.00  0.00     0.100 C 
BRANCH  37  38
ATOM     38  C   UNL A   1      32.014  26.015  26.267  1.00  0.00     0.219 C 
ATOM     39  O   UNL A   1      30.859  25.666  26.525  1.00  0.00    -0.275 OA
ATOM     40  N   UNL A   1      32.217  27.310  25.896  1.00  0.00    -0.356 N 
ATOM     41  H   UNL A   1      31.399  27.857  25.878  1.00  0.00     0.163 HD
BRANCH  40  42
ATOM     42  C   UNL A   1      33.423  28.027  25.522  1.00  0.00     0.116 C 
BRANCH  42  43
ATOM     43  C   UNL A   1      34.094  28.709  26.727  1.00  0.00     0.023 C 
BRANCH  43  44
ATOM     44  C   UNL A   1      33.900  30.224  26.869  1.00  0.00     0.023 C 
BRANCH  44  45
ATOM     45  C   UNL A   1      34.704  30.890  27.978  1.00  0.00     0.116 C 
BRANCH  45  46
ATOM     46  N   UNL A   1      34.204  32.216  28.357  1.00  0.00    -0.352 N 
ATOM     47  C   UNL A   1      34.491  32.923  29.514  1.00  0.00     0.251 C 
ATOM     48  H   UNL A   1      33.596  32.653  27.717  1.00  0.00     0.163 HD
ATOM     49  O   UNL A   1      33.753  33.805  29.932  1.00  0.00    -0.269 OA
BRANCH  47  50
ATOM     50  C   UNL A   1      35.736  32.589  30.221  1.00  0.00     0.039 A 
ATOM     51  C   UNL A   1      36.946  33.226  29.940  1.00  0.00     0.014 A 
ATOM     52  C   UNL A   1      35.615  31.698  31.281  1.00  0.00     0.014 A 
ATOM     53  C   UNL A   1      38.015  33.038  30.815  1.00  0.00     0.010 A 
ATOM     54  C   UNL A   1      36.602  31.665  32.229  1.00  0.00     0.010 A 
ATOM     55  C   UNL A   1      37.826  32.280  31.981  1.00  0.00    -0.014 A 
BRANCH  55  56
ATOM     56  C   UNL A   1      38.858  32.206  33.013  1.00  0.00     0.031 A 
ATOM     57  C   UNL A   1      38.601  33.015  34.239  1.00  0.00     0.074 A 
ATOM     58  C   UNL A   1      39.852  31.291  32.981  1.00  0.00     0.049 A 
ATOM     59  N   UNL A   1      39.271  34.030  34.676  1.00  0.00    -0.248 NA
ATOM     60  C   UNL A   1      37.383  32.732  35.016  1.00  0.00     0.031 C 
ATOM     61  C   UNL A   1      40.065  30.201  32.017  1.00  0.00     0.029 A 
ATOM     62  N   UNL A   1      40.843  31.073  33.890  1.00  0.00    -0.354 N 
ATOM     63  C   UNL A   1      38.693  34.382  35.895  1.00  0.00     0.074 A 
ATOM     64  C   UNL A   1      37.438  33.679  35.955  1.00  0.00     0.031 C 
ATOM     65  C   UNL A   1      40.945  29.311  32.520  1.00  0.00     0.029 A 
ATOM     66  C   UNL A   1      41.507  29.863  33.734  1.00  0.00     0.049 A 
ATOM     67  H   UNL A   1      41.067  31.718  34.598  1.00  0.00     0.167 HD
ATOM     68  C   UNL A   1      39.416  35.021  36.858  1.00  0.00     0.037 A 
ATOM     69  C   UNL A   1      42.459  29.345  34.546  1.00  0.00     0.037 A 
ATOM     70  C   UNL A   1      40.607  35.613  36.296  1.00  0.00     0.049 A 
ATOM     71  C   UNL A   1      43.008  30.462  35.348  1.00  0.00     0.074 A 
ATOM     72  C   UNL A   1      40.867  36.534  35.299  1.00  0.00     0.029 A 
ATOM     73  N   UNL A   1      41.803  34.977  36.524  1.00  0.00    -0.354 N 
ATOM     74  N   UNL A   1      43.712  31.439  34.849  1.00  0.00    -0.248 NA
ATOM     75  C   UNL A   1      42.396  30.729  36.640  1.00  0.00     0.031 C 
ATOM     76  C   UNL A   1      42.043  36.053  34.650  1.00  0.00     0.029 A 
ATOM     77  C   UNL A   1      42.469  34.911  35.330  1.00  0.00     0.049 A 
ATOM     78  H   UNL A   1      42.124  34.633  37.389  1.00  0.00     0.167 HD
ATOM     79  C   UNL A   1      43.279  32.567  35.529  1.00  0.00     0.074 A 
ATOM     80  C   UNL A   1      42.552  32.054  36.688  1.00  0.00     0.031 C 
ATOM     81  C   UNL A   1      43.305  33.799  34.938  1.00  0.00     0.037 A 
BRANCH  68  82
ATOM     82  C   UNL A   1      39.282  34.768  38.349  1.00  0.00     0.057 A 
ATOM     83  C   UNL A   1      39.240  35.873  39.225  1.00  0.00     0.134 A 
ATOM     84  C   UNL A   1      39.508  33.529  38.982  1.00  0.00     0.134 A 
ATOM     85  F   UNL A   1      39.015  37.112  38.761  1.00  0.00    -0.206 F 
ATOM     86  C   UNL A   1      39.525  35.768  40.592  1.00  0.00     0.040 A 
ATOM     87  C   UNL A   1      39.745  33.405  40.355  1.00  0.00     0.040 A 
ATOM     88  F   UNL A   1      39.610  32.378  38.309  1.00  0.00    -0.206 F 
ATOM     89  C   UNL A   1      39.797  34.532  41.160  1.00  0.00     0.006 A 
ENDBRANCH  68  82
BRANCH  69  90
ATOM     90  C   UNL A   1      42.736  27.927  34.856  1.00  0.00     0.057 A 
ATOM     91  C   UNL A   1      41.962  27.226  35.789  1.00  0.00     0.134 A 
ATOM     92  C   UNL A   1      43.583  27.151  34.044  1.00  0.00     0.134 A 
ATOM     93  F   UNL A   1      41.101  27.877  36.584  1.00  0.00    -0.206 F 
ATOM     94  C   UNL A   1      42.002  25.828  35.889  1.00  0.00     0.040 A 
ATOM     95  C   UNL A   1      43.637  25.757  34.137  1.00  0.00     0.040 A 
ATOM     96  F   UNL A   1      44.320  27.714  33.075  1.00  0.00    -0.206 F 
ATOM     97  C   UNL A   1      42.831  25.089  35.050  1.00  0.00     0.006 A 
ENDBRANCH  69  90
BRANCH  81  98
ATOM     98  C   UNL A   1      44.063  33.946  33.646  1.00  0.00     0.057 A 
ATOM     99  C   UNL A   1      45.452  34.121  33.558  1.00  0.00     0.134 A 
ATOM    100  C   UNL A   1      43.377  33.750  32.442  1.00  0.00     0.134 A 
ATOM    101  F   UNL A   1      46.210  34.221  34.655  1.00  0.00    -0.206 F 
ATOM    102  C   UNL A   1      46.120  34.140  32.329  1.00  0.00     0.040 A 
ATOM    103  C   UNL A   1      44.035  33.733  31.210  1.00  0.00     0.040 A 
ATOM    104  F   UNL A   1      42.053  33.521  32.449  1.00  0.00    -0.206 F 
ATOM    105  C   UNL A   1      45.410  33.939  31.150  1.00  0.00     0.006 A 
ENDBRANCH  81  98
ENDBRANCH  55  56
ENDBRANCH  47  50
ENDBRANCH  45  46
ENDBRANCH  44  45
ENDBRANCH  43  44
ENDBRANCH  42  43
ENDBRANCH  40  42
ENDBRANCH  37  38
ENDBRANCH  36  37
ENDBRANCH  35  36
ENDBRANCH   1  35
TORSDOF 26
ENDMDL
