MODEL 1
REMARK VINA RESULT:     -11.6      0.000      0.000
REMARK SMILES CC[C@@H]1CCC[C@@H]([NH+]2CC(n3cc(C(=O)NCCCCNC(=O)c4ccc(-c5c6nc(c(-c7c(F)cccc7F)c7ccc([nH]7)c(-c7c(F)cccc7F)c7nc(c(-c8c(F)cccc8F)c8ccc5[nH]8)C=C7)C=C6)cc4)nn3)C2)C1
REMARK SMILES IDX 18 1 17 2 16 3 14 4 15 5 13 7 11 8 12 9 79 10 78 11 10 12
REMARK SMILES IDX 8 13 9 14 80 15 7 17 3 18 4 19 81 20 5 21 6 22 2 23 1 24
REMARK SMILES IDX 19 25 20 26 21 27 22 28 23 30 24 31 25 32 77 33 26 34 76 35
REMARK SMILES IDX 27 36 28 37 29 38 70 39 30 40 75 41 69 42 71 43 31 44 74 45
REMARK SMILES IDX 68 46 67 47 32 49 58 50 41 51 57 52 42 53 45 54 56 55 72 56
REMARK SMILES IDX 43 57 44 58 55 60 73 61 46 62 33 63 34 64 39 65 35 66 36 67
REMARK SMILES IDX 38 68 40 69 37 70 59 71 60 72 65 73 61 74 62 75 64 76 66 77
REMARK SMILES IDX 63 78 47 79 48 80 53 81 49 82 50 83 52 84 54 85 51 86
REMARK H PARENT 16 6 8 16 21 29 71 48 45 59
REMARK Flexibility Score: inf
ROOT
ATOM      1  C   UNL A   1      40.289  21.729  26.845  1.00  0.00     0.023 C 
ENDROOT
BRANCH   1   2
ATOM      2  C   UNL A   1      38.985  22.097  26.126  1.00  0.00     0.116 C 
BRANCH   2   3
ATOM      3  N   UNL A   1      38.360  20.940  25.504  1.00  0.00    -0.351 N 
ATOM      4  C   UNL A   1      37.061  20.676  25.119  1.00  0.00     0.273 C 
ATOM      5  O   UNL A   1      36.863  19.614  24.528  1.00  0.00    -0.267 OA
ATOM      6  H   UNL A   1      38.985  20.202  25.323  1.00  0.00     0.163 HD
BRANCH   4   7
ATOM      7  C   UNL A   1      35.984  21.619  25.396  1.00  0.00     0.170 A 
ATOM      8  N   UNL A   1      34.556  23.258  25.391  1.00  0.00    -0.237 N 
ATOM      9  C   UNL A   1      35.635  22.761  24.721  1.00  0.00     0.145 A 
ATOM     10  N   UNL A   1      34.288  22.531  26.482  1.00  0.00    -0.066 NA
ATOM     11  N   UNL A   1      35.154  21.519  26.500  1.00  0.00    -0.125 NA
BRANCH   8  12
ATOM     12  C   UNL A   1      34.139  24.583  25.127  1.00  0.00     0.218 C 
ATOM     13  N   UNL A   1      32.550  25.946  24.980  1.00  0.00    -0.329 N 
ATOM     14  C   UNL A   1      33.221  25.274  26.126  1.00  0.00     0.296 C 
ATOM     15  C   UNL A   1      32.971  24.771  24.145  1.00  0.00     0.296 C 
ATOM     16  H   UNL A   1      31.585  26.262  25.069  1.00  0.00     0.348 HD
BRANCH  13  17
ATOM     17  C   UNL A   1      33.100  27.248  24.509  1.00  0.00     0.184 C 
ATOM     18  C   UNL A   1      31.097  28.906  24.470  1.00  0.00    -0.006 C 
ATOM     19  C   UNL A   1      31.845  29.843  25.431  1.00  0.00     0.004 C 
ATOM     20  C   UNL A   1      32.071  28.032  23.656  1.00  0.00     0.068 C 
ATOM     21  C   UNL A   1      32.887  29.131  26.277  1.00  0.00     0.006 C 
ATOM     22  C   UNL A   1      33.817  28.257  25.438  1.00  0.00     0.065 C 
BRANCH  18  23
ATOM     23  C   UNL A   1      30.145  29.680  23.544  1.00  0.00     0.000 C 
ATOM     24  C   UNL A   1      29.222  28.760  22.752  1.00  0.00     0.004 C 
ENDBRANCH  18  23
ENDBRANCH  13  17
ENDBRANCH   8  12
ENDBRANCH   4   7
ENDBRANCH   2   3
ENDBRANCH   1   2
BRANCH   1  25
ATOM     25  C   UNL A   1      40.824  20.325  26.518  1.00  0.00     0.023 C 
BRANCH  25  26
ATOM     26  C   UNL A   1      42.153  19.976  27.182  1.00  0.00     0.116 C 
BRANCH  26  27
ATOM     27  N   UNL A   1      43.230  19.705  26.226  1.00  0.00    -0.352 N 
ATOM     28  C   UNL A   1      43.823  20.606  25.350  1.00  0.00     0.251 C 
ATOM     29  H   UNL A   1      43.571  18.782  26.201  1.00  0.00     0.163 HD
ATOM     30  O   UNL A   1      44.404  20.248  24.347  1.00  0.00    -0.269 OA
BRANCH  28  31
ATOM     31  C   UNL A   1      43.767  22.030  25.721  1.00  0.00     0.039 A 
ATOM     32  C   UNL A   1      43.029  22.975  25.001  1.00  0.00     0.014 A 
ATOM     33  C   UNL A   1      44.422  22.364  26.900  1.00  0.00     0.014 A 
ATOM     34  C   UNL A   1      42.900  24.257  25.532  1.00  0.00     0.010 A 
ATOM     35  C   UNL A   1      44.126  23.549  27.508  1.00  0.00     0.010 A 
ATOM     36  C   UNL A   1      43.445  24.529  26.795  1.00  0.00    -0.014 A 
BRANCH  36  37
ATOM     37  C   UNL A   1      43.260  25.807  27.467  1.00  0.00     0.031 A 
ATOM     38  C   UNL A   1      44.241  26.860  27.079  1.00  0.00     0.074 A 
ATOM     39  C   UNL A   1      42.118  26.073  28.145  1.00  0.00     0.049 A 
ATOM     40  N   UNL A   1      45.147  27.420  27.811  1.00  0.00    -0.248 NA
ATOM     41  C   UNL A   1      44.320  27.238  25.656  1.00  0.00     0.031 C 
ATOM     42  C   UNL A   1      40.921  25.225  28.282  1.00  0.00     0.029 A 
ATOM     43  N   UNL A   1      41.733  27.216  28.769  1.00  0.00    -0.354 N 
ATOM     44  C   UNL A   1      45.758  28.378  27.000  1.00  0.00     0.074 A 
ATOM     45  C   UNL A   1      45.354  28.081  25.653  1.00  0.00     0.031 C 
ATOM     46  C   UNL A   1      39.880  25.966  28.721  1.00  0.00     0.029 A 
ATOM     47  C   UNL A   1      40.380  27.272  29.090  1.00  0.00     0.049 A 
ATOM     48  H   UNL A   1      42.361  27.946  28.976  1.00  0.00     0.167 HD
ATOM     49  C   UNL A   1      46.327  29.495  27.537  1.00  0.00     0.037 A 
ATOM     50  C   UNL A   1      39.723  28.335  29.615  1.00  0.00     0.037 A 
ATOM     51  C   UNL A   1      46.490  29.345  28.961  1.00  0.00     0.049 A 
ATOM     52  C   UNL A   1      40.755  29.226  30.194  1.00  0.00     0.074 A 
ATOM     53  C   UNL A   1      47.242  28.544  29.794  1.00  0.00     0.029 A 
ATOM     54  N   UNL A   1      45.481  29.868  29.729  1.00  0.00    -0.354 N 
ATOM     55  N   UNL A   1      41.516  28.899  31.201  1.00  0.00    -0.248 NA
ATOM     56  C   UNL A   1      41.242  30.319  29.369  1.00  0.00     0.031 C 
ATOM     57  C   UNL A   1      46.403  28.293  30.921  1.00  0.00     0.029 A 
ATOM     58  C   UNL A   1      45.214  29.006  30.758  1.00  0.00     0.049 A 
ATOM     59  H   UNL A   1      45.024  30.724  29.567  1.00  0.00     0.167 HD
ATOM     60  C   UNL A   1      42.755  29.446  30.902  1.00  0.00     0.074 A 
ATOM     61  C   UNL A   1      42.493  30.399  29.826  1.00  0.00     0.031 C 
ATOM     62  C   UNL A   1      43.903  28.860  31.356  1.00  0.00     0.037 A 
BRANCH  49  63
ATOM     63  C   UNL A   1      46.332  30.867  26.892  1.00  0.00     0.057 A 
ATOM     64  C   UNL A   1      47.531  31.609  26.874  1.00  0.00     0.134 A 
ATOM     65  C   UNL A   1      45.176  31.609  26.572  1.00  0.00     0.134 A 
ATOM     66  F   UNL A   1      48.704  31.029  27.172  1.00  0.00    -0.206 F 
ATOM     67  C   UNL A   1      47.564  32.989  26.637  1.00  0.00     0.040 A 
ATOM     68  C   UNL A   1      45.205  32.977  26.284  1.00  0.00     0.040 A 
ATOM     69  F   UNL A   1      43.947  31.084  26.619  1.00  0.00    -0.206 F 
ATOM     70  C   UNL A   1      46.394  33.681  26.347  1.00  0.00     0.006 A 
ENDBRANCH  49  63
BRANCH  50  71
ATOM     71  C   UNL A   1      38.348  28.803  29.328  1.00  0.00     0.057 A 
ATOM     72  C   UNL A   1      37.410  28.972  30.357  1.00  0.00     0.134 A 
ATOM     73  C   UNL A   1      38.021  29.384  28.090  1.00  0.00     0.134 A 
ATOM     74  F   UNL A   1      37.655  28.486  31.582  1.00  0.00    -0.206 F 
ATOM     75  C   UNL A   1      36.229  29.704  30.175  1.00  0.00     0.040 A 
ATOM     76  C   UNL A   1      36.845  30.119  27.895  1.00  0.00     0.040 A 
ATOM     77  F   UNL A   1      38.879  29.340  27.060  1.00  0.00    -0.206 F 
ATOM     78  C   UNL A   1      35.952  30.294  28.945  1.00  0.00     0.006 A 
ENDBRANCH  50  71
BRANCH  62  79
ATOM     79  C   UNL A   1      43.780  27.821  32.440  1.00  0.00     0.057 A 
ATOM     80  C   UNL A   1      43.780  26.435  32.222  1.00  0.00     0.134 A 
ATOM     81  C   UNL A   1      43.835  28.249  33.769  1.00  0.00     0.134 A 
ATOM     82  F   UNL A   1      43.806  25.925  30.985  1.00  0.00    -0.206 F 
ATOM     83  C   UNL A   1      43.817  25.520  33.281  1.00  0.00     0.040 A 
ATOM     84  C   UNL A   1      43.905  27.348  34.834  1.00  0.00     0.040 A 
ATOM     85  F   UNL A   1      43.886  29.560  34.052  1.00  0.00    -0.206 F 
ATOM     86  C   UNL A   1      43.892  25.978  34.593  1.00  0.00     0.006 A 
ENDBRANCH  62  79
ENDBRANCH  36  37
ENDBRANCH  28  31
ENDBRANCH  26  27
ENDBRANCH  25  26
ENDBRANCH   1  25
TORSDOF 14
ENDMDL
MODEL 2
REMARK VINA RESULT:     -11.2      3.006      7.980
REMARK SMILES CC[C@@H]1CCC[C@@H]([NH+]2CC(n3cc(C(=O)NCCCCNC(=O)c4ccc(-c5c6nc(c(-c7c(F)cccc7F)c7ccc([nH]7)c(-c7c(F)cccc7F)c7nc(c(-c8c(F)cccc8F)c8ccc5[nH]8)C=C7)C=C6)cc4)nn3)C2)C1
REMARK SMILES IDX 18 1 17 2 16 3 14 4 15 5 13 7 11 8 12 9 79 10 78 11 10 12
REMARK SMILES IDX 8 13 9 14 80 15 7 17 3 18 4 19 81 20 5 21 6 22 2 23 1 24
REMARK SMILES IDX 19 25 20 26 21 27 22 28 23 30 24 31 25 32 77 33 26 34 76 35
REMARK SMILES IDX 27 36 28 37 29 38 70 39 30 40 75 41 69 42 71 43 31 44 74 45
REMARK SMILES IDX 68 46 67 47 32 49 58 50 41 51 57 52 42 53 45 54 56 55 72 56
REMARK SMILES IDX 43 57 44 58 55 60 73 61 46 62 33 63 34 64 39 65 35 66 36 67
REMARK SMILES IDX 38 68 40 69 37 70 59 71 60 72 65 73 61 74 62 75 64 76 66 77
REMARK SMILES IDX 63 78 47 79 48 80 53 81 49 82 50 83 52 84 54 85 51 86
REMARK H PARENT 16 6 8 16 21 29 71 48 45 59
REMARK Flexibility Score: inf
ROOT
ATOM      1  C   UNL A   1      33.230  29.693  25.805  1.00  0.00     0.023 C 
ENDROOT
BRANCH   1   2
ATOM      2  C   UNL A   1      31.712  29.899  25.878  1.00  0.00     0.116 C 
BRANCH   2   3
ATOM      3  N   UNL A   1      31.140  30.203  24.575  1.00  0.00    -0.351 N 
ATOM      4  C   UNL A   1      30.513  29.420  23.627  1.00  0.00     0.273 C 
ATOM      5  O   UNL A   1      30.053  30.002  22.644  1.00  0.00    -0.267 OA
ATOM      6  H   UNL A   1      31.216  31.150  24.321  1.00  0.00     0.163 HD
BRANCH   4   7
ATOM      7  C   UNL A   1      30.397  27.977  23.794  1.00  0.00     0.170 A 
ATOM      8  N   UNL A   1      30.733  25.847  24.076  1.00  0.00    -0.237 N 
ATOM      9  C   UNL A   1      31.386  27.039  23.956  1.00  0.00     0.145 A 
ATOM     10  N   UNL A   1      29.415  25.999  23.908  1.00  0.00    -0.066 NA
ATOM     11  N   UNL A   1      29.190  27.301  23.737  1.00  0.00    -0.125 NA
BRANCH   8  12
ATOM     12  C   UNL A   1      31.475  24.649  23.958  1.00  0.00     0.218 C 
ATOM     13  N   UNL A   1      32.669  23.203  24.902  1.00  0.00    -0.329 N 
ATOM     14  C   UNL A   1      31.217  23.529  24.957  1.00  0.00     0.296 C 
ATOM     15  C   UNL A   1      32.898  24.642  24.540  1.00  0.00     0.296 C 
ATOM     16  H   UNL A   1      33.116  22.738  25.690  1.00  0.00     0.348 HD
BRANCH  13  17
ATOM     17  C   UNL A   1      33.133  22.239  23.865  1.00  0.00     0.184 C 
ATOM     18  C   UNL A   1      34.922  20.745  25.018  1.00  0.00    -0.006 C 
ATOM     19  C   UNL A   1      34.102  19.491  24.679  1.00  0.00     0.004 C 
ATOM     20  C   UNL A   1      34.634  21.895  24.032  1.00  0.00     0.068 C 
ATOM     21  C   UNL A   1      32.623  19.774  24.479  1.00  0.00     0.006 C 
ATOM     22  C   UNL A   1      32.379  20.933  23.515  1.00  0.00     0.065 C 
BRANCH  18  23
ATOM     23  C   UNL A   1      36.428  20.442  25.087  1.00  0.00     0.000 C 
ATOM     24  C   UNL A   1      37.280  21.583  24.544  1.00  0.00     0.004 C 
ENDBRANCH  18  23
ENDBRANCH  13  17
ENDBRANCH   8  12
ENDBRANCH   4   7
ENDBRANCH   2   3
ENDBRANCH   1   2
BRANCH   1  25
ATOM     25  C   UNL A   1      33.819  28.864  26.958  1.00  0.00     0.023 C 
BRANCH  25  26
ATOM     26  C   UNL A   1      35.254  29.221  27.335  1.00  0.00     0.116 C 
BRANCH  26  27
ATOM     27  N   UNL A   1      35.359  29.962  28.595  1.00  0.00    -0.352 N 
ATOM     28  C   UNL A   1      36.331  29.814  29.579  1.00  0.00     0.251 C 
ATOM     29  H   UNL A   1      34.666  30.640  28.764  1.00  0.00     0.163 HD
ATOM     30  O   UNL A   1      36.146  30.156  30.728  1.00  0.00    -0.269 OA
BRANCH  28  31
ATOM     31  C   UNL A   1      37.631  29.270  29.153  1.00  0.00     0.039 A 
ATOM     32  C   UNL A   1      38.327  29.749  28.039  1.00  0.00     0.014 A 
ATOM     33  C   UNL A   1      38.176  28.305  29.991  1.00  0.00     0.014 A 
ATOM     34  C   UNL A   1      39.625  29.289  27.822  1.00  0.00     0.010 A 
ATOM     35  C   UNL A   1      39.505  28.015  29.890  1.00  0.00     0.010 A 
ATOM     36  C   UNL A   1      40.208  28.428  28.764  1.00  0.00    -0.014 A 
BRANCH  36  37
ATOM     37  C   UNL A   1      41.593  27.990  28.669  1.00  0.00     0.031 A 
ATOM     38  C   UNL A   1      41.793  26.723  27.911  1.00  0.00     0.074 A 
ATOM     39  C   UNL A   1      42.607  28.830  28.988  1.00  0.00     0.049 A 
ATOM     40  N   UNL A   1      42.213  25.584  28.353  1.00  0.00    -0.248 NA
ATOM     41  C   UNL A   1      41.331  26.675  26.512  1.00  0.00     0.031 C 
ATOM     42  C   UNL A   1      42.525  30.241  29.403  1.00  0.00     0.029 A 
ATOM     43  N   UNL A   1      43.948  28.634  28.898  1.00  0.00    -0.354 N 
ATOM     44  C   UNL A   1      42.281  24.742  27.241  1.00  0.00     0.074 A 
ATOM     45  C   UNL A   1      41.544  25.397  26.196  1.00  0.00     0.031 C 
ATOM     46  C   UNL A   1      43.738  30.826  29.288  1.00  0.00     0.029 A 
ATOM     47  C   UNL A   1      44.710  29.795  28.996  1.00  0.00     0.049 A 
ATOM     48  H   UNL A   1      44.348  27.743  28.775  1.00  0.00     0.167 HD
ATOM     49  C   UNL A   1      43.166  23.705  27.196  1.00  0.00     0.037 A 
ATOM     50  C   UNL A   1      46.052  29.890  28.833  1.00  0.00     0.037 A 
ATOM     51  C   UNL A   1      43.701  23.439  28.506  1.00  0.00     0.049 A 
ATOM     52  C   UNL A   1      46.595  28.521  28.989  1.00  0.00     0.074 A 
ATOM     53  C   UNL A   1      43.203  22.982  29.707  1.00  0.00     0.029 A 
ATOM     54  N   UNL A   1      44.901  24.043  28.787  1.00  0.00    -0.354 N 
ATOM     55  N   UNL A   1      46.540  27.839  30.100  1.00  0.00    -0.248 NA
ATOM     56  C   UNL A   1      46.809  27.738  27.784  1.00  0.00     0.031 C 
ATOM     57  C   UNL A   1      43.925  23.701  30.706  1.00  0.00     0.029 A 
ATOM     58  C   UNL A   1      44.875  24.507  30.074  1.00  0.00     0.049 A 
ATOM     59  H   UNL A   1      45.658  24.128  28.164  1.00  0.00     0.167 HD
ATOM     60  C   UNL A   1      46.295  26.533  29.703  1.00  0.00     0.074 A 
ATOM     61  C   UNL A   1      46.584  26.516  28.271  1.00  0.00     0.031 C 
ATOM     62  C   UNL A   1      45.605  25.677  30.515  1.00  0.00     0.037 A 
BRANCH  49  63
ATOM     63  C   UNL A   1      43.880  23.222  25.949  1.00  0.00     0.057 A 
ATOM     64  C   UNL A   1      43.849  21.848  25.633  1.00  0.00     0.134 A 
ATOM     65  C   UNL A   1      44.834  23.970  25.229  1.00  0.00     0.134 A 
ATOM     66  F   UNL A   1      42.996  21.018  26.253  1.00  0.00    -0.206 F 
ATOM     67  C   UNL A   1      44.747  21.257  24.734  1.00  0.00     0.040 A 
ATOM     68  C   UNL A   1      45.702  23.398  24.292  1.00  0.00     0.040 A 
ATOM     69  F   UNL A   1      45.054  25.269  25.458  1.00  0.00    -0.206 F 
ATOM     70  C   UNL A   1      45.685  22.033  24.065  1.00  0.00     0.006 A 
ENDBRANCH  49  63
BRANCH  50  71
ATOM     71  C   UNL A   1      46.829  30.979  28.198  1.00  0.00     0.057 A 
ATOM     72  C   UNL A   1      46.406  31.566  26.997  1.00  0.00     0.134 A 
ATOM     73  C   UNL A   1      47.824  31.672  28.910  1.00  0.00     0.134 A 
ATOM     74  F   UNL A   1      45.433  30.997  26.272  1.00  0.00    -0.206 F 
ATOM     75  C   UNL A   1      46.921  32.788  26.544  1.00  0.00     0.040 A 
ATOM     76  C   UNL A   1      48.346  32.894  28.468  1.00  0.00     0.040 A 
ATOM     77  F   UNL A   1      48.250  31.233  30.103  1.00  0.00    -0.206 F 
ATOM     78  C   UNL A   1      47.884  33.464  27.289  1.00  0.00     0.006 A 
ENDBRANCH  50  71
BRANCH  62  79
ATOM     79  C   UNL A   1      45.413  26.076  31.955  1.00  0.00     0.057 A 
ATOM     80  C   UNL A   1      44.252  26.672  32.471  1.00  0.00     0.134 A 
ATOM     81  C   UNL A   1      46.383  25.681  32.881  1.00  0.00     0.134 A 
ATOM     82  F   UNL A   1      43.234  27.015  31.674  1.00  0.00    -0.206 F 
ATOM     83  C   UNL A   1      44.076  26.878  33.844  1.00  0.00     0.040 A 
ATOM     84  C   UNL A   1      46.206  25.852  34.255  1.00  0.00     0.040 A 
ATOM     85  F   UNL A   1      47.498  25.061  32.464  1.00  0.00    -0.206 F 
ATOM     86  C   UNL A   1      45.051  26.456  34.742  1.00  0.00     0.006 A 
ENDBRANCH  62  79
ENDBRANCH  36  37
ENDBRANCH  28  31
ENDBRANCH  26  27
ENDBRANCH  25  26
ENDBRANCH   1  25
TORSDOF 14
ENDMDL
MODEL 3
REMARK VINA RESULT:     -11.2      3.284      8.525
REMARK SMILES CC[C@@H]1CCC[C@@H]([NH+]2CC(n3cc(C(=O)NCCCCNC(=O)c4ccc(-c5c6nc(c(-c7c(F)cccc7F)c7ccc([nH]7)c(-c7c(F)cccc7F)c7nc(c(-c8c(F)cccc8F)c8ccc5[nH]8)C=C7)C=C6)cc4)nn3)C2)C1
REMARK SMILES IDX 18 1 17 2 16 3 14 4 15 5 13 7 11 8 12 9 79 10 78 11 10 12
REMARK SMILES IDX 8 13 9 14 80 15 7 17 3 18 4 19 81 20 5 21 6 22 2 23 1 24
REMARK SMILES IDX 19 25 20 26 21 27 22 28 23 30 24 31 25 32 77 33 26 34 76 35
REMARK SMILES IDX 27 36 28 37 29 38 70 39 30 40 75 41 69 42 71 43 31 44 74 45
REMARK SMILES IDX 68 46 67 47 32 49 58 50 41 51 57 52 42 53 45 54 56 55 72 56
REMARK SMILES IDX 43 57 44 58 55 60 73 61 46 62 33 63 34 64 39 65 35 66 36 67
REMARK SMILES IDX 38 68 40 69 37 70 59 71 60 72 65 73 61 74 62 75 64 76 66 77
REMARK SMILES IDX 63 78 47 79 48 80 53 81 49 82 50 83 52 84 54 85 51 86
REMARK H PARENT 16 6 8 16 21 29 71 48 45 59
REMARK Flexibility Score: inf
ROOT
ATOM      1  C   UNL A   1      32.287  30.543  26.851  1.00  0.00     0.023 C 
ENDROOT
BRANCH   1   2
ATOM      2  C   UNL A   1      32.279  29.970  25.428  1.00  0.00     0.116 C 
BRANCH   2   3
ATOM      3  N   UNL A   1      31.072  30.334  24.701  1.00  0.00    -0.351 N 
ATOM      4  C   UNL A   1      30.250  29.626  23.847  1.00  0.00     0.273 C 
ATOM      5  O   UNL A   1      29.235  30.201  23.452  1.00  0.00    -0.267 OA
ATOM      6  H   UNL A   1      30.788  31.265  24.845  1.00  0.00     0.163 HD
BRANCH   4   7
ATOM      7  C   UNL A   1      30.570  28.262  23.446  1.00  0.00     0.170 A 
ATOM      8  N   UNL A   1      31.028  26.139  23.349  1.00  0.00    -0.237 N 
ATOM      9  C   UNL A   1      30.767  27.151  24.226  1.00  0.00     0.145 A 
ATOM     10  N   UNL A   1      31.087  26.592  22.093  1.00  0.00    -0.066 NA
ATOM     11  N   UNL A   1      30.805  27.894  22.132  1.00  0.00    -0.125 NA
BRANCH   8  12
ATOM     12  C   UNL A   1      31.566  24.928  23.845  1.00  0.00     0.218 C 
ATOM     13  N   UNL A   1      32.225  22.980  23.428  1.00  0.00    -0.329 N 
ATOM     14  C   UNL A   1      32.783  24.332  23.152  1.00  0.00     0.296 C 
ATOM     15  C   UNL A   1      30.869  23.624  23.424  1.00  0.00     0.296 C 
ATOM     16  H   UNL A   1      32.481  22.192  22.834  1.00  0.00     0.348 HD
BRANCH  13  17
ATOM     17  C   UNL A   1      32.577  22.325  24.720  1.00  0.00     0.184 C 
ATOM     18  C   UNL A   1      33.050  19.831  24.159  1.00  0.00    -0.006 C 
ATOM     19  C   UNL A   1      34.462  19.958  24.752  1.00  0.00     0.004 C 
ATOM     20  C   UNL A   1      32.081  20.859  24.775  1.00  0.00     0.068 C 
ATOM     21  C   UNL A   1      34.991  21.382  24.746  1.00  0.00     0.006 C 
ATOM     22  C   UNL A   1      33.994  22.374  25.342  1.00  0.00     0.065 C 
BRANCH  18  23
ATOM     23  C   UNL A   1      32.500  18.401  24.298  1.00  0.00     0.000 C 
ATOM     24  C   UNL A   1      32.660  17.848  25.710  1.00  0.00     0.004 C 
ENDBRANCH  18  23
ENDBRANCH  13  17
ENDBRANCH   8  12
ENDBRANCH   4   7
ENDBRANCH   2   3
ENDBRANCH   1   2
BRANCH   1  25
ATOM     25  C   UNL A   1      33.609  30.347  27.610  1.00  0.00     0.023 C 
BRANCH  25  26
ATOM     26  C   UNL A   1      34.445  31.613  27.776  1.00  0.00     0.116 C 
BRANCH  26  27
ATOM     27  N   UNL A   1      34.385  32.180  29.126  1.00  0.00    -0.352 N 
ATOM     28  C   UNL A   1      35.177  31.839  30.217  1.00  0.00     0.251 C 
ATOM     29  H   UNL A   1      33.711  32.880  29.278  1.00  0.00     0.163 HD
ATOM     30  O   UNL A   1      34.828  32.045  31.361  1.00  0.00    -0.269 OA
BRANCH  28  31
ATOM     31  C   UNL A   1      36.498  31.258  29.924  1.00  0.00     0.039 A 
ATOM     32  C   UNL A   1      37.634  32.037  29.684  1.00  0.00     0.014 A 
ATOM     33  C   UNL A   1      36.569  29.872  29.997  1.00  0.00     0.014 A 
ATOM     34  C   UNL A   1      38.868  31.396  29.590  1.00  0.00     0.010 A 
ATOM     35  C   UNL A   1      37.791  29.277  30.105  1.00  0.00     0.010 A 
ATOM     36  C   UNL A   1      38.934  30.012  29.814  1.00  0.00    -0.014 A 
BRANCH  36  37
ATOM     37  C   UNL A   1      40.196  29.286  29.842  1.00  0.00     0.031 A 
ATOM     38  C   UNL A   1      40.773  29.096  31.203  1.00  0.00     0.074 A 
ATOM     39  C   UNL A   1      40.624  28.602  28.755  1.00  0.00     0.049 A 
ATOM     40  N   UNL A   1      41.868  29.586  31.685  1.00  0.00    -0.248 NA
ATOM     41  C   UNL A   1      39.957  28.386  32.206  1.00  0.00     0.031 C 
ATOM     42  C   UNL A   1      39.940  28.424  27.462  1.00  0.00     0.029 A 
ATOM     43  N   UNL A   1      41.723  27.817  28.609  1.00  0.00    -0.354 N 
ATOM     44  C   UNL A   1      41.988  29.062  32.973  1.00  0.00     0.074 A 
ATOM     45  C   UNL A   1      40.704  28.509  33.304  1.00  0.00     0.031 C 
ATOM     46  C   UNL A   1      40.507  27.407  26.777  1.00  0.00     0.029 A 
ATOM     47  C   UNL A   1      41.707  27.004  27.478  1.00  0.00     0.049 A 
ATOM     48  H   UNL A   1      42.469  27.822  29.250  1.00  0.00     0.167 HD
ATOM     49  C   UNL A   1      43.211  28.891  33.552  1.00  0.00     0.037 A 
ATOM     50  C   UNL A   1      42.622  26.058  27.157  1.00  0.00     0.037 A 
ATOM     51  C   UNL A   1      44.223  29.609  32.820  1.00  0.00     0.049 A 
ATOM     52  C   UNL A   1      43.835  26.356  27.952  1.00  0.00     0.074 A 
ATOM     53  C   UNL A   1      44.511  30.934  32.567  1.00  0.00     0.029 A 
ATOM     54  N   UNL A   1      44.907  28.876  31.885  1.00  0.00    -0.354 N 
ATOM     55  N   UNL A   1      44.552  27.436  27.807  1.00  0.00    -0.248 NA
ATOM     56  C   UNL A   1      44.002  25.657  29.215  1.00  0.00     0.031 C 
ATOM     57  C   UNL A   1      45.021  30.953  31.233  1.00  0.00     0.029 A 
ATOM     58  C   UNL A   1      45.086  29.639  30.763  1.00  0.00     0.049 A 
ATOM     59  H   UNL A   1      45.221  27.950  32.001  1.00  0.00     0.167 HD
ATOM     60  C   UNL A   1      44.937  27.782  29.094  1.00  0.00     0.074 A 
ATOM     61  C   UNL A   1      44.666  26.592  29.899  1.00  0.00     0.031 C 
ATOM     62  C   UNL A   1      45.160  29.089  29.426  1.00  0.00     0.037 A 
BRANCH  49  63
ATOM     63  C   UNL A   1      43.583  27.755  34.485  1.00  0.00     0.057 A 
ATOM     64  C   UNL A   1      44.017  28.059  35.792  1.00  0.00     0.134 A 
ATOM     65  C   UNL A   1      43.829  26.428  34.077  1.00  0.00     0.134 A 
ATOM     66  F   UNL A   1      43.855  29.290  36.302  1.00  0.00    -0.206 F 
ATOM     67  C   UNL A   1      44.708  27.140  36.593  1.00  0.00     0.040 A 
ATOM     68  C   UNL A   1      44.473  25.489  34.888  1.00  0.00     0.040 A 
ATOM     69  F   UNL A   1      43.555  25.991  32.843  1.00  0.00    -0.206 F 
ATOM     70  C   UNL A   1      44.946  25.850  36.137  1.00  0.00     0.006 A 
ENDBRANCH  49  63
BRANCH  50  71
ATOM     71  C   UNL A   1      42.400  24.740  26.520  1.00  0.00     0.057 A 
ATOM     72  C   UNL A   1      43.141  24.344  25.397  1.00  0.00     0.134 A 
ATOM     73  C   UNL A   1      41.683  23.725  27.178  1.00  0.00     0.134 A 
ATOM     74  F   UNL A   1      43.889  25.235  24.731  1.00  0.00    -0.206 F 
ATOM     75  C   UNL A   1      43.192  23.010  24.971  1.00  0.00     0.040 A 
ATOM     76  C   UNL A   1      41.725  22.389  26.762  1.00  0.00     0.040 A 
ATOM     77  F   UNL A   1      40.996  23.983  28.300  1.00  0.00    -0.206 F 
ATOM     78  C   UNL A   1      42.495  22.025  25.664  1.00  0.00     0.006 A 
ENDBRANCH  50  71
BRANCH  62  79
ATOM     79  C   UNL A   1      45.300  30.084  28.305  1.00  0.00     0.057 A 
ATOM     80  C   UNL A   1      44.253  30.867  27.796  1.00  0.00     0.134 A 
ATOM     81  C   UNL A   1      46.587  30.376  27.843  1.00  0.00     0.134 A 
ATOM     82  F   UNL A   1      42.998  30.717  28.232  1.00  0.00    -0.206 F 
ATOM     83  C   UNL A   1      44.478  31.883  26.859  1.00  0.00     0.040 A 
ATOM     84  C   UNL A   1      46.829  31.407  26.933  1.00  0.00     0.040 A 
ATOM     85  F   UNL A   1      47.643  29.700  28.321  1.00  0.00    -0.206 F 
ATOM     86  C   UNL A   1      45.773  32.163  26.434  1.00  0.00     0.006 A 
ENDBRANCH  62  79
ENDBRANCH  36  37
ENDBRANCH  28  31
ENDBRANCH  26  27
ENDBRANCH  25  26
ENDBRANCH   1  25
TORSDOF 14
ENDMDL
