MODEL 1
REMARK VINA RESULT:     -11.5      0.000      0.000
REMARK SMILES CCOc1ccc(N2C[C@H](C(=O)NCCCCNC(=O)c3ccc(-c4c5nc(c(-c6c(F)cccc6F)c6ccc([nH]6)c(-c6c(F)cccc6F)c6nc(c(-c7c(F)cccc7F)c7ccc4[nH]7)C=C6)C=C5)cc3)CC2=O)cc1C(F)(F)F
REMARK SMILES IDX 15 1 14 2 13 3 11 4 12 5 10 7 8 8 9 9 76 10 75 11 77 12 7 13
REMARK SMILES IDX 4 14 5 15 79 16 6 17 78 18 3 19 2 20 1 21 80 22 81 23 82 24
REMARK SMILES IDX 83 25 16 26 17 27 18 28 19 29 20 31 21 32 22 33 74 34 23 35
REMARK SMILES IDX 73 36 24 37 25 38 26 39 67 40 27 41 72 42 66 43 68 44 28 45
REMARK SMILES IDX 71 46 65 47 64 48 29 50 55 51 38 52 54 53 39 54 42 55 53 56
REMARK SMILES IDX 69 57 40 58 41 59 52 61 70 62 43 63 30 64 31 65 36 66 32 67
REMARK SMILES IDX 33 68 35 69 37 70 34 71 56 72 57 73 62 74 58 75 59 76 61 77
REMARK SMILES IDX 63 78 60 79 44 80 45 81 50 82 46 83 47 84 49 85 51 86 48 87
REMARK H PARENT 13 6 18 30 68 49 42 60
REMARK Flexibility Score: inf
ROOT
ATOM      1  C   UNL A   1      31.779  29.381  25.789  1.00  0.00     0.023 C 
ENDROOT
BRANCH   1   2
ATOM      2  C   UNL A   1      32.327  29.058  24.396  1.00  0.00     0.116 C 
BRANCH   2   3
ATOM      3  N   UNL A   1      31.412  29.490  23.363  1.00  0.00    -0.356 N 
ATOM      4  C   UNL A   1      30.564  28.826  22.546  1.00  0.00     0.225 C 
ATOM      5  O   UNL A   1      29.934  29.524  21.741  1.00  0.00    -0.275 OA
ATOM      6  H   UNL A   1      31.404  30.465  23.226  1.00  0.00     0.163 HD
BRANCH   4   7
ATOM      7  C   UNL A   1      30.261  27.334  22.604  1.00  0.00     0.107 C 
ATOM      8  N   UNL A   1      31.498  25.815  23.910  1.00  0.00    -0.312 N 
ATOM      9  C   UNL A   1      31.378  26.312  22.558  1.00  0.00     0.139 C 
ATOM     10  C   UNL A   1      30.413  26.202  24.703  1.00  0.00     0.227 C 
ATOM     11  C   UNL A   1      29.464  27.003  23.860  1.00  0.00     0.116 C 
ATOM     12  O   UNL A   1      30.221  25.971  25.888  1.00  0.00    -0.274 OA
BRANCH   8  13
ATOM     13  C   UNL A   1      32.575  25.026  24.383  1.00  0.00     0.044 A 
ATOM     14  C   UNL A   1      34.590  23.449  25.555  1.00  0.00     0.131 A 
ATOM     15  C   UNL A   1      34.778  24.822  25.386  1.00  0.00     0.049 A 
ATOM     16  C   UNL A   1      33.409  22.840  25.130  1.00  0.00     0.100 A 
ATOM     17  C   UNL A   1      33.797  25.594  24.754  1.00  0.00     0.030 A 
ATOM     18  C   UNL A   1      32.411  23.647  24.555  1.00  0.00     0.043 A 
BRANCH  14  19
ATOM     19  O   UNL A   1      35.509  22.720  26.254  1.00  0.00    -0.493 OA
BRANCH  19  20
ATOM     20  C   UNL A   1      36.822  22.755  25.688  1.00  0.00     0.226 C 
ATOM     21  C   UNL A   1      37.131  21.400  25.078  1.00  0.00     0.049 C 
ENDBRANCH  19  20
ENDBRANCH  14  19
BRANCH  16  22
ATOM     22  C   UNL A   1      33.194  21.352  25.192  1.00  0.00     0.420 C 
ATOM     23  F   UNL A   1      31.904  20.989  24.936  1.00  0.00    -0.166 F 
ATOM     24  F   UNL A   1      33.940  20.702  24.252  1.00  0.00    -0.166 F 
ATOM     25  F   UNL A   1      33.502  20.768  26.382  1.00  0.00    -0.166 F 
ENDBRANCH  16  22
ENDBRANCH   8  13
ENDBRANCH   4   7
ENDBRANCH   2   3
ENDBRANCH   1   2
BRANCH   1  26
ATOM     26  C   UNL A   1      32.396  28.550  26.910  1.00  0.00     0.023 C 
BRANCH  26  27
ATOM     27  C   UNL A   1      33.791  28.989  27.337  1.00  0.00     0.116 C 
BRANCH  27  28
ATOM     28  N   UNL A   1      33.839  30.285  27.999  1.00  0.00    -0.352 N 
ATOM     29  C   UNL A   1      34.916  30.855  28.645  1.00  0.00     0.251 C 
ATOM     30  H   UNL A   1      33.009  30.814  27.984  1.00  0.00     0.163 HD
ATOM     31  O   UNL A   1      34.803  31.919  29.242  1.00  0.00    -0.269 OA
BRANCH  29  32
ATOM     32  C   UNL A   1      36.195  30.117  28.651  1.00  0.00     0.039 A 
ATOM     33  C   UNL A   1      37.028  30.197  27.535  1.00  0.00     0.014 A 
ATOM     34  C   UNL A   1      36.621  29.466  29.812  1.00  0.00     0.014 A 
ATOM     35  C   UNL A   1      38.332  29.703  27.618  1.00  0.00     0.010 A 
ATOM     36  C   UNL A   1      37.946  29.064  29.924  1.00  0.00     0.010 A 
ATOM     37  C   UNL A   1      38.818  29.184  28.831  1.00  0.00    -0.014 A 
BRANCH  37  38
ATOM     38  C   UNL A   1      40.238  28.772  28.981  1.00  0.00     0.031 A 
ATOM     39  C   UNL A   1      41.249  29.742  29.526  1.00  0.00     0.074 A 
ATOM     40  C   UNL A   1      40.631  27.552  28.562  1.00  0.00     0.049 A 
ATOM     41  N   UNL A   1      42.541  29.594  29.674  1.00  0.00    -0.248 NA
ATOM     42  C   UNL A   1      40.746  31.065  29.930  1.00  0.00     0.031 C 
ATOM     43  C   UNL A   1      39.761  26.538  27.962  1.00  0.00     0.029 A 
ATOM     44  N   UNL A   1      41.870  26.959  28.570  1.00  0.00    -0.354 N 
ATOM     45  C   UNL A   1      43.003  30.804  30.175  1.00  0.00     0.074 A 
ATOM     46  C   UNL A   1      41.868  31.697  30.242  1.00  0.00     0.031 C 
ATOM     47  C   UNL A   1      40.485  25.440  27.691  1.00  0.00     0.029 A 
ATOM     48  C   UNL A   1      41.877  25.684  28.058  1.00  0.00     0.049 A 
ATOM     49  H   UNL A   1      42.678  27.406  28.913  1.00  0.00     0.167 HD
ATOM     50  C   UNL A   1      44.254  31.134  30.572  1.00  0.00     0.037 A 
ATOM     51  C   UNL A   1      42.890  24.812  27.897  1.00  0.00     0.037 A 
ATOM     52  C   UNL A   1      45.379  30.239  30.524  1.00  0.00     0.049 A 
ATOM     53  C   UNL A   1      44.275  25.208  28.333  1.00  0.00     0.074 A 
ATOM     54  C   UNL A   1      46.676  30.460  30.955  1.00  0.00     0.029 A 
ATOM     55  N   UNL A   1      45.342  28.952  30.010  1.00  0.00    -0.354 N 
ATOM     56  N   UNL A   1      44.683  26.330  28.875  1.00  0.00    -0.248 NA
ATOM     57  C   UNL A   1      45.340  24.213  28.140  1.00  0.00     0.031 C 
ATOM     58  C   UNL A   1      47.435  29.325  30.656  1.00  0.00     0.029 A 
ATOM     59  C   UNL A   1      46.599  28.375  30.092  1.00  0.00     0.049 A 
ATOM     60  H   UNL A   1      44.542  28.512  29.642  1.00  0.00     0.167 HD
ATOM     61  C   UNL A   1      46.040  26.165  29.117  1.00  0.00     0.074 A 
ATOM     62  C   UNL A   1      46.384  24.829  28.676  1.00  0.00     0.031 C 
ATOM     63  C   UNL A   1      46.924  27.040  29.657  1.00  0.00     0.037 A 
BRANCH  50  64
ATOM     64  C   UNL A   1      44.467  32.524  31.099  1.00  0.00     0.057 A 
ATOM     65  C   UNL A   1      44.827  33.587  30.258  1.00  0.00     0.134 A 
ATOM     66  C   UNL A   1      44.284  32.812  32.458  1.00  0.00     0.134 A 
ATOM     67  F   UNL A   1      45.031  33.378  28.948  1.00  0.00    -0.206 F 
ATOM     68  C   UNL A   1      45.027  34.876  30.753  1.00  0.00     0.040 A 
ATOM     69  C   UNL A   1      44.451  34.104  32.959  1.00  0.00     0.040 A 
ATOM     70  F   UNL A   1      43.934  31.844  33.318  1.00  0.00    -0.206 F 
ATOM     71  C   UNL A   1      44.831  35.139  32.107  1.00  0.00     0.006 A 
ENDBRANCH  50  64
BRANCH  51  72
ATOM     72  C   UNL A   1      42.636  23.467  27.320  1.00  0.00     0.057 A 
ATOM     73  C   UNL A   1      42.705  23.249  25.938  1.00  0.00     0.134 A 
ATOM     74  C   UNL A   1      42.302  22.372  28.127  1.00  0.00     0.134 A 
ATOM     75  F   UNL A   1      43.002  24.262  25.110  1.00  0.00    -0.206 F 
ATOM     76  C   UNL A   1      42.427  22.001  25.378  1.00  0.00     0.040 A 
ATOM     77  C   UNL A   1      42.049  21.112  27.582  1.00  0.00     0.040 A 
ATOM     78  F   UNL A   1      42.227  22.510  29.458  1.00  0.00    -0.206 F 
ATOM     79  C   UNL A   1      42.102  20.926  26.203  1.00  0.00     0.006 A 
ENDBRANCH  51  72
BRANCH  63  80
ATOM     80  C   UNL A   1      48.337  26.568  29.841  1.00  0.00     0.057 A 
ATOM     81  C   UNL A   1      49.326  26.790  28.874  1.00  0.00     0.134 A 
ATOM     82  C   UNL A   1      48.722  25.922  31.024  1.00  0.00     0.134 A 
ATOM     83  F   UNL A   1      49.022  27.391  27.715  1.00  0.00    -0.206 F 
ATOM     84  C   UNL A   1      50.642  26.362  29.066  1.00  0.00     0.040 A 
ATOM     85  C   UNL A   1      50.040  25.518  31.239  1.00  0.00     0.040 A 
ATOM     86  F   UNL A   1      47.827  25.689  31.995  1.00  0.00    -0.206 F 
ATOM     87  C   UNL A   1      51.002  25.732  30.255  1.00  0.00     0.006 A 
ENDBRANCH  63  80
ENDBRANCH  37  38
ENDBRANCH  29  32
ENDBRANCH  27  28
ENDBRANCH  26  27
ENDBRANCH   1  26
TORSDOF 15
ENDMDL
MODEL 2
REMARK VINA RESULT:     -11.4      3.884      5.365
REMARK SMILES CCOc1ccc(N2C[C@H](C(=O)NCCCCNC(=O)c3ccc(-c4c5nc(c(-c6c(F)cccc6F)c6ccc([nH]6)c(-c6c(F)cccc6F)c6nc(c(-c7c(F)cccc7F)c7ccc4[nH]7)C=C6)C=C5)cc3)CC2=O)cc1C(F)(F)F
REMARK SMILES IDX 15 1 14 2 13 3 11 4 12 5 10 7 8 8 9 9 76 10 75 11 77 12 7 13
REMARK SMILES IDX 4 14 5 15 79 16 6 17 78 18 3 19 2 20 1 21 80 22 81 23 82 24
REMARK SMILES IDX 83 25 16 26 17 27 18 28 19 29 20 31 21 32 22 33 74 34 23 35
REMARK SMILES IDX 73 36 24 37 25 38 26 39 67 40 27 41 72 42 66 43 68 44 28 45
REMARK SMILES IDX 71 46 65 47 64 48 29 50 55 51 38 52 54 53 39 54 42 55 53 56
REMARK SMILES IDX 69 57 40 58 41 59 52 61 70 62 43 63 30 64 31 65 36 66 32 67
REMARK SMILES IDX 33 68 35 69 37 70 34 71 56 72 57 73 62 74 58 75 59 76 61 77
REMARK SMILES IDX 63 78 60 79 44 80 45 81 50 82 46 83 47 84 49 85 51 86 48 87
REMARK H PARENT 13 6 18 30 68 49 42 60
REMARK Flexibility Score: inf
ROOT
ATOM      1  C   UNL A   1      32.135  30.460  26.582  1.00  0.00     0.023 C 
ENDROOT
BRANCH   1   2
ATOM      2  C   UNL A   1      31.945  30.001  25.134  1.00  0.00     0.116 C 
BRANCH   2   3
ATOM      3  N   UNL A   1      30.722  30.533  24.575  1.00  0.00    -0.356 N 
ATOM      4  C   UNL A   1      29.885  30.097  23.607  1.00  0.00     0.225 C 
ATOM      5  O   UNL A   1      28.922  30.832  23.356  1.00  0.00    -0.275 OA
ATOM      6  H   UNL A   1      30.441  31.385  24.980  1.00  0.00     0.163 HD
BRANCH   4   7
ATOM      7  C   UNL A   1      29.982  28.757  22.887  1.00  0.00     0.107 C 
ATOM      8  N   UNL A   1      31.223  26.935  23.711  1.00  0.00    -0.312 N 
ATOM      9  C   UNL A   1      31.306  28.031  22.772  1.00  0.00     0.139 C 
ATOM     10  C   UNL A   1      29.916  26.744  24.171  1.00  0.00     0.227 C 
ATOM     11  C   UNL A   1      29.022  27.751  23.508  1.00  0.00     0.116 C 
ATOM     12  O   UNL A   1      29.512  25.925  24.984  1.00  0.00    -0.274 OA
BRANCH   8  13
ATOM     13  C   UNL A   1      32.322  26.140  24.117  1.00  0.00     0.044 A 
ATOM     14  C   UNL A   1      34.332  24.388  25.020  1.00  0.00     0.131 A 
ATOM     15  C   UNL A   1      34.028  25.544  25.741  1.00  0.00     0.049 A 
ATOM     16  C   UNL A   1      33.656  24.096  23.836  1.00  0.00     0.100 A 
ATOM     17  C   UNL A   1      33.067  26.441  25.261  1.00  0.00     0.030 A 
ATOM     18  C   UNL A   1      32.649  24.979  23.406  1.00  0.00     0.043 A 
BRANCH  14  19
ATOM     19  O   UNL A   1      35.203  23.474  25.540  1.00  0.00    -0.493 OA
BRANCH  19  20
ATOM     20  C   UNL A   1      34.808  22.964  26.817  1.00  0.00     0.226 C 
ATOM     21  C   UNL A   1      34.405  21.509  26.661  1.00  0.00     0.049 C 
ENDBRANCH  19  20
ENDBRANCH  14  19
BRANCH  16  22
ATOM     22  C   UNL A   1      34.012  22.921  22.965  1.00  0.00     0.420 C 
ATOM     23  F   UNL A   1      33.432  22.977  21.732  1.00  0.00    -0.166 F 
ATOM     24  F   UNL A   1      35.355  22.868  22.725  1.00  0.00    -0.166 F 
ATOM     25  F   UNL A   1      33.674  21.701  23.466  1.00  0.00    -0.166 F 
ENDBRANCH  16  22
ENDBRANCH   8  13
ENDBRANCH   4   7
ENDBRANCH   2   3
ENDBRANCH   1   2
BRANCH   1  26
ATOM     26  C   UNL A   1      31.698  31.898  26.844  1.00  0.00     0.023 C 
BRANCH  26  27
ATOM     27  C   UNL A   1      32.769  32.789  27.463  1.00  0.00     0.116 C 
BRANCH  27  28
ATOM     28  N   UNL A   1      32.349  34.163  27.695  1.00  0.00    -0.352 N 
ATOM     29  C   UNL A   1      32.912  35.074  28.563  1.00  0.00     0.251 C 
ATOM     30  H   UNL A   1      31.576  34.478  27.173  1.00  0.00     0.163 HD
ATOM     31  O   UNL A   1      32.410  36.179  28.733  1.00  0.00    -0.269 OA
BRANCH  29  32
ATOM     32  C   UNL A   1      34.104  34.660  29.331  1.00  0.00     0.039 A 
ATOM     33  C   UNL A   1      33.937  34.147  30.617  1.00  0.00     0.014 A 
ATOM     34  C   UNL A   1      35.361  34.656  28.720  1.00  0.00     0.014 A 
ATOM     35  C   UNL A   1      35.019  33.540  31.257  1.00  0.00     0.010 A 
ATOM     36  C   UNL A   1      36.409  33.965  29.317  1.00  0.00     0.010 A 
ATOM     37  C   UNL A   1      36.248  33.394  30.589  1.00  0.00    -0.014 A 
BRANCH  37  38
ATOM     38  C   UNL A   1      37.374  32.639  31.199  1.00  0.00     0.031 A 
ATOM     39  C   UNL A   1      37.944  33.075  32.520  1.00  0.00     0.074 A 
ATOM     40  C   UNL A   1      37.927  31.606  30.532  1.00  0.00     0.049 A 
ATOM     41  N   UNL A   1      38.962  32.588  33.181  1.00  0.00    -0.248 NA
ATOM     42  C   UNL A   1      37.304  34.232  33.167  1.00  0.00     0.031 C 
ATOM     43  C   UNL A   1      37.506  31.118  29.217  1.00  0.00     0.029 A 
ATOM     44  N   UNL A   1      38.974  30.783  30.869  1.00  0.00    -0.354 N 
ATOM     45  C   UNL A   1      39.090  33.384  34.313  1.00  0.00     0.074 A 
ATOM     46  C   UNL A   1      38.092  34.424  34.215  1.00  0.00     0.031 C 
ATOM     47  C   UNL A   1      38.263  30.064  28.875  1.00  0.00     0.029 A 
ATOM     48  C   UNL A   1      39.250  29.824  29.923  1.00  0.00     0.049 A 
ATOM     49  H   UNL A   1      39.479  30.871  31.709  1.00  0.00     0.167 HD
ATOM     50  C   UNL A   1      39.942  33.243  35.356  1.00  0.00     0.037 A 
ATOM     51  C   UNL A   1      40.194  28.864  29.901  1.00  0.00     0.037 A 
ATOM     52  C   UNL A   1      40.921  32.195  35.463  1.00  0.00     0.049 A 
ATOM     53  C   UNL A   1      41.139  28.738  31.065  1.00  0.00     0.074 A 
ATOM     54  C   UNL A   1      41.794  31.933  36.504  1.00  0.00     0.029 A 
ATOM     55  N   UNL A   1      41.161  31.236  34.489  1.00  0.00    -0.354 N 
ATOM     56  N   UNL A   1      41.200  29.452  32.163  1.00  0.00    -0.248 NA
ATOM     57  C   UNL A   1      42.145  27.668  30.989  1.00  0.00     0.031 C 
ATOM     58  C   UNL A   1      42.596  30.847  36.141  1.00  0.00     0.029 A 
ATOM     59  C   UNL A   1      42.184  30.396  34.897  1.00  0.00     0.049 A 
ATOM     60  H   UNL A   1      40.676  31.163  33.636  1.00  0.00     0.167 HD
ATOM     61  C   UNL A   1      42.224  28.899  32.921  1.00  0.00     0.074 A 
ATOM     62  C   UNL A   1      42.748  27.782  32.164  1.00  0.00     0.031 C 
ATOM     63  C   UNL A   1      42.689  29.281  34.136  1.00  0.00     0.037 A 
BRANCH  50  64
ATOM     64  C   UNL A   1      39.845  34.248  36.467  1.00  0.00     0.057 A 
ATOM     65  C   UNL A   1      40.534  35.469  36.422  1.00  0.00     0.134 A 
ATOM     66  C   UNL A   1      39.033  34.008  37.583  1.00  0.00     0.134 A 
ATOM     67  F   UNL A   1      41.339  35.757  35.388  1.00  0.00    -0.206 F 
ATOM     68  C   UNL A   1      40.443  36.399  37.458  1.00  0.00     0.040 A 
ATOM     69  C   UNL A   1      38.910  34.943  38.611  1.00  0.00     0.040 A 
ATOM     70  F   UNL A   1      38.341  32.863  37.688  1.00  0.00    -0.206 F 
ATOM     71  C   UNL A   1      39.623  36.140  38.555  1.00  0.00     0.006 A 
ENDBRANCH  50  64
BRANCH  51  72
ATOM     72  C   UNL A   1      40.283  27.928  28.751  1.00  0.00     0.057 A 
ATOM     73  C   UNL A   1      41.017  28.258  27.605  1.00  0.00     0.134 A 
ATOM     74  C   UNL A   1      39.627  26.691  28.759  1.00  0.00     0.134 A 
ATOM     75  F   UNL A   1      41.652  29.437  27.528  1.00  0.00    -0.206 F 
ATOM     76  C   UNL A   1      41.074  27.407  26.500  1.00  0.00     0.040 A 
ATOM     77  C   UNL A   1      39.698  25.817  27.672  1.00  0.00     0.040 A 
ATOM     78  F   UNL A   1      38.914  26.309  29.829  1.00  0.00    -0.206 F 
ATOM     79  C   UNL A   1      40.416  26.179  26.535  1.00  0.00     0.006 A 
ENDBRANCH  51  72
BRANCH  63  80
ATOM     80  C   UNL A   1      43.790  28.461  34.742  1.00  0.00     0.057 A 
ATOM     81  C   UNL A   1      45.140  28.801  34.588  1.00  0.00     0.134 A 
ATOM     82  C   UNL A   1      43.492  27.340  35.529  1.00  0.00     0.134 A 
ATOM     83  F   UNL A   1      45.495  29.854  33.837  1.00  0.00    -0.206 F 
ATOM     84  C   UNL A   1      46.155  28.039  35.172  1.00  0.00     0.040 A 
ATOM     85  C   UNL A   1      44.495  26.590  36.143  1.00  0.00     0.040 A 
ATOM     86  F   UNL A   1      42.218  26.966  35.726  1.00  0.00    -0.206 F 
ATOM     87  C   UNL A   1      45.832  26.936  35.960  1.00  0.00     0.006 A 
ENDBRANCH  63  80
ENDBRANCH  37  38
ENDBRANCH  29  32
ENDBRANCH  27  28
ENDBRANCH  26  27
ENDBRANCH   1  26
TORSDOF 15
ENDMDL
MODEL 3
REMARK VINA RESULT:     -11.4      2.552      7.547
REMARK SMILES CCOc1ccc(N2C[C@H](C(=O)NCCCCNC(=O)c3ccc(-c4c5nc(c(-c6c(F)cccc6F)c6ccc([nH]6)c(-c6c(F)cccc6F)c6nc(c(-c7c(F)cccc7F)c7ccc4[nH]7)C=C6)C=C5)cc3)CC2=O)cc1C(F)(F)F
REMARK SMILES IDX 15 1 14 2 13 3 11 4 12 5 10 7 8 8 9 9 76 10 75 11 77 12 7 13
REMARK SMILES IDX 4 14 5 15 79 16 6 17 78 18 3 19 2 20 1 21 80 22 81 23 82 24
REMARK SMILES IDX 83 25 16 26 17 27 18 28 19 29 20 31 21 32 22 33 74 34 23 35
REMARK SMILES IDX 73 36 24 37 25 38 26 39 67 40 27 41 72 42 66 43 68 44 28 45
REMARK SMILES IDX 71 46 65 47 64 48 29 50 55 51 38 52 54 53 39 54 42 55 53 56
REMARK SMILES IDX 69 57 40 58 41 59 52 61 70 62 43 63 30 64 31 65 36 66 32 67
REMARK SMILES IDX 33 68 35 69 37 70 34 71 56 72 57 73 62 74 58 75 59 76 61 77
REMARK SMILES IDX 63 78 60 79 44 80 45 81 50 82 46 83 47 84 49 85 51 86 48 87
REMARK H PARENT 13 6 18 30 68 49 42 60
REMARK Flexibility Score: inf
ROOT
ATOM      1  C   UNL A   1      36.356  22.513  25.192  1.00  0.00     0.023 C 
ENDROOT
BRANCH   1   2
ATOM      2  C   UNL A   1      35.186  22.393  26.173  1.00  0.00     0.116 C 
BRANCH   2   3
ATOM      3  N   UNL A   1      34.581  21.081  26.105  1.00  0.00    -0.356 N 
ATOM      4  C   UNL A   1      33.426  20.626  25.572  1.00  0.00     0.225 C 
ATOM      5  O   UNL A   1      33.202  19.418  25.722  1.00  0.00    -0.275 OA
ATOM      6  H   UNL A   1      35.119  20.377  26.533  1.00  0.00     0.163 HD
BRANCH   4   7
ATOM      7  C   UNL A   1      32.449  21.447  24.739  1.00  0.00     0.107 C 
ATOM      8  N   UNL A   1      32.684  23.760  24.379  1.00  0.00    -0.312 N 
ATOM      9  C   UNL A   1      31.980  22.808  25.207  1.00  0.00     0.139 C 
ATOM     10  C   UNL A   1      33.302  23.141  23.287  1.00  0.00     0.227 C 
ATOM     11  C   UNL A   1      33.004  21.671  23.339  1.00  0.00     0.116 C 
ATOM     12  O   UNL A   1      33.991  23.653  22.417  1.00  0.00    -0.274 OA
BRANCH   8  13
ATOM     13  C   UNL A   1      32.742  25.154  24.627  1.00  0.00     0.044 A 
ATOM     14  C   UNL A   1      32.998  27.944  24.899  1.00  0.00     0.131 A 
ATOM     15  C   UNL A   1      33.795  27.085  25.658  1.00  0.00     0.049 A 
ATOM     16  C   UNL A   1      32.054  27.429  24.009  1.00  0.00     0.100 A 
ATOM     17  C   UNL A   1      33.627  25.700  25.561  1.00  0.00     0.030 A 
ATOM     18  C   UNL A   1      31.948  26.033  23.882  1.00  0.00     0.043 A 
BRANCH  14  19
ATOM     19  O   UNL A   1      33.229  29.289  24.931  1.00  0.00    -0.493 OA
BRANCH  19  20
ATOM     20  C   UNL A   1      33.319  29.826  26.254  1.00  0.00     0.226 C 
ATOM     21  C   UNL A   1      31.951  30.335  26.671  1.00  0.00     0.049 C 
ENDBRANCH  19  20
ENDBRANCH  14  19
BRANCH  16  22
ATOM     22  C   UNL A   1      31.099  28.304  23.243  1.00  0.00     0.420 C 
ATOM     23  F   UNL A   1      30.238  27.593  22.459  1.00  0.00    -0.166 F 
ATOM     24  F   UNL A   1      30.301  29.025  24.084  1.00  0.00    -0.166 F 
ATOM     25  F   UNL A   1      31.678  29.210  22.410  1.00  0.00    -0.166 F 
ENDBRANCH  16  22
ENDBRANCH   8  13
ENDBRANCH   4   7
ENDBRANCH   2   3
ENDBRANCH   1   2
BRANCH   1  26
ATOM     26  C   UNL A   1      37.191  21.243  25.057  1.00  0.00     0.023 C 
BRANCH  26  27
ATOM     27  C   UNL A   1      38.546  21.292  25.753  1.00  0.00     0.116 C 
BRANCH  27  28
ATOM     28  N   UNL A   1      39.319  20.062  25.653  1.00  0.00    -0.352 N 
ATOM     29  C   UNL A   1      40.640  19.875  25.999  1.00  0.00     0.251 C 
ATOM     30  H   UNL A   1      38.845  19.276  25.298  1.00  0.00     0.163 HD
ATOM     31  O   UNL A   1      41.204  18.808  25.784  1.00  0.00    -0.269 OA
BRANCH  29  32
ATOM     32  C   UNL A   1      41.377  21.016  26.580  1.00  0.00     0.039 A 
ATOM     33  C   UNL A   1      41.987  21.934  25.726  1.00  0.00     0.014 A 
ATOM     34  C   UNL A   1      41.341  21.240  27.959  1.00  0.00     0.014 A 
ATOM     35  C   UNL A   1      42.479  23.132  26.250  1.00  0.00     0.010 A 
ATOM     36  C   UNL A   1      41.743  22.471  28.462  1.00  0.00     0.010 A 
ATOM     37  C   UNL A   1      42.311  23.433  27.613  1.00  0.00    -0.014 A 
BRANCH  37  38
ATOM     38  C   UNL A   1      42.711  24.753  28.167  1.00  0.00     0.031 A 
ATOM     39  C   UNL A   1      41.677  25.824  28.378  1.00  0.00     0.074 A 
ATOM     40  C   UNL A   1      44.010  25.011  28.415  1.00  0.00     0.049 A 
ATOM     41  N   UNL A   1      41.836  27.056  28.790  1.00  0.00    -0.248 NA
ATOM     42  C   UNL A   1      40.285  25.474  28.052  1.00  0.00     0.031 C 
ATOM     43  C   UNL A   1      45.119  24.079  28.199  1.00  0.00     0.029 A 
ATOM     44  N   UNL A   1      44.622  26.142  28.896  1.00  0.00    -0.354 N 
ATOM     45  C   UNL A   1      40.570  27.627  28.762  1.00  0.00     0.074 A 
ATOM     46  C   UNL A   1      39.667  26.632  28.229  1.00  0.00     0.031 C 
ATOM     47  C   UNL A   1      46.267  24.663  28.577  1.00  0.00     0.029 A 
ATOM     48  C   UNL A   1      45.985  26.024  29.022  1.00  0.00     0.049 A 
ATOM     49  H   UNL A   1      44.129  26.962  29.130  1.00  0.00     0.167 HD
ATOM     50  C   UNL A   1      40.187  28.860  29.172  1.00  0.00     0.037 A 
ATOM     51  C   UNL A   1      46.905  26.913  29.444  1.00  0.00     0.037 A 
ATOM     52  C   UNL A   1      41.083  29.842  29.721  1.00  0.00     0.049 A 
ATOM     53  C   UNL A   1      46.457  28.282  29.879  1.00  0.00     0.074 A 
ATOM     54  C   UNL A   1      40.784  31.099  30.216  1.00  0.00     0.029 A 
ATOM     55  N   UNL A   1      42.455  29.679  29.842  1.00  0.00    -0.354 N 
ATOM     56  N   UNL A   1      45.246  28.783  29.917  1.00  0.00    -0.248 NA
ATOM     57  C   UNL A   1      47.503  29.208  30.336  1.00  0.00     0.031 C 
ATOM     58  C   UNL A   1      41.981  31.717  30.591  1.00  0.00     0.029 A 
ATOM     59  C   UNL A   1      43.019  30.822  30.384  1.00  0.00     0.049 A 
ATOM     60  H   UNL A   1      42.954  28.871  29.584  1.00  0.00     0.167 HD
ATOM     61  C   UNL A   1      45.380  30.066  30.431  1.00  0.00     0.074 A 
ATOM     62  C   UNL A   1      46.789  30.262  30.703  1.00  0.00     0.031 C 
ATOM     63  C   UNL A   1      44.423  30.999  30.659  1.00  0.00     0.037 A 
BRANCH  50  64
ATOM     64  C   UNL A   1      38.733  29.209  29.044  1.00  0.00     0.057 A 
ATOM     65  C   UNL A   1      38.173  29.609  27.822  1.00  0.00     0.134 A 
ATOM     66  C   UNL A   1      37.874  29.119  30.146  1.00  0.00     0.134 A 
ATOM     67  F   UNL A   1      38.942  29.728  26.728  1.00  0.00    -0.206 F 
ATOM     68  C   UNL A   1      36.821  29.935  27.708  1.00  0.00     0.040 A 
ATOM     69  C   UNL A   1      36.514  29.414  30.039  1.00  0.00     0.040 A 
ATOM     70  F   UNL A   1      38.341  28.738  31.345  1.00  0.00    -0.206 F 
ATOM     71  C   UNL A   1      35.985  29.831  28.819  1.00  0.00     0.006 A 
ENDBRANCH  50  64
BRANCH  51  72
ATOM     72  C   UNL A   1      48.341  26.536  29.500  1.00  0.00     0.057 A 
ATOM     73  C   UNL A   1      48.873  25.883  30.619  1.00  0.00     0.134 A 
ATOM     74  C   UNL A   1      49.219  26.830  28.450  1.00  0.00     0.134 A 
ATOM     75  F   UNL A   1      48.087  25.590  31.666  1.00  0.00    -0.206 F 
ATOM     76  C   UNL A   1      50.229  25.559  30.703  1.00  0.00     0.040 A 
ATOM     77  C   UNL A   1      50.572  26.487  28.509  1.00  0.00     0.040 A 
ATOM     78  F   UNL A   1      48.773  27.446  27.345  1.00  0.00    -0.206 F 
ATOM     79  C   UNL A   1      51.081  25.858  29.642  1.00  0.00     0.006 A 
ENDBRANCH  51  72
BRANCH  63  80
ATOM     80  C   UNL A   1      44.859  32.300  31.269  1.00  0.00     0.057 A 
ATOM     81  C   UNL A   1      44.928  32.484  32.655  1.00  0.00     0.134 A 
ATOM     82  C   UNL A   1      45.258  33.368  30.454  1.00  0.00     0.134 A 
ATOM     83  F   UNL A   1      44.549  31.506  33.491  1.00  0.00    -0.206 F 
ATOM     84  C   UNL A   1      45.354  33.693  33.209  1.00  0.00     0.040 A 
ATOM     85  C   UNL A   1      45.714  34.570  30.996  1.00  0.00     0.040 A 
ATOM     86  F   UNL A   1      45.226  33.254  29.117  1.00  0.00    -0.206 F 
ATOM     87  C   UNL A   1      45.756  34.737  32.378  1.00  0.00     0.006 A 
ENDBRANCH  63  80
ENDBRANCH  37  38
ENDBRANCH  29  32
ENDBRANCH  27  28
ENDBRANCH  26  27
ENDBRANCH   1  26
TORSDOF 15
ENDMDL
