MODEL 1
REMARK VINA RESULT:     -11.3      0.000      0.000
REMARK SMILES CC[C@H](C)[C@@H](Nc1nc(C(F)(F)F)nc2ccccc12)C(=O)NCCCCNC(=O)c1ccc(-c2c3nc(c(-c4c(F)cccc4F)c4ccc([nH]4)c(-c4c(F)cccc4F)c4nc(c(-c5c(F)cccc5F)c5ccc2[nH]5)C=C4)C=C3)cc1
REMARK SMILES IDX 25 1 24 2 23 3 21 4 22 5 5 7 3 8 4 9 2 10 1 11 6 12 7 14
REMARK SMILES IDX 8 15 20 16 9 17 15 18 19 19 14 20 16 21 18 22 17 23 10 24
REMARK SMILES IDX 11 25 12 26 13 27 26 28 27 29 28 30 29 31 30 33 31 34 32 35
REMARK SMILES IDX 84 36 33 37 83 38 34 39 35 40 36 41 77 42 37 43 82 44 76 45
REMARK SMILES IDX 78 46 38 47 81 48 75 49 74 50 39 52 65 53 48 54 64 55 49 56
REMARK SMILES IDX 52 57 63 58 79 59 50 60 51 61 62 63 80 64 53 65 40 66 41 67
REMARK SMILES IDX 46 68 42 69 43 70 45 71 47 72 44 73 66 74 67 75 72 76 68 77
REMARK SMILES IDX 69 78 71 79 73 80 70 81 54 82 55 83 60 84 56 85 57 86 59 87
REMARK SMILES IDX 61 88 58 89
REMARK H PARENT 23 6 6 13 28 32 78 51 52 62
REMARK Flexibility Score: inf
ROOT
ATOM      1  C   UNL A   1      32.406  28.281  25.047  1.00  0.00     0.023 C 
ENDROOT
BRANCH   1   2
ATOM      2  C   UNL A   1      33.775  27.894  24.503  1.00  0.00     0.116 C 
BRANCH   2   3
ATOM      3  N   UNL A   1      33.664  27.329  23.173  1.00  0.00    -0.354 N 
ATOM      4  C   UNL A   1      33.524  26.030  22.784  1.00  0.00     0.242 C 
ATOM      5  O   UNL A   1      33.525  25.798  21.569  1.00  0.00    -0.273 OA
ATOM      6  H   UNL A   1      33.695  27.983  22.438  1.00  0.00     0.163 HD
BRANCH   4   7
ATOM      7  C   UNL A   1      33.403  24.874  23.814  1.00  0.00     0.173 C 
BRANCH   7   8
ATOM      8  C   UNL A   1      31.925  24.776  24.304  1.00  0.00     0.018 C 
ATOM      9  C   UNL A   1      31.070  23.801  23.486  1.00  0.00     0.010 C 
BRANCH   8  10
ATOM     10  C   UNL A   1      31.813  24.445  25.815  1.00  0.00     0.002 C 
ATOM     11  C   UNL A   1      30.636  23.560  26.205  1.00  0.00     0.004 C 
ENDBRANCH   8  10
ENDBRANCH   7   8
BRANCH   7  12
ATOM     12  N   UNL A   1      33.927  23.578  23.313  1.00  0.00    -0.358 N 
ATOM     13  H   UNL A   1      33.876  23.407  22.345  1.00  0.00     0.162 HD
BRANCH  12  14
ATOM     14  C   UNL A   1      34.479  22.595  24.112  1.00  0.00     0.138 A 
ATOM     15  N   UNL A   1      33.757  21.462  24.076  1.00  0.00    -0.207 NA
ATOM     16  C   UNL A   1      35.712  22.669  24.777  1.00  0.00     0.043 A 
ATOM     17  C   UNL A   1      34.307  20.337  24.588  1.00  0.00     0.237 A 
ATOM     18  C   UNL A   1      36.224  21.440  25.215  1.00  0.00     0.076 A 
ATOM     19  C   UNL A   1      36.471  23.845  25.002  1.00  0.00     0.014 A 
ATOM     20  N   UNL A   1      35.547  20.293  25.116  1.00  0.00    -0.224 NA
ATOM     21  C   UNL A   1      37.508  21.399  25.745  1.00  0.00     0.029 A 
ATOM     22  C   UNL A   1      37.753  23.782  25.543  1.00  0.00     0.001 A 
ATOM     23  C   UNL A   1      38.283  22.551  25.894  1.00  0.00     0.002 A 
BRANCH  17  24
ATOM     24  C   UNL A   1      33.523  19.028  24.442  1.00  0.00     0.451 C 
ATOM     25  F   UNL A   1      32.450  19.129  23.602  1.00  0.00    -0.163 F 
ATOM     26  F   UNL A   1      34.293  18.016  23.935  1.00  0.00    -0.163 F 
ATOM     27  F   UNL A   1      33.022  18.543  25.618  1.00  0.00    -0.163 F 
ENDBRANCH  17  24
ENDBRANCH  12  14
ENDBRANCH   7  12
ENDBRANCH   4   7
ENDBRANCH   2   3
ENDBRANCH   1   2
BRANCH   1  28
ATOM     28  C   UNL A   1      32.330  28.279  26.573  1.00  0.00     0.023 C 
BRANCH  28  29
ATOM     29  C   UNL A   1      33.619  28.686  27.279  1.00  0.00     0.116 C 
BRANCH  29  30
ATOM     30  N   UNL A   1      33.614  30.078  27.707  1.00  0.00    -0.352 N 
ATOM     31  C   UNL A   1      34.620  30.783  28.321  1.00  0.00     0.251 C 
ATOM     32  H   UNL A   1      32.784  30.577  27.534  1.00  0.00     0.163 HD
ATOM     33  O   UNL A   1      34.418  31.906  28.770  1.00  0.00    -0.269 OA
BRANCH  31  34
ATOM     34  C   UNL A   1      35.945  30.153  28.462  1.00  0.00     0.039 A 
ATOM     35  C   UNL A   1      36.838  30.206  27.390  1.00  0.00     0.014 A 
ATOM     36  C   UNL A   1      36.318  29.561  29.672  1.00  0.00     0.014 A 
ATOM     37  C   UNL A   1      38.138  29.727  27.557  1.00  0.00     0.010 A 
ATOM     38  C   UNL A   1      37.632  29.150  29.859  1.00  0.00     0.010 A 
ATOM     39  C   UNL A   1      38.555  29.232  28.804  1.00  0.00    -0.014 A 
BRANCH  39  40
ATOM     40  C   UNL A   1      39.954  28.800  29.031  1.00  0.00     0.031 A 
ATOM     41  C   UNL A   1      40.946  29.752  29.635  1.00  0.00     0.074 A 
ATOM     42  C   UNL A   1      40.348  27.576  28.627  1.00  0.00     0.049 A 
ATOM     43  N   UNL A   1      42.230  29.592  29.835  1.00  0.00    -0.248 NA
ATOM     44  C   UNL A   1      40.433  31.070  30.042  1.00  0.00     0.031 C 
ATOM     45  C   UNL A   1      39.490  26.578  27.984  1.00  0.00     0.029 A 
ATOM     46  N   UNL A   1      41.577  26.969  28.685  1.00  0.00    -0.354 N 
ATOM     47  C   UNL A   1      42.677  30.791  30.375  1.00  0.00     0.074 A 
ATOM     48  C   UNL A   1      41.542  31.685  30.423  1.00  0.00     0.031 C 
ATOM     49  C   UNL A   1      40.214  25.477  27.728  1.00  0.00     0.029 A 
ATOM     50  C   UNL A   1      41.592  25.704  28.152  1.00  0.00     0.049 A 
ATOM     51  H   UNL A   1      42.373  27.400  29.073  1.00  0.00     0.167 HD
ATOM     52  C   UNL A   1      43.918  31.108  30.814  1.00  0.00     0.037 A 
ATOM     53  C   UNL A   1      42.605  24.828  28.013  1.00  0.00     0.037 A 
ATOM     54  C   UNL A   1      45.040  30.207  30.789  1.00  0.00     0.049 A 
ATOM     55  C   UNL A   1      43.975  25.207  28.501  1.00  0.00     0.074 A 
ATOM     56  C   UNL A   1      46.322  30.414  31.265  1.00  0.00     0.029 A 
ATOM     57  N   UNL A   1      45.011  28.927  30.256  1.00  0.00    -0.354 N 
ATOM     58  N   UNL A   1      44.371  26.320  29.069  1.00  0.00    -0.248 NA
ATOM     59  C   UNL A   1      45.039  24.207  28.332  1.00  0.00     0.031 C 
ATOM     60  C   UNL A   1      47.081  29.272  30.985  1.00  0.00     0.029 A 
ATOM     61  C   UNL A   1      46.259  28.339  30.374  1.00  0.00     0.049 A 
ATOM     62  H   UNL A   1      44.220  28.499  29.854  1.00  0.00     0.167 HD
ATOM     63  C   UNL A   1      45.720  26.145  29.350  1.00  0.00     0.074 A 
ATOM     64  C   UNL A   1      46.071  24.814  28.900  1.00  0.00     0.031 C 
ATOM     65  C   UNL A   1      46.589  27.009  29.929  1.00  0.00     0.037 A 
BRANCH  52  66
ATOM     66  C   UNL A   1      44.123  32.489  31.365  1.00  0.00     0.057 A 
ATOM     67  C   UNL A   1      44.502  33.561  30.545  1.00  0.00     0.134 A 
ATOM     68  C   UNL A   1      43.911  32.757  32.722  1.00  0.00     0.134 A 
ATOM     69  F   UNL A   1      44.734  33.368  29.237  1.00  0.00    -0.206 F 
ATOM     70  C   UNL A   1      44.690  34.844  31.062  1.00  0.00     0.040 A 
ATOM     71  C   UNL A   1      44.069  34.042  33.245  1.00  0.00     0.040 A 
ATOM     72  F   UNL A   1      43.541  31.778  33.562  1.00  0.00    -0.206 F 
ATOM     73  C   UNL A   1      44.467  35.088  32.415  1.00  0.00     0.006 A 
ENDBRANCH  52  66
BRANCH  53  74
ATOM     74  C   UNL A   1      42.359  23.496  27.405  1.00  0.00     0.057 A 
ATOM     75  C   UNL A   1      42.038  22.391  28.199  1.00  0.00     0.134 A 
ATOM     76  C   UNL A   1      42.444  23.295  26.022  1.00  0.00     0.134 A 
ATOM     77  F   UNL A   1      41.959  22.518  29.532  1.00  0.00    -0.206 F 
ATOM     78  C   UNL A   1      41.827  21.127  27.644  1.00  0.00     0.040 A 
ATOM     79  C   UNL A   1      42.214  22.042  25.451  1.00  0.00     0.040 A 
ATOM     80  F   UNL A   1      42.742  24.316  25.205  1.00  0.00    -0.206 F 
ATOM     81  C   UNL A   1      41.911  20.953  26.264  1.00  0.00     0.006 A 
ENDBRANCH  53  74
BRANCH  65  82
ATOM     82  C   UNL A   1      47.996  26.532  30.137  1.00  0.00     0.057 A 
ATOM     83  C   UNL A   1      49.001  26.754  29.189  1.00  0.00     0.134 A 
ATOM     84  C   UNL A   1      48.357  25.879  31.324  1.00  0.00     0.134 A 
ATOM     85  F   UNL A   1      48.715  27.361  28.026  1.00  0.00    -0.206 F 
ATOM     86  C   UNL A   1      50.312  26.330  29.404  1.00  0.00     0.040 A 
ATOM     87  C   UNL A   1      49.669  25.473  31.561  1.00  0.00     0.040 A 
ATOM     88  F   UNL A   1      47.442  25.643  32.277  1.00  0.00    -0.206 F 
ATOM     89  C   UNL A   1      50.651  25.693  30.597  1.00  0.00     0.006 A 
ENDBRANCH  65  82
ENDBRANCH  39  40
ENDBRANCH  31  34
ENDBRANCH  29  30
ENDBRANCH  28  29
ENDBRANCH   1  28
TORSDOF 16
ENDMDL
MODEL 2
REMARK VINA RESULT:     -11.0      2.494      7.378
REMARK SMILES CC[C@H](C)[C@@H](Nc1nc(C(F)(F)F)nc2ccccc12)C(=O)NCCCCNC(=O)c1ccc(-c2c3nc(c(-c4c(F)cccc4F)c4ccc([nH]4)c(-c4c(F)cccc4F)c4nc(c(-c5c(F)cccc5F)c5ccc2[nH]5)C=C4)C=C3)cc1
REMARK SMILES IDX 25 1 24 2 23 3 21 4 22 5 5 7 3 8 4 9 2 10 1 11 6 12 7 14
REMARK SMILES IDX 8 15 20 16 9 17 15 18 19 19 14 20 16 21 18 22 17 23 10 24
REMARK SMILES IDX 11 25 12 26 13 27 26 28 27 29 28 30 29 31 30 33 31 34 32 35
REMARK SMILES IDX 84 36 33 37 83 38 34 39 35 40 36 41 77 42 37 43 82 44 76 45
REMARK SMILES IDX 78 46 38 47 81 48 75 49 74 50 39 52 65 53 48 54 64 55 49 56
REMARK SMILES IDX 52 57 63 58 79 59 50 60 51 61 62 63 80 64 53 65 40 66 41 67
REMARK SMILES IDX 46 68 42 69 43 70 45 71 47 72 44 73 66 74 67 75 72 76 68 77
REMARK SMILES IDX 69 78 71 79 73 80 70 81 54 82 55 83 60 84 56 85 57 86 59 87
REMARK SMILES IDX 61 88 58 89
REMARK H PARENT 23 6 6 13 28 32 78 51 52 62
REMARK Flexibility Score: inf
ROOT
ATOM      1  C   UNL A   1      36.006  21.046  25.204  1.00  0.00     0.023 C 
ENDROOT
BRANCH   1   2
ATOM      2  C   UNL A   1      35.847  22.400  25.883  1.00  0.00     0.116 C 
BRANCH   2   3
ATOM      3  N   UNL A   1      34.996  22.297  27.052  1.00  0.00    -0.354 N 
ATOM      4  C   UNL A   1      33.708  22.703  27.235  1.00  0.00     0.242 C 
ATOM      5  O   UNL A   1      33.224  22.565  28.364  1.00  0.00    -0.273 OA
ATOM      6  H   UNL A   1      35.413  21.869  27.834  1.00  0.00     0.163 HD
BRANCH   4   7
ATOM      7  C   UNL A   1      32.881  23.348  26.088  1.00  0.00     0.173 C 
BRANCH   7   8
ATOM      8  C   UNL A   1      31.691  22.407  25.723  1.00  0.00     0.018 C 
ATOM      9  C   UNL A   1      30.348  22.862  26.304  1.00  0.00     0.010 C 
BRANCH   8  10
ATOM     10  C   UNL A   1      31.559  22.173  24.194  1.00  0.00     0.002 C 
ATOM     11  C   UNL A   1      32.832  21.720  23.490  1.00  0.00     0.004 C 
ENDBRANCH   8  10
ENDBRANCH   7   8
BRANCH   7  12
ATOM     12  N   UNL A   1      32.444  24.736  26.383  1.00  0.00    -0.358 N 
ATOM     13  H   UNL A   1      32.036  24.911  27.262  1.00  0.00     0.162 HD
BRANCH  12  14
ATOM     14  C   UNL A   1      32.568  25.798  25.509  1.00  0.00     0.138 A 
ATOM     15  N   UNL A   1      32.692  25.384  24.236  1.00  0.00    -0.207 NA
ATOM     16  C   UNL A   1      32.441  27.156  25.838  1.00  0.00     0.043 A 
ATOM     17  C   UNL A   1      32.556  26.298  23.249  1.00  0.00     0.237 A 
ATOM     18  C   UNL A   1      32.244  28.014  24.747  1.00  0.00     0.076 A 
ATOM     19  C   UNL A   1      32.459  27.705  27.145  1.00  0.00     0.014 A 
ATOM     20  N   UNL A   1      32.288  27.600  23.478  1.00  0.00    -0.224 NA
ATOM     21  C   UNL A   1      31.955  29.351  24.989  1.00  0.00     0.029 A 
ATOM     22  C   UNL A   1      32.174  29.051  27.365  1.00  0.00     0.001 A 
ATOM     23  C   UNL A   1      31.897  29.872  26.283  1.00  0.00     0.002 A 
BRANCH  17  24
ATOM     24  C   UNL A   1      32.587  25.797  21.801  1.00  0.00     0.451 C 
ATOM     25  F   UNL A   1      33.492  26.457  21.018  1.00  0.00    -0.163 F 
ATOM     26  F   UNL A   1      32.923  24.472  21.717  1.00  0.00    -0.163 F 
ATOM     27  F   UNL A   1      31.391  25.906  21.147  1.00  0.00    -0.163 F 
ENDBRANCH  17  24
ENDBRANCH  12  14
ENDBRANCH   7  12
ENDBRANCH   4   7
ENDBRANCH   2   3
ENDBRANCH   1   2
BRANCH   1  28
ATOM     28  C   UNL A   1      37.409  20.798  24.651  1.00  0.00     0.023 C 
BRANCH  28  29
ATOM     29  C   UNL A   1      38.534  20.949  25.668  1.00  0.00     0.116 C 
BRANCH  29  30
ATOM     30  N   UNL A   1      39.459  19.825  25.658  1.00  0.00    -0.352 N 
ATOM     31  C   UNL A   1      40.791  19.815  25.997  1.00  0.00     0.251 C 
ATOM     32  H   UNL A   1      39.083  18.962  25.372  1.00  0.00     0.163 HD
ATOM     33  O   UNL A   1      41.486  18.827  25.786  1.00  0.00    -0.269 OA
BRANCH  31  34
ATOM     34  C   UNL A   1      41.381  21.028  26.591  1.00  0.00     0.039 A 
ATOM     35  C   UNL A   1      41.955  21.984  25.751  1.00  0.00     0.014 A 
ATOM     36  C   UNL A   1      41.315  21.239  27.971  1.00  0.00     0.014 A 
ATOM     37  C   UNL A   1      42.400  23.191  26.290  1.00  0.00     0.010 A 
ATOM     38  C   UNL A   1      41.693  22.468  28.496  1.00  0.00     0.010 A 
ATOM     39  C   UNL A   1      42.236  23.457  27.660  1.00  0.00    -0.014 A 
BRANCH  39  40
ATOM     40  C   UNL A   1      42.620  24.766  28.241  1.00  0.00     0.031 A 
ATOM     41  C   UNL A   1      41.584  25.836  28.430  1.00  0.00     0.074 A 
ATOM     42  C   UNL A   1      43.913  25.014  28.528  1.00  0.00     0.049 A 
ATOM     43  N   UNL A   1      41.735  27.070  28.841  1.00  0.00    -0.248 NA
ATOM     44  C   UNL A   1      40.198  25.483  28.085  1.00  0.00     0.031 C 
ATOM     45  C   UNL A   1      45.019  24.073  28.343  1.00  0.00     0.029 A 
ATOM     46  N   UNL A   1      44.516  26.142  29.025  1.00  0.00    -0.354 N 
ATOM     47  C   UNL A   1      40.470  27.640  28.790  1.00  0.00     0.074 A 
ATOM     48  C   UNL A   1      39.574  26.638  28.258  1.00  0.00     0.031 C 
ATOM     49  C   UNL A   1      46.162  24.654  28.742  1.00  0.00     0.029 A 
ATOM     50  C   UNL A   1      45.876  26.019  29.173  1.00  0.00     0.049 A 
ATOM     51  H   UNL A   1      44.021  26.962  29.254  1.00  0.00     0.167 HD
ATOM     52  C   UNL A   1      40.087  28.881  29.173  1.00  0.00     0.037 A 
ATOM     53  C   UNL A   1      46.790  26.910  29.601  1.00  0.00     0.037 A 
ATOM     54  C   UNL A   1      40.976  29.868  29.726  1.00  0.00     0.049 A 
ATOM     55  C   UNL A   1      46.340  28.283  30.014  1.00  0.00     0.074 A 
ATOM     56  C   UNL A   1      40.674  31.132  30.200  1.00  0.00     0.029 A 
ATOM     57  N   UNL A   1      42.345  29.699  29.876  1.00  0.00    -0.354 N 
ATOM     58  N   UNL A   1      45.131  28.789  30.021  1.00  0.00    -0.248 NA
ATOM     59  C   UNL A   1      47.382  29.209  30.483  1.00  0.00     0.031 C 
ATOM     60  C   UNL A   1      41.866  31.744  30.602  1.00  0.00     0.029 A 
ATOM     61  C   UNL A   1      42.904  30.844  30.418  1.00  0.00     0.049 A 
ATOM     62  H   UNL A   1      42.844  28.886  29.634  1.00  0.00     0.167 HD
ATOM     63  C   UNL A   1      45.261  30.079  30.518  1.00  0.00     0.074 A 
ATOM     64  C   UNL A   1      46.666  30.274  30.813  1.00  0.00     0.031 C 
ATOM     65  C   UNL A   1      44.303  31.018  30.713  1.00  0.00     0.037 A 
BRANCH  52  66
ATOM     66  C   UNL A   1      38.637  29.235  29.012  1.00  0.00     0.057 A 
ATOM     67  C   UNL A   1      38.105  29.617  27.772  1.00  0.00     0.134 A 
ATOM     68  C   UNL A   1      37.759  29.167  30.099  1.00  0.00     0.134 A 
ATOM     69  F   UNL A   1      38.897  29.714  26.693  1.00  0.00    -0.206 F 
ATOM     70  C   UNL A   1      36.756  29.945  27.627  1.00  0.00     0.040 A 
ATOM     71  C   UNL A   1      36.402  29.466  29.960  1.00  0.00     0.040 A 
ATOM     72  F   UNL A   1      38.201  28.804  31.313  1.00  0.00    -0.206 F 
ATOM     73  C   UNL A   1      35.899  29.863  28.723  1.00  0.00     0.006 A 
ENDBRANCH  52  66
BRANCH  53  74
ATOM     74  C   UNL A   1      48.222  26.524  29.684  1.00  0.00     0.057 A 
ATOM     75  C   UNL A   1      48.728  25.874  30.814  1.00  0.00     0.134 A 
ATOM     76  C   UNL A   1      49.116  26.802  28.643  1.00  0.00     0.134 A 
ATOM     77  F   UNL A   1      47.922  25.597  31.850  1.00  0.00    -0.206 F 
ATOM     78  C   UNL A   1      50.076  25.526  30.916  1.00  0.00     0.040 A 
ATOM     79  C   UNL A   1      50.463  26.440  28.722  1.00  0.00     0.040 A 
ATOM     80  F   UNL A   1      48.692  27.418  27.530  1.00  0.00    -0.206 F 
ATOM     81  C   UNL A   1      50.947  25.806  29.864  1.00  0.00     0.006 A 
ENDBRANCH  53  74
BRANCH  65  82
ATOM     82  C   UNL A   1      44.736  32.329  31.300  1.00  0.00     0.057 A 
ATOM     83  C   UNL A   1      44.800  32.534  32.683  1.00  0.00     0.134 A 
ATOM     84  C   UNL A   1      45.135  33.383  30.469  1.00  0.00     0.134 A 
ATOM     85  F   UNL A   1      44.417  31.568  33.532  1.00  0.00    -0.206 F 
ATOM     86  C   UNL A   1      45.229  33.748  33.220  1.00  0.00     0.040 A 
ATOM     87  C   UNL A   1      45.590  34.593  30.993  1.00  0.00     0.040 A 
ATOM     88  F   UNL A   1      45.105  33.248  29.134  1.00  0.00    -0.206 F 
ATOM     89  C   UNL A   1      45.633  34.779  32.373  1.00  0.00     0.006 A 
ENDBRANCH  65  82
ENDBRANCH  39  40
ENDBRANCH  31  34
ENDBRANCH  29  30
ENDBRANCH  28  29
ENDBRANCH   1  28
TORSDOF 16
ENDMDL
MODEL 3
REMARK VINA RESULT:     -10.9      2.750      7.163
REMARK SMILES CC[C@H](C)[C@@H](Nc1nc(C(F)(F)F)nc2ccccc12)C(=O)NCCCCNC(=O)c1ccc(-c2c3nc(c(-c4c(F)cccc4F)c4ccc([nH]4)c(-c4c(F)cccc4F)c4nc(c(-c5c(F)cccc5F)c5ccc2[nH]5)C=C4)C=C3)cc1
REMARK SMILES IDX 25 1 24 2 23 3 21 4 22 5 5 7 3 8 4 9 2 10 1 11 6 12 7 14
REMARK SMILES IDX 8 15 20 16 9 17 15 18 19 19 14 20 16 21 18 22 17 23 10 24
REMARK SMILES IDX 11 25 12 26 13 27 26 28 27 29 28 30 29 31 30 33 31 34 32 35
REMARK SMILES IDX 84 36 33 37 83 38 34 39 35 40 36 41 77 42 37 43 82 44 76 45
REMARK SMILES IDX 78 46 38 47 81 48 75 49 74 50 39 52 65 53 48 54 64 55 49 56
REMARK SMILES IDX 52 57 63 58 79 59 50 60 51 61 62 63 80 64 53 65 40 66 41 67
REMARK SMILES IDX 46 68 42 69 43 70 45 71 47 72 44 73 66 74 67 75 72 76 68 77
REMARK SMILES IDX 69 78 71 79 73 80 70 81 54 82 55 83 60 84 56 85 57 86 59 87
REMARK SMILES IDX 61 88 58 89
REMARK H PARENT 23 6 6 13 28 32 78 51 52 62
REMARK Flexibility Score: inf
ROOT
ATOM      1  C   UNL A   1      31.899  29.172  26.445  1.00  0.00     0.023 C 
ENDROOT
BRANCH   1   2
ATOM      2  C   UNL A   1      33.333  28.685  26.290  1.00  0.00     0.116 C 
BRANCH   2   3
ATOM      3  N   UNL A   1      33.848  28.998  24.971  1.00  0.00    -0.354 N 
ATOM      4  C   UNL A   1      33.786  28.279  23.815  1.00  0.00     0.242 C 
ATOM      5  O   UNL A   1      34.374  28.739  22.829  1.00  0.00    -0.273 OA
ATOM      6  H   UNL A   1      34.314  29.862  24.901  1.00  0.00     0.163 HD
BRANCH   4   7
ATOM      7  C   UNL A   1      33.041  26.918  23.734  1.00  0.00     0.173 C 
BRANCH   7   8
ATOM      8  C   UNL A   1      32.139  26.904  22.461  1.00  0.00     0.018 C 
ATOM      9  C   UNL A   1      32.043  25.528  21.792  1.00  0.00     0.010 C 
BRANCH   8  10
ATOM     10  C   UNL A   1      30.718  27.468  22.725  1.00  0.00     0.002 C 
ATOM     11  C   UNL A   1      30.054  26.990  24.011  1.00  0.00     0.004 C 
ENDBRANCH   8  10
ENDBRANCH   7   8
BRANCH   7  12
ATOM     12  N   UNL A   1      33.946  25.743  23.808  1.00  0.00    -0.358 N 
ATOM     13  H   UNL A   1      34.669  25.680  23.142  1.00  0.00     0.162 HD
BRANCH  12  14
ATOM     14  C   UNL A   1      33.843  24.734  24.744  1.00  0.00     0.138 A 
ATOM     15  N   UNL A   1      32.593  24.628  25.227  1.00  0.00    -0.207 NA
ATOM     16  C   UNL A   1      34.847  23.811  25.077  1.00  0.00     0.043 A 
ATOM     17  C   UNL A   1      32.274  23.528  25.945  1.00  0.00     0.237 A 
ATOM     18  C   UNL A   1      34.403  22.677  25.769  1.00  0.00     0.076 A 
ATOM     19  C   UNL A   1      36.222  23.918  24.749  1.00  0.00     0.014 A 
ATOM     20  N   UNL A   1      33.144  22.525  26.187  1.00  0.00    -0.224 NA
ATOM     21  C   UNL A   1      35.299  21.641  26.003  1.00  0.00     0.029 A 
ATOM     22  C   UNL A   1      37.105  22.871  25.000  1.00  0.00     0.001 A 
ATOM     23  C   UNL A   1      36.636  21.718  25.609  1.00  0.00     0.002 A 
BRANCH  17  24
ATOM     24  C   UNL A   1      30.818  23.363  26.395  1.00  0.00     0.451 C 
ATOM     25  F   UNL A   1      30.148  22.387  25.713  1.00  0.00    -0.163 F 
ATOM     26  F   UNL A   1      30.719  23.023  27.718  1.00  0.00    -0.163 F 
ATOM     27  F   UNL A   1      30.060  24.492  26.256  1.00  0.00    -0.163 F 
ENDBRANCH  17  24
ENDBRANCH  12  14
ENDBRANCH   7  12
ENDBRANCH   4   7
ENDBRANCH   2   3
ENDBRANCH   1   2
BRANCH   1  28
ATOM     28  C   UNL A   1      31.756  30.692  26.371  1.00  0.00     0.023 C 
BRANCH  28  29
ATOM     29  C   UNL A   1      32.804  31.472  27.157  1.00  0.00     0.116 C 
BRANCH  29  30
ATOM     30  N   UNL A   1      32.408  32.849  27.413  1.00  0.00    -0.352 N 
ATOM     31  C   UNL A   1      33.048  33.791  28.182  1.00  0.00     0.251 C 
ATOM     32  H   UNL A   1      31.575  33.144  26.980  1.00  0.00     0.163 HD
ATOM     33  O   UNL A   1      32.514  34.864  28.439  1.00  0.00    -0.269 OA
BRANCH  31  34
ATOM     34  C   UNL A   1      34.383  33.475  28.725  1.00  0.00     0.039 A 
ATOM     35  C   UNL A   1      34.476  32.795  29.941  1.00  0.00     0.014 A 
ATOM     36  C   UNL A   1      35.532  33.805  28.001  1.00  0.00     0.014 A 
ATOM     37  C   UNL A   1      35.726  32.380  30.398  1.00  0.00     0.010 A 
ATOM     38  C   UNL A   1      36.767  33.329  28.423  1.00  0.00     0.010 A 
ATOM     39  C   UNL A   1      36.876  32.610  29.624  1.00  0.00    -0.014 A 
BRANCH  39  40
ATOM     40  C   UNL A   1      38.202  32.101  30.046  1.00  0.00     0.031 A 
ATOM     41  C   UNL A   1      38.704  30.786  29.521  1.00  0.00     0.074 A 
ATOM     42  C   UNL A   1      38.920  32.786  30.957  1.00  0.00     0.049 A 
ATOM     43  N   UNL A   1      39.795  30.134  29.833  1.00  0.00    -0.248 NA
ATOM     44  C   UNL A   1      37.854  30.101  28.534  1.00  0.00     0.031 C 
ATOM     45  C   UNL A   1      38.518  34.051  31.577  1.00  0.00     0.029 A 
ATOM     46  N   UNL A   1      40.136  32.507  31.529  1.00  0.00    -0.354 N 
ATOM     47  C   UNL A   1      39.754  28.958  29.095  1.00  0.00     0.074 A 
ATOM     48  C   UNL A   1      38.508  28.962  28.361  1.00  0.00     0.031 C 
ATOM     49  C   UNL A   1      39.479  34.448  32.427  1.00  0.00     0.029 A 
ATOM     50  C   UNL A   1      40.545  33.450  32.441  1.00  0.00     0.049 A 
ATOM     51  H   UNL A   1      40.664  31.707  31.309  1.00  0.00     0.167 HD
ATOM     52  C   UNL A   1      40.682  27.975  29.018  1.00  0.00     0.037 A 
ATOM     53  C   UNL A   1      41.650  33.500  33.207  1.00  0.00     0.037 A 
ATOM     54  C   UNL A   1      41.932  27.987  29.730  1.00  0.00     0.049 A 
ATOM     55  C   UNL A   1      42.662  32.393  33.109  1.00  0.00     0.074 A 
ATOM     56  C   UNL A   1      42.965  27.068  29.673  1.00  0.00     0.029 A 
ATOM     57  N   UNL A   1      42.318  28.968  30.630  1.00  0.00    -0.354 N 
ATOM     58  N   UNL A   1      42.640  31.319  32.359  1.00  0.00    -0.248 NA
ATOM     59  C   UNL A   1      43.854  32.507  33.962  1.00  0.00     0.031 C 
ATOM     60  C   UNL A   1      43.959  27.473  30.569  1.00  0.00     0.029 A 
ATOM     61  C   UNL A   1      43.565  28.667  31.151  1.00  0.00     0.049 A 
ATOM     62  H   UNL A   1      41.784  29.762  30.865  1.00  0.00     0.167 HD
ATOM     63  C   UNL A   1      43.824  30.643  32.628  1.00  0.00     0.074 A 
ATOM     64  C   UNL A   1      44.546  31.436  33.601  1.00  0.00     0.031 C 
ATOM     65  C   UNL A   1      44.272  29.472  32.114  1.00  0.00     0.037 A 
BRANCH  52  66
ATOM     66  C   UNL A   1      40.378  26.808  28.126  1.00  0.00     0.057 A 
ATOM     67  C   UNL A   1      40.943  26.689  26.849  1.00  0.00     0.134 A 
ATOM     68  C   UNL A   1      39.535  25.777  28.557  1.00  0.00     0.134 A 
ATOM     69  F   UNL A   1      41.750  27.649  26.371  1.00  0.00    -0.206 F 
ATOM     70  C   UNL A   1      40.658  25.601  26.022  1.00  0.00     0.040 A 
ATOM     71  C   UNL A   1      39.264  24.670  27.751  1.00  0.00     0.040 A 
ATOM     72  F   UNL A   1      38.964  25.825  29.771  1.00  0.00    -0.206 F 
ATOM     73  C   UNL A   1      39.821  24.584  26.476  1.00  0.00     0.006 A 
ENDBRANCH  52  66
BRANCH  53  74
ATOM     74  C   UNL A   1      41.872  34.651  34.118  1.00  0.00     0.057 A 
ATOM     75  C   UNL A   1      42.477  35.826  33.660  1.00  0.00     0.134 A 
ATOM     76  C   UNL A   1      41.491  34.603  35.465  1.00  0.00     0.134 A 
ATOM     77  F   UNL A   1      42.879  35.924  32.385  1.00  0.00    -0.206 F 
ATOM     78  C   UNL A   1      42.714  36.907  34.511  1.00  0.00     0.040 A 
ATOM     79  C   UNL A   1      41.701  35.685  36.322  1.00  0.00     0.040 A 
ATOM     80  F   UNL A   1      40.900  33.508  35.964  1.00  0.00    -0.206 F 
ATOM     81  C   UNL A   1      42.320  36.839  35.846  1.00  0.00     0.006 A 
ENDBRANCH  53  74
BRANCH  65  82
ATOM     82  C   UNL A   1      45.619  28.993  32.570  1.00  0.00     0.057 A 
ATOM     83  C   UNL A   1      45.765  28.129  33.662  1.00  0.00     0.134 A 
ATOM     84  C   UNL A   1      46.779  29.367  31.879  1.00  0.00     0.134 A 
ATOM     85  F   UNL A   1      44.694  27.746  34.373  1.00  0.00    -0.206 F 
ATOM     86  C   UNL A   1      47.019  27.668  34.061  1.00  0.00     0.040 A 
ATOM     87  C   UNL A   1      48.035  28.892  32.254  1.00  0.00     0.040 A 
ATOM     88  F   UNL A   1      46.706  30.186  30.818  1.00  0.00    -0.206 F 
ATOM     89  C   UNL A   1      48.159  28.044  33.351  1.00  0.00     0.006 A 
ENDBRANCH  65  82
ENDBRANCH  39  40
ENDBRANCH  31  34
ENDBRANCH  29  30
ENDBRANCH  28  29
ENDBRANCH   1  28
TORSDOF 16
ENDMDL
