MODEL 1
REMARK VINA RESULT:     -12.5      0.000      0.000
REMARK SMILES O=C(NCCCCNC(=O)c1ccc(-c2c3nc(c(-c4c(F)cccc4F)c4ccc([nH]4)c(-c4c(F)cccc4F)c4nc(c(-c5c(F)cccc5F)c5ccc2[nH]5)C=C4)C=C3)cc1)C1=Cc2cc(S(F)(F)(F)(F)F)ccc2O[C@@H]1C(F)(F)F
REMARK SMILES IDX 6 1 5 2 4 3 3 4 1 5 2 6 65 8 66 9 80 10 67 11 79 12 68 13
REMARK SMILES IDX 78 14 69 15 77 16 76 17 81 18 82 19 83 20 84 21 70 22 71 23
REMARK SMILES IDX 72 24 73 25 74 26 75 27 7 28 8 29 9 30 10 32 11 33 12 34
REMARK SMILES IDX 64 35 13 36 63 37 14 38 15 39 16 40 57 41 17 42 62 43 56 44
REMARK SMILES IDX 58 45 18 46 61 47 55 48 54 49 19 51 45 52 28 53 44 54 29 55
REMARK SMILES IDX 32 56 43 57 59 58 30 59 31 60 42 62 60 63 33 64 20 65 21 66
REMARK SMILES IDX 26 67 22 68 23 69 25 70 27 71 24 72 46 73 47 74 52 75 48 76
REMARK SMILES IDX 49 77 51 78 53 79 50 80 34 81 35 82 40 83 36 84 37 85 39 86
REMARK SMILES IDX 41 87 38 88
REMARK H PARENT 3 7 8 31 58 50 32 61
REMARK Flexibility Score: inf
ROOT
ATOM      1  C   UNL A   1      38.674  21.199  25.337  1.00  0.00     0.023 C 
ENDROOT
BRANCH   1   2
ATOM      2  C   UNL A   1      38.671  22.527  26.077  1.00  0.00     0.023 C 
BRANCH   2   3
ATOM      3  C   UNL A   1      37.375  23.266  25.786  1.00  0.00     0.116 C 
BRANCH   3   4
ATOM      4  N   UNL A   1      37.157  23.321  24.334  1.00  0.00    -0.352 N 
ATOM      5  O   UNL A   1      35.734  22.819  22.498  1.00  0.00    -0.270 OA
ATOM      6  C   UNL A   1      35.923  22.771  23.754  1.00  0.00     0.251 C 
ATOM      7  H   UNL A   1      37.837  23.728  23.749  1.00  0.00     0.163 HD
BRANCH   6   8
ATOM      8  C   UNL A   1      34.873  22.145  24.657  1.00  0.00     0.067 C 
ATOM      9  C   UNL A   1      33.881  22.915  25.182  1.00  0.00     0.025 C 
ATOM     10  C   UNL A   1      34.931  20.659  24.973  1.00  0.00     0.314 C 
ATOM     11  C   UNL A   1      33.823  24.400  24.866  1.00  0.00     0.019 A 
ATOM     12  O   UNL A   1      34.345  24.004  22.581  1.00  0.00    -0.475 OA
ATOM     13  C   UNL A   1      33.631  25.241  25.949  1.00  0.00     0.036 A 
ATOM     14  C   UNL A   1      33.992  24.882  23.639  1.00  0.00     0.128 A 
ATOM     15  C   UNL A   1      33.343  26.580  25.590  1.00  0.00     0.107 A 
ATOM     16  C   UNL A   1      33.826  26.223  23.386  1.00  0.00     0.048 A 
ATOM     17  C   UNL A   1      33.576  27.104  24.401  1.00  0.00     0.028 A 
BRANCH  10  18
ATOM     18  C   UNL A   1      33.653  19.989  24.495  1.00  0.00     0.429 C 
ATOM     19  F   UNL A   1      33.930  18.761  24.067  1.00  0.00    -0.167 F 
ATOM     20  F   UNL A   1      32.785  19.922  25.501  1.00  0.00    -0.167 F 
ATOM     21  F   UNL A   1      33.126  20.698  23.501  1.00  0.00    -0.167 F 
ENDBRANCH  10  18
BRANCH  15  22
ATOM     22  S   UNL A   1      32.602  27.648  26.850  1.00  0.00     0.310 S 
ATOM     23  F   UNL A   1      32.410  28.830  25.811  1.00  0.00    -0.094 F 
ATOM     24  F   UNL A   1      34.030  28.239  27.154  1.00  0.00    -0.094 F 
ATOM     25  F   UNL A   1      31.961  28.571  27.925  1.00  0.00    -0.094 F 
ATOM     26  F   UNL A   1      31.164  27.145  26.435  1.00  0.00    -0.094 F 
ATOM     27  F   UNL A   1      33.225  26.788  25.679  1.00  0.00    -0.094 F 
ENDBRANCH  15  22
ENDBRANCH   6   8
ENDBRANCH   3   4
ENDBRANCH   2   3
ENDBRANCH   1   2
BRANCH   1  28
ATOM     28  C   UNL A   1      39.096  20.091  26.288  1.00  0.00     0.116 C 
BRANCH  28  29
ATOM     29  N   UNL A   1      40.198  19.324  25.689  1.00  0.00    -0.352 N 
ATOM     30  C   UNL A   1      41.580  19.816  25.797  1.00  0.00     0.251 C 
ATOM     31  H   UNL A   1      40.011  18.482  25.216  1.00  0.00     0.163 HD
ATOM     32  O   UNL A   1      42.533  19.154  25.278  1.00  0.00    -0.269 OA
BRANCH  30  33
ATOM     33  C   UNL A   1      41.868  21.117  26.528  1.00  0.00     0.039 A 
ATOM     34  C   UNL A   1      41.808  21.230  27.906  1.00  0.00     0.014 A 
ATOM     35  C   UNL A   1      42.237  22.142  25.768  1.00  0.00     0.014 A 
ATOM     36  C   UNL A   1      41.879  22.563  28.377  1.00  0.00     0.010 A 
ATOM     37  C   UNL A   1      42.421  23.388  26.317  1.00  0.00     0.010 A 
ATOM     38  C   UNL A   1      42.319  23.585  27.666  1.00  0.00    -0.014 A 
BRANCH  38  39
ATOM     39  C   UNL A   1      42.692  24.909  28.313  1.00  0.00     0.031 A 
ATOM     40  C   UNL A   1      41.646  25.829  28.418  1.00  0.00     0.074 A 
ATOM     41  C   UNL A   1      43.993  25.169  28.705  1.00  0.00     0.049 A 
ATOM     42  N   UNL A   1      41.694  27.061  28.924  1.00  0.00    -0.248 NA
ATOM     43  C   UNL A   1      40.270  25.567  27.970  1.00  0.00     0.031 C 
ATOM     44  C   UNL A   1      45.051  24.245  28.611  1.00  0.00     0.029 A 
ATOM     45  N   UNL A   1      44.497  26.332  29.244  1.00  0.00    -0.354 N 
ATOM     46  C   UNL A   1      40.488  27.629  28.871  1.00  0.00     0.074 A 
ATOM     47  C   UNL A   1      39.556  26.679  28.250  1.00  0.00     0.031 C 
ATOM     48  C   UNL A   1      46.179  24.844  29.074  1.00  0.00     0.029 A 
ATOM     49  C   UNL A   1      45.845  26.155  29.467  1.00  0.00     0.049 A 
ATOM     50  H   UNL A   1      43.983  27.150  29.436  1.00  0.00     0.167 HD
ATOM     51  C   UNL A   1      40.129  28.903  29.317  1.00  0.00     0.037 A 
ATOM     52  C   UNL A   1      46.748  27.071  29.981  1.00  0.00     0.037 A 
ATOM     53  C   UNL A   1      41.024  29.803  29.871  1.00  0.00     0.049 A 
ATOM     54  C   UNL A   1      46.400  28.366  30.373  1.00  0.00     0.074 A 
ATOM     55  C   UNL A   1      40.676  31.088  30.332  1.00  0.00     0.029 A 
ATOM     56  N   UNL A   1      42.376  29.635  30.071  1.00  0.00    -0.354 N 
ATOM     57  N   UNL A   1      45.187  28.920  30.356  1.00  0.00    -0.248 NA
ATOM     58  C   UNL A   1      47.354  29.356  30.890  1.00  0.00     0.031 C 
ATOM     59  C   UNL A   1      41.804  31.689  30.796  1.00  0.00     0.029 A 
ATOM     60  C   UNL A   1      42.875  30.790  30.631  1.00  0.00     0.049 A 
ATOM     61  H   UNL A   1      42.895  28.828  29.853  1.00  0.00     0.167 HD
ATOM     62  C   UNL A   1      45.244  30.167  30.825  1.00  0.00     0.074 A 
ATOM     63  C   UNL A   1      46.641  30.470  31.168  1.00  0.00     0.031 C 
ATOM     64  C   UNL A   1      44.187  31.066  30.984  1.00  0.00     0.037 A 
BRANCH  51  65
ATOM     65  C   UNL A   1      38.674  29.324  29.186  1.00  0.00     0.057 A 
ATOM     66  C   UNL A   1      38.168  29.765  27.975  1.00  0.00     0.134 A 
ATOM     67  C   UNL A   1      37.885  29.148  30.240  1.00  0.00     0.134 A 
ATOM     68  F   UNL A   1      38.857  29.713  26.839  1.00  0.00    -0.206 F 
ATOM     69  C   UNL A   1      36.852  30.277  28.056  1.00  0.00     0.040 A 
ATOM     70  C   UNL A   1      36.571  29.548  30.203  1.00  0.00     0.040 A 
ATOM     71  F   UNL A   1      38.371  28.582  31.341  1.00  0.00    -0.206 F 
ATOM     72  C   UNL A   1      36.020  30.050  29.056  1.00  0.00     0.006 A 
ENDBRANCH  51  65
BRANCH  52  73
ATOM     73  C   UNL A   1      48.199  26.643  30.127  1.00  0.00     0.057 A 
ATOM     74  C   UNL A   1      49.081  26.846  29.079  1.00  0.00     0.134 A 
ATOM     75  C   UNL A   1      48.564  25.978  31.217  1.00  0.00     0.134 A 
ATOM     76  F   UNL A   1      48.851  27.708  28.092  1.00  0.00    -0.206 F 
ATOM     77  C   UNL A   1      50.251  26.052  29.153  1.00  0.00     0.040 A 
ATOM     78  C   UNL A   1      49.779  25.340  31.272  1.00  0.00     0.040 A 
ATOM     79  F   UNL A   1      47.747  25.931  32.264  1.00  0.00    -0.206 F 
ATOM     80  C   UNL A   1      50.678  25.448  30.247  1.00  0.00     0.006 A 
ENDBRANCH  52  73
BRANCH  64  81
ATOM     81  C   UNL A   1      44.494  32.430  31.581  1.00  0.00     0.057 A 
ATOM     82  C   UNL A   1      44.772  33.540  30.799  1.00  0.00     0.134 A 
ATOM     83  C   UNL A   1      44.425  32.520  32.904  1.00  0.00     0.134 A 
ATOM     84  F   UNL A   1      44.603  33.558  29.480  1.00  0.00    -0.206 F 
ATOM     85  C   UNL A   1      45.252  34.651  31.532  1.00  0.00     0.040 A 
ATOM     86  C   UNL A   1      44.780  33.681  33.546  1.00  0.00     0.040 A 
ATOM     87  F   UNL A   1      44.010  31.475  33.615  1.00  0.00    -0.206 F 
ATOM     88  C   UNL A   1      45.123  34.800  32.838  1.00  0.00     0.006 A 
ENDBRANCH  64  81
ENDBRANCH  38  39
ENDBRANCH  30  33
ENDBRANCH  28  29
ENDBRANCH   1  28
TORSDOF 13
ENDMDL
MODEL 2
REMARK VINA RESULT:     -12.5      3.318      8.097
REMARK SMILES O=C(NCCCCNC(=O)c1ccc(-c2c3nc(c(-c4c(F)cccc4F)c4ccc([nH]4)c(-c4c(F)cccc4F)c4nc(c(-c5c(F)cccc5F)c5ccc2[nH]5)C=C4)C=C3)cc1)C1=Cc2cc(S(F)(F)(F)(F)F)ccc2O[C@@H]1C(F)(F)F
REMARK SMILES IDX 6 1 5 2 4 3 3 4 1 5 2 6 65 8 66 9 80 10 67 11 79 12 68 13
REMARK SMILES IDX 78 14 69 15 77 16 76 17 81 18 82 19 83 20 84 21 70 22 71 23
REMARK SMILES IDX 72 24 73 25 74 26 75 27 7 28 8 29 9 30 10 32 11 33 12 34
REMARK SMILES IDX 64 35 13 36 63 37 14 38 15 39 16 40 57 41 17 42 62 43 56 44
REMARK SMILES IDX 58 45 18 46 61 47 55 48 54 49 19 51 45 52 28 53 44 54 29 55
REMARK SMILES IDX 32 56 43 57 59 58 30 59 31 60 42 62 60 63 33 64 20 65 21 66
REMARK SMILES IDX 26 67 22 68 23 69 25 70 27 71 24 72 46 73 47 74 52 75 48 76
REMARK SMILES IDX 49 77 51 78 53 79 50 80 34 81 35 82 40 83 36 84 37 85 39 86
REMARK SMILES IDX 41 87 38 88
REMARK H PARENT 3 7 8 31 58 50 32 61
REMARK Flexibility Score: inf
ROOT
ATOM      1  C   UNL A   1      33.800  30.497  26.880  1.00  0.00     0.023 C 
ENDROOT
BRANCH   1   2
ATOM      2  C   UNL A   1      32.578  29.673  27.251  1.00  0.00     0.023 C 
BRANCH   2   3
ATOM      3  C   UNL A   1      32.944  28.197  27.251  1.00  0.00     0.116 C 
BRANCH   3   4
ATOM      4  N   UNL A   1      31.743  27.395  27.521  1.00  0.00    -0.352 N 
ATOM      5  O   UNL A   1      29.987  26.054  26.646  1.00  0.00    -0.270 OA
ATOM      6  C   UNL A   1      31.026  26.748  26.413  1.00  0.00     0.251 C 
ATOM      7  H   UNL A   1      31.418  27.290  28.445  1.00  0.00     0.163 HD
BRANCH   6   8
ATOM      8  C   UNL A   1      31.528  26.909  24.987  1.00  0.00     0.067 C 
ATOM      9  C   UNL A   1      32.487  26.072  24.505  1.00  0.00     0.025 C 
ATOM     10  C   UNL A   1      30.959  28.005  24.100  1.00  0.00     0.314 C 
ATOM     11  C   UNL A   1      33.055  24.976  25.391  1.00  0.00     0.019 A 
ATOM     12  O   UNL A   1      30.897  24.438  26.228  1.00  0.00    -0.475 OA
ATOM     13  C   UNL A   1      34.435  24.868  25.407  1.00  0.00     0.036 A 
ATOM     14  C   UNL A   1      32.292  24.194  26.147  1.00  0.00     0.128 A 
ATOM     15  C   UNL A   1      34.911  23.697  26.045  1.00  0.00     0.107 A 
ATOM     16  C   UNL A   1      32.844  23.150  26.850  1.00  0.00     0.048 A 
ATOM     17  C   UNL A   1      34.196  22.947  26.864  1.00  0.00     0.028 A 
BRANCH  10  18
ATOM     18  C   UNL A   1      30.318  27.381  22.872  1.00  0.00     0.429 C 
ATOM     19  F   UNL A   1      29.405  28.213  22.378  1.00  0.00    -0.167 F 
ATOM     20  F   UNL A   1      31.252  27.153  21.952  1.00  0.00    -0.167 F 
ATOM     21  F   UNL A   1      29.738  26.233  23.209  1.00  0.00    -0.167 F 
ENDBRANCH  10  18
BRANCH  15  22
ATOM     22  S   UNL A   1      36.617  23.191  25.713  1.00  0.00     0.310 S 
ATOM     23  F   UNL A   1      36.681  24.077  24.401  1.00  0.00    -0.094 F 
ATOM     24  F   UNL A   1      36.069  22.019  24.813  1.00  0.00    -0.094 F 
ATOM     25  F   UNL A   1      38.084  22.765  25.423  1.00  0.00    -0.094 F 
ATOM     26  F   UNL A   1      37.147  24.451  26.503  1.00  0.00    -0.094 F 
ATOM     27  F   UNL A   1      35.135  23.701  25.924  1.00  0.00    -0.094 F 
ENDBRANCH  15  22
ENDBRANCH   6   8
ENDBRANCH   3   4
ENDBRANCH   2   3
ENDBRANCH   1   2
BRANCH   1  28
ATOM     28  C   UNL A   1      34.957  30.127  27.794  1.00  0.00     0.116 C 
BRANCH  28  29
ATOM     29  N   UNL A   1      34.802  30.814  29.084  1.00  0.00    -0.352 N 
ATOM     30  C   UNL A   1      35.954  30.948  29.989  1.00  0.00     0.251 C 
ATOM     31  H   UNL A   1      33.928  31.184  29.342  1.00  0.00     0.163 HD
ATOM     32  O   UNL A   1      35.820  31.542  31.104  1.00  0.00    -0.269 OA
BRANCH  30  33
ATOM     33  C   UNL A   1      37.304  30.376  29.589  1.00  0.00     0.039 A 
ATOM     34  C   UNL A   1      37.804  30.467  28.302  1.00  0.00     0.014 A 
ATOM     35  C   UNL A   1      38.012  29.821  30.566  1.00  0.00     0.014 A 
ATOM     36  C   UNL A   1      38.957  29.679  28.076  1.00  0.00     0.010 A 
ATOM     37  C   UNL A   1      39.199  29.183  30.293  1.00  0.00     0.010 A 
ATOM     38  C   UNL A   1      39.723  29.183  29.030  1.00  0.00    -0.014 A 
BRANCH  38  39
ATOM     39  C   UNL A   1      41.115  28.642  28.742  1.00  0.00     0.031 A 
ATOM     40  C   UNL A   1      42.138  29.591  28.797  1.00  0.00     0.074 A 
ATOM     41  C   UNL A   1      41.306  27.315  28.400  1.00  0.00     0.049 A 
ATOM     42  N   UNL A   1      43.439  29.397  28.574  1.00  0.00    -0.248 NA
ATOM     43  C   UNL A   1      41.932  31.008  29.126  1.00  0.00     0.031 C 
ATOM     44  C   UNL A   1      40.281  26.351  28.351  1.00  0.00     0.029 A 
ATOM     45  N   UNL A   1      42.486  26.693  28.054  1.00  0.00    -0.354 N 
ATOM     46  C   UNL A   1      44.110  30.538  28.739  1.00  0.00     0.074 A 
ATOM     47  C   UNL A   1      43.150  31.593  29.091  1.00  0.00     0.031 C 
ATOM     48  C   UNL A   1      40.831  25.169  27.969  1.00  0.00     0.029 A 
ATOM     49  C   UNL A   1      42.210  25.373  27.773  1.00  0.00     0.049 A 
ATOM     50  H   UNL A   1      43.372  27.119  28.012  1.00  0.00     0.167 HD
ATOM     51  C   UNL A   1      45.486  30.741  28.613  1.00  0.00     0.037 A 
ATOM     52  C   UNL A   1      43.097  24.388  27.368  1.00  0.00     0.037 A 
ATOM     53  C   UNL A   1      46.378  29.746  28.249  1.00  0.00     0.049 A 
ATOM     54  C   UNL A   1      44.464  24.605  27.184  1.00  0.00     0.074 A 
ATOM     55  C   UNL A   1      47.769  29.932  28.124  1.00  0.00     0.029 A 
ATOM     56  N   UNL A   1      46.099  28.431  27.945  1.00  0.00    -0.354 N 
ATOM     57  N   UNL A   1      45.141  25.737  27.388  1.00  0.00    -0.248 NA
ATOM     58  C   UNL A   1      45.408  23.578  26.724  1.00  0.00     0.031 C 
ATOM     59  C   UNL A   1      48.319  28.749  27.742  1.00  0.00     0.029 A 
ATOM     60  C   UNL A   1      47.282  27.805  27.621  1.00  0.00     0.049 A 
ATOM     61  H   UNL A   1      45.208  28.013  27.958  1.00  0.00     0.167 HD
ATOM     62  C   UNL A   1      46.435  25.552  27.125  1.00  0.00     0.074 A 
ATOM     63  C   UNL A   1      46.626  24.162  26.686  1.00  0.00     0.031 C 
ATOM     64  C   UNL A   1      47.468  26.486  27.236  1.00  0.00     0.037 A 
BRANCH  51  65
ATOM     65  C   UNL A   1      46.034  32.131  28.890  1.00  0.00     0.057 A 
ATOM     66  C   UNL A   1      46.512  32.470  30.145  1.00  0.00     0.134 A 
ATOM     67  C   UNL A   1      46.139  32.968  27.864  1.00  0.00     0.134 A 
ATOM     68  F   UNL A   1      46.660  31.585  31.127  1.00  0.00    -0.206 F 
ATOM     69  C   UNL A   1      46.828  33.841  30.288  1.00  0.00     0.040 A 
ATOM     70  C   UNL A   1      46.585  34.254  28.054  1.00  0.00     0.040 A 
ATOM     71  F   UNL A   1      45.809  32.558  26.642  1.00  0.00    -0.206 F 
ATOM     72  C   UNL A   1      47.017  34.675  29.281  1.00  0.00     0.006 A 
ENDBRANCH  51  65
BRANCH  52  73
ATOM     73  C   UNL A   1      42.550  22.994  27.107  1.00  0.00     0.057 A 
ATOM     74  C   UNL A   1      42.215  22.620  25.817  1.00  0.00     0.134 A 
ATOM     75  C   UNL A   1      42.297  22.203  28.143  1.00  0.00     0.134 A 
ATOM     76  F   UNL A   1      42.667  23.251  24.737  1.00  0.00    -0.206 F 
ATOM     77  C   UNL A   1      41.347  21.503  25.751  1.00  0.00     0.040 A 
ATOM     78  C   UNL A   1      41.558  21.056  27.982  1.00  0.00     0.040 A 
ATOM     79  F   UNL A   1      42.764  22.521  29.346  1.00  0.00    -0.206 F 
ATOM     80  C   UNL A   1      41.142  20.655  26.742  1.00  0.00     0.006 A 
ENDBRANCH  52  73
BRANCH  64  81
ATOM     81  C   UNL A   1      48.882  26.028  26.917  1.00  0.00     0.057 A 
ATOM     82  C   UNL A   1      49.679  25.373  27.842  1.00  0.00     0.134 A 
ATOM     83  C   UNL A   1      49.301  26.239  25.674  1.00  0.00     0.134 A 
ATOM     84  F   UNL A   1      49.217  24.919  29.004  1.00  0.00    -0.206 F 
ATOM     85  C   UNL A   1      51.028  25.234  27.440  1.00  0.00     0.040 A 
ATOM     86  C   UNL A   1      50.594  25.952  25.315  1.00  0.00     0.040 A 
ATOM     87  F   UNL A   1      48.459  26.733  24.771  1.00  0.00    -0.206 F 
ATOM     88  C   UNL A   1      51.455  25.359  26.196  1.00  0.00     0.006 A 
ENDBRANCH  64  81
ENDBRANCH  38  39
ENDBRANCH  30  33
ENDBRANCH  28  29
ENDBRANCH   1  28
TORSDOF 13
ENDMDL
MODEL 3
REMARK VINA RESULT:     -12.4      2.899      6.923
REMARK SMILES O=C(NCCCCNC(=O)c1ccc(-c2c3nc(c(-c4c(F)cccc4F)c4ccc([nH]4)c(-c4c(F)cccc4F)c4nc(c(-c5c(F)cccc5F)c5ccc2[nH]5)C=C4)C=C3)cc1)C1=Cc2cc(S(F)(F)(F)(F)F)ccc2O[C@@H]1C(F)(F)F
REMARK SMILES IDX 6 1 5 2 4 3 3 4 1 5 2 6 65 8 66 9 80 10 67 11 79 12 68 13
REMARK SMILES IDX 78 14 69 15 77 16 76 17 81 18 82 19 83 20 84 21 70 22 71 23
REMARK SMILES IDX 72 24 73 25 74 26 75 27 7 28 8 29 9 30 10 32 11 33 12 34
REMARK SMILES IDX 64 35 13 36 63 37 14 38 15 39 16 40 57 41 17 42 62 43 56 44
REMARK SMILES IDX 58 45 18 46 61 47 55 48 54 49 19 51 45 52 28 53 44 54 29 55
REMARK SMILES IDX 32 56 43 57 59 58 30 59 31 60 42 62 60 63 33 64 20 65 21 66
REMARK SMILES IDX 26 67 22 68 23 69 25 70 27 71 24 72 46 73 47 74 52 75 48 76
REMARK SMILES IDX 49 77 51 78 53 79 50 80 34 81 35 82 40 83 36 84 37 85 39 86
REMARK SMILES IDX 41 87 38 88
REMARK H PARENT 3 7 8 31 58 50 32 61
REMARK Flexibility Score: inf
ROOT
ATOM      1  C   UNL A   1      39.168  22.374  25.948  1.00  0.00     0.023 C 
ENDROOT
BRANCH   1   2
ATOM      2  C   UNL A   1      38.593  23.680  26.469  1.00  0.00     0.023 C 
BRANCH   2   3
ATOM      3  C   UNL A   1      37.144  23.808  26.029  1.00  0.00     0.116 C 
BRANCH   3   4
ATOM      4  N   UNL A   1      37.065  23.697  24.565  1.00  0.00    -0.352 N 
ATOM      5  O   UNL A   1      35.883  22.873  22.676  1.00  0.00    -0.270 OA
ATOM      6  C   UNL A   1      35.951  22.968  23.942  1.00  0.00     0.251 C 
ATOM      7  H   UNL A   1      37.759  24.112  24.002  1.00  0.00     0.163 HD
BRANCH   6   8
ATOM      8  C   UNL A   1      34.881  22.329  24.811  1.00  0.00     0.067 C 
ATOM      9  C   UNL A   1      33.858  23.084  25.296  1.00  0.00     0.025 C 
ATOM     10  C   UNL A   1      34.953  20.846  25.138  1.00  0.00     0.314 C 
ATOM     11  C   UNL A   1      33.785  24.566  24.968  1.00  0.00     0.019 A 
ATOM     12  O   UNL A   1      34.395  24.167  22.706  1.00  0.00    -0.475 OA
ATOM     13  C   UNL A   1      33.541  25.410  26.038  1.00  0.00     0.036 A 
ATOM     14  C   UNL A   1      33.989  25.044  23.745  1.00  0.00     0.128 A 
ATOM     15  C   UNL A   1      33.243  26.742  25.662  1.00  0.00     0.107 A 
ATOM     16  C   UNL A   1      33.810  26.380  23.478  1.00  0.00     0.048 A 
ATOM     17  C   UNL A   1      33.509  27.263  24.478  1.00  0.00     0.028 A 
BRANCH  10  18
ATOM     18  C   UNL A   1      33.705  20.151  24.619  1.00  0.00     0.429 C 
ATOM     19  F   UNL A   1      32.774  20.145  25.569  1.00  0.00    -0.167 F 
ATOM     20  F   UNL A   1      33.246  20.803  23.554  1.00  0.00    -0.167 F 
ATOM     21  F   UNL A   1      34.002  18.901  24.279  1.00  0.00    -0.167 F 
ENDBRANCH  10  18
BRANCH  15  22
ATOM     22  S   UNL A   1      32.439  27.803  26.888  1.00  0.00     0.310 S 
ATOM     23  F   UNL A   1      32.356  29.012  25.865  1.00  0.00    -0.094 F 
ATOM     24  F   UNL A   1      33.856  28.348  27.310  1.00  0.00    -0.094 F 
ATOM     25  F   UNL A   1      31.745  28.721  27.934  1.00  0.00    -0.094 F 
ATOM     26  F   UNL A   1      31.023  27.350  26.357  1.00  0.00    -0.094 F 
ATOM     27  F   UNL A   1      33.124  26.951  25.746  1.00  0.00    -0.094 F 
ENDBRANCH  15  22
ENDBRANCH   6   8
ENDBRANCH   3   4
ENDBRANCH   2   3
ENDBRANCH   1   2
BRANCH   1  28
ATOM     28  C   UNL A   1      40.509  22.108  26.613  1.00  0.00     0.116 C 
BRANCH  28  29
ATOM     29  N   UNL A   1      41.577  22.168  25.605  1.00  0.00    -0.352 N 
ATOM     30  C   UNL A   1      42.416  23.370  25.493  1.00  0.00     0.251 C 
ATOM     31  H   UNL A   1      41.730  21.403  25.005  1.00  0.00     0.163 HD
ATOM     32  O   UNL A   1      43.340  23.421  24.621  1.00  0.00    -0.269 OA
BRANCH  30  33
ATOM     33  C   UNL A   1      42.179  24.551  26.419  1.00  0.00     0.039 A 
ATOM     34  C   UNL A   1      42.054  25.851  25.958  1.00  0.00     0.014 A 
ATOM     35  C   UNL A   1      42.045  24.262  27.708  1.00  0.00     0.014 A 
ATOM     36  C   UNL A   1      42.072  26.827  26.981  1.00  0.00     0.010 A 
ATOM     37  C   UNL A   1      41.931  25.264  28.642  1.00  0.00     0.010 A 
ATOM     38  C   UNL A   1      41.861  26.575  28.260  1.00  0.00    -0.014 A 
BRANCH  38  39
ATOM     39  C   UNL A   1      41.556  27.683  29.256  1.00  0.00     0.031 A 
ATOM     40  C   UNL A   1      42.409  27.734  30.360  1.00  0.00     0.074 A 
ATOM     41  C   UNL A   1      40.472  28.524  29.076  1.00  0.00     0.049 A 
ATOM     42  N   UNL A   1      42.363  28.586  31.384  1.00  0.00    -0.248 NA
ATOM     43  C   UNL A   1      43.541  26.820  30.570  1.00  0.00     0.031 C 
ATOM     44  C   UNL A   1      39.612  28.485  27.961  1.00  0.00     0.029 A 
ATOM     45  N   UNL A   1      40.032  29.527  29.912  1.00  0.00    -0.354 N 
ATOM     46  C   UNL A   1      43.358  28.336  32.237  1.00  0.00     0.074 A 
ATOM     47  C   UNL A   1      44.127  27.192  31.729  1.00  0.00     0.031 C 
ATOM     48  C   UNL A   1      38.660  29.440  28.128  1.00  0.00     0.029 A 
ATOM     49  C   UNL A   1      38.909  30.095  29.350  1.00  0.00     0.049 A 
ATOM     50  H   UNL A   1      40.447  29.791  30.765  1.00  0.00     0.167 HD
ATOM     51  C   UNL A   1      43.656  29.018  33.419  1.00  0.00     0.037 A 
ATOM     52  C   UNL A   1      38.133  31.124  29.859  1.00  0.00     0.037 A 
ATOM     53  C   UNL A   1      42.905  30.076  33.905  1.00  0.00     0.049 A 
ATOM     54  C   UNL A   1      38.398  31.768  31.070  1.00  0.00     0.074 A 
ATOM     55  C   UNL A   1      43.197  30.779  35.091  1.00  0.00     0.029 A 
ATOM     56  N   UNL A   1      41.769  30.627  33.356  1.00  0.00    -0.354 N 
ATOM     57  N   UNL A   1      39.415  31.543  31.902  1.00  0.00    -0.248 NA
ATOM     58  C   UNL A   1      37.564  32.837  31.634  1.00  0.00     0.031 C 
ATOM     59  C   UNL A   1      42.244  31.735  35.258  1.00  0.00     0.029 A 
ATOM     60  C   UNL A   1      41.343  31.644  34.181  1.00  0.00     0.049 A 
ATOM     61  H   UNL A   1      41.338  30.344  32.518  1.00  0.00     0.167 HD
ATOM     62  C   UNL A   1      39.345  32.368  32.948  1.00  0.00     0.074 A 
ATOM     63  C   UNL A   1      38.148  33.209  32.795  1.00  0.00     0.031 C 
ATOM     64  C   UNL A   1      40.231  32.458  34.023  1.00  0.00     0.037 A 
BRANCH  51  65
ATOM     65  C   UNL A   1      44.873  28.575  34.215  1.00  0.00     0.057 A 
ATOM     66  C   UNL A   1      44.785  27.542  35.132  1.00  0.00     0.134 A 
ATOM     67  C   UNL A   1      46.041  29.137  33.920  1.00  0.00     0.134 A 
ATOM     68  F   UNL A   1      43.698  26.786  35.271  1.00  0.00    -0.206 F 
ATOM     69  C   UNL A   1      45.953  27.362  35.908  1.00  0.00     0.040 A 
ATOM     70  C   UNL A   1      47.171  28.813  34.631  1.00  0.00     0.040 A 
ATOM     71  F   UNL A   1      46.115  30.020  32.929  1.00  0.00    -0.206 F 
ATOM     72  C   UNL A   1      47.142  27.843  35.594  1.00  0.00     0.006 A 
ENDBRANCH  51  65
BRANCH  52  73
ATOM     73  C   UNL A   1      36.927  31.577  29.054  1.00  0.00     0.057 A 
ATOM     74  C   UNL A   1      36.928  32.829  28.463  1.00  0.00     0.134 A 
ATOM     75  C   UNL A   1      35.847  30.805  29.030  1.00  0.00     0.134 A 
ATOM     76  F   UNL A   1      38.040  33.526  28.241  1.00  0.00    -0.206 F 
ATOM     77  C   UNL A   1      35.639  33.302  28.118  1.00  0.00     0.040 A 
ATOM     78  C   UNL A   1      34.652  31.288  28.552  1.00  0.00     0.040 A 
ATOM     79  F   UNL A   1      35.921  29.553  29.470  1.00  0.00    -0.206 F 
ATOM     80  C   UNL A   1      34.567  32.539  28.008  1.00  0.00     0.006 A 
ENDBRANCH  52  73
BRANCH  64  81
ATOM     81  C   UNL A   1      39.963  33.513  35.084  1.00  0.00     0.057 A 
ATOM     82  C   UNL A   1      39.289  33.230  36.262  1.00  0.00     0.134 A 
ATOM     83  C   UNL A   1      40.461  34.722  34.849  1.00  0.00     0.134 A 
ATOM     84  F   UNL A   1      38.999  31.992  36.651  1.00  0.00    -0.206 F 
ATOM     85  C   UNL A   1      38.939  34.377  37.011  1.00  0.00     0.040 A 
ATOM     86  C   UNL A   1      40.190  35.767  35.698  1.00  0.00     0.040 A 
ATOM     87  F   UNL A   1      41.229  34.921  33.782  1.00  0.00    -0.206 F 
ATOM     88  C   UNL A   1      39.479  35.572  36.850  1.00  0.00     0.006 A 
ENDBRANCH  64  81
ENDBRANCH  38  39
ENDBRANCH  30  33
ENDBRANCH  28  29
ENDBRANCH   1  28
TORSDOF 13
ENDMDL
