MODEL 1
REMARK VINA RESULT:     -12.2      0.000      0.000
REMARK SMILES O=C(NCCCCNC(=O)[C@H]1Cc2ccc(Cl)cc2C[N@@H+]1Cc1ccc(Cl)cc1)c1ccc(-c2c3nc(c(-c4c(F)cccc4F)c4ccc([nH]4)c(-c4c(F)cccc4F)c4nc(c(-c5c(F)cccc5F)c5ccc2[nH]5)C=C4)C=C3)cc1
REMARK SMILES IDX 5 1 4 2 3 3 1 4 2 5 30 7 31 8 83 9 32 10 82 11 33 12 34 13
REMARK SMILES IDX 35 14 76 15 36 16 81 17 75 18 77 19 37 20 80 21 74 22 73 23
REMARK SMILES IDX 38 25 64 26 47 27 63 28 48 29 51 30 62 31 78 32 49 33 50 34
REMARK SMILES IDX 61 36 79 37 52 38 39 39 40 40 45 41 41 42 42 43 44 44 46 45
REMARK SMILES IDX 43 46 65 47 66 48 71 49 67 50 68 51 70 52 72 53 69 54 53 55
REMARK SMILES IDX 54 56 59 57 55 58 56 59 58 60 60 61 57 62 6 63 7 64 8 65
REMARK SMILES IDX 9 66 10 68 11 69 12 70 21 71 13 72 20 73 14 75 19 76 15 77
REMARK SMILES IDX 18 78 16 79 17 80 22 81 23 82 24 83 29 84 25 85 28 86 26 87
REMARK SMILES IDX 27 88
REMARK H PARENT 3 6 77 24 51 35 8 67 21 74
REMARK Flexibility Score: inf
ROOT
ATOM      1  C   UNL A   1      32.611  27.944  24.169  1.00  0.00     0.023 C 
ENDROOT
BRANCH   1   2
ATOM      2  C   UNL A   1      33.483  29.017  24.795  1.00  0.00     0.116 C 
BRANCH   2   3
ATOM      3  N   UNL A   1      32.711  30.127  25.329  1.00  0.00    -0.352 N 
ATOM      4  O   UNL A   1      32.084  31.647  26.870  1.00  0.00    -0.269 OA
ATOM      5  C   UNL A   1      32.913  30.833  26.489  1.00  0.00     0.251 C 
ATOM      6  H   UNL A   1      31.940  30.410  24.787  1.00  0.00     0.163 HD
BRANCH   5   7
ATOM      7  C   UNL A   1      34.133  30.582  27.285  1.00  0.00     0.039 A 
ATOM      8  C   UNL A   1      34.395  29.284  27.728  1.00  0.00     0.014 A 
ATOM      9  C   UNL A   1      35.013  31.623  27.594  1.00  0.00     0.014 A 
ATOM     10  C   UNL A   1      35.554  29.030  28.460  1.00  0.00     0.010 A 
ATOM     11  C   UNL A   1      36.216  31.348  28.229  1.00  0.00     0.010 A 
ATOM     12  C   UNL A   1      36.479  30.057  28.706  1.00  0.00    -0.014 A 
BRANCH  12  13
ATOM     13  C   UNL A   1      37.683  29.822  29.540  1.00  0.00     0.031 A 
ATOM     14  C   UNL A   1      38.801  28.966  29.003  1.00  0.00     0.074 A 
ATOM     15  C   UNL A   1      37.767  30.352  30.774  1.00  0.00     0.049 A 
ATOM     16  N   UNL A   1      39.929  28.620  29.570  1.00  0.00    -0.248 NA
ATOM     17  C   UNL A   1      38.609  28.393  27.660  1.00  0.00     0.031 C 
ATOM     18  C   UNL A   1      36.740  31.172  31.419  1.00  0.00     0.029 A 
ATOM     19  N   UNL A   1      38.773  30.288  31.703  1.00  0.00    -0.354 N 
ATOM     20  C   UNL A   1      40.565  27.783  28.662  1.00  0.00     0.074 A 
ATOM     21  C   UNL A   1      39.666  27.608  27.544  1.00  0.00     0.031 C 
ATOM     22  C   UNL A   1      37.192  31.577  32.617  1.00  0.00     0.029 A 
ATOM     23  C   UNL A   1      38.519  31.014  32.840  1.00  0.00     0.049 A 
ATOM     24  H   UNL A   1      39.600  29.769  31.567  1.00  0.00     0.167 HD
ATOM     25  C   UNL A   1      41.801  27.234  28.732  1.00  0.00     0.037 A 
ATOM     26  C   UNL A   1      39.280  31.204  33.934  1.00  0.00     0.037 A 
ATOM     27  C   UNL A   1      42.703  27.430  29.834  1.00  0.00     0.049 A 
ATOM     28  C   UNL A   1      40.635  30.552  34.004  1.00  0.00     0.074 A 
ATOM     29  C   UNL A   1      43.998  26.966  29.985  1.00  0.00     0.029 A 
ATOM     30  N   UNL A   1      42.399  28.147  30.982  1.00  0.00    -0.354 N 
ATOM     31  N   UNL A   1      41.253  29.819  33.111  1.00  0.00    -0.248 NA
ATOM     32  C   UNL A   1      41.397  30.762  35.242  1.00  0.00     0.031 C 
ATOM     33  C   UNL A   1      44.456  27.357  31.249  1.00  0.00     0.029 A 
ATOM     34  C   UNL A   1      43.470  28.114  31.860  1.00  0.00     0.049 A 
ATOM     35  H   UNL A   1      41.547  28.612  31.147  1.00  0.00     0.167 HD
ATOM     36  C   UNL A   1      42.490  29.509  33.662  1.00  0.00     0.074 A 
ATOM     37  C   UNL A   1      42.539  30.153  34.960  1.00  0.00     0.031 C 
ATOM     38  C   UNL A   1      43.497  28.760  33.148  1.00  0.00     0.037 A 
BRANCH  25  39
ATOM     39  C   UNL A   1      42.230  26.363  27.585  1.00  0.00     0.057 A 
ATOM     40  C   UNL A   1      42.802  26.924  26.437  1.00  0.00     0.134 A 
ATOM     41  C   UNL A   1      42.099  24.966  27.619  1.00  0.00     0.134 A 
ATOM     42  F   UNL A   1      42.956  28.253  26.331  1.00  0.00    -0.206 F 
ATOM     43  C   UNL A   1      43.238  26.132  25.374  1.00  0.00     0.040 A 
ATOM     44  C   UNL A   1      42.562  24.160  26.578  1.00  0.00     0.040 A 
ATOM     45  F   UNL A   1      41.573  24.359  28.696  1.00  0.00    -0.206 F 
ATOM     46  C   UNL A   1      43.130  24.745  25.448  1.00  0.00     0.006 A 
ENDBRANCH  25  39
BRANCH  26  47
ATOM     47  C   UNL A   1      38.809  32.076  35.039  1.00  0.00     0.057 A 
ATOM     48  C   UNL A   1      38.218  31.550  36.195  1.00  0.00     0.134 A 
ATOM     49  C   UNL A   1      38.985  33.464  34.982  1.00  0.00     0.134 A 
ATOM     50  F   UNL A   1      38.015  30.229  36.310  1.00  0.00    -0.206 F 
ATOM     51  C   UNL A   1      37.823  32.371  37.251  1.00  0.00     0.040 A 
ATOM     52  C   UNL A   1      38.621  34.295  36.044  1.00  0.00     0.040 A 
ATOM     53  F   UNL A   1      39.563  34.027  33.910  1.00  0.00    -0.206 F 
ATOM     54  C   UNL A   1      38.037  33.746  37.183  1.00  0.00     0.006 A 
ENDBRANCH  26  47
BRANCH  38  55
ATOM     55  C   UNL A   1      44.744  28.639  33.977  1.00  0.00     0.057 A 
ATOM     56  C   UNL A   1      44.892  27.586  34.890  1.00  0.00     0.134 A 
ATOM     57  C   UNL A   1      45.799  29.554  33.872  1.00  0.00     0.134 A 
ATOM     58  F   UNL A   1      43.916  26.681  35.052  1.00  0.00    -0.206 F 
ATOM     59  C   UNL A   1      46.048  27.443  35.659  1.00  0.00     0.040 A 
ATOM     60  C   UNL A   1      46.975  29.403  34.609  1.00  0.00     0.040 A 
ATOM     61  F   UNL A   1      45.727  30.579  33.007  1.00  0.00    -0.206 F 
ATOM     62  C   UNL A   1      47.098  28.346  35.509  1.00  0.00     0.006 A 
ENDBRANCH  38  55
ENDBRANCH  12  13
ENDBRANCH   5   7
ENDBRANCH   2   3
ENDBRANCH   1   2
BRANCH   1  63
ATOM     63  C   UNL A   1      33.254  27.215  22.991  1.00  0.00     0.023 C 
BRANCH  63  64
ATOM     64  C   UNL A   1      32.872  25.733  22.865  1.00  0.00     0.116 C 
BRANCH  64  65
ATOM     65  N   UNL A   1      32.415  25.225  24.141  1.00  0.00    -0.351 N 
ATOM     66  C   UNL A   1      32.885  24.183  24.887  1.00  0.00     0.278 C 
ATOM     67  H   UNL A   1      31.649  25.703  24.532  1.00  0.00     0.163 HD
ATOM     68  O   UNL A   1      32.153  23.799  25.806  1.00  0.00    -0.268 OA
BRANCH  66  69
ATOM     69  C   UNL A   1      34.261  23.520  24.633  1.00  0.00     0.279 C 
ATOM     70  C   UNL A   1      35.352  24.231  25.463  1.00  0.00     0.111 C 
ATOM     71  N   UNL A   1      34.202  22.041  24.824  1.00  0.00    -0.317 N 
ATOM     72  C   UNL A   1      36.612  23.441  25.688  1.00  0.00    -0.033 A 
ATOM     73  C   UNL A   1      35.525  21.434  24.603  1.00  0.00     0.300 C 
ATOM     74  H   UNL A   1      33.915  21.896  25.792  1.00  0.00     0.349 HD
ATOM     75  C   UNL A   1      37.721  24.050  26.293  1.00  0.00     0.006 A 
ATOM     76  C   UNL A   1      36.671  22.091  25.326  1.00  0.00     0.011 A 
ATOM     77  C   UNL A   1      38.905  23.336  26.477  1.00  0.00     0.021 A 
ATOM     78  C   UNL A   1      37.872  21.385  25.500  1.00  0.00     0.030 A 
ATOM     79  C   UNL A   1      38.980  22.009  26.066  1.00  0.00     0.041 A 
ATOM     80  Cl  UNL A   1      40.457  21.143  26.228  1.00  0.00    -0.084 Cl
BRANCH  71  81
ATOM     81  C   UNL A   1      33.176  21.368  23.975  1.00  0.00     0.299 C 
BRANCH  81  82
ATOM     82  C   UNL A   1      32.895  19.900  24.269  1.00  0.00     0.006 A 
ATOM     83  C   UNL A   1      32.850  19.407  25.582  1.00  0.00     0.011 A 
ATOM     84  C   UNL A   1      32.749  18.984  23.215  1.00  0.00     0.011 A 
ATOM     85  C   UNL A   1      32.822  18.033  25.831  1.00  0.00     0.021 A 
ATOM     86  C   UNL A   1      32.693  17.610  23.461  1.00  0.00     0.021 A 
ATOM     87  C   UNL A   1      32.766  17.139  24.767  1.00  0.00     0.041 A 
ATOM     88  Cl  UNL A   1      32.802  15.446  25.068  1.00  0.00    -0.084 Cl
ENDBRANCH  81  82
ENDBRANCH  71  81
ENDBRANCH  66  69
ENDBRANCH  64  65
ENDBRANCH  63  64
ENDBRANCH   1  63
TORSDOF 13
ENDMDL
MODEL 2
REMARK VINA RESULT:     -12.2      0.480      6.071
REMARK SMILES O=C(NCCCCNC(=O)[C@H]1Cc2ccc(Cl)cc2C[N@@H+]1Cc1ccc(Cl)cc1)c1ccc(-c2c3nc(c(-c4c(F)cccc4F)c4ccc([nH]4)c(-c4c(F)cccc4F)c4nc(c(-c5c(F)cccc5F)c5ccc2[nH]5)C=C4)C=C3)cc1
REMARK SMILES IDX 5 1 4 2 3 3 1 4 2 5 30 7 31 8 83 9 32 10 82 11 33 12 34 13
REMARK SMILES IDX 35 14 76 15 36 16 81 17 75 18 77 19 37 20 80 21 74 22 73 23
REMARK SMILES IDX 38 25 64 26 47 27 63 28 48 29 51 30 62 31 78 32 49 33 50 34
REMARK SMILES IDX 61 36 79 37 52 38 39 39 40 40 45 41 41 42 42 43 44 44 46 45
REMARK SMILES IDX 43 46 65 47 66 48 71 49 67 50 68 51 70 52 72 53 69 54 53 55
REMARK SMILES IDX 54 56 59 57 55 58 56 59 58 60 60 61 57 62 6 63 7 64 8 65
REMARK SMILES IDX 9 66 10 68 11 69 12 70 21 71 13 72 20 73 14 75 19 76 15 77
REMARK SMILES IDX 18 78 16 79 17 80 22 81 23 82 24 83 29 84 25 85 28 86 26 87
REMARK SMILES IDX 27 88
REMARK H PARENT 3 6 77 24 51 35 8 67 21 74
REMARK Flexibility Score: inf
ROOT
ATOM      1  C   UNL A   1      32.915  28.283  23.959  1.00  0.00     0.023 C 
ENDROOT
BRANCH   1   2
ATOM      2  C   UNL A   1      33.707  29.006  25.034  1.00  0.00     0.116 C 
BRANCH   2   3
ATOM      3  N   UNL A   1      32.995  30.147  25.583  1.00  0.00    -0.352 N 
ATOM      4  O   UNL A   1      32.481  31.706  27.128  1.00  0.00    -0.269 OA
ATOM      5  C   UNL A   1      33.267  30.861  26.725  1.00  0.00     0.251 C 
ATOM      6  H   UNL A   1      32.212  30.449  25.069  1.00  0.00     0.163 HD
BRANCH   5   7
ATOM      7  C   UNL A   1      34.509  30.578  27.475  1.00  0.00     0.039 A 
ATOM      8  C   UNL A   1      35.455  31.594  27.620  1.00  0.00     0.014 A 
ATOM      9  C   UNL A   1      34.739  29.317  28.030  1.00  0.00     0.014 A 
ATOM     10  C   UNL A   1      36.621  31.348  28.346  1.00  0.00     0.010 A 
ATOM     11  C   UNL A   1      35.847  29.107  28.839  1.00  0.00     0.010 A 
ATOM     12  C   UNL A   1      36.820  30.106  28.970  1.00  0.00    -0.014 A 
BRANCH  12  13
ATOM     13  C   UNL A   1      38.082  29.803  29.688  1.00  0.00     0.031 A 
ATOM     14  C   UNL A   1      38.311  30.379  31.061  1.00  0.00     0.074 A 
ATOM     15  C   UNL A   1      39.023  29.035  29.108  1.00  0.00     0.049 A 
ATOM     16  N   UNL A   1      39.346  30.254  31.852  1.00  0.00    -0.248 NA
ATOM     17  C   UNL A   1      37.247  31.240  31.603  1.00  0.00     0.031 C 
ATOM     18  C   UNL A   1      38.934  28.445  27.772  1.00  0.00     0.029 A 
ATOM     19  N   UNL A   1      40.239  28.611  29.579  1.00  0.00    -0.354 N 
ATOM     20  C   UNL A   1      39.061  31.030  32.969  1.00  0.00     0.074 A 
ATOM     21  C   UNL A   1      37.797  31.684  32.721  1.00  0.00     0.031 C 
ATOM     22  C   UNL A   1      40.025  27.692  27.552  1.00  0.00     0.029 A 
ATOM     23  C   UNL A   1      40.906  27.780  28.712  1.00  0.00     0.049 A 
ATOM     24  H   UNL A   1      40.600  28.878  30.456  1.00  0.00     0.167 HD
ATOM     25  C   UNL A   1      39.768  31.163  34.116  1.00  0.00     0.037 A 
ATOM     26  C   UNL A   1      42.091  27.158  28.849  1.00  0.00     0.037 A 
ATOM     27  C   UNL A   1      41.014  30.491  34.371  1.00  0.00     0.049 A 
ATOM     28  C   UNL A   1      42.876  27.351  30.118  1.00  0.00     0.074 A 
ATOM     29  C   UNL A   1      41.788  30.511  35.519  1.00  0.00     0.029 A 
ATOM     30  N   UNL A   1      41.673  29.681  33.458  1.00  0.00    -0.354 N 
ATOM     31  N   UNL A   1      42.565  28.033  31.194  1.00  0.00    -0.248 NA
ATOM     32  C   UNL A   1      44.182  26.682  30.187  1.00  0.00     0.031 C 
ATOM     33  C   UNL A   1      42.943  29.756  35.277  1.00  0.00     0.029 A 
ATOM     34  C   UNL A   1      42.859  29.219  34.003  1.00  0.00     0.049 A 
ATOM     35  H   UNL A   1      41.344  29.466  32.555  1.00  0.00     0.167 HD
ATOM     36  C   UNL A   1      43.617  27.845  32.081  1.00  0.00     0.074 A 
ATOM     37  C   UNL A   1      44.565  26.969  31.421  1.00  0.00     0.031 C 
ATOM     38  C   UNL A   1      43.790  28.350  33.328  1.00  0.00     0.037 A 
BRANCH  25  39
ATOM     39  C   UNL A   1      39.206  32.079  35.167  1.00  0.00     0.057 A 
ATOM     40  C   UNL A   1      39.477  33.452  35.136  1.00  0.00     0.134 A 
ATOM     41  C   UNL A   1      38.378  31.610  36.198  1.00  0.00     0.134 A 
ATOM     42  F   UNL A   1      40.264  33.971  34.181  1.00  0.00    -0.206 F 
ATOM     43  C   UNL A   1      38.938  34.325  36.082  1.00  0.00     0.040 A 
ATOM     44  C   UNL A   1      37.805  32.478  37.130  1.00  0.00     0.040 A 
ATOM     45  F   UNL A   1      38.063  30.307  36.279  1.00  0.00    -0.206 F 
ATOM     46  C   UNL A   1      38.089  33.841  37.075  1.00  0.00     0.006 A 
ENDBRANCH  25  39
BRANCH  26  47
ATOM     47  C   UNL A   1      42.600  26.262  27.780  1.00  0.00     0.057 A 
ATOM     48  C   UNL A   1      42.290  24.897  27.751  1.00  0.00     0.134 A 
ATOM     49  C   UNL A   1      43.376  26.768  26.730  1.00  0.00     0.134 A 
ATOM     50  F   UNL A   1      41.557  24.348  28.730  1.00  0.00    -0.206 F 
ATOM     51  C   UNL A   1      42.731  24.070  26.717  1.00  0.00     0.040 A 
ATOM     52  C   UNL A   1      43.800  25.958  25.674  1.00  0.00     0.040 A 
ATOM     53  F   UNL A   1      43.690  28.071  26.691  1.00  0.00    -0.206 F 
ATOM     54  C   UNL A   1      43.476  24.604  25.667  1.00  0.00     0.006 A 
ENDBRANCH  26  47
BRANCH  38  55
ATOM     55  C   UNL A   1      45.029  27.927  34.065  1.00  0.00     0.057 A 
ATOM     56  C   UNL A   1      45.033  26.762  34.843  1.00  0.00     0.134 A 
ATOM     57  C   UNL A   1      46.219  28.665  34.003  1.00  0.00     0.134 A 
ATOM     58  F   UNL A   1      43.925  26.014  34.956  1.00  0.00    -0.206 F 
ATOM     59  C   UNL A   1      46.177  26.341  35.522  1.00  0.00     0.040 A 
ATOM     60  C   UNL A   1      47.379  28.236  34.649  1.00  0.00     0.040 A 
ATOM     61  F   UNL A   1      46.287  29.785  33.266  1.00  0.00    -0.206 F 
ATOM     62  C   UNL A   1      47.357  27.071  35.415  1.00  0.00     0.006 A 
ENDBRANCH  38  55
ENDBRANCH  12  13
ENDBRANCH   5   7
ENDBRANCH   2   3
ENDBRANCH   1   2
BRANCH   1  63
ATOM     63  C   UNL A   1      33.657  27.120  23.302  1.00  0.00     0.023 C 
BRANCH  63  64
ATOM     64  C   UNL A   1      32.810  25.859  23.082  1.00  0.00     0.116 C 
BRANCH  64  65
ATOM     65  N   UNL A   1      32.393  25.308  24.354  1.00  0.00    -0.351 N 
ATOM     66  C   UNL A   1      32.896  24.253  25.057  1.00  0.00     0.278 C 
ATOM     67  H   UNL A   1      31.631  25.764  24.778  1.00  0.00     0.163 HD
ATOM     68  O   UNL A   1      32.194  23.832  25.984  1.00  0.00    -0.268 OA
BRANCH  66  69
ATOM     69  C   UNL A   1      34.275  23.617  24.749  1.00  0.00     0.279 C 
ATOM     70  C   UNL A   1      35.374  24.305  25.589  1.00  0.00     0.111 C 
ATOM     71  N   UNL A   1      34.235  22.131  24.878  1.00  0.00    -0.317 N 
ATOM     72  C   UNL A   1      36.646  23.520  25.756  1.00  0.00    -0.033 A 
ATOM     73  C   UNL A   1      35.560  21.550  24.607  1.00  0.00     0.300 C 
ATOM     74  H   UNL A   1      33.968  21.941  25.844  1.00  0.00     0.349 HD
ATOM     75  C   UNL A   1      37.760  24.116  26.366  1.00  0.00     0.006 A 
ATOM     76  C   UNL A   1      36.712  22.188  25.335  1.00  0.00     0.011 A 
ATOM     77  C   UNL A   1      38.955  23.409  26.497  1.00  0.00     0.021 A 
ATOM     78  C   UNL A   1      37.924  21.489  25.456  1.00  0.00     0.030 A 
ATOM     79  C   UNL A   1      39.036  22.102  26.027  1.00  0.00     0.041 A 
ATOM     80  Cl  UNL A   1      40.525  21.247  26.125  1.00  0.00    -0.084 Cl
BRANCH  71  81
ATOM     81  C   UNL A   1      33.200  21.483  24.019  1.00  0.00     0.299 C 
BRANCH  81  82
ATOM     82  C   UNL A   1      32.893  20.018  24.301  1.00  0.00     0.006 A 
ATOM     83  C   UNL A   1      32.819  19.518  25.610  1.00  0.00     0.011 A 
ATOM     84  C   UNL A   1      32.749  19.110  23.240  1.00  0.00     0.011 A 
ATOM     85  C   UNL A   1      32.767  18.143  25.851  1.00  0.00     0.021 A 
ATOM     86  C   UNL A   1      32.669  17.735  23.476  1.00  0.00     0.021 A 
ATOM     87  C   UNL A   1      32.714  17.256  24.781  1.00  0.00     0.041 A 
ATOM     88  Cl  UNL A   1      32.720  15.561  25.073  1.00  0.00    -0.084 Cl
ENDBRANCH  81  82
ENDBRANCH  71  81
ENDBRANCH  66  69
ENDBRANCH  64  65
ENDBRANCH  63  64
ENDBRANCH   1  63
TORSDOF 13
ENDMDL
MODEL 3
REMARK VINA RESULT:     -12.1      4.293      7.287
REMARK SMILES O=C(NCCCCNC(=O)[C@H]1Cc2ccc(Cl)cc2C[N@@H+]1Cc1ccc(Cl)cc1)c1ccc(-c2c3nc(c(-c4c(F)cccc4F)c4ccc([nH]4)c(-c4c(F)cccc4F)c4nc(c(-c5c(F)cccc5F)c5ccc2[nH]5)C=C4)C=C3)cc1
REMARK SMILES IDX 5 1 4 2 3 3 1 4 2 5 30 7 31 8 83 9 32 10 82 11 33 12 34 13
REMARK SMILES IDX 35 14 76 15 36 16 81 17 75 18 77 19 37 20 80 21 74 22 73 23
REMARK SMILES IDX 38 25 64 26 47 27 63 28 48 29 51 30 62 31 78 32 49 33 50 34
REMARK SMILES IDX 61 36 79 37 52 38 39 39 40 40 45 41 41 42 42 43 44 44 46 45
REMARK SMILES IDX 43 46 65 47 66 48 71 49 67 50 68 51 70 52 72 53 69 54 53 55
REMARK SMILES IDX 54 56 59 57 55 58 56 59 58 60 60 61 57 62 6 63 7 64 8 65
REMARK SMILES IDX 9 66 10 68 11 69 12 70 21 71 13 72 20 73 14 75 19 76 15 77
REMARK SMILES IDX 18 78 16 79 17 80 22 81 23 82 24 83 29 84 25 85 28 86 26 87
REMARK SMILES IDX 27 88
REMARK H PARENT 3 6 77 24 51 35 8 67 21 74
REMARK Flexibility Score: inf
ROOT
ATOM      1  C   UNL A   1      34.508  22.201  26.103  1.00  0.00     0.023 C 
ENDROOT
BRANCH   1   2
ATOM      2  C   UNL A   1      35.968  22.618  26.123  1.00  0.00     0.116 C 
BRANCH   2   3
ATOM      3  N   UNL A   1      36.874  21.500  25.923  1.00  0.00    -0.352 N 
ATOM      4  O   UNL A   1      38.866  20.493  25.609  1.00  0.00    -0.269 OA
ATOM      5  C   UNL A   1      38.247  21.494  25.942  1.00  0.00     0.251 C 
ATOM      6  H   UNL A   1      36.446  20.630  25.750  1.00  0.00     0.163 HD
BRANCH   5   7
ATOM      7  C   UNL A   1      38.970  22.718  26.347  1.00  0.00     0.039 A 
ATOM      8  C   UNL A   1      40.028  22.609  27.251  1.00  0.00     0.014 A 
ATOM      9  C   UNL A   1      38.604  23.966  25.837  1.00  0.00     0.014 A 
ATOM     10  C   UNL A   1      40.734  23.753  27.623  1.00  0.00     0.010 A 
ATOM     11  C   UNL A   1      39.374  25.085  26.126  1.00  0.00     0.010 A 
ATOM     12  C   UNL A   1      40.419  24.998  27.054  1.00  0.00    -0.014 A 
BRANCH  12  13
ATOM     13  C   UNL A   1      41.113  26.235  27.487  1.00  0.00     0.031 A 
ATOM     14  C   UNL A   1      42.540  26.471  27.068  1.00  0.00     0.074 A 
ATOM     15  C   UNL A   1      40.477  27.131  28.265  1.00  0.00     0.049 A 
ATOM     16  N   UNL A   1      43.334  27.473  27.349  1.00  0.00    -0.248 NA
ATOM     17  C   UNL A   1      43.171  25.421  26.251  1.00  0.00     0.031 C 
ATOM     18  C   UNL A   1      39.106  27.003  28.764  1.00  0.00     0.029 A 
ATOM     19  N   UNL A   1      40.901  28.335  28.764  1.00  0.00    -0.354 N 
ATOM     20  C   UNL A   1      44.553  27.163  26.758  1.00  0.00     0.074 A 
ATOM     21  C   UNL A   1      44.420  25.849  26.173  1.00  0.00     0.031 C 
ATOM     22  C   UNL A   1      38.786  28.111  29.453  1.00  0.00     0.029 A 
ATOM     23  C   UNL A   1      39.939  29.005  29.479  1.00  0.00     0.049 A 
ATOM     24  H   UNL A   1      41.811  28.687  28.623  1.00  0.00     0.167 HD
ATOM     25  C   UNL A   1      45.675  27.917  26.677  1.00  0.00     0.037 A 
ATOM     26  C   UNL A   1      39.987  30.208  30.079  1.00  0.00     0.037 A 
ATOM     27  C   UNL A   1      45.797  29.236  27.239  1.00  0.00     0.049 A 
ATOM     28  C   UNL A   1      41.258  31.011  30.007  1.00  0.00     0.074 A 
ATOM     29  C   UNL A   1      46.868  30.110  27.169  1.00  0.00     0.029 A 
ATOM     30  N   UNL A   1      44.811  29.868  27.981  1.00  0.00    -0.354 N 
ATOM     31  N   UNL A   1      42.381  30.738  29.389  1.00  0.00    -0.248 NA
ATOM     32  C   UNL A   1      41.261  32.295  30.721  1.00  0.00     0.031 C 
ATOM     33  C   UNL A   1      46.548  31.249  27.919  1.00  0.00     0.029 A 
ATOM     34  C   UNL A   1      45.258  31.109  28.403  1.00  0.00     0.049 A 
ATOM     35  H   UNL A   1      43.923  29.490  28.179  1.00  0.00     0.167 HD
ATOM     36  C   UNL A   1      43.211  31.830  29.607  1.00  0.00     0.074 A 
ATOM     37  C   UNL A   1      42.452  32.777  30.399  1.00  0.00     0.031 C 
ATOM     38  C   UNL A   1      44.487  32.036  29.193  1.00  0.00     0.037 A 
BRANCH  25  39
ATOM     39  C   UNL A   1      46.854  27.317  25.964  1.00  0.00     0.057 A 
ATOM     40  C   UNL A   1      47.027  27.504  24.587  1.00  0.00     0.134 A 
ATOM     41  C   UNL A   1      47.833  26.571  26.639  1.00  0.00     0.134 A 
ATOM     42  F   UNL A   1      46.129  28.203  23.876  1.00  0.00    -0.206 F 
ATOM     43  C   UNL A   1      48.131  26.984  23.911  1.00  0.00     0.040 A 
ATOM     44  C   UNL A   1      48.959  26.075  25.980  1.00  0.00     0.040 A 
ATOM     45  F   UNL A   1      47.739  26.366  27.962  1.00  0.00    -0.206 F 
ATOM     46  C   UNL A   1      49.108  26.278  24.610  1.00  0.00     0.006 A 
ENDBRANCH  25  39
BRANCH  26  47
ATOM     47  C   UNL A   1      38.792  30.756  30.770  1.00  0.00     0.057 A 
ATOM     48  C   UNL A   1      37.867  31.574  30.110  1.00  0.00     0.134 A 
ATOM     49  C   UNL A   1      38.524  30.428  32.105  1.00  0.00     0.134 A 
ATOM     50  F   UNL A   1      38.069  31.929  28.833  1.00  0.00    -0.206 F 
ATOM     51  C   UNL A   1      36.720  32.044  30.750  1.00  0.00     0.040 A 
ATOM     52  C   UNL A   1      37.366  30.868  32.750  1.00  0.00     0.040 A 
ATOM     53  F   UNL A   1      39.361  29.633  32.786  1.00  0.00    -0.206 F 
ATOM     54  C   UNL A   1      36.460  31.680  32.070  1.00  0.00     0.006 A 
ENDBRANCH  26  47
BRANCH  38  55
ATOM     55  C   UNL A   1      45.114  33.351  29.559  1.00  0.00     0.057 A 
ATOM     56  C   UNL A   1      44.966  34.467  28.724  1.00  0.00     0.134 A 
ATOM     57  C   UNL A   1      45.858  33.520  30.734  1.00  0.00     0.134 A 
ATOM     58  F   UNL A   1      44.277  34.374  27.577  1.00  0.00    -0.206 F 
ATOM     59  C   UNL A   1      45.524  35.703  29.051  1.00  0.00     0.040 A 
ATOM     60  C   UNL A   1      46.392  34.759  31.090  1.00  0.00     0.040 A 
ATOM     61  F   UNL A   1      46.028  32.495  31.584  1.00  0.00    -0.206 F 
ATOM     62  C   UNL A   1      46.228  35.855  30.243  1.00  0.00     0.006 A 
ENDBRANCH  38  55
ENDBRANCH  12  13
ENDBRANCH   5   7
ENDBRANCH   2   3
ENDBRANCH   1   2
BRANCH   1  63
ATOM     63  C   UNL A   1      33.577  23.123  26.888  1.00  0.00     0.023 C 
BRANCH  63  64
ATOM     64  C   UNL A   1      32.404  23.694  26.078  1.00  0.00     0.116 C 
BRANCH  64  65
ATOM     65  N   UNL A   1      32.886  24.276  24.843  1.00  0.00    -0.351 N 
ATOM     66  C   UNL A   1      32.899  25.578  24.437  1.00  0.00     0.278 C 
ATOM     67  H   UNL A   1      33.261  23.635  24.197  1.00  0.00     0.163 HD
ATOM     68  O   UNL A   1      33.125  25.771  23.237  1.00  0.00    -0.268 OA
BRANCH  66  69
ATOM     69  C   UNL A   1      32.674  26.764  25.407  1.00  0.00     0.279 C 
ATOM     70  C   UNL A   1      34.024  27.235  25.990  1.00  0.00     0.111 C 
ATOM     71  N   UNL A   1      31.862  27.845  24.773  1.00  0.00    -0.317 N 
ATOM     72  C   UNL A   1      34.033  28.626  26.559  1.00  0.00    -0.033 A 
ATOM     73  C   UNL A   1      31.682  28.972  25.702  1.00  0.00     0.300 C 
ATOM     74  H   UNL A   1      32.393  28.152  23.959  1.00  0.00     0.349 HD
ATOM     75  C   UNL A   1      35.161  29.092  27.251  1.00  0.00     0.006 A 
ATOM     76  C   UNL A   1      32.935  29.471  26.371  1.00  0.00     0.011 A 
ATOM     77  C   UNL A   1      35.169  30.370  27.810  1.00  0.00     0.021 A 
ATOM     78  C   UNL A   1      32.944  30.750  26.951  1.00  0.00     0.030 A 
ATOM     79  C   UNL A   1      34.053  31.189  27.671  1.00  0.00     0.041 A 
ATOM     80  Cl  UNL A   1      34.028  32.739  28.414  1.00  0.00    -0.084 Cl
BRANCH  71  81
ATOM     81  C   UNL A   1      30.539  27.379  24.262  1.00  0.00     0.299 C 
BRANCH  81  82
ATOM     82  C   UNL A   1      29.834  28.281  23.257  1.00  0.00     0.006 A 
ATOM     83  C   UNL A   1      30.552  29.105  22.376  1.00  0.00     0.011 A 
ATOM     84  C   UNL A   1      28.434  28.363  23.243  1.00  0.00     0.011 A 
ATOM     85  C   UNL A   1      29.903  30.089  21.626  1.00  0.00     0.021 A 
ATOM     86  C   UNL A   1      27.778  29.327  22.473  1.00  0.00     0.021 A 
ATOM     87  C   UNL A   1      28.520  30.210  21.695  1.00  0.00     0.041 A 
ATOM     88  Cl  UNL A   1      27.725  31.464  20.826  1.00  0.00    -0.084 Cl
ENDBRANCH  81  82
ENDBRANCH  71  81
ENDBRANCH  66  69
ENDBRANCH  64  65
ENDBRANCH  63  64
ENDBRANCH   1  63
TORSDOF 13
ENDMDL
