MODEL 1
REMARK VINA RESULT:     -11.3      0.000      0.000
REMARK SMILES C[NH2+]C[C@H](C)C(=O)N1CCc2cc(C(=O)NCCCCNC(=O)c3ccc(-c4c5nc(c(-c6c(F)cccc6F)c6ccc([nH]6)c(-c6c(F)cccc6F)c6nc(c(-c7c(F)cccc7F)c7ccc4[nH]7)C=C6)C=C5)cc3)ccc21
REMARK SMILES IDX 17 1 16 2 14 3 15 4 13 6 8 7 9 8 80 9 10 10 11 11 79 12
REMARK SMILES IDX 12 13 78 14 6 15 7 16 4 17 5 18 3 19 2 20 1 21 18 24 19 25
REMARK SMILES IDX 20 26 21 27 22 28 23 30 24 31 25 32 77 33 26 34 76 35 27 36
REMARK SMILES IDX 28 37 29 38 70 39 30 40 75 41 69 42 71 43 31 44 74 45 68 46
REMARK SMILES IDX 67 47 32 49 58 50 41 51 57 52 42 53 45 54 56 55 72 56 43 57
REMARK SMILES IDX 44 58 55 60 73 61 46 62 33 63 34 64 39 65 35 66 36 67 38 68
REMARK SMILES IDX 40 69 37 70 59 71 60 72 65 73 61 74 62 75 64 76 66 77 63 78
REMARK SMILES IDX 47 79 48 80 53 81 49 82 50 83 52 84 54 85 51 86
REMARK H PARENT 16 5 2 22 2 23 21 29 71 48 45 59
REMARK Flexibility Score: inf
ROOT
ATOM      1  C   UNL A   1      37.355  21.617  24.221  1.00  0.00     0.116 C 
ENDROOT
BRANCH   1   2
ATOM      2  N   UNL A   1      37.849  22.656  25.103  1.00  0.00    -0.352 N 
ATOM      3  C   UNL A   1      37.198  23.656  25.785  1.00  0.00     0.251 C 
ATOM      4  O   UNL A   1      37.863  24.370  26.535  1.00  0.00    -0.269 OA
ATOM      5  H   UNL A   1      38.824  22.644  25.237  1.00  0.00     0.163 HD
BRANCH   3   6
ATOM      6  C   UNL A   1      35.725  23.875  25.690  1.00  0.00     0.040 A 
ATOM      7  N   UNL A   1      31.559  24.033  25.532  1.00  0.00    -0.311 N 
ATOM      8  C   UNL A   1      31.193  23.384  26.798  1.00  0.00     0.130 C 
ATOM      9  C   UNL A   1      32.950  24.107  25.473  1.00  0.00     0.047 A 
ATOM     10  C   UNL A   1      32.469  22.742  27.364  1.00  0.00     0.059 C 
ATOM     11  C   UNL A   1      33.520  23.304  26.458  1.00  0.00    -0.022 A 
ATOM     12  C   UNL A   1      33.746  24.930  24.714  1.00  0.00     0.027 A 
ATOM     13  C   UNL A   1      34.898  23.145  26.556  1.00  0.00     0.019 A 
ATOM     14  C   UNL A   1      35.132  24.820  24.839  1.00  0.00     0.016 A 
BRANCH   7  15
ATOM     15  C   UNL A   1      30.606  24.594  24.716  1.00  0.00     0.235 C 
ATOM     16  O   UNL A   1      30.420  24.145  23.579  1.00  0.00    -0.274 OA
BRANCH  15  17
ATOM     17  C   UNL A   1      29.948  25.935  25.100  1.00  0.00     0.131 C 
ATOM     18  C   UNL A   1      30.837  26.978  25.763  1.00  0.00     0.024 C 
BRANCH  17  19
ATOM     19  C   UNL A   1      29.138  26.571  23.951  1.00  0.00     0.273 C 
BRANCH  19  20
ATOM     20  N   UNL A   1      29.761  27.659  23.192  1.00  0.00    -0.348 N 
ATOM     21  C   UNL A   1      28.846  28.743  22.862  1.00  0.00     0.330 C 
ATOM     22  H   UNL A   1      30.526  28.042  23.747  1.00  0.00     0.346 HD
ATOM     23  H   UNL A   1      30.080  27.261  22.309  1.00  0.00     0.346 HD
ENDBRANCH  19  20
ENDBRANCH  17  19
ENDBRANCH  15  17
ENDBRANCH   7  15
ENDBRANCH   3   6
ENDBRANCH   1   2
BRANCH   1  24
ATOM     24  C   UNL A   1      37.027  20.341  25.004  1.00  0.00     0.023 C 
BRANCH  24  25
ATOM     25  C   UNL A   1      38.162  19.320  25.065  1.00  0.00     0.023 C 
BRANCH  25  26
ATOM     26  C   UNL A   1      39.410  19.799  25.789  1.00  0.00     0.116 C 
BRANCH  26  27
ATOM     27  N   UNL A   1      40.484  18.819  25.797  1.00  0.00    -0.352 N 
ATOM     28  C   UNL A   1      41.819  19.017  26.062  1.00  0.00     0.251 C 
ATOM     29  H   UNL A   1      40.223  17.895  25.585  1.00  0.00     0.163 HD
ATOM     30  O   UNL A   1      42.619  18.101  25.927  1.00  0.00    -0.269 OA
BRANCH  28  31
ATOM     31  C   UNL A   1      42.285  20.358  26.470  1.00  0.00     0.039 A 
ATOM     32  C   UNL A   1      42.774  21.223  25.490  1.00  0.00     0.014 A 
ATOM     33  C   UNL A   1      42.219  20.770  27.805  1.00  0.00     0.014 A 
ATOM     34  C   UNL A   1      43.150  22.520  25.842  1.00  0.00     0.010 A 
ATOM     35  C   UNL A   1      42.512  22.087  28.139  1.00  0.00     0.010 A 
ATOM     36  C   UNL A   1      42.995  22.970  27.163  1.00  0.00    -0.014 A 
BRANCH  36  37
ATOM     37  C   UNL A   1      43.365  24.356  27.540  1.00  0.00     0.031 A 
ATOM     38  C   UNL A   1      44.802  24.796  27.478  1.00  0.00     0.074 A 
ATOM     39  C   UNL A   1      42.413  25.206  27.968  1.00  0.00     0.049 A 
ATOM     40  N   UNL A   1      45.321  25.966  27.755  1.00  0.00    -0.248 NA
ATOM     41  C   UNL A   1      45.791  23.782  27.078  1.00  0.00     0.031 C 
ATOM     42  C   UNL A   1      40.996  24.878  28.131  1.00  0.00     0.029 A 
ATOM     43  N   UNL A   1      42.495  26.522  28.342  1.00  0.00    -0.354 N 
ATOM     44  C   UNL A   1      46.689  25.824  27.569  1.00  0.00     0.074 A 
ATOM     45  C   UNL A   1      46.929  24.441  27.224  1.00  0.00     0.031 C 
ATOM     46  C   UNL A   1      40.335  25.977  28.532  1.00  0.00     0.029 A 
ATOM     47  C   UNL A   1      41.284  27.075  28.679  1.00  0.00     0.049 A 
ATOM     48  H   UNL A   1      43.342  27.024  28.366  1.00  0.00     0.167 HD
ATOM     49  C   UNL A   1      47.658  26.768  27.647  1.00  0.00     0.037 A 
ATOM     50  C   UNL A   1      40.975  28.332  29.050  1.00  0.00     0.037 A 
ATOM     51  C   UNL A   1      47.414  28.148  27.971  1.00  0.00     0.049 A 
ATOM     52  C   UNL A   1      42.065  29.365  29.114  1.00  0.00     0.074 A 
ATOM     53  C   UNL A   1      48.318  29.193  28.036  1.00  0.00     0.029 A 
ATOM     54  N   UNL A   1      46.170  28.675  28.284  1.00  0.00    -0.354 N 
ATOM     55  N   UNL A   1      43.346  29.236  28.866  1.00  0.00    -0.248 NA
ATOM     56  C   UNL A   1      41.660  30.726  29.492  1.00  0.00     0.031 C 
ATOM     57  C   UNL A   1      47.626  30.347  28.421  1.00  0.00     0.029 A 
ATOM     58  C   UNL A   1      46.283  30.030  28.551  1.00  0.00     0.049 A 
ATOM     59  H   UNL A   1      45.330  28.163  28.312  1.00  0.00     0.167 HD
ATOM     60  C   UNL A   1      43.894  30.502  29.023  1.00  0.00     0.074 A 
ATOM     61  C   UNL A   1      42.803  31.387  29.374  1.00  0.00     0.031 C 
ATOM     62  C   UNL A   1      45.184  30.897  28.889  1.00  0.00     0.037 A 
BRANCH  49  63
ATOM     63  C   UNL A   1      49.066  26.330  27.364  1.00  0.00     0.057 A 
ATOM     64  C   UNL A   1      49.923  25.903  28.387  1.00  0.00     0.134 A 
ATOM     65  C   UNL A   1      49.568  26.323  26.057  1.00  0.00     0.134 A 
ATOM     66  F   UNL A   1      49.511  25.900  29.664  1.00  0.00    -0.206 F 
ATOM     67  C   UNL A   1      51.240  25.516  28.125  1.00  0.00     0.040 A 
ATOM     68  C   UNL A   1      50.872  25.910  25.779  1.00  0.00     0.040 A 
ATOM     69  F   UNL A   1      48.800  26.716  25.029  1.00  0.00    -0.206 F 
ATOM     70  C   UNL A   1      51.715  25.514  26.815  1.00  0.00     0.006 A 
ENDBRANCH  49  63
BRANCH  50  71
ATOM     71  C   UNL A   1      39.565  28.698  29.335  1.00  0.00     0.057 A 
ATOM     72  C   UNL A   1      39.034  28.562  30.623  1.00  0.00     0.134 A 
ATOM     73  C   UNL A   1      38.716  29.181  28.334  1.00  0.00     0.134 A 
ATOM     74  F   UNL A   1      39.796  28.091  31.622  1.00  0.00    -0.206 F 
ATOM     75  C   UNL A   1      37.701  28.868  30.901  1.00  0.00     0.040 A 
ATOM     76  C   UNL A   1      37.387  29.514  28.603  1.00  0.00     0.040 A 
ATOM     77  F   UNL A   1      39.168  29.343  27.082  1.00  0.00    -0.206 F 
ATOM     78  C   UNL A   1      36.874  29.349  29.888  1.00  0.00     0.006 A 
ENDBRANCH  50  71
BRANCH  62  79
ATOM     79  C   UNL A   1      45.471  32.359  29.074  1.00  0.00     0.057 A 
ATOM     80  C   UNL A   1      45.402  33.270  28.012  1.00  0.00     0.134 A 
ATOM     81  C   UNL A   1      45.808  32.861  30.337  1.00  0.00     0.134 A 
ATOM     82  F   UNL A   1      45.097  32.851  26.774  1.00  0.00    -0.206 F 
ATOM     83  C   UNL A   1      45.694  34.623  28.194  1.00  0.00     0.040 A 
ATOM     84  C   UNL A   1      46.073  34.216  30.536  1.00  0.00     0.040 A 
ATOM     85  F   UNL A   1      45.881  32.044  31.399  1.00  0.00    -0.206 F 
ATOM     86  C   UNL A   1      46.026  35.099  29.460  1.00  0.00     0.006 A 
ENDBRANCH  62  79
ENDBRANCH  36  37
ENDBRANCH  28  31
ENDBRANCH  26  27
ENDBRANCH  25  26
ENDBRANCH  24  25
ENDBRANCH   1  24
TORSDOF 15
ENDMDL
MODEL 2
REMARK VINA RESULT:     -11.3      1.679      2.340
REMARK SMILES C[NH2+]C[C@H](C)C(=O)N1CCc2cc(C(=O)NCCCCNC(=O)c3ccc(-c4c5nc(c(-c6c(F)cccc6F)c6ccc([nH]6)c(-c6c(F)cccc6F)c6nc(c(-c7c(F)cccc7F)c7ccc4[nH]7)C=C6)C=C5)cc3)ccc21
REMARK SMILES IDX 17 1 16 2 14 3 15 4 13 6 8 7 9 8 80 9 10 10 11 11 79 12
REMARK SMILES IDX 12 13 78 14 6 15 7 16 4 17 5 18 3 19 2 20 1 21 18 24 19 25
REMARK SMILES IDX 20 26 21 27 22 28 23 30 24 31 25 32 77 33 26 34 76 35 27 36
REMARK SMILES IDX 28 37 29 38 70 39 30 40 75 41 69 42 71 43 31 44 74 45 68 46
REMARK SMILES IDX 67 47 32 49 58 50 41 51 57 52 42 53 45 54 56 55 72 56 43 57
REMARK SMILES IDX 44 58 55 60 73 61 46 62 33 63 34 64 39 65 35 66 36 67 38 68
REMARK SMILES IDX 40 69 37 70 59 71 60 72 65 73 61 74 62 75 64 76 66 77 63 78
REMARK SMILES IDX 47 79 48 80 53 81 49 82 50 83 52 84 54 85 51 86
REMARK H PARENT 16 5 2 22 2 23 21 29 71 48 45 59
REMARK Flexibility Score: inf
ROOT
ATOM      1  C   UNL A   1      37.709  23.190  25.804  1.00  0.00     0.116 C 
ENDROOT
BRANCH   1   2
ATOM      2  N   UNL A   1      37.514  22.975  24.384  1.00  0.00    -0.352 N 
ATOM      3  C   UNL A   1      36.403  23.116  23.586  1.00  0.00     0.251 C 
ATOM      4  O   UNL A   1      36.535  22.934  22.377  1.00  0.00    -0.269 OA
ATOM      5  H   UNL A   1      38.319  22.675  23.905  1.00  0.00     0.163 HD
BRANCH   3   6
ATOM      6  C   UNL A   1      35.070  23.525  24.119  1.00  0.00     0.040 A 
ATOM      7  N   UNL A   1      31.168  24.312  25.366  1.00  0.00    -0.311 N 
ATOM      8  C   UNL A   1      30.727  22.982  25.808  1.00  0.00     0.130 C 
ATOM      9  C   UNL A   1      32.501  24.214  24.970  1.00  0.00     0.047 A 
ATOM     10  C   UNL A   1      31.782  21.972  25.327  1.00  0.00     0.059 C 
ATOM     11  C   UNL A   1      32.873  22.877  24.847  1.00  0.00    -0.022 A 
ATOM     12  C   UNL A   1      33.445  25.203  24.845  1.00  0.00     0.027 A 
ATOM     13  C   UNL A   1      34.134  22.516  24.387  1.00  0.00     0.019 A 
ATOM     14  C   UNL A   1      34.732  24.849  24.435  1.00  0.00     0.016 A 
BRANCH   7  15
ATOM     15  C   UNL A   1      30.372  25.419  25.535  1.00  0.00     0.235 C 
ATOM     16  O   UNL A   1      29.790  25.607  26.610  1.00  0.00    -0.274 OA
BRANCH  15  17
ATOM     17  C   UNL A   1      29.986  26.290  24.322  1.00  0.00     0.131 C 
ATOM     18  C   UNL A   1      28.502  26.427  24.011  1.00  0.00     0.024 C 
BRANCH  17  19
ATOM     19  C   UNL A   1      30.666  27.674  24.320  1.00  0.00     0.273 C 
BRANCH  19  20
ATOM     20  N   UNL A   1      31.409  28.075  25.519  1.00  0.00    -0.348 N 
ATOM     21  C   UNL A   1      32.595  28.873  25.235  1.00  0.00     0.330 C 
ATOM     22  H   UNL A   1      30.788  28.623  26.115  1.00  0.00     0.346 HD
ATOM     23  H   UNL A   1      31.729  27.219  25.971  1.00  0.00     0.346 HD
ENDBRANCH  19  20
ENDBRANCH  17  19
ENDBRANCH  15  17
ENDBRANCH   7  15
ENDBRANCH   3   6
ENDBRANCH   1   2
BRANCH   1  24
ATOM     24  C   UNL A   1      38.863  22.336  26.336  1.00  0.00     0.023 C 
BRANCH  24  25
ATOM     25  C   UNL A   1      39.101  21.034  25.572  1.00  0.00     0.023 C 
BRANCH  25  26
ATOM     26  C   UNL A   1      39.631  19.888  26.418  1.00  0.00     0.116 C 
BRANCH  26  27
ATOM     27  N   UNL A   1      40.807  19.248  25.850  1.00  0.00    -0.352 N 
ATOM     28  C   UNL A   1      42.092  19.734  25.773  1.00  0.00     0.251 C 
ATOM     29  H   UNL A   1      40.667  18.351  25.472  1.00  0.00     0.163 HD
ATOM     30  O   UNL A   1      42.953  19.111  25.169  1.00  0.00    -0.269 OA
BRANCH  28  31
ATOM     31  C   UNL A   1      42.409  21.039  26.390  1.00  0.00     0.039 A 
ATOM     32  C   UNL A   1      42.696  22.121  25.556  1.00  0.00     0.014 A 
ATOM     33  C   UNL A   1      42.403  21.200  27.779  1.00  0.00     0.014 A 
ATOM     34  C   UNL A   1      42.926  23.378  26.115  1.00  0.00     0.010 A 
ATOM     35  C   UNL A   1      42.548  22.468  28.329  1.00  0.00     0.010 A 
ATOM     36  C   UNL A   1      42.826  23.567  27.504  1.00  0.00    -0.014 A 
BRANCH  36  37
ATOM     37  C   UNL A   1      43.041  24.906  28.104  1.00  0.00     0.031 A 
ATOM     38  C   UNL A   1      44.424  25.338  28.508  1.00  0.00     0.074 A 
ATOM     39  C   UNL A   1      41.988  25.717  28.315  1.00  0.00     0.049 A 
ATOM     40  N   UNL A   1      44.815  26.471  29.035  1.00  0.00    -0.248 NA
ATOM     41  C   UNL A   1      45.507  24.360  28.319  1.00  0.00     0.031 C 
ATOM     42  C   UNL A   1      40.592  25.388  28.023  1.00  0.00     0.029 A 
ATOM     43  N   UNL A   1      41.930  26.990  28.821  1.00  0.00    -0.354 N 
ATOM     44  C   UNL A   1      46.181  26.337  29.245  1.00  0.00     0.074 A 
ATOM     45  C   UNL A   1      46.540  24.992  28.853  1.00  0.00     0.031 C 
ATOM     46  C   UNL A   1      39.820  26.447  28.317  1.00  0.00     0.029 A 
ATOM     47  C   UNL A   1      40.662  27.518  28.840  1.00  0.00     0.049 A 
ATOM     48  H   UNL A   1      42.723  27.480  29.140  1.00  0.00     0.167 HD
ATOM     49  C   UNL A   1      47.065  27.260  29.693  1.00  0.00     0.037 A 
ATOM     50  C   UNL A   1      40.232  28.734  29.224  1.00  0.00     0.037 A 
ATOM     51  C   UNL A   1      46.708  28.604  30.063  1.00  0.00     0.049 A 
ATOM     52  C   UNL A   1      41.235  29.747  29.703  1.00  0.00     0.074 A 
ATOM     53  C   UNL A   1      47.532  29.630  30.490  1.00  0.00     0.029 A 
ATOM     54  N   UNL A   1      45.416  29.108  30.048  1.00  0.00    -0.354 N 
ATOM     55  N   UNL A   1      42.535  29.632  29.830  1.00  0.00    -0.248 NA
ATOM     56  C   UNL A   1      40.709  31.068  30.075  1.00  0.00     0.031 C 
ATOM     57  C   UNL A   1      46.734  30.746  30.766  1.00  0.00     0.029 A 
ATOM     58  C   UNL A   1      45.418  30.428  30.466  1.00  0.00     0.049 A 
ATOM     59  H   UNL A   1      44.615  28.602  29.779  1.00  0.00     0.167 HD
ATOM     60  C   UNL A   1      42.986  30.872  30.262  1.00  0.00     0.074 A 
ATOM     61  C   UNL A   1      41.821  31.728  30.362  1.00  0.00     0.031 C 
ATOM     62  C   UNL A   1      44.250  31.268  30.549  1.00  0.00     0.037 A 
BRANCH  49  63
ATOM     63  C   UNL A   1      48.503  26.841  29.794  1.00  0.00     0.057 A 
ATOM     64  C   UNL A   1      49.017  26.247  30.955  1.00  0.00     0.134 A 
ATOM     65  C   UNL A   1      49.381  27.019  28.718  1.00  0.00     0.134 A 
ATOM     66  F   UNL A   1      48.234  26.061  32.028  1.00  0.00    -0.206 F 
ATOM     67  C   UNL A   1      50.360  25.876  31.054  1.00  0.00     0.040 A 
ATOM     68  C   UNL A   1      50.718  26.626  28.795  1.00  0.00     0.040 A 
ATOM     69  F   UNL A   1      48.955  27.578  27.575  1.00  0.00    -0.206 F 
ATOM     70  C   UNL A   1      51.213  26.061  29.968  1.00  0.00     0.006 A 
ENDBRANCH  49  63
BRANCH  50  71
ATOM     71  C   UNL A   1      38.793  29.083  29.119  1.00  0.00     0.057 A 
ATOM     72  C   UNL A   1      38.243  29.503  27.902  1.00  0.00     0.134 A 
ATOM     73  C   UNL A   1      37.940  29.016  30.225  1.00  0.00     0.134 A 
ATOM     74  F   UNL A   1      39.015  29.601  26.809  1.00  0.00    -0.206 F 
ATOM     75  C   UNL A   1      36.901  29.869  27.794  1.00  0.00     0.040 A 
ATOM     76  C   UNL A   1      36.589  29.356  30.126  1.00  0.00     0.040 A 
ATOM     77  F   UNL A   1      38.405  28.612  31.416  1.00  0.00    -0.206 F 
ATOM     78  C   UNL A   1      36.069  29.792  28.909  1.00  0.00     0.006 A 
ENDBRANCH  50  71
BRANCH  62  79
ATOM     79  C   UNL A   1      44.440  32.702  30.950  1.00  0.00     0.057 A 
ATOM     80  C   UNL A   1      44.403  33.110  32.290  1.00  0.00     0.134 A 
ATOM     81  C   UNL A   1      44.676  33.684  29.981  1.00  0.00     0.134 A 
ATOM     82  F   UNL A   1      44.168  32.219  33.266  1.00  0.00    -0.206 F 
ATOM     83  C   UNL A   1      44.558  34.450  32.648  1.00  0.00     0.040 A 
ATOM     84  C   UNL A   1      44.862  35.023  30.329  1.00  0.00     0.040 A 
ATOM     85  F   UNL A   1      44.735  33.360  28.680  1.00  0.00    -0.206 F 
ATOM     86  C   UNL A   1      44.793  35.410  31.665  1.00  0.00     0.006 A 
ENDBRANCH  62  79
ENDBRANCH  36  37
ENDBRANCH  28  31
ENDBRANCH  26  27
ENDBRANCH  25  26
ENDBRANCH  24  25
ENDBRANCH   1  24
TORSDOF 15
ENDMDL
MODEL 3
REMARK VINA RESULT:     -11.2      6.158     11.077
REMARK SMILES C[NH2+]C[C@H](C)C(=O)N1CCc2cc(C(=O)NCCCCNC(=O)c3ccc(-c4c5nc(c(-c6c(F)cccc6F)c6ccc([nH]6)c(-c6c(F)cccc6F)c6nc(c(-c7c(F)cccc7F)c7ccc4[nH]7)C=C6)C=C5)cc3)ccc21
REMARK SMILES IDX 17 1 16 2 14 3 15 4 13 6 8 7 9 8 80 9 10 10 11 11 79 12
REMARK SMILES IDX 12 13 78 14 6 15 7 16 4 17 5 18 3 19 2 20 1 21 18 24 19 25
REMARK SMILES IDX 20 26 21 27 22 28 23 30 24 31 25 32 77 33 26 34 76 35 27 36
REMARK SMILES IDX 28 37 29 38 70 39 30 40 75 41 69 42 71 43 31 44 74 45 68 46
REMARK SMILES IDX 67 47 32 49 58 50 41 51 57 52 42 53 45 54 56 55 72 56 43 57
REMARK SMILES IDX 44 58 55 60 73 61 46 62 33 63 34 64 39 65 35 66 36 67 38 68
REMARK SMILES IDX 40 69 37 70 59 71 60 72 65 73 61 74 62 75 64 76 66 77 63 78
REMARK SMILES IDX 47 79 48 80 53 81 49 82 50 83 52 84 54 85 51 86
REMARK H PARENT 16 5 2 22 2 23 21 29 71 48 45 59
REMARK Flexibility Score: inf
ROOT
ATOM      1  C   UNL A   1      33.725  32.314  28.004  1.00  0.00     0.116 C 
ENDROOT
BRANCH   1   2
ATOM      2  N   UNL A   1      34.632  31.223  28.298  1.00  0.00    -0.352 N 
ATOM      3  C   UNL A   1      34.694  29.936  27.818  1.00  0.00     0.251 C 
ATOM      4  O   UNL A   1      35.628  29.226  28.189  1.00  0.00    -0.269 OA
ATOM      5  H   UNL A   1      35.328  31.441  28.959  1.00  0.00     0.163 HD
BRANCH   3   6
ATOM      6  C   UNL A   1      33.712  29.391  26.836  1.00  0.00     0.040 A 
ATOM      7  N   UNL A   1      31.169  28.140  23.774  1.00  0.00    -0.311 N 
ATOM      8  C   UNL A   1      32.129  27.819  22.709  1.00  0.00     0.130 C 
ATOM      9  C   UNL A   1      31.892  28.523  24.903  1.00  0.00     0.047 A 
ATOM     10  C   UNL A   1      33.495  28.368  23.150  1.00  0.00     0.059 C 
ATOM     11  C   UNL A   1      33.225  28.753  24.570  1.00  0.00    -0.022 A 
ATOM     12  C   UNL A   1      31.499  28.549  26.219  1.00  0.00     0.027 A 
ATOM     13  C   UNL A   1      34.135  29.224  25.510  1.00  0.00     0.019 A 
ATOM     14  C   UNL A   1      32.419  28.968  27.182  1.00  0.00     0.016 A 
BRANCH   7  15
ATOM     15  C   UNL A   1      29.827  27.889  23.623  1.00  0.00     0.235 C 
ATOM     16  O   UNL A   1      29.373  26.765  23.870  1.00  0.00    -0.274 OA
BRANCH  15  17
ATOM     17  C   UNL A   1      28.923  28.911  22.903  1.00  0.00     0.131 C 
ATOM     18  C   UNL A   1      27.419  28.751  23.081  1.00  0.00     0.024 C 
BRANCH  17  19
ATOM     19  C   UNL A   1      29.341  30.376  23.144  1.00  0.00     0.273 C 
BRANCH  19  20
ATOM     20  N   UNL A   1      29.591  31.219  21.970  1.00  0.00    -0.348 N 
ATOM     21  C   UNL A   1      28.465  32.070  21.608  1.00  0.00     0.330 C 
ATOM     22  H   UNL A   1      30.394  31.816  22.168  1.00  0.00     0.346 HD
ATOM     23  H   UNL A   1      29.756  30.593  21.183  1.00  0.00     0.346 HD
ENDBRANCH  19  20
ENDBRANCH  17  19
ENDBRANCH  15  17
ENDBRANCH   7  15
ENDBRANCH   3   6
ENDBRANCH   1   2
BRANCH   1  24
ATOM     24  C   UNL A   1      34.104  33.572  28.792  1.00  0.00     0.023 C 
BRANCH  24  25
ATOM     25  C   UNL A   1      33.065  34.691  28.748  1.00  0.00     0.023 C 
BRANCH  25  26
ATOM     26  C   UNL A   1      33.389  35.895  29.617  1.00  0.00     0.116 C 
BRANCH  26  27
ATOM     27  N   UNL A   1      32.470  36.067  30.730  1.00  0.00    -0.352 N 
ATOM     28  C   UNL A   1      32.610  35.637  32.029  1.00  0.00     0.251 C 
ATOM     29  H   UNL A   1      31.640  36.555  30.529  1.00  0.00     0.163 HD
ATOM     30  O   UNL A   1      31.693  35.772  32.828  1.00  0.00    -0.269 OA
BRANCH  28  31
ATOM     31  C   UNL A   1      33.863  34.969  32.439  1.00  0.00     0.039 A 
ATOM     32  C   UNL A   1      33.799  33.653  32.899  1.00  0.00     0.014 A 
ATOM     33  C   UNL A   1      35.093  35.626  32.348  1.00  0.00     0.014 A 
ATOM     34  C   UNL A   1      34.977  32.978  33.221  1.00  0.00     0.010 A 
ATOM     35  C   UNL A   1      36.270  34.927  32.587  1.00  0.00     0.010 A 
ATOM     36  C   UNL A   1      36.223  33.601  33.041  1.00  0.00    -0.014 A 
BRANCH  36  37
ATOM     37  C   UNL A   1      37.482  32.882  33.354  1.00  0.00     0.031 A 
ATOM     38  C   UNL A   1      38.223  33.177  34.628  1.00  0.00     0.074 A 
ATOM     39  C   UNL A   1      37.974  31.989  32.475  1.00  0.00     0.049 A 
ATOM     40  N   UNL A   1      39.330  32.647  35.083  1.00  0.00    -0.248 NA
ATOM     41  C   UNL A   1      37.661  34.227  35.495  1.00  0.00     0.031 C 
ATOM     42  C   UNL A   1      37.380  31.661  31.177  1.00  0.00     0.029 A 
ATOM     43  N   UNL A   1      39.085  31.188  32.543  1.00  0.00    -0.354 N 
ATOM     44  C   UNL A   1      39.597  33.300  36.279  1.00  0.00     0.074 A 
ATOM     45  C   UNL A   1      38.577  34.311  36.446  1.00  0.00     0.031 C 
ATOM     46  C   UNL A   1      38.112  30.698  30.590  1.00  0.00     0.029 A 
ATOM     47  C   UNL A   1      39.236  30.361  31.457  1.00  0.00     0.049 A 
ATOM     48  H   UNL A   1      39.715  31.205  33.300  1.00  0.00     0.167 HD
ATOM     49  C   UNL A   1      40.583  33.058  37.175  1.00  0.00     0.037 A 
ATOM     50  C   UNL A   1      40.169  29.427  31.199  1.00  0.00     0.037 A 
ATOM     51  C   UNL A   1      41.585  32.038  37.016  1.00  0.00     0.049 A 
ATOM     52  C   UNL A   1      41.246  29.166  32.216  1.00  0.00     0.074 A 
ATOM     53  C   UNL A   1      42.603  31.683  37.883  1.00  0.00     0.029 A 
ATOM     54  N   UNL A   1      41.691  31.205  35.913  1.00  0.00    -0.354 N 
ATOM     55  N   UNL A   1      41.446  29.742  33.377  1.00  0.00    -0.248 NA
ATOM     56  C   UNL A   1      42.215  28.111  31.893  1.00  0.00     0.031 C 
ATOM     57  C   UNL A   1      43.347  30.658  37.288  1.00  0.00     0.029 A 
ATOM     58  C   UNL A   1      42.763  30.342  36.072  1.00  0.00     0.049 A 
ATOM     59  H   UNL A   1      41.093  31.223  35.131  1.00  0.00     0.167 HD
ATOM     60  C   UNL A   1      42.541  29.097  33.938  1.00  0.00     0.074 A 
ATOM     61  C   UNL A   1      42.951  28.077  32.994  1.00  0.00     0.031 C 
ATOM     62  C   UNL A   1      43.150  29.327  35.126  1.00  0.00     0.037 A 
BRANCH  49  63
ATOM     63  C   UNL A   1      40.612  33.912  38.410  1.00  0.00     0.057 A 
ATOM     64  C   UNL A   1      39.866  33.583  39.550  1.00  0.00     0.134 A 
ATOM     65  C   UNL A   1      41.401  35.067  38.468  1.00  0.00     0.134 A 
ATOM     66  F   UNL A   1      39.076  32.499  39.557  1.00  0.00    -0.206 F 
ATOM     67  C   UNL A   1      39.877  34.390  40.690  1.00  0.00     0.040 A 
ATOM     68  C   UNL A   1      41.445  35.865  39.612  1.00  0.00     0.040 A 
ATOM     69  F   UNL A   1      42.144  35.438  37.413  1.00  0.00    -0.206 F 
ATOM     70  C   UNL A   1      40.674  35.532  40.724  1.00  0.00     0.006 A 
ENDBRANCH  49  63
BRANCH  50  71
ATOM     71  C   UNL A   1      40.098  28.628  29.950  1.00  0.00     0.057 A 
ATOM     72  C   UNL A   1      40.770  29.040  28.794  1.00  0.00     0.134 A 
ATOM     73  C   UNL A   1      39.352  27.446  29.877  1.00  0.00     0.134 A 
ATOM     74  F   UNL A   1      41.488  30.173  28.798  1.00  0.00    -0.206 F 
ATOM     75  C   UNL A   1      40.684  28.320  27.601  1.00  0.00     0.040 A 
ATOM     76  C   UNL A   1      39.277  26.703  28.698  1.00  0.00     0.040 A 
ATOM     77  F   UNL A   1      38.694  26.993  30.954  1.00  0.00    -0.206 F 
ATOM     78  C   UNL A   1      39.938  27.145  27.553  1.00  0.00     0.006 A 
ENDBRANCH  50  71
BRANCH  62  79
ATOM     79  C   UNL A   1      44.294  28.425  35.490  1.00  0.00     0.057 A 
ATOM     80  C   UNL A   1      44.103  27.232  36.201  1.00  0.00     0.134 A 
ATOM     81  C   UNL A   1      45.602  28.750  35.111  1.00  0.00     0.134 A 
ATOM     82  F   UNL A   1      42.876  26.870  36.604  1.00  0.00    -0.206 F 
ATOM     83  C   UNL A   1      45.179  26.415  36.552  1.00  0.00     0.040 A 
ATOM     84  C   UNL A   1      46.681  27.925  35.432  1.00  0.00     0.040 A 
ATOM     85  F   UNL A   1      45.853  29.873  34.420  1.00  0.00    -0.206 F 
ATOM     86  C   UNL A   1      46.471  26.759  36.163  1.00  0.00     0.006 A 
ENDBRANCH  62  79
ENDBRANCH  36  37
ENDBRANCH  28  31
ENDBRANCH  26  27
ENDBRANCH  25  26
ENDBRANCH  24  25
ENDBRANCH   1  24
TORSDOF 15
ENDMDL
