MODEL 1
REMARK VINA RESULT:     -10.4      0.000      0.000
REMARK SMILES CCOC(=O)CN(C)C(=O)N1CC[C@H](C(=O)NCCCCNC(=O)c2ccc(-c3c4nc(c(-c5c(F)cccc5F)c5ccc([nH]5)c(-c5c(F)cccc5F)c5nc(c(-c6c(F)cccc6F)c6ccc3[nH]6)C=C5)C=C4)cc2)[C@H]1C
REMARK SMILES IDX 15 1 16 2 17 3 14 5 11 6 12 7 79 8 13 9 80 10 9 11 10 12
REMARK SMILES IDX 7 13 8 14 6 15 4 16 5 17 3 18 2 19 1 20 18 21 19 22 20 23
REMARK SMILES IDX 21 24 22 25 23 26 24 28 25 29 26 30 78 31 27 32 77 33 28 34
REMARK SMILES IDX 29 35 30 36 71 37 31 38 76 39 70 40 72 41 32 42 75 43 69 44
REMARK SMILES IDX 68 45 33 47 59 48 42 49 58 50 43 51 46 52 57 53 73 54 44 55
REMARK SMILES IDX 45 56 56 58 74 59 47 60 34 61 35 62 40 63 36 64 37 65 39 66
REMARK SMILES IDX 41 67 38 68 60 69 61 70 66 71 62 72 63 73 65 74 67 75 64 76
REMARK SMILES IDX 48 77 49 78 54 79 50 80 51 81 53 82 55 83 52 84
REMARK H PARENT 17 4 22 27 72 46 46 57
REMARK Flexibility Score: inf
ROOT
ATOM      1  C   UNL A   1      33.971  23.685  26.278  1.00  0.00     0.225 C 
ATOM      2  O   UNL A   1      32.936  23.391  26.871  1.00  0.00    -0.275 OA
ATOM      3  N   UNL A   1      34.982  22.762  26.239  1.00  0.00    -0.356 N 
ATOM      4  H   UNL A   1      34.763  21.884  26.625  1.00  0.00     0.163 HD
ENDROOT
BRANCH   1   5
ATOM      5  C   UNL A   1      34.197  25.031  25.609  1.00  0.00     0.102 C 
ATOM      6  N   UNL A   1      32.085  26.012  25.068  1.00  0.00    -0.321 N 
ATOM      7  C   UNL A   1      32.480  25.149  23.966  1.00  0.00     0.122 C 
ATOM      8  C   UNL A   1      33.189  26.126  26.048  1.00  0.00     0.096 C 
ATOM      9  C   UNL A   1      33.975  24.958  24.096  1.00  0.00     0.037 C 
ATOM     10  C   UNL A   1      33.934  27.469  25.985  1.00  0.00     0.032 C 
BRANCH   6  11
ATOM     11  C   UNL A   1      30.727  26.084  25.306  1.00  0.00     0.320 C 
ATOM     12  O   UNL A   1      30.235  25.502  26.280  1.00  0.00    -0.248 OA
BRANCH  11  13
ATOM     13  N   UNL A   1      29.904  26.764  24.438  1.00  0.00    -0.317 N 
ATOM     14  C   UNL A   1      28.573  26.356  24.053  1.00  0.00     0.149 C 
BRANCH  13  15
ATOM     15  C   UNL A   1      30.262  28.163  24.173  1.00  0.00     0.243 C 
BRANCH  15  16
ATOM     16  C   UNL A   1      29.769  28.732  22.835  1.00  0.00     0.325 C 
ATOM     17  O   UNL A   1      30.257  28.410  21.755  1.00  0.00    -0.250 OA
BRANCH  16  18
ATOM     18  O   UNL A   1      28.719  29.588  22.984  1.00  0.00    -0.465 OA
BRANCH  18  19
ATOM     19  C   UNL A   1      28.889  30.902  22.433  1.00  0.00     0.229 C 
ATOM     20  C   UNL A   1      28.735  31.937  23.533  1.00  0.00     0.049 C 
ENDBRANCH  18  19
ENDBRANCH  16  18
ENDBRANCH  15  16
ENDBRANCH  13  15
ENDBRANCH  11  13
ENDBRANCH   6  11
ENDBRANCH   1   5
BRANCH   3  21
ATOM     21  C   UNL A   1      36.329  22.891  25.710  1.00  0.00     0.116 C 
BRANCH  21  22
ATOM     22  C   UNL A   1      36.543  22.032  24.465  1.00  0.00     0.023 C 
BRANCH  22  23
ATOM     23  C   UNL A   1      37.398  20.782  24.681  1.00  0.00     0.023 C 
BRANCH  23  24
ATOM     24  C   UNL A   1      38.540  20.936  25.682  1.00  0.00     0.116 C 
BRANCH  24  25
ATOM     25  N   UNL A   1      39.492  19.836  25.632  1.00  0.00    -0.352 N 
ATOM     26  C   UNL A   1      40.825  19.830  25.972  1.00  0.00     0.251 C 
ATOM     27  H   UNL A   1      39.133  18.978  25.310  1.00  0.00     0.163 HD
ATOM     28  O   UNL A   1      41.516  18.842  25.748  1.00  0.00    -0.269 OA
BRANCH  26  29
ATOM     29  C   UNL A   1      41.434  21.035  26.577  1.00  0.00     0.039 A 
ATOM     30  C   UNL A   1      41.966  22.019  25.741  1.00  0.00     0.014 A 
ATOM     31  C   UNL A   1      41.455  21.204  27.964  1.00  0.00     0.014 A 
ATOM     32  C   UNL A   1      42.441  23.213  26.289  1.00  0.00     0.010 A 
ATOM     33  C   UNL A   1      41.866  22.420  28.503  1.00  0.00     0.010 A 
ATOM     34  C   UNL A   1      42.352  23.441  27.672  1.00  0.00    -0.014 A 
BRANCH  34  35
ATOM     35  C   UNL A   1      42.738  24.741  28.278  1.00  0.00     0.031 A 
ATOM     36  C   UNL A   1      41.702  25.805  28.497  1.00  0.00     0.074 A 
ATOM     37  C   UNL A   1      44.037  25.006  28.523  1.00  0.00     0.049 A 
ATOM     38  N   UNL A   1      41.859  27.053  28.858  1.00  0.00    -0.248 NA
ATOM     39  C   UNL A   1      40.304  25.422  28.246  1.00  0.00     0.031 C 
ATOM     40  C   UNL A   1      45.146  24.074  28.313  1.00  0.00     0.029 A 
ATOM     41  N   UNL A   1      44.646  26.152  28.973  1.00  0.00    -0.354 N 
ATOM     42  C   UNL A   1      40.588  27.612  28.847  1.00  0.00     0.074 A 
ATOM     43  C   UNL A   1      39.675  26.577  28.410  1.00  0.00     0.031 C 
ATOM     44  C   UNL A   1      46.299  24.684  28.633  1.00  0.00     0.029 A 
ATOM     45  C   UNL A   1      46.016  26.061  29.026  1.00  0.00     0.049 A 
ATOM     46  H   UNL A   1      44.148  26.960  29.233  1.00  0.00     0.167 HD
ATOM     47  C   UNL A   1      40.215  28.870  29.181  1.00  0.00     0.037 A 
ATOM     48  C   UNL A   1      46.944  26.989  29.333  1.00  0.00     0.037 A 
ATOM     49  C   UNL A   1      41.121  29.886  29.648  1.00  0.00     0.049 A 
ATOM     50  C   UNL A   1      46.506  28.378  29.704  1.00  0.00     0.074 A 
ATOM     51  C   UNL A   1      40.827  31.164  30.091  1.00  0.00     0.029 A 
ATOM     52  N   UNL A   1      42.497  29.742  29.727  1.00  0.00    -0.354 N 
ATOM     53  N   UNL A   1      45.294  28.873  29.757  1.00  0.00    -0.248 NA
ATOM     54  C   UNL A   1      47.563  29.336  30.059  1.00  0.00     0.031 C 
ATOM     55  C   UNL A   1      42.029  31.809  30.396  1.00  0.00     0.029 A 
ATOM     56  C   UNL A   1      43.069  30.917  30.187  1.00  0.00     0.049 A 
ATOM     57  H   UNL A   1      42.995  28.926  29.491  1.00  0.00     0.167 HD
ATOM     58  C   UNL A   1      45.439  30.190  30.177  1.00  0.00     0.074 A 
ATOM     59  C   UNL A   1      46.856  30.415  30.369  1.00  0.00     0.031 C 
ATOM     60  C   UNL A   1      44.481  31.124  30.387  1.00  0.00     0.037 A 
BRANCH  47  61
ATOM     61  C   UNL A   1      38.762  29.220  29.047  1.00  0.00     0.057 A 
ATOM     62  C   UNL A   1      38.198  29.589  27.819  1.00  0.00     0.134 A 
ATOM     63  C   UNL A   1      37.910  29.160  30.157  1.00  0.00     0.134 A 
ATOM     64  F   UNL A   1      38.962  29.675  26.719  1.00  0.00    -0.206 F 
ATOM     65  C   UNL A   1      36.845  29.913  27.706  1.00  0.00     0.040 A 
ATOM     66  C   UNL A   1      36.550  29.456  30.051  1.00  0.00     0.040 A 
ATOM     67  F   UNL A   1      38.384  28.808  31.362  1.00  0.00    -0.206 F 
ATOM     68  C   UNL A   1      36.016  29.840  28.823  1.00  0.00     0.006 A 
ENDBRANCH  47  61
BRANCH  48  69
ATOM     69  C   UNL A   1      48.383  26.627  29.303  1.00  0.00     0.057 A 
ATOM     70  C   UNL A   1      49.165  26.876  28.170  1.00  0.00     0.134 A 
ATOM     71  C   UNL A   1      49.012  26.040  30.407  1.00  0.00     0.134 A 
ATOM     72  F   UNL A   1      48.614  27.419  27.075  1.00  0.00    -0.206 F 
ATOM     73  C   UNL A   1      50.520  26.542  28.130  1.00  0.00     0.040 A 
ATOM     74  C   UNL A   1      50.371  25.723  30.389  1.00  0.00     0.040 A 
ATOM     75  F   UNL A   1      48.319  25.784  31.526  1.00  0.00    -0.206 F 
ATOM     76  C   UNL A   1      51.129  25.969  29.246  1.00  0.00     0.006 A 
ENDBRANCH  48  69
BRANCH  60  77
ATOM     77  C   UNL A   1      44.920  32.468  30.886  1.00  0.00     0.057 A 
ATOM     78  C   UNL A   1      45.200  33.526  30.014  1.00  0.00     0.134 A 
ATOM     79  C   UNL A   1      44.990  32.725  32.262  1.00  0.00     0.134 A 
ATOM     80  F   UNL A   1      45.162  33.339  28.686  1.00  0.00    -0.206 F 
ATOM     81  C   UNL A   1      45.542  34.792  30.492  1.00  0.00     0.040 A 
ATOM     82  C   UNL A   1      45.308  33.992  32.751  1.00  0.00     0.040 A 
ATOM     83  F   UNL A   1      44.726  31.756  33.150  1.00  0.00    -0.206 F 
ATOM     84  C   UNL A   1      45.586  35.030  31.864  1.00  0.00     0.006 A 
ENDBRANCH  60  77
ENDBRANCH  34  35
ENDBRANCH  26  29
ENDBRANCH  24  25
ENDBRANCH  23  24
ENDBRANCH  22  23
ENDBRANCH  21  22
ENDBRANCH   3  21
TORSDOF 17
ENDMDL
MODEL 2
REMARK VINA RESULT:     -10.3      1.567      2.432
REMARK SMILES CCOC(=O)CN(C)C(=O)N1CC[C@H](C(=O)NCCCCNC(=O)c2ccc(-c3c4nc(c(-c5c(F)cccc5F)c5ccc([nH]5)c(-c5c(F)cccc5F)c5nc(c(-c6c(F)cccc6F)c6ccc3[nH]6)C=C5)C=C4)cc2)[C@H]1C
REMARK SMILES IDX 15 1 16 2 17 3 14 5 11 6 12 7 79 8 13 9 80 10 9 11 10 12
REMARK SMILES IDX 7 13 8 14 6 15 4 16 5 17 3 18 2 19 1 20 18 21 19 22 20 23
REMARK SMILES IDX 21 24 22 25 23 26 24 28 25 29 26 30 78 31 27 32 77 33 28 34
REMARK SMILES IDX 29 35 30 36 71 37 31 38 76 39 70 40 72 41 32 42 75 43 69 44
REMARK SMILES IDX 68 45 33 47 59 48 42 49 58 50 43 51 46 52 57 53 73 54 44 55
REMARK SMILES IDX 45 56 56 58 74 59 47 60 34 61 35 62 40 63 36 64 37 65 39 66
REMARK SMILES IDX 41 67 38 68 60 69 61 70 66 71 62 72 63 73 65 74 67 75 64 76
REMARK SMILES IDX 48 77 49 78 54 79 50 80 51 81 53 82 55 83 52 84
REMARK H PARENT 17 4 22 27 72 46 46 57
REMARK Flexibility Score: inf
ROOT
ATOM      1  C   UNL A   1      34.753  23.610  23.643  1.00  0.00     0.225 C 
ATOM      2  O   UNL A   1      34.466  23.858  22.474  1.00  0.00    -0.275 OA
ATOM      3  N   UNL A   1      36.010  23.140  23.916  1.00  0.00    -0.356 N 
ATOM      4  H   UNL A   1      36.626  23.118  23.149  1.00  0.00     0.163 HD
ENDROOT
BRANCH   1   5
ATOM      5  C   UNL A   1      33.777  23.771  24.797  1.00  0.00     0.102 C 
ATOM      6  N   UNL A   1      32.326  25.619  24.354  1.00  0.00    -0.321 N 
ATOM      7  C   UNL A   1      33.523  26.128  25.005  1.00  0.00     0.122 C 
ATOM      8  C   UNL A   1      32.336  24.138  24.351  1.00  0.00     0.096 C 
ATOM      9  C   UNL A   1      34.157  24.945  25.703  1.00  0.00     0.037 C 
ATOM     10  C   UNL A   1      31.379  23.513  25.378  1.00  0.00     0.032 C 
BRANCH   6  11
ATOM     11  C   UNL A   1      31.751  26.467  23.429  1.00  0.00     0.320 C 
ATOM     12  O   UNL A   1      32.398  26.842  22.443  1.00  0.00    -0.248 OA
BRANCH  11  13
ATOM     13  N   UNL A   1      30.472  26.939  23.616  1.00  0.00    -0.317 N 
ATOM     14  C   UNL A   1      29.332  26.139  23.998  1.00  0.00     0.149 C 
BRANCH  13  15
ATOM     15  C   UNL A   1      30.340  28.391  23.786  1.00  0.00     0.243 C 
BRANCH  15  16
ATOM     16  C   UNL A   1      29.513  29.112  22.712  1.00  0.00     0.325 C 
ATOM     17  O   UNL A   1      29.977  29.441  21.625  1.00  0.00    -0.250 OA
BRANCH  16  18
ATOM     18  O   UNL A   1      28.216  29.301  23.088  1.00  0.00    -0.465 OA
BRANCH  18  19
ATOM     19  C   UNL A   1      27.652  30.588  22.795  1.00  0.00     0.229 C 
ATOM     20  C   UNL A   1      28.228  31.623  23.745  1.00  0.00     0.049 C 
ENDBRANCH  18  19
ENDBRANCH  16  18
ENDBRANCH  15  16
ENDBRANCH  13  15
ENDBRANCH  11  13
ENDBRANCH   6  11
ENDBRANCH   1   5
BRANCH   3  21
ATOM     21  C   UNL A   1      36.566  22.670  25.174  1.00  0.00     0.116 C 
BRANCH  21  22
ATOM     22  C   UNL A   1      36.424  21.157  25.337  1.00  0.00     0.023 C 
BRANCH  22  23
ATOM     23  C   UNL A   1      37.650  20.344  24.922  1.00  0.00     0.023 C 
BRANCH  23  24
ATOM     24  C   UNL A   1      38.908  20.586  25.752  1.00  0.00     0.116 C 
BRANCH  24  25
ATOM     25  N   UNL A   1      39.818  19.450  25.751  1.00  0.00    -0.352 N 
ATOM     26  C   UNL A   1      41.174  19.428  25.975  1.00  0.00     0.251 C 
ATOM     27  H   UNL A   1      39.404  18.576  25.565  1.00  0.00     0.163 HD
ATOM     28  O   UNL A   1      41.812  18.393  25.811  1.00  0.00    -0.269 OA
BRANCH  26  29
ATOM     29  C   UNL A   1      41.872  20.669  26.379  1.00  0.00     0.039 A 
ATOM     30  C   UNL A   1      42.280  21.570  25.392  1.00  0.00     0.014 A 
ATOM     31  C   UNL A   1      42.098  20.954  27.728  1.00  0.00     0.014 A 
ATOM     32  C   UNL A   1      42.836  22.797  25.761  1.00  0.00     0.010 A 
ATOM     33  C   UNL A   1      42.590  22.203  28.096  1.00  0.00     0.010 A 
ATOM     34  C   UNL A   1      42.954  23.142  27.117  1.00  0.00    -0.014 A 
BRANCH  34  35
ATOM     35  C   UNL A   1      43.432  24.481  27.547  1.00  0.00     0.031 A 
ATOM     36  C   UNL A   1      42.444  25.531  27.969  1.00  0.00     0.074 A 
ATOM     37  C   UNL A   1      44.740  24.789  27.447  1.00  0.00     0.049 A 
ATOM     38  N   UNL A   1      42.642  26.800  28.221  1.00  0.00    -0.248 NA
ATOM     39  C   UNL A   1      41.042  25.103  28.094  1.00  0.00     0.031 C 
ATOM     40  C   UNL A   1      45.795  23.873  27.010  1.00  0.00     0.029 A 
ATOM     41  N   UNL A   1      45.400  25.971  27.677  1.00  0.00    -0.354 N 
ATOM     42  C   UNL A   1      41.389  27.328  28.502  1.00  0.00     0.074 A 
ATOM     43  C   UNL A   1      40.433  26.250  28.356  1.00  0.00     0.031 C 
ATOM     44  C   UNL A   1      46.968  24.526  27.002  1.00  0.00     0.029 A 
ATOM     45  C   UNL A   1      46.743  25.915  27.390  1.00  0.00     0.049 A 
ATOM     46  H   UNL A   1      44.954  26.780  28.015  1.00  0.00     0.167 HD
ATOM     47  C   UNL A   1      41.065  28.593  28.860  1.00  0.00     0.037 A 
ATOM     48  C   UNL A   1      47.684  26.879  27.412  1.00  0.00     0.037 A 
ATOM     49  C   UNL A   1      42.022  29.653  29.039  1.00  0.00     0.049 A 
ATOM     50  C   UNL A   1      47.302  28.276  27.816  1.00  0.00     0.074 A 
ATOM     51  C   UNL A   1      41.801  30.946  29.481  1.00  0.00     0.029 A 
ATOM     52  N   UNL A   1      43.378  29.545  28.778  1.00  0.00    -0.354 N 
ATOM     53  N   UNL A   1      46.124  28.745  28.147  1.00  0.00    -0.248 NA
ATOM     54  C   UNL A   1      48.379  29.276  27.851  1.00  0.00     0.031 C 
ATOM     55  C   UNL A   1      43.017  31.634  29.446  1.00  0.00     0.029 A 
ATOM     56  C   UNL A   1      44.004  30.757  29.025  1.00  0.00     0.049 A 
ATOM     57  H   UNL A   1      43.830  28.730  28.462  1.00  0.00     0.167 HD
ATOM     58  C   UNL A   1      46.321  30.085  28.456  1.00  0.00     0.074 A 
ATOM     59  C   UNL A   1      47.733  30.354  28.277  1.00  0.00     0.031 C 
ATOM     60  C   UNL A   1      45.412  31.007  28.855  1.00  0.00     0.037 A 
BRANCH  47  61
ATOM     61  C   UNL A   1      39.613  28.902  29.078  1.00  0.00     0.057 A 
ATOM     62  C   UNL A   1      39.018  28.819  30.343  1.00  0.00     0.134 A 
ATOM     63  C   UNL A   1      38.806  29.315  28.010  1.00  0.00     0.134 A 
ATOM     64  F   UNL A   1      39.733  28.420  31.405  1.00  0.00    -0.206 F 
ATOM     65  C   UNL A   1      37.666  29.109  30.533  1.00  0.00     0.040 A 
ATOM     66  C   UNL A   1      37.459  29.634  28.193  1.00  0.00     0.040 A 
ATOM     67  F   UNL A   1      39.314  29.422  26.773  1.00  0.00    -0.206 F 
ATOM     68  C   UNL A   1      36.884  29.524  29.458  1.00  0.00     0.006 A 
ENDBRANCH  47  61
BRANCH  48  69
ATOM     69  C   UNL A   1      49.082  26.551  27.040  1.00  0.00     0.057 A 
ATOM     70  C   UNL A   1      50.010  26.149  28.006  1.00  0.00     0.134 A 
ATOM     71  C   UNL A   1      49.520  26.616  25.711  1.00  0.00     0.134 A 
ATOM     72  F   UNL A   1      49.654  26.085  29.298  1.00  0.00    -0.206 F 
ATOM     73  C   UNL A   1      51.328  25.836  27.669  1.00  0.00     0.040 A 
ATOM     74  C   UNL A   1      50.828  26.283  25.356  1.00  0.00     0.040 A 
ATOM     75  F   UNL A   1      48.676  26.986  24.737  1.00  0.00    -0.206 F 
ATOM     76  C   UNL A   1      51.738  25.896  26.338  1.00  0.00     0.006 A 
ENDBRANCH  48  69
BRANCH  60  77
ATOM     77  C   UNL A   1      45.913  32.386  29.167  1.00  0.00     0.057 A 
ATOM     78  C   UNL A   1      46.413  32.724  30.429  1.00  0.00     0.134 A 
ATOM     79  C   UNL A   1      45.964  33.365  28.166  1.00  0.00     0.134 A 
ATOM     80  F   UNL A   1      46.380  31.834  31.433  1.00  0.00    -0.206 F 
ATOM     81  C   UNL A   1      46.939  33.990  30.689  1.00  0.00     0.040 A 
ATOM     82  C   UNL A   1      46.509  34.626  28.407  1.00  0.00     0.040 A 
ATOM     83  F   UNL A   1      45.508  33.102  26.932  1.00  0.00    -0.206 F 
ATOM     84  C   UNL A   1      46.998  34.942  29.673  1.00  0.00     0.006 A 
ENDBRANCH  60  77
ENDBRANCH  34  35
ENDBRANCH  26  29
ENDBRANCH  24  25
ENDBRANCH  23  24
ENDBRANCH  22  23
ENDBRANCH  21  22
ENDBRANCH   3  21
TORSDOF 17
ENDMDL
MODEL 3
REMARK VINA RESULT:     -10.2      4.518      9.571
REMARK SMILES CCOC(=O)CN(C)C(=O)N1CC[C@H](C(=O)NCCCCNC(=O)c2ccc(-c3c4nc(c(-c5c(F)cccc5F)c5ccc([nH]5)c(-c5c(F)cccc5F)c5nc(c(-c6c(F)cccc6F)c6ccc3[nH]6)C=C5)C=C4)cc2)[C@H]1C
REMARK SMILES IDX 15 1 16 2 17 3 14 5 11 6 12 7 79 8 13 9 80 10 9 11 10 12
REMARK SMILES IDX 7 13 8 14 6 15 4 16 5 17 3 18 2 19 1 20 18 21 19 22 20 23
REMARK SMILES IDX 21 24 22 25 23 26 24 28 25 29 26 30 78 31 27 32 77 33 28 34
REMARK SMILES IDX 29 35 30 36 71 37 31 38 76 39 70 40 72 41 32 42 75 43 69 44
REMARK SMILES IDX 68 45 33 47 59 48 42 49 58 50 43 51 46 52 57 53 73 54 44 55
REMARK SMILES IDX 45 56 56 58 74 59 47 60 34 61 35 62 40 63 36 64 37 65 39 66
REMARK SMILES IDX 41 67 38 68 60 69 61 70 66 71 62 72 63 73 65 74 67 75 64 76
REMARK SMILES IDX 48 77 49 78 54 79 50 80 51 81 53 82 55 83 52 84
REMARK H PARENT 17 4 22 27 72 46 46 57
REMARK Flexibility Score: inf
ROOT
ATOM      1  C   UNL A   1      33.111  28.989  24.188  1.00  0.00     0.225 C 
ATOM      2  O   UNL A   1      33.699  29.000  23.110  1.00  0.00    -0.275 OA
ATOM      3  N   UNL A   1      33.656  29.687  25.232  1.00  0.00    -0.356 N 
ATOM      4  H   UNL A   1      34.449  30.226  25.008  1.00  0.00     0.163 HD
ENDROOT
BRANCH   1   5
ATOM      5  C   UNL A   1      31.824  28.217  24.430  1.00  0.00     0.102 C 
ATOM      6  N   UNL A   1      31.985  26.065  23.403  1.00  0.00    -0.321 N 
ATOM      7  C   UNL A   1      31.494  27.006  22.408  1.00  0.00     0.122 C 
ATOM      8  C   UNL A   1      32.044  26.712  24.734  1.00  0.00     0.096 C 
ATOM      9  C   UNL A   1      30.939  28.182  23.181  1.00  0.00     0.037 C 
ATOM     10  C   UNL A   1      30.913  26.278  25.681  1.00  0.00     0.032 C 
BRANCH   6  11
ATOM     11  C   UNL A   1      32.786  25.052  22.914  1.00  0.00     0.320 C 
ATOM     12  O   UNL A   1      33.670  25.305  22.086  1.00  0.00    -0.248 OA
BRANCH  11  13
ATOM     13  N   UNL A   1      32.581  23.750  23.306  1.00  0.00    -0.317 N 
ATOM     14  C   UNL A   1      31.296  23.153  23.587  1.00  0.00     0.149 C 
BRANCH  13  15
ATOM     15  C   UNL A   1      33.698  22.825  23.079  1.00  0.00     0.243 C 
BRANCH  15  16
ATOM     16  C   UNL A   1      34.353  22.252  24.343  1.00  0.00     0.325 C 
ATOM     17  O   UNL A   1      34.468  21.047  24.546  1.00  0.00    -0.250 OA
BRANCH  16  18
ATOM     18  O   UNL A   1      34.819  23.224  25.179  1.00  0.00    -0.465 OA
BRANCH  18  19
ATOM     19  C   UNL A   1      35.995  23.921  24.748  1.00  0.00     0.229 C 
ATOM     20  C   UNL A   1      37.084  23.778  25.795  1.00  0.00     0.049 C 
ENDBRANCH  18  19
ENDBRANCH  16  18
ENDBRANCH  15  16
ENDBRANCH  13  15
ENDBRANCH  11  13
ENDBRANCH   6  11
ENDBRANCH   1   5
BRANCH   3  21
ATOM     21  C   UNL A   1      33.233  29.751  26.621  1.00  0.00     0.116 C 
BRANCH  21  22
ATOM     22  C   UNL A   1      31.800  30.264  26.764  1.00  0.00     0.023 C 
BRANCH  22  23
ATOM     23  C   UNL A   1      31.649  31.784  26.692  1.00  0.00     0.023 C 
BRANCH  23  24
ATOM     24  C   UNL A   1      32.775  32.585  27.340  1.00  0.00     0.116 C 
BRANCH  24  25
ATOM     25  N   UNL A   1      32.403  33.965  27.620  1.00  0.00    -0.352 N 
ATOM     26  C   UNL A   1      32.969  34.849  28.508  1.00  0.00     0.251 C 
ATOM     27  H   UNL A   1      31.642  34.312  27.102  1.00  0.00     0.163 HD
ATOM     28  O   UNL A   1      32.448  35.941  28.711  1.00  0.00    -0.269 OA
BRANCH  26  29
ATOM     29  C   UNL A   1      34.191  34.466  29.249  1.00  0.00     0.039 A 
ATOM     30  C   UNL A   1      34.066  33.951  30.542  1.00  0.00     0.014 A 
ATOM     31  C   UNL A   1      35.452  34.590  28.660  1.00  0.00     0.014 A 
ATOM     32  C   UNL A   1      35.197  33.477  31.212  1.00  0.00     0.010 A 
ATOM     33  C   UNL A   1      36.567  34.057  29.300  1.00  0.00     0.010 A 
ATOM     34  C   UNL A   1      36.450  33.485  30.578  1.00  0.00    -0.014 A 
BRANCH  34  35
ATOM     35  C   UNL A   1      37.653  32.886  31.210  1.00  0.00     0.031 A 
ATOM     36  C   UNL A   1      38.303  31.680  30.595  1.00  0.00     0.074 A 
ATOM     37  C   UNL A   1      38.088  33.353  32.397  1.00  0.00     0.049 A 
ATOM     38  N   UNL A   1      39.252  30.917  31.074  1.00  0.00    -0.248 NA
ATOM     39  C   UNL A   1      37.796  31.259  29.280  1.00  0.00     0.031 C 
ATOM     40  C   UNL A   1      37.517  34.490  33.121  1.00  0.00     0.029 A 
ATOM     41  N   UNL A   1      39.094  32.908  33.219  1.00  0.00    -0.354 N 
ATOM     42  C   UNL A   1      39.434  29.909  30.136  1.00  0.00     0.074 A 
ATOM     43  C   UNL A   1      38.474  30.138  29.077  1.00  0.00     0.031 C 
ATOM     44  C   UNL A   1      38.180  34.652  34.278  1.00  0.00     0.029 A 
ATOM     45  C   UNL A   1      39.191  33.607  34.398  1.00  0.00     0.049 A 
ATOM     46  H   UNL A   1      39.689  32.160  32.985  1.00  0.00     0.167 HD
ATOM     47  C   UNL A   1      40.327  28.892  30.150  1.00  0.00     0.037 A 
ATOM     48  C   UNL A   1      39.986  33.413  35.468  1.00  0.00     0.037 A 
ATOM     49  C   UNL A   1      41.304  28.687  31.187  1.00  0.00     0.049 A 
ATOM     50  C   UNL A   1      40.973  32.279  35.460  1.00  0.00     0.074 A 
ATOM     51  C   UNL A   1      42.307  27.735  31.249  1.00  0.00     0.029 A 
ATOM     52  N   UNL A   1      41.397  29.442  32.345  1.00  0.00    -0.354 N 
ATOM     53  N   UNL A   1      41.183  31.375  34.535  1.00  0.00    -0.248 NA
ATOM     54  C   UNL A   1      41.835  32.139  36.643  1.00  0.00     0.031 C 
ATOM     55  C   UNL A   1      42.978  27.885  32.466  1.00  0.00     0.029 A 
ATOM     56  C   UNL A   1      42.423  28.960  33.141  1.00  0.00     0.049 A 
ATOM     57  H   UNL A   1      40.818  30.206  32.570  1.00  0.00     0.167 HD
ATOM     58  C   UNL A   1      42.215  30.577  35.009  1.00  0.00     0.074 A 
ATOM     59  C   UNL A   1      42.594  31.105  36.303  1.00  0.00     0.031 C 
ATOM     60  C   UNL A   1      42.798  29.504  34.422  1.00  0.00     0.037 A 
BRANCH  47  61
ATOM     61  C   UNL A   1      40.286  27.917  29.010  1.00  0.00     0.057 A 
ATOM     62  C   UNL A   1      39.529  26.739  29.068  1.00  0.00     0.134 A 
ATOM     63  C   UNL A   1      40.990  28.175  27.827  1.00  0.00     0.134 A 
ATOM     64  F   UNL A   1      38.840  26.429  30.176  1.00  0.00    -0.206 F 
ATOM     65  C   UNL A   1      39.498  25.839  28.002  1.00  0.00     0.040 A 
ATOM     66  C   UNL A   1      40.945  27.295  26.744  1.00  0.00     0.040 A 
ATOM     67  F   UNL A   1      41.729  29.288  27.702  1.00  0.00    -0.206 F 
ATOM     68  C   UNL A   1      40.202  26.120  26.833  1.00  0.00     0.006 A 
ENDBRANCH  47  61
BRANCH  48  69
ATOM     69  C   UNL A   1      39.880  34.320  36.637  1.00  0.00     0.057 A 
ATOM     70  C   UNL A   1      40.624  35.503  36.702  1.00  0.00     0.134 A 
ATOM     71  C   UNL A   1      39.025  34.036  37.709  1.00  0.00     0.134 A 
ATOM     72  F   UNL A   1      41.475  35.820  35.714  1.00  0.00    -0.206 F 
ATOM     73  C   UNL A   1      40.532  36.366  37.795  1.00  0.00     0.040 A 
ATOM     74  C   UNL A   1      38.905  34.901  38.797  1.00  0.00     0.040 A 
ATOM     75  F   UNL A   1      38.278  32.921  37.703  1.00  0.00    -0.206 F 
ATOM     76  C   UNL A   1      39.664  36.069  38.845  1.00  0.00     0.006 A 
ENDBRANCH  48  69
BRANCH  60  77
ATOM     77  C   UNL A   1      43.935  28.848  35.147  1.00  0.00     0.057 A 
ATOM     78  C   UNL A   1      45.261  29.256  34.967  1.00  0.00     0.134 A 
ATOM     79  C   UNL A   1      43.688  27.844  36.093  1.00  0.00     0.134 A 
ATOM     80  F   UNL A   1      45.564  30.204  34.067  1.00  0.00    -0.206 F 
ATOM     81  C   UNL A   1      46.304  28.684  35.698  1.00  0.00     0.040 A 
ATOM     82  C   UNL A   1      44.719  27.281  36.845  1.00  0.00     0.040 A 
ATOM     83  F   UNL A   1      42.438  27.413  36.317  1.00  0.00    -0.206 F 
ATOM     84  C   UNL A   1      46.032  27.701  36.647  1.00  0.00     0.006 A 
ENDBRANCH  60  77
ENDBRANCH  34  35
ENDBRANCH  26  29
ENDBRANCH  24  25
ENDBRANCH  23  24
ENDBRANCH  22  23
ENDBRANCH  21  22
ENDBRANCH   3  21
TORSDOF 17
ENDMDL
