MODEL 1
REMARK VINA RESULT:     -11.0      0.000      0.000
REMARK SMILES CC[N@H+](C[C@H]1CCCO1)[C@@H](C)c1ccc(C(=O)NCCCCNC(=O)c2ccc(-c3c4nc(c(-c5c(F)cccc5F)c5ccc([nH]5)c(-c5c(F)cccc5F)c5nc(c(-c6c(F)cccc6F)c6ccc3[nH]6)C=C5)C=C4)cc2)o1
REMARK SMILES IDX 19 1 18 2 16 3 17 4 15 6 12 7 13 8 80 9 14 10 10 11 11 12
REMARK SMILES IDX 3 13 2 15 1 16 4 17 5 18 6 19 9 20 7 21 8 22 20 23 21 24
REMARK SMILES IDX 22 25 23 26 24 27 25 29 26 30 27 31 79 32 28 33 78 34 29 35
REMARK SMILES IDX 30 36 31 37 72 38 32 39 77 40 71 41 73 42 33 43 76 44 70 45
REMARK SMILES IDX 69 46 34 48 60 49 43 50 59 51 44 52 47 53 58 54 74 55 45 56
REMARK SMILES IDX 46 57 57 59 75 60 48 61 35 62 36 63 41 64 37 65 38 66 40 67
REMARK SMILES IDX 42 68 39 69 61 70 62 71 67 72 63 73 64 74 66 75 68 76 65 77
REMARK SMILES IDX 49 78 50 79 55 80 51 81 52 82 54 83 56 84 53 85
REMARK H PARENT 18 5 3 14 23 28 73 47 47 58
REMARK Flexibility Score: inf
ROOT
ATOM      1  C   UNL A   1      32.089  29.819  25.511  1.00  0.00     0.116 C 
ENDROOT
BRANCH   1   2
ATOM      2  N   UNL A   1      31.047  30.159  24.574  1.00  0.00    -0.349 N 
ATOM      3  C   UNL A   1      30.317  29.352  23.734  1.00  0.00     0.287 C 
ATOM      4  O   UNL A   1      29.508  29.936  23.009  1.00  0.00    -0.266 OA
ATOM      5  H   UNL A   1      30.825  31.117  24.528  1.00  0.00     0.163 HD
BRANCH   3   6
ATOM      6  C   UNL A   1      30.492  27.910  23.732  1.00  0.00     0.191 A 
ATOM      7  C   UNL A   1      31.754  26.106  23.534  1.00  0.00     0.161 A 
ATOM      8  C   UNL A   1      30.470  25.650  23.728  1.00  0.00     0.053 A 
ATOM      9  O   UNL A   1      31.770  27.463  23.499  1.00  0.00    -0.450 OA
ATOM     10  C   UNL A   1      29.681  26.801  23.927  1.00  0.00     0.057 A 
BRANCH   7  11
ATOM     11  C   UNL A   1      33.062  25.417  23.344  1.00  0.00     0.248 C 
ATOM     12  C   UNL A   1      32.851  24.519  22.092  1.00  0.00     0.084 C 
BRANCH  11  13
ATOM     13  N   UNL A   1      33.470  24.581  24.488  1.00  0.00    -0.324 N 
ATOM     14  H   UNL A   1      32.857  23.802  24.244  1.00  0.00     0.348 HD
BRANCH  13  15
ATOM     15  C   UNL A   1      33.011  24.772  25.872  1.00  0.00     0.259 C 
ATOM     16  C   UNL A   1      32.227  23.722  26.648  1.00  0.00     0.071 C 
ENDBRANCH  13  15
BRANCH  13  17
ATOM     17  C   UNL A   1      34.917  24.283  24.473  1.00  0.00     0.295 C 
BRANCH  17  18
ATOM     18  C   UNL A   1      35.234  22.839  24.034  1.00  0.00     0.173 C 
ATOM     19  C   UNL A   1      36.641  22.587  23.500  1.00  0.00     0.040 C 
ATOM     20  O   UNL A   1      35.071  21.975  25.178  1.00  0.00    -0.372 OA
ATOM     21  C   UNL A   1      37.387  22.014  24.673  1.00  0.00     0.031 C 
ATOM     22  C   UNL A   1      36.303  21.290  25.431  1.00  0.00     0.161 C 
ENDBRANCH  17  18
ENDBRANCH  13  17
ENDBRANCH  11  13
ENDBRANCH   7  11
ENDBRANCH   3   6
ENDBRANCH   1   2
BRANCH   1  23
ATOM     23  C   UNL A   1      31.792  30.422  26.884  1.00  0.00     0.023 C 
BRANCH  23  24
ATOM     24  C   UNL A   1      31.532  31.929  26.839  1.00  0.00     0.023 C 
BRANCH  24  25
ATOM     25  C   UNL A   1      32.729  32.782  27.243  1.00  0.00     0.116 C 
BRANCH  25  26
ATOM     26  N   UNL A   1      32.364  34.139  27.620  1.00  0.00    -0.352 N 
ATOM     27  C   UNL A   1      32.967  34.943  28.562  1.00  0.00     0.251 C 
ATOM     28  H   UNL A   1      31.594  34.530  27.147  1.00  0.00     0.163 HD
ATOM     29  O   UNL A   1      32.495  36.018  28.872  1.00  0.00    -0.269 OA
BRANCH  27  30
ATOM     30  C   UNL A   1      34.188  34.432  29.215  1.00  0.00     0.039 A 
ATOM     31  C   UNL A   1      34.059  33.693  30.391  1.00  0.00     0.014 A 
ATOM     32  C   UNL A   1      35.434  34.613  28.611  1.00  0.00     0.014 A 
ATOM     33  C   UNL A   1      35.188  33.086  30.937  1.00  0.00     0.010 A 
ATOM     34  C   UNL A   1      36.539  33.937  29.109  1.00  0.00     0.010 A 
ATOM     35  C   UNL A   1      36.428  33.175  30.281  1.00  0.00    -0.014 A 
BRANCH  35  36
ATOM     36  C   UNL A   1      37.623  32.485  30.821  1.00  0.00     0.031 A 
ATOM     37  C   UNL A   1      38.293  33.007  32.062  1.00  0.00     0.074 A 
ATOM     38  C   UNL A   1      38.129  31.420  30.170  1.00  0.00     0.049 A 
ATOM     39  N   UNL A   1      39.355  32.557  32.677  1.00  0.00    -0.248 NA
ATOM     40  C   UNL A   1      37.709  34.212  32.674  1.00  0.00     0.031 C 
ATOM     41  C   UNL A   1      37.601  30.859  28.925  1.00  0.00     0.029 A 
ATOM     42  N   UNL A   1      39.202  30.620  30.466  1.00  0.00    -0.354 N 
ATOM     43  C   UNL A   1      39.569  33.425  33.741  1.00  0.00     0.074 A 
ATOM     44  C   UNL A   1      38.570  34.465  33.647  1.00  0.00     0.031 C 
ATOM     45  C   UNL A   1      38.330  29.785  28.583  1.00  0.00     0.029 A 
ATOM     46  C   UNL A   1      39.397  29.604  29.562  1.00  0.00     0.049 A 
ATOM     47  H   UNL A   1      39.779  30.760  31.251  1.00  0.00     0.167 HD
ATOM     48  C   UNL A   1      40.495  33.344  34.725  1.00  0.00     0.037 A 
ATOM     49  C   UNL A   1      40.331  28.635  29.531  1.00  0.00     0.037 A 
ATOM     50  C   UNL A   1      41.472  32.293  34.824  1.00  0.00     0.049 A 
ATOM     51  C   UNL A   1      41.353  28.572  30.632  1.00  0.00     0.074 A 
ATOM     52  C   UNL A   1      42.415  32.085  35.814  1.00  0.00     0.029 A 
ATOM     53  N   UNL A   1      41.634  31.277  33.895  1.00  0.00    -0.354 N 
ATOM     54  N   UNL A   1      41.493  29.350  31.678  1.00  0.00    -0.248 NA
ATOM     55  C   UNL A   1      42.344  27.488  30.553  1.00  0.00     0.031 C 
ATOM     56  C   UNL A   1      43.182  30.971  35.457  1.00  0.00     0.029 A 
ATOM     57  C   UNL A   1      42.680  30.452  34.274  1.00  0.00     0.049 A 
ATOM     58  H   UNL A   1      41.086  31.158  33.085  1.00  0.00     0.167 HD
ATOM     59  C   UNL A   1      42.567  28.836  32.394  1.00  0.00     0.074 A 
ATOM     60  C   UNL A   1      43.029  27.669  31.673  1.00  0.00     0.031 C 
ATOM     61  C   UNL A   1      43.122  29.291  33.544  1.00  0.00     0.037 A 
BRANCH  48  62
ATOM     62  C   UNL A   1      40.486  34.419  35.772  1.00  0.00     0.057 A 
ATOM     63  C   UNL A   1      41.239  35.594  35.635  1.00  0.00     0.134 A 
ATOM     64  C   UNL A   1      39.696  34.291  36.922  1.00  0.00     0.134 A 
ATOM     65  F   UNL A   1      42.028  35.773  34.565  1.00  0.00    -0.206 F 
ATOM     66  C   UNL A   1      41.230  36.587  36.615  1.00  0.00     0.040 A 
ATOM     67  C   UNL A   1      39.655  35.292  37.895  1.00  0.00     0.040 A 
ATOM     68  F   UNL A   1      38.948  33.195  37.117  1.00  0.00    -0.206 F 
ATOM     69  C   UNL A   1      40.429  36.441  37.745  1.00  0.00     0.006 A 
ENDBRANCH  48  62
BRANCH  49  70
ATOM     70  C   UNL A   1      40.330  27.631  28.436  1.00  0.00     0.057 A 
ATOM     71  C   UNL A   1      39.649  26.415  28.570  1.00  0.00     0.134 A 
ATOM     72  C   UNL A   1      41.017  27.855  27.237  1.00  0.00     0.134 A 
ATOM     73  F   UNL A   1      38.986  26.134  29.701  1.00  0.00    -0.206 F 
ATOM     74  C   UNL A   1      39.673  25.448  27.564  1.00  0.00     0.040 A 
ATOM     75  C   UNL A   1      41.027  26.908  26.211  1.00  0.00     0.040 A 
ATOM     76  F   UNL A   1      41.681  29.004  27.041  1.00  0.00    -0.206 F 
ATOM     77  C   UNL A   1      40.360  25.696  26.377  1.00  0.00     0.006 A 
ENDBRANCH  49  70
BRANCH  61  78
ATOM     78  C   UNL A   1      44.270  28.505  34.109  1.00  0.00     0.057 A 
ATOM     79  C   UNL A   1      45.602  28.820  33.809  1.00  0.00     0.134 A 
ATOM     80  C   UNL A   1      44.039  27.443  34.993  1.00  0.00     0.134 A 
ATOM     81  F   UNL A   1      45.891  29.817  32.960  1.00  0.00    -0.206 F 
ATOM     82  C   UNL A   1      46.662  28.089  34.347  1.00  0.00     0.040 A 
ATOM     83  C   UNL A   1      45.092  26.725  35.562  1.00  0.00     0.040 A 
ATOM     84  F   UNL A   1      42.788  27.096  35.331  1.00  0.00    -0.206 F 
ATOM     85  C   UNL A   1      46.408  27.043  35.233  1.00  0.00     0.006 A 
ENDBRANCH  61  78
ENDBRANCH  35  36
ENDBRANCH  27  30
ENDBRANCH  25  26
ENDBRANCH  24  25
ENDBRANCH  23  24
ENDBRANCH   1  23
TORSDOF 16
ENDMDL
MODEL 2
REMARK VINA RESULT:     -11.0      1.139      2.163
REMARK SMILES CC[N@H+](C[C@H]1CCCO1)[C@@H](C)c1ccc(C(=O)NCCCCNC(=O)c2ccc(-c3c4nc(c(-c5c(F)cccc5F)c5ccc([nH]5)c(-c5c(F)cccc5F)c5nc(c(-c6c(F)cccc6F)c6ccc3[nH]6)C=C5)C=C4)cc2)o1
REMARK SMILES IDX 19 1 18 2 16 3 17 4 15 6 12 7 13 8 80 9 14 10 10 11 11 12
REMARK SMILES IDX 3 13 2 15 1 16 4 17 5 18 6 19 9 20 7 21 8 22 20 23 21 24
REMARK SMILES IDX 22 25 23 26 24 27 25 29 26 30 27 31 79 32 28 33 78 34 29 35
REMARK SMILES IDX 30 36 31 37 72 38 32 39 77 40 71 41 73 42 33 43 76 44 70 45
REMARK SMILES IDX 69 46 34 48 60 49 43 50 59 51 44 52 47 53 58 54 74 55 45 56
REMARK SMILES IDX 46 57 57 59 75 60 48 61 35 62 36 63 41 64 37 65 38 66 40 67
REMARK SMILES IDX 42 68 39 69 61 70 62 71 67 72 63 73 64 74 66 75 68 76 65 77
REMARK SMILES IDX 49 78 50 79 55 80 51 81 52 82 54 83 56 84 53 85
REMARK H PARENT 18 5 3 14 23 28 73 47 47 58
REMARK Flexibility Score: inf
ROOT
ATOM      1  C   UNL A   1      32.426  29.547  24.947  1.00  0.00     0.116 C 
ENDROOT
BRANCH   1   2
ATOM      2  N   UNL A   1      31.425  29.534  23.909  1.00  0.00    -0.349 N 
ATOM      3  C   UNL A   1      31.273  28.683  22.839  1.00  0.00     0.287 C 
ATOM      4  O   UNL A   1      30.332  28.942  22.086  1.00  0.00    -0.266 OA
ATOM      5  H   UNL A   1      30.746  30.243  23.977  1.00  0.00     0.163 HD
BRANCH   3   6
ATOM      6  C   UNL A   1      32.164  27.553  22.641  1.00  0.00     0.191 A 
ATOM      7  C   UNL A   1      32.639  25.401  22.805  1.00  0.00     0.161 A 
ATOM      8  C   UNL A   1      33.758  25.995  22.267  1.00  0.00     0.053 A 
ATOM      9  O   UNL A   1      31.690  26.337  23.065  1.00  0.00    -0.450 OA
ATOM     10  C   UNL A   1      33.425  27.355  22.096  1.00  0.00     0.057 A 
BRANCH   7  11
ATOM     11  C   UNL A   1      32.303  23.992  23.155  1.00  0.00     0.248 C 
ATOM     12  C   UNL A   1      30.767  24.007  23.396  1.00  0.00     0.084 C 
BRANCH  11  13
ATOM     13  N   UNL A   1      32.988  23.495  24.362  1.00  0.00    -0.324 N 
ATOM     14  H   UNL A   1      32.126  23.323  24.881  1.00  0.00     0.348 HD
BRANCH  13  15
ATOM     15  C   UNL A   1      33.656  24.348  25.358  1.00  0.00     0.259 C 
ATOM     16  C   UNL A   1      35.169  24.466  25.480  1.00  0.00     0.071 C 
ENDBRANCH  13  15
BRANCH  13  17
ATOM     17  C   UNL A   1      33.814  22.303  24.084  1.00  0.00     0.295 C 
BRANCH  17  18
ATOM     18  C   UNL A   1      33.536  21.134  25.051  1.00  0.00     0.173 C 
ATOM     19  C   UNL A   1      32.204  20.411  24.876  1.00  0.00     0.040 C 
ATOM     20  O   UNL A   1      34.567  20.141  24.865  1.00  0.00    -0.372 OA
ATOM     21  C   UNL A   1      32.547  19.191  24.067  1.00  0.00     0.031 C 
ATOM     22  C   UNL A   1      33.961  18.896  24.498  1.00  0.00     0.161 C 
ENDBRANCH  17  18
ENDBRANCH  13  17
ENDBRANCH  11  13
ENDBRANCH   7  11
ENDBRANCH   3   6
ENDBRANCH   1   2
BRANCH   1  23
ATOM     23  C   UNL A   1      31.805  29.947  26.285  1.00  0.00     0.023 C 
BRANCH  23  24
ATOM     24  C   UNL A   1      31.563  31.453  26.412  1.00  0.00     0.023 C 
BRANCH  24  25
ATOM     25  C   UNL A   1      32.681  32.208  27.122  1.00  0.00     0.116 C 
BRANCH  25  26
ATOM     26  N   UNL A   1      32.349  33.598  27.397  1.00  0.00    -0.352 N 
ATOM     27  C   UNL A   1      32.972  34.454  28.278  1.00  0.00     0.251 C 
ATOM     28  H   UNL A   1      31.590  33.971  26.894  1.00  0.00     0.163 HD
ATOM     29  O   UNL A   1      32.526  35.560  28.506  1.00  0.00    -0.269 OA
BRANCH  27  30
ATOM     30  C   UNL A   1      34.179  33.963  28.970  1.00  0.00     0.039 A 
ATOM     31  C   UNL A   1      34.027  33.063  30.025  1.00  0.00     0.014 A 
ATOM     32  C   UNL A   1      35.446  34.328  28.512  1.00  0.00     0.014 A 
ATOM     33  C   UNL A   1      35.161  32.484  30.590  1.00  0.00     0.010 A 
ATOM     34  C   UNL A   1      36.567  33.685  29.019  1.00  0.00     0.010 A 
ATOM     35  C   UNL A   1      36.435  32.765  30.069  1.00  0.00    -0.014 A 
BRANCH  35  36
ATOM     36  C   UNL A   1      37.643  32.110  30.624  1.00  0.00     0.031 A 
ATOM     37  C   UNL A   1      38.213  32.577  31.934  1.00  0.00     0.074 A 
ATOM     38  C   UNL A   1      38.249  31.130  29.928  1.00  0.00     0.049 A 
ATOM     39  N   UNL A   1      39.269  32.148  32.575  1.00  0.00    -0.248 NA
ATOM     40  C   UNL A   1      37.522  33.695  32.598  1.00  0.00     0.031 C 
ATOM     41  C   UNL A   1      37.824  30.632  28.618  1.00  0.00     0.029 A 
ATOM     42  N   UNL A   1      39.356  30.376  30.225  1.00  0.00    -0.354 N 
ATOM     43  C   UNL A   1      39.372  32.945  33.708  1.00  0.00     0.074 A 
ATOM     44  C   UNL A   1      38.314  33.927  33.633  1.00  0.00     0.031 C 
ATOM     45  C   UNL A   1      38.638  29.633  28.242  1.00  0.00     0.029 A 
ATOM     46  C   UNL A   1      39.662  29.444  29.263  1.00  0.00     0.049 A 
ATOM     47  H   UNL A   1      39.881  30.492  31.049  1.00  0.00     0.167 HD
ATOM     48  C   UNL A   1      40.249  32.847  34.733  1.00  0.00     0.037 A 
ATOM     49  C   UNL A   1      40.658  28.540  29.215  1.00  0.00     0.037 A 
ATOM     50  C   UNL A   1      41.286  31.853  34.812  1.00  0.00     0.049 A 
ATOM     51  C   UNL A   1      41.624  28.456  30.364  1.00  0.00     0.074 A 
ATOM     52  C   UNL A   1      42.189  31.629  35.835  1.00  0.00     0.029 A 
ATOM     53  N   UNL A   1      41.561  30.921  33.823  1.00  0.00    -0.354 N 
ATOM     54  N   UNL A   1      41.659  29.160  31.469  1.00  0.00    -0.248 NA
ATOM     55  C   UNL A   1      42.685  27.444  30.263  1.00  0.00     0.031 C 
ATOM     56  C   UNL A   1      43.044  30.594  35.443  1.00  0.00     0.029 A 
ATOM     57  C   UNL A   1      42.638  30.136  34.200  1.00  0.00     0.049 A 
ATOM     58  H   UNL A   1      41.064  30.830  32.977  1.00  0.00     0.167 HD
ATOM     59  C   UNL A   1      42.726  28.661  32.206  1.00  0.00     0.074 A 
ATOM     60  C   UNL A   1      43.299  27.581  31.430  1.00  0.00     0.031 C 
ATOM     61  C   UNL A   1      43.191  29.061  33.415  1.00  0.00     0.037 A 
BRANCH  48  62
ATOM     62  C   UNL A   1      40.117  33.838  35.853  1.00  0.00     0.057 A 
ATOM     63  C   UNL A   1      39.279  33.605  36.953  1.00  0.00     0.134 A 
ATOM     64  C   UNL A   1      40.853  35.029  35.846  1.00  0.00     0.134 A 
ATOM     65  F   UNL A   1      38.534  32.490  37.016  1.00  0.00    -0.206 F 
ATOM     66  C   UNL A   1      39.156  34.532  37.988  1.00  0.00     0.040 A 
ATOM     67  C   UNL A   1      40.762  35.950  36.891  1.00  0.00     0.040 A 
ATOM     68  F   UNL A   1      41.677  35.315  34.826  1.00  0.00    -0.206 F 
ATOM     69  C   UNL A   1      39.906  35.706  37.963  1.00  0.00     0.006 A 
ENDBRANCH  48  62
BRANCH  49  70
ATOM     70  C   UNL A   1      40.778  27.622  28.052  1.00  0.00     0.057 A 
ATOM     71  C   UNL A   1      41.546  27.968  26.934  1.00  0.00     0.134 A 
ATOM     72  C   UNL A   1      40.120  26.387  28.025  1.00  0.00     0.134 A 
ATOM     73  F   UNL A   1      42.187  29.145  26.893  1.00  0.00    -0.206 F 
ATOM     74  C   UNL A   1      41.634  27.131  25.820  1.00  0.00     0.040 A 
ATOM     75  C   UNL A   1      40.221  25.528  26.929  1.00  0.00     0.040 A 
ATOM     76  F   UNL A   1      39.376  25.992  29.068  1.00  0.00    -0.206 F 
ATOM     77  C   UNL A   1      40.974  25.904  25.818  1.00  0.00     0.006 A 
ENDBRANCH  49  70
BRANCH  61  78
ATOM     78  C   UNL A   1      44.357  28.307  33.986  1.00  0.00     0.057 A 
ATOM     79  C   UNL A   1      44.186  27.125  34.718  1.00  0.00     0.134 A 
ATOM     80  C   UNL A   1      45.667  28.751  33.769  1.00  0.00     0.134 A 
ATOM     81  F   UNL A   1      42.957  26.652  34.971  1.00  0.00    -0.206 F 
ATOM     82  C   UNL A   1      45.277  26.426  35.236  1.00  0.00     0.040 A 
ATOM     83  C   UNL A   1      46.768  28.044  34.256  1.00  0.00     0.040 A 
ATOM     84  F   UNL A   1      45.901  29.871  33.067  1.00  0.00    -0.206 F 
ATOM     85  C   UNL A   1      46.573  26.881  34.999  1.00  0.00     0.006 A 
ENDBRANCH  61  78
ENDBRANCH  35  36
ENDBRANCH  27  30
ENDBRANCH  25  26
ENDBRANCH  24  25
ENDBRANCH  23  24
ENDBRANCH   1  23
TORSDOF 16
ENDMDL
MODEL 3
REMARK VINA RESULT:     -11.0      1.409      2.406
REMARK SMILES CC[N@H+](C[C@H]1CCCO1)[C@@H](C)c1ccc(C(=O)NCCCCNC(=O)c2ccc(-c3c4nc(c(-c5c(F)cccc5F)c5ccc([nH]5)c(-c5c(F)cccc5F)c5nc(c(-c6c(F)cccc6F)c6ccc3[nH]6)C=C5)C=C4)cc2)o1
REMARK SMILES IDX 19 1 18 2 16 3 17 4 15 6 12 7 13 8 80 9 14 10 10 11 11 12
REMARK SMILES IDX 3 13 2 15 1 16 4 17 5 18 6 19 9 20 7 21 8 22 20 23 21 24
REMARK SMILES IDX 22 25 23 26 24 27 25 29 26 30 27 31 79 32 28 33 78 34 29 35
REMARK SMILES IDX 30 36 31 37 72 38 32 39 77 40 71 41 73 42 33 43 76 44 70 45
REMARK SMILES IDX 69 46 34 48 60 49 43 50 59 51 44 52 47 53 58 54 74 55 45 56
REMARK SMILES IDX 46 57 57 59 75 60 48 61 35 62 36 63 41 64 37 65 38 66 40 67
REMARK SMILES IDX 42 68 39 69 61 70 62 71 67 72 63 73 64 74 66 75 68 76 65 77
REMARK SMILES IDX 49 78 50 79 55 80 51 81 52 82 54 83 56 84 53 85
REMARK H PARENT 18 5 3 14 23 28 73 47 47 58
REMARK Flexibility Score: inf
ROOT
ATOM      1  C   UNL A   1      33.218  30.133  26.275  1.00  0.00     0.116 C 
ENDROOT
BRANCH   1   2
ATOM      2  N   UNL A   1      33.691  29.657  24.998  1.00  0.00    -0.349 N 
ATOM      3  C   UNL A   1      33.717  28.382  24.485  1.00  0.00     0.287 C 
ATOM      4  O   UNL A   1      34.220  28.272  23.365  1.00  0.00    -0.266 OA
ATOM      5  H   UNL A   1      34.051  30.353  24.403  1.00  0.00     0.163 HD
BRANCH   3   6
ATOM      6  C   UNL A   1      33.166  27.260  25.224  1.00  0.00     0.191 A 
ATOM      7  C   UNL A   1      33.230  25.154  25.893  1.00  0.00     0.161 A 
ATOM      8  C   UNL A   1      32.067  25.679  26.408  1.00  0.00     0.053 A 
ATOM      9  O   UNL A   1      33.878  26.088  25.150  1.00  0.00    -0.450 OA
ATOM     10  C   UNL A   1      32.066  27.041  26.041  1.00  0.00     0.057 A 
BRANCH   7  11
ATOM     11  C   UNL A   1      33.866  23.809  25.980  1.00  0.00     0.248 C 
ATOM     12  C   UNL A   1      35.349  24.054  25.581  1.00  0.00     0.084 C 
BRANCH  11  13
ATOM     13  N   UNL A   1      33.272  22.806  25.077  1.00  0.00    -0.324 N 
ATOM     14  H   UNL A   1      32.379  23.293  24.990  1.00  0.00     0.348 HD
BRANCH  13  15
ATOM     15  C   UNL A   1      32.749  21.500  25.504  1.00  0.00     0.259 C 
ATOM     16  C   UNL A   1      33.639  20.335  25.919  1.00  0.00     0.071 C 
ENDBRANCH  13  15
BRANCH  13  17
ATOM     17  C   UNL A   1      34.042  22.657  23.825  1.00  0.00     0.295 C 
BRANCH  17  18
ATOM     18  C   UNL A   1      33.221  22.998  22.565  1.00  0.00     0.173 C 
ATOM     19  C   UNL A   1      31.737  23.285  22.779  1.00  0.00     0.040 C 
ATOM     20  O   UNL A   1      33.785  24.186  21.969  1.00  0.00    -0.372 OA
ATOM     21  C   UNL A   1      31.649  24.786  22.808  1.00  0.00     0.031 C 
ATOM     22  C   UNL A   1      32.775  25.200  21.894  1.00  0.00     0.161 C 
ENDBRANCH  17  18
ENDBRANCH  13  17
ENDBRANCH  11  13
ENDBRANCH   7  11
ENDBRANCH   3   6
ENDBRANCH   1   2
BRANCH   1  23
ATOM     23  C   UNL A   1      31.745  30.530  26.187  1.00  0.00     0.023 C 
BRANCH  23  24
ATOM     24  C   UNL A   1      31.449  31.893  26.816  1.00  0.00     0.023 C 
BRANCH  24  25
ATOM     25  C   UNL A   1      32.686  32.647  27.286  1.00  0.00     0.116 C 
BRANCH  25  26
ATOM     26  N   UNL A   1      32.424  34.044  27.596  1.00  0.00    -0.352 N 
ATOM     27  C   UNL A   1      33.077  34.842  28.509  1.00  0.00     0.251 C 
ATOM     28  H   UNL A   1      31.691  34.470  27.096  1.00  0.00     0.163 HD
ATOM     29  O   UNL A   1      32.686  35.963  28.764  1.00  0.00    -0.269 OA
BRANCH  27  30
ATOM     30  C   UNL A   1      34.248  34.270  29.202  1.00  0.00     0.039 A 
ATOM     31  C   UNL A   1      34.035  33.415  30.283  1.00  0.00     0.014 A 
ATOM     32  C   UNL A   1      35.535  34.515  28.719  1.00  0.00     0.014 A 
ATOM     33  C   UNL A   1      35.123  32.757  30.852  1.00  0.00     0.010 A 
ATOM     34  C   UNL A   1      36.605  33.793  29.232  1.00  0.00     0.010 A 
ATOM     35  C   UNL A   1      36.410  32.916  30.309  1.00  0.00    -0.014 A 
BRANCH  35  36
ATOM     36  C   UNL A   1      37.566  32.177  30.869  1.00  0.00     0.031 A 
ATOM     37  C   UNL A   1      38.083  32.521  32.238  1.00  0.00     0.074 A 
ATOM     38  C   UNL A   1      38.175  31.232  30.128  1.00  0.00     0.049 A 
ATOM     39  N   UNL A   1      39.091  32.006  32.893  1.00  0.00    -0.248 NA
ATOM     40  C   UNL A   1      37.396  33.610  32.952  1.00  0.00     0.031 C 
ATOM     41  C   UNL A   1      37.801  30.852  28.764  1.00  0.00     0.029 A 
ATOM     42  N   UNL A   1      39.240  30.418  30.419  1.00  0.00    -0.354 N 
ATOM     43  C   UNL A   1      39.161  32.709  34.088  1.00  0.00     0.074 A 
ATOM     44  C   UNL A   1      38.141  33.732  34.039  1.00  0.00     0.031 C 
ATOM     45  C   UNL A   1      38.600  29.856  28.350  1.00  0.00     0.029 A 
ATOM     46  C   UNL A   1      39.565  29.552  29.402  1.00  0.00     0.049 A 
ATOM     47  H   UNL A   1      39.726  30.451  31.273  1.00  0.00     0.167 HD
ATOM     48  C   UNL A   1      39.981  32.501  35.145  1.00  0.00     0.037 A 
ATOM     49  C   UNL A   1      40.531  28.618  29.331  1.00  0.00     0.037 A 
ATOM     50  C   UNL A   1      40.980  31.467  35.195  1.00  0.00     0.049 A 
ATOM     51  C   UNL A   1      41.434  28.411  30.516  1.00  0.00     0.074 A 
ATOM     52  C   UNL A   1      41.821  31.132  36.240  1.00  0.00     0.029 A 
ATOM     53  N   UNL A   1      41.274  30.604  34.150  1.00  0.00    -0.354 N 
ATOM     54  N   UNL A   1      41.435  29.027  31.674  1.00  0.00    -0.248 NA
ATOM     55  C   UNL A   1      42.466  27.372  30.387  1.00  0.00     0.031 C 
ATOM     56  C   UNL A   1      42.661  30.100  35.810  1.00  0.00     0.029 A 
ATOM     57  C   UNL A   1      42.304  29.753  34.516  1.00  0.00     0.049 A 
ATOM     58  H   UNL A   1      40.819  30.597  33.277  1.00  0.00     0.167 HD
ATOM     59  C   UNL A   1      42.446  28.434  32.419  1.00  0.00     0.074 A 
ATOM     60  C   UNL A   1      43.023  27.397  31.590  1.00  0.00     0.031 C 
ATOM     61  C   UNL A   1      42.862  28.723  33.677  1.00  0.00     0.037 A 
BRANCH  48  62
ATOM     62  C   UNL A   1      39.824  33.407  36.331  1.00  0.00     0.057 A 
ATOM     63  C   UNL A   1      38.949  33.104  37.384  1.00  0.00     0.134 A 
ATOM     64  C   UNL A   1      40.573  34.586  36.436  1.00  0.00     0.134 A 
ATOM     65  F   UNL A   1      38.190  31.998  37.339  1.00  0.00    -0.206 F 
ATOM     66  C   UNL A   1      38.803  33.953  38.481  1.00  0.00     0.040 A 
ATOM     67  C   UNL A   1      40.459  35.428  37.543  1.00  0.00     0.040 A 
ATOM     68  F   UNL A   1      41.432  34.936  35.466  1.00  0.00    -0.206 F 
ATOM     69  C   UNL A   1      39.566  35.115  38.568  1.00  0.00     0.006 A 
ENDBRANCH  48  62
BRANCH  49  70
ATOM     70  C   UNL A   1      40.680  27.788  28.108  1.00  0.00     0.057 A 
ATOM     71  C   UNL A   1      40.059  26.538  28.001  1.00  0.00     0.134 A 
ATOM     72  C   UNL A   1      41.455  28.217  27.024  1.00  0.00     0.134 A 
ATOM     73  F   UNL A   1      39.316  26.065  29.012  1.00  0.00    -0.206 F 
ATOM     74  C   UNL A   1      40.223  25.734  26.872  1.00  0.00     0.040 A 
ATOM     75  C   UNL A   1      41.607  27.434  25.878  1.00  0.00     0.040 A 
ATOM     76  F   UNL A   1      42.070  29.408  27.059  1.00  0.00    -0.206 F 
ATOM     77  C   UNL A   1      40.996  26.183  25.804  1.00  0.00     0.006 A 
ENDBRANCH  49  70
BRANCH  61  78
ATOM     78  C   UNL A   1      43.972  27.885  34.243  1.00  0.00     0.057 A 
ATOM     79  C   UNL A   1      43.724  26.669  34.892  1.00  0.00     0.134 A 
ATOM     80  C   UNL A   1      45.307  28.284  34.104  1.00  0.00     0.134 A 
ATOM     81  F   UNL A   1      42.467  26.235  35.069  1.00  0.00    -0.206 F 
ATOM     82  C   UNL A   1      44.763  25.893  35.406  1.00  0.00     0.040 A 
ATOM     83  C   UNL A   1      46.357  27.502  34.586  1.00  0.00     0.040 A 
ATOM     84  F   UNL A   1      45.614  29.434  33.483  1.00  0.00    -0.206 F 
ATOM     85  C   UNL A   1      46.085  26.305  35.247  1.00  0.00     0.006 A 
ENDBRANCH  61  78
ENDBRANCH  35  36
ENDBRANCH  27  30
ENDBRANCH  25  26
ENDBRANCH  24  25
ENDBRANCH  23  24
ENDBRANCH   1  23
TORSDOF 16
ENDMDL
