MODEL 1
REMARK VINA RESULT:     -11.7      0.000      0.000
REMARK SMILES CCCC[C@H](C(=O)NCCCCNC(=O)c1ccc(-c2c3nc(c(-c4c(F)cccc4F)c4ccc([nH]4)c(-c4c(F)cccc4F)c4nc(c(-c5c(F)cccc5F)c5ccc2[nH]5)C=C4)C=C3)cc1)N1C(=O)/C(=C/c2ccc(C)cc2)SC1=S
REMARK SMILES IDX 10 1 9 2 8 3 6 4 7 5 5 7 4 8 3 9 2 10 1 11 70 12 71 13 83 14
REMARK SMILES IDX 72 15 73 16 82 17 84 18 74 19 75 20 76 21 81 22 77 23 80 24
REMARK SMILES IDX 78 25 79 26 11 27 12 28 13 29 14 30 15 32 16 33 17 34 69 35
REMARK SMILES IDX 18 36 68 37 19 38 20 39 21 40 62 41 22 42 67 43 61 44 63 45
REMARK SMILES IDX 23 46 66 47 60 48 59 49 24 51 50 52 33 53 49 54 34 55 37 56
REMARK SMILES IDX 48 57 64 58 35 59 36 60 47 62 65 63 38 64 25 65 26 66 31 67
REMARK SMILES IDX 27 68 28 69 30 70 32 71 29 72 51 73 52 74 57 75 53 76 54 77
REMARK SMILES IDX 56 78 58 79 55 80 39 81 40 82 45 83 41 84 42 85 44 86 46 87
REMARK SMILES IDX 43 88
REMARK H PARENT 8 6 13 31 63 50 37 61
REMARK Flexibility Score: inf
ROOT
ATOM      1  C   UNL A   1      37.225  21.190  24.357  1.00  0.00     0.023 C 
ENDROOT
BRANCH   1   2
ATOM      2  C   UNL A   1      36.957  22.314  25.349  1.00  0.00     0.116 C 
BRANCH   2   3
ATOM      3  N   UNL A   1      36.058  21.924  26.422  1.00  0.00    -0.354 N 
ATOM      4  C   UNL A   1      34.696  21.772  26.396  1.00  0.00     0.243 C 
ATOM      5  O   UNL A   1      34.144  21.337  27.408  1.00  0.00    -0.273 OA
ATOM      6  H   UNL A   1      36.487  21.744  27.289  1.00  0.00     0.163 HD
BRANCH   4   7
ATOM      7  C   UNL A   1      33.914  22.173  25.134  1.00  0.00     0.181 C 
BRANCH   7   8
ATOM      8  C   UNL A   1      32.950  21.119  24.529  1.00  0.00     0.036 C 
BRANCH   8   9
ATOM      9  C   UNL A   1      33.379  19.655  24.347  1.00  0.00     0.002 C 
BRANCH   9  10
ATOM     10  C   UNL A   1      32.472  18.699  23.563  1.00  0.00    -0.003 C 
ATOM     11  C   UNL A   1      33.192  17.559  22.870  1.00  0.00     0.004 C 
ENDBRANCH   9  10
ENDBRANCH   8   9
ENDBRANCH   7   8
BRANCH   7  12
ATOM     12  N   UNL A   1      33.328  23.517  25.396  1.00  0.00    -0.280 N 
ATOM     13  C   UNL A   1      33.972  24.680  25.010  1.00  0.00     0.266 C 
ATOM     14  C   UNL A   1      32.034  23.690  25.867  1.00  0.00     0.149 C 
ATOM     15  O   UNL A   1      35.045  24.787  24.431  1.00  0.00    -0.268 OA
ATOM     16  C   UNL A   1      33.188  25.874  25.412  1.00  0.00     0.081 C 
ATOM     17  S   UNL A   1      31.645  25.402  25.978  1.00  0.00    -0.054 SA
ATOM     18  S   UNL A   1      30.919  22.524  26.307  1.00  0.00    -0.052 S 
ATOM     19  C   UNL A   1      33.715  27.103  25.318  1.00  0.00     0.029 C 
BRANCH  19  20
ATOM     20  C   UNL A   1      33.074  28.369  25.680  1.00  0.00    -0.024 A 
ATOM     21  C   UNL A   1      32.062  28.870  24.854  1.00  0.00     0.008 A 
ATOM     22  C   UNL A   1      33.478  29.114  26.792  1.00  0.00     0.008 A 
ATOM     23  C   UNL A   1      31.432  30.077  25.163  1.00  0.00     0.004 A 
ATOM     24  C   UNL A   1      32.844  30.318  27.104  1.00  0.00     0.004 A 
ATOM     25  C   UNL A   1      31.809  30.803  26.298  1.00  0.00    -0.051 A 
ATOM     26  C   UNL A   1      31.110  32.087  26.632  1.00  0.00     0.044 C 
ENDBRANCH  19  20
ENDBRANCH   7  12
ENDBRANCH   4   7
ENDBRANCH   2   3
ENDBRANCH   1   2
BRANCH   1  27
ATOM     27  C   UNL A   1      37.878  19.949  24.965  1.00  0.00     0.023 C 
BRANCH  27  28
ATOM     28  C   UNL A   1      38.988  20.233  25.972  1.00  0.00     0.116 C 
BRANCH  28  29
ATOM     29  N   UNL A   1      40.065  19.253  25.917  1.00  0.00    -0.352 N 
ATOM     30  C   UNL A   1      41.415  19.449  26.083  1.00  0.00     0.251 C 
ATOM     31  H   UNL A   1      39.787  18.326  25.739  1.00  0.00     0.163 HD
ATOM     32  O   UNL A   1      42.214  18.550  25.847  1.00  0.00    -0.269 OA
BRANCH  30  33
ATOM     33  C   UNL A   1      41.898  20.773  26.526  1.00  0.00     0.039 A 
ATOM     34  C   UNL A   1      42.297  21.713  25.573  1.00  0.00     0.014 A 
ATOM     35  C   UNL A   1      41.899  21.097  27.885  1.00  0.00     0.014 A 
ATOM     36  C   UNL A   1      42.622  23.010  25.980  1.00  0.00     0.010 A 
ATOM     37  C   UNL A   1      42.141  22.407  28.276  1.00  0.00     0.010 A 
ATOM     38  C   UNL A   1      42.507  23.378  27.330  1.00  0.00    -0.014 A 
BRANCH  38  39
ATOM     39  C   UNL A   1      42.781  24.762  27.797  1.00  0.00     0.031 A 
ATOM     40  C   UNL A   1      44.190  25.156  28.147  1.00  0.00     0.074 A 
ATOM     41  C   UNL A   1      41.769  25.629  27.990  1.00  0.00     0.049 A 
ATOM     42  N   UNL A   1      44.628  26.246  28.722  1.00  0.00    -0.248 NA
ATOM     43  C   UNL A   1      45.244  24.176  27.836  1.00  0.00     0.031 C 
ATOM     44  C   UNL A   1      40.356  25.367  27.709  1.00  0.00     0.029 A 
ATOM     45  N   UNL A   1      41.774  26.909  28.490  1.00  0.00    -0.354 N 
ATOM     46  C   UNL A   1      46.001  26.075  28.855  1.00  0.00     0.074 A 
ATOM     47  C   UNL A   1      46.315  24.754  28.358  1.00  0.00     0.031 C 
ATOM     48  C   UNL A   1      39.635  26.454  28.026  1.00  0.00     0.029 A 
ATOM     49  C   UNL A   1      40.522  27.472  28.580  1.00  0.00     0.049 A 
ATOM     50  H   UNL A   1      42.595  27.379  28.759  1.00  0.00     0.167 HD
ATOM     51  C   UNL A   1      46.922  26.950  29.324  1.00  0.00     0.037 A 
ATOM     52  C   UNL A   1      40.135  28.665  29.073  1.00  0.00     0.037 A 
ATOM     53  C   UNL A   1      46.610  28.271  29.800  1.00  0.00     0.049 A 
ATOM     54  C   UNL A   1      41.175  29.600  29.634  1.00  0.00     0.074 A 
ATOM     55  C   UNL A   1      47.474  29.242  30.273  1.00  0.00     0.029 A 
ATOM     56  N   UNL A   1      45.333  28.807  29.858  1.00  0.00    -0.354 N 
ATOM     57  N   UNL A   1      42.473  29.441  29.721  1.00  0.00    -0.248 NA
ATOM     58  C   UNL A   1      40.694  30.884  30.166  1.00  0.00     0.031 C 
ATOM     59  C   UNL A   1      46.717  30.351  30.659  1.00  0.00     0.029 A 
ATOM     60  C   UNL A   1      45.385  30.093  30.370  1.00  0.00     0.049 A 
ATOM     61  H   UNL A   1      44.510  28.344  29.578  1.00  0.00     0.167 HD
ATOM     62  C   UNL A   1      42.967  30.620  30.266  1.00  0.00     0.074 A 
ATOM     63  C   UNL A   1      41.829  31.486  30.492  1.00  0.00     0.031 C 
ATOM     64  C   UNL A   1      44.248  30.957  30.550  1.00  0.00     0.037 A 
BRANCH  51  65
ATOM     65  C   UNL A   1      48.356  26.507  29.336  1.00  0.00     0.057 A 
ATOM     66  C   UNL A   1      49.213  26.760  28.256  1.00  0.00     0.134 A 
ATOM     67  C   UNL A   1      48.898  25.857  30.452  1.00  0.00     0.134 A 
ATOM     68  F   UNL A   1      48.754  27.367  27.151  1.00  0.00    -0.206 F 
ATOM     69  C   UNL A   1      50.550  26.359  28.275  1.00  0.00     0.040 A 
ATOM     70  C   UNL A   1      50.241  25.479  30.494  1.00  0.00     0.040 A 
ATOM     71  F   UNL A   1      48.135  25.588  31.522  1.00  0.00    -0.206 F 
ATOM     72  C   UNL A   1      51.069  25.725  29.402  1.00  0.00     0.006 A 
ENDBRANCH  51  65
BRANCH  52  73
ATOM     73  C   UNL A   1      38.703  29.062  29.056  1.00  0.00     0.057 A 
ATOM     74  C   UNL A   1      38.125  29.622  27.910  1.00  0.00     0.134 A 
ATOM     75  C   UNL A   1      37.890  28.936  30.189  1.00  0.00     0.134 A 
ATOM     76  F   UNL A   1      38.857  29.788  26.798  1.00  0.00    -0.206 F 
ATOM     77  C   UNL A   1      36.805  30.076  27.901  1.00  0.00     0.040 A 
ATOM     78  C   UNL A   1      36.559  29.359  30.184  1.00  0.00     0.040 A 
ATOM     79  F   UNL A   1      38.377  28.401  31.317  1.00  0.00    -0.206 F 
ATOM     80  C   UNL A   1      36.017  29.942  29.041  1.00  0.00     0.006 A 
ENDBRANCH  52  73
BRANCH  64  81
ATOM     81  C   UNL A   1      44.507  32.346  31.059  1.00  0.00     0.057 A 
ATOM     82  C   UNL A   1      44.741  33.426  30.199  1.00  0.00     0.134 A 
ATOM     83  C   UNL A   1      44.456  32.612  32.434  1.00  0.00     0.134 A 
ATOM     84  F   UNL A   1      44.814  33.237  28.874  1.00  0.00    -0.206 F 
ATOM     85  C   UNL A   1      44.933  34.719  30.691  1.00  0.00     0.040 A 
ATOM     86  C   UNL A   1      44.616  33.903  32.935  1.00  0.00     0.040 A 
ATOM     87  F   UNL A   1      44.226  31.623  33.311  1.00  0.00    -0.206 F 
ATOM     88  C   UNL A   1      44.859  34.962  32.062  1.00  0.00     0.006 A 
ENDBRANCH  64  81
ENDBRANCH  38  39
ENDBRANCH  30  33
ENDBRANCH  28  29
ENDBRANCH  27  28
ENDBRANCH   1  27
TORSDOF 16
ENDMDL
MODEL 2
REMARK VINA RESULT:     -11.6      4.051      9.604
REMARK SMILES CCCC[C@H](C(=O)NCCCCNC(=O)c1ccc(-c2c3nc(c(-c4c(F)cccc4F)c4ccc([nH]4)c(-c4c(F)cccc4F)c4nc(c(-c5c(F)cccc5F)c5ccc2[nH]5)C=C4)C=C3)cc1)N1C(=O)/C(=C/c2ccc(C)cc2)SC1=S
REMARK SMILES IDX 10 1 9 2 8 3 6 4 7 5 5 7 4 8 3 9 2 10 1 11 70 12 71 13 83 14
REMARK SMILES IDX 72 15 73 16 82 17 84 18 74 19 75 20 76 21 81 22 77 23 80 24
REMARK SMILES IDX 78 25 79 26 11 27 12 28 13 29 14 30 15 32 16 33 17 34 69 35
REMARK SMILES IDX 18 36 68 37 19 38 20 39 21 40 62 41 22 42 67 43 61 44 63 45
REMARK SMILES IDX 23 46 66 47 60 48 59 49 24 51 50 52 33 53 49 54 34 55 37 56
REMARK SMILES IDX 48 57 64 58 35 59 36 60 47 62 65 63 38 64 25 65 26 66 31 67
REMARK SMILES IDX 27 68 28 69 30 70 32 71 29 72 51 73 52 74 57 75 53 76 54 77
REMARK SMILES IDX 56 78 58 79 55 80 39 81 40 82 45 83 41 84 42 85 44 86 46 87
REMARK SMILES IDX 43 88
REMARK H PARENT 8 6 13 31 63 50 37 61
REMARK Flexibility Score: inf
ROOT
ATOM      1  C   UNL A   1      31.380  30.806  25.778  1.00  0.00     0.023 C 
ENDROOT
BRANCH   1   2
ATOM      2  C   UNL A   1      32.570  29.857  25.866  1.00  0.00     0.116 C 
BRANCH   2   3
ATOM      3  N   UNL A   1      33.302  29.747  24.615  1.00  0.00    -0.354 N 
ATOM      4  C   UNL A   1      33.154  28.832  23.606  1.00  0.00     0.243 C 
ATOM      5  O   UNL A   1      33.826  28.987  22.584  1.00  0.00    -0.273 OA
ATOM      6  H   UNL A   1      34.002  30.423  24.474  1.00  0.00     0.163 HD
BRANCH   4   7
ATOM      7  C   UNL A   1      32.193  27.646  23.793  1.00  0.00     0.181 C 
BRANCH   7   8
ATOM      8  C   UNL A   1      30.924  27.612  22.903  1.00  0.00     0.036 C 
BRANCH   8   9
ATOM      9  C   UNL A   1      29.565  28.100  23.428  1.00  0.00     0.002 C 
BRANCH   9  10
ATOM     10  C   UNL A   1      28.770  29.127  22.614  1.00  0.00    -0.003 C 
ATOM     11  C   UNL A   1      29.611  30.188  21.929  1.00  0.00     0.004 C 
ENDBRANCH   9  10
ENDBRANCH   8   9
ENDBRANCH   7   8
BRANCH   7  12
ATOM     12  N   UNL A   1      33.024  26.410  23.791  1.00  0.00    -0.280 N 
ATOM     13  C   UNL A   1      33.561  25.891  24.956  1.00  0.00     0.266 C 
ATOM     14  C   UNL A   1      33.161  25.603  22.671  1.00  0.00     0.149 C 
ATOM     15  O   UNL A   1      33.446  26.328  26.094  1.00  0.00    -0.268 OA
ATOM     16  C   UNL A   1      34.363  24.677  24.671  1.00  0.00     0.081 C 
ATOM     17  S   UNL A   1      34.137  24.190  23.048  1.00  0.00    -0.054 SA
ATOM     18  S   UNL A   1      32.545  25.838  21.134  1.00  0.00    -0.052 S 
ATOM     19  C   UNL A   1      35.134  24.127  25.620  1.00  0.00     0.029 C 
BRANCH  19  20
ATOM     20  C   UNL A   1      35.984  22.941  25.490  1.00  0.00    -0.024 A 
ATOM     21  C   UNL A   1      37.370  23.092  25.604  1.00  0.00     0.008 A 
ATOM     22  C   UNL A   1      35.457  21.678  25.206  1.00  0.00     0.008 A 
ATOM     23  C   UNL A   1      38.213  21.986  25.480  1.00  0.00     0.004 A 
ATOM     24  C   UNL A   1      36.300  20.570  25.088  1.00  0.00     0.004 A 
ATOM     25  C   UNL A   1      37.683  20.715  25.234  1.00  0.00    -0.051 A 
ATOM     26  C   UNL A   1      38.596  19.532  25.125  1.00  0.00     0.044 C 
ENDBRANCH  19  20
ENDBRANCH   7  12
ENDBRANCH   4   7
ENDBRANCH   2   3
ENDBRANCH   1   2
BRANCH   1  27
ATOM     27  C   UNL A   1      31.349  31.884  26.861  1.00  0.00     0.023 C 
BRANCH  27  28
ATOM     28  C   UNL A   1      32.672  32.607  27.090  1.00  0.00     0.116 C 
BRANCH  28  29
ATOM     29  N   UNL A   1      32.494  33.997  27.491  1.00  0.00    -0.352 N 
ATOM     30  C   UNL A   1      33.133  34.692  28.490  1.00  0.00     0.251 C 
ATOM     31  H   UNL A   1      31.827  34.506  26.976  1.00  0.00     0.163 HD
ATOM     32  O   UNL A   1      32.758  35.814  28.813  1.00  0.00    -0.269 OA
BRANCH  30  33
ATOM     33  C   UNL A   1      34.268  34.058  29.191  1.00  0.00     0.039 A 
ATOM     34  C   UNL A   1      34.019  33.202  30.266  1.00  0.00     0.014 A 
ATOM     35  C   UNL A   1      35.574  34.272  28.742  1.00  0.00     0.014 A 
ATOM     36  C   UNL A   1      35.079  32.495  30.842  1.00  0.00     0.010 A 
ATOM     37  C   UNL A   1      36.610  33.506  29.260  1.00  0.00     0.010 A 
ATOM     38  C   UNL A   1      36.375  32.610  30.316  1.00  0.00    -0.014 A 
BRANCH  38  39
ATOM     39  C   UNL A   1      37.518  31.829  30.856  1.00  0.00     0.031 A 
ATOM     40  C   UNL A   1      38.123  32.225  32.176  1.00  0.00     0.074 A 
ATOM     41  C   UNL A   1      38.066  30.834  30.133  1.00  0.00     0.049 A 
ATOM     42  N   UNL A   1      39.215  31.791  32.751  1.00  0.00    -0.248 NA
ATOM     43  C   UNL A   1      37.419  33.271  32.935  1.00  0.00     0.031 C 
ATOM     44  C   UNL A   1      37.590  30.365  28.830  1.00  0.00     0.029 A 
ATOM     45  N   UNL A   1      39.164  30.047  30.386  1.00  0.00    -0.354 N 
ATOM     46  C   UNL A   1      39.335  32.522  33.927  1.00  0.00     0.074 A 
ATOM     47  C   UNL A   1      38.242  33.467  33.953  1.00  0.00     0.031 C 
ATOM     48  C   UNL A   1      38.379  29.364  28.407  1.00  0.00     0.029 A 
ATOM     49  C   UNL A   1      39.447  29.153  29.379  1.00  0.00     0.049 A 
ATOM     50  H   UNL A   1      39.697  30.116  31.210  1.00  0.00     0.167 HD
ATOM     51  C   UNL A   1      40.258  32.399  34.910  1.00  0.00     0.037 A 
ATOM     52  C   UNL A   1      40.464  28.280  29.249  1.00  0.00     0.037 A 
ATOM     53  C   UNL A   1      41.335  31.444  34.891  1.00  0.00     0.049 A 
ATOM     54  C   UNL A   1      41.506  28.197  30.335  1.00  0.00     0.074 A 
ATOM     55  C   UNL A   1      42.308  31.224  35.849  1.00  0.00     0.029 A 
ATOM     56  N   UNL A   1      41.575  30.548  33.861  1.00  0.00    -0.354 N 
ATOM     57  N   UNL A   1      41.588  28.868  31.457  1.00  0.00    -0.248 NA
ATOM     58  C   UNL A   1      42.597  27.232  30.134  1.00  0.00     0.031 C 
ATOM     59  C   UNL A   1      43.164  30.224  35.381  1.00  0.00     0.029 A 
ATOM     60  C   UNL A   1      42.688  29.779  34.157  1.00  0.00     0.049 A 
ATOM     61  H   UNL A   1      41.034  30.468  33.041  1.00  0.00     0.167 HD
ATOM     62  C   UNL A   1      42.705  28.372  32.118  1.00  0.00     0.074 A 
ATOM     63  C   UNL A   1      43.271  27.344  31.270  1.00  0.00     0.031 C 
ATOM     64  C   UNL A   1      43.214  28.732  33.321  1.00  0.00     0.037 A 
BRANCH  51  65
ATOM     65  C   UNL A   1      40.137  33.314  36.093  1.00  0.00     0.057 A 
ATOM     66  C   UNL A   1      40.873  34.504  36.182  1.00  0.00     0.134 A 
ATOM     67  C   UNL A   1      39.248  33.025  37.136  1.00  0.00     0.134 A 
ATOM     68  F   UNL A   1      41.751  34.833  35.223  1.00  0.00    -0.206 F 
ATOM     69  C   UNL A   1      40.747  35.361  37.277  1.00  0.00     0.040 A 
ATOM     70  C   UNL A   1      39.092  33.890  38.221  1.00  0.00     0.040 A 
ATOM     71  F   UNL A   1      38.510  31.907  37.113  1.00  0.00    -0.206 F 
ATOM     72  C   UNL A   1      39.848  35.058  38.296  1.00  0.00     0.006 A 
ENDBRANCH  51  65
BRANCH  52  73
ATOM     73  C   UNL A   1      40.557  27.399  28.055  1.00  0.00     0.057 A 
ATOM     74  C   UNL A   1      39.976  26.124  28.054  1.00  0.00     0.134 A 
ATOM     75  C   UNL A   1      41.261  27.784  26.907  1.00  0.00     0.134 A 
ATOM     76  F   UNL A   1      39.305  25.688  29.130  1.00  0.00    -0.206 F 
ATOM     77  C   UNL A   1      40.122  25.252  26.974  1.00  0.00     0.040 A 
ATOM     78  C   UNL A   1      41.389  26.933  25.808  1.00  0.00     0.040 A 
ATOM     79  F   UNL A   1      41.834  28.994  26.838  1.00  0.00    -0.206 F 
ATOM     80  C   UNL A   1      40.829  25.657  25.845  1.00  0.00     0.006 A 
ENDBRANCH  52  73
BRANCH  64  81
ATOM     81  C   UNL A   1      44.394  27.960  33.838  1.00  0.00     0.057 A 
ATOM     82  C   UNL A   1      45.712  28.399  33.659  1.00  0.00     0.134 A 
ATOM     83  C   UNL A   1      44.197  26.791  34.584  1.00  0.00     0.134 A 
ATOM     84  F   UNL A   1      45.970  29.504  32.945  1.00  0.00    -0.206 F 
ATOM     85  C   UNL A   1      46.792  27.691  34.189  1.00  0.00     0.040 A 
ATOM     86  C   UNL A   1      45.266  26.092  35.144  1.00  0.00     0.040 A 
ATOM     87  F   UNL A   1      42.959  26.322  34.801  1.00  0.00    -0.206 F 
ATOM     88  C   UNL A   1      46.570  26.540  34.944  1.00  0.00     0.006 A 
ENDBRANCH  64  81
ENDBRANCH  38  39
ENDBRANCH  30  33
ENDBRANCH  28  29
ENDBRANCH  27  28
ENDBRANCH   1  27
TORSDOF 16
ENDMDL
MODEL 3
REMARK VINA RESULT:     -11.4      4.010      9.223
REMARK SMILES CCCC[C@H](C(=O)NCCCCNC(=O)c1ccc(-c2c3nc(c(-c4c(F)cccc4F)c4ccc([nH]4)c(-c4c(F)cccc4F)c4nc(c(-c5c(F)cccc5F)c5ccc2[nH]5)C=C4)C=C3)cc1)N1C(=O)/C(=C/c2ccc(C)cc2)SC1=S
REMARK SMILES IDX 10 1 9 2 8 3 6 4 7 5 5 7 4 8 3 9 2 10 1 11 70 12 71 13 83 14
REMARK SMILES IDX 72 15 73 16 82 17 84 18 74 19 75 20 76 21 81 22 77 23 80 24
REMARK SMILES IDX 78 25 79 26 11 27 12 28 13 29 14 30 15 32 16 33 17 34 69 35
REMARK SMILES IDX 18 36 68 37 19 38 20 39 21 40 62 41 22 42 67 43 61 44 63 45
REMARK SMILES IDX 23 46 66 47 60 48 59 49 24 51 50 52 33 53 49 54 34 55 37 56
REMARK SMILES IDX 48 57 64 58 35 59 36 60 47 62 65 63 38 64 25 65 26 66 31 67
REMARK SMILES IDX 27 68 28 69 30 70 32 71 29 72 51 73 52 74 57 75 53 76 54 77
REMARK SMILES IDX 56 78 58 79 55 80 39 81 40 82 45 83 41 84 42 85 44 86 46 87
REMARK SMILES IDX 43 88
REMARK H PARENT 8 6 13 31 63 50 37 61
REMARK Flexibility Score: inf
ROOT
ATOM      1  C   UNL A   1      31.129  30.492  25.684  1.00  0.00     0.023 C 
ENDROOT
BRANCH   1   2
ATOM      2  C   UNL A   1      32.503  29.840  25.767  1.00  0.00     0.116 C 
BRANCH   2   3
ATOM      3  N   UNL A   1      33.170  29.754  24.479  1.00  0.00    -0.354 N 
ATOM      4  C   UNL A   1      32.939  28.890  23.441  1.00  0.00     0.243 C 
ATOM      5  O   UNL A   1      33.567  29.062  22.395  1.00  0.00    -0.273 OA
ATOM      6  H   UNL A   1      33.891  30.408  24.332  1.00  0.00     0.163 HD
BRANCH   4   7
ATOM      7  C   UNL A   1      31.940  27.736  23.626  1.00  0.00     0.181 C 
BRANCH   7   8
ATOM      8  C   UNL A   1      30.668  27.746  22.738  1.00  0.00     0.036 C 
BRANCH   8   9
ATOM      9  C   UNL A   1      29.931  29.054  22.411  1.00  0.00     0.002 C 
BRANCH   9  10
ATOM     10  C   UNL A   1      28.398  29.074  22.418  1.00  0.00    -0.003 C 
ATOM     11  C   UNL A   1      27.776  30.191  23.234  1.00  0.00     0.004 C 
ENDBRANCH   9  10
ENDBRANCH   8   9
ENDBRANCH   7   8
BRANCH   7  12
ATOM     12  N   UNL A   1      32.729  26.473  23.618  1.00  0.00    -0.280 N 
ATOM     13  C   UNL A   1      33.255  25.935  24.780  1.00  0.00     0.266 C 
ATOM     14  C   UNL A   1      32.833  25.663  22.496  1.00  0.00     0.149 C 
ATOM     15  O   UNL A   1      33.161  26.374  25.919  1.00  0.00    -0.268 OA
ATOM     16  C   UNL A   1      34.015  24.695  24.489  1.00  0.00     0.081 C 
ATOM     17  S   UNL A   1      33.765  24.218  22.867  1.00  0.00    -0.054 SA
ATOM     18  S   UNL A   1      32.217  25.920  20.963  1.00  0.00    -0.052 S 
ATOM     19  C   UNL A   1      34.773  24.119  25.433  1.00  0.00     0.029 C 
BRANCH  19  20
ATOM     20  C   UNL A   1      35.583  22.907  25.298  1.00  0.00    -0.024 A 
ATOM     21  C   UNL A   1      36.970  23.035  25.171  1.00  0.00     0.008 A 
ATOM     22  C   UNL A   1      35.008  21.633  25.239  1.00  0.00     0.008 A 
ATOM     23  C   UNL A   1      37.774  21.903  25.034  1.00  0.00     0.004 A 
ATOM     24  C   UNL A   1      35.813  20.500  25.107  1.00  0.00     0.004 A 
ATOM     25  C   UNL A   1      37.203  20.626  25.014  1.00  0.00    -0.051 A 
ATOM     26  C   UNL A   1      38.079  19.416  24.888  1.00  0.00     0.044 C 
ENDBRANCH  19  20
ENDBRANCH   7  12
ENDBRANCH   4   7
ENDBRANCH   2   3
ENDBRANCH   1   2
BRANCH   1  27
ATOM     27  C   UNL A   1      31.093  31.954  26.128  1.00  0.00     0.023 C 
BRANCH  27  28
ATOM     28  C   UNL A   1      32.283  32.401  26.971  1.00  0.00     0.116 C 
BRANCH  28  29
ATOM     29  N   UNL A   1      32.153  33.771  27.451  1.00  0.00    -0.352 N 
ATOM     30  C   UNL A   1      32.957  34.453  28.333  1.00  0.00     0.251 C 
ATOM     31  H   UNL A   1      31.386  34.275  27.095  1.00  0.00     0.163 HD
ATOM     32  O   UNL A   1      32.626  35.551  28.765  1.00  0.00    -0.269 OA
BRANCH  30  33
ATOM     33  C   UNL A   1      34.222  33.832  28.777  1.00  0.00     0.039 A 
ATOM     34  C   UNL A   1      35.435  34.318  28.287  1.00  0.00     0.014 A 
ATOM     35  C   UNL A   1      34.199  32.803  29.723  1.00  0.00     0.014 A 
ATOM     36  C   UNL A   1      36.635  33.825  28.809  1.00  0.00     0.010 A 
ATOM     37  C   UNL A   1      35.389  32.377  30.298  1.00  0.00     0.010 A 
ATOM     38  C   UNL A   1      36.620  32.881  29.848  1.00  0.00    -0.014 A 
BRANCH  38  39
ATOM     39  C   UNL A   1      37.870  32.378  30.474  1.00  0.00     0.031 A 
ATOM     40  C   UNL A   1      38.537  31.153  29.909  1.00  0.00     0.074 A 
ATOM     41  C   UNL A   1      38.353  32.956  31.590  1.00  0.00     0.049 A 
ATOM     42  N   UNL A   1      39.532  30.454  30.390  1.00  0.00    -0.248 NA
ATOM     43  C   UNL A   1      37.989  30.629  28.647  1.00  0.00     0.031 C 
ATOM     44  C   UNL A   1      37.791  34.134  32.252  1.00  0.00     0.029 A 
ATOM     45  N   UNL A   1      39.424  32.614  32.380  1.00  0.00    -0.354 N 
ATOM     46  C   UNL A   1      39.716  29.402  29.500  1.00  0.00     0.074 A 
ATOM     47  C   UNL A   1      38.693  29.520  28.485  1.00  0.00     0.031 C 
ATOM     48  C   UNL A   1      38.529  34.425  33.336  1.00  0.00     0.029 A 
ATOM     49  C   UNL A   1      39.584  33.428  33.477  1.00  0.00     0.049 A 
ATOM     50  H   UNL A   1      40.021  31.858  32.180  1.00  0.00     0.167 HD
ATOM     51  C   UNL A   1      40.668  28.440  29.512  1.00  0.00     0.037 A 
ATOM     52  C   UNL A   1      40.469  33.362  34.492  1.00  0.00     0.037 A 
ATOM     53  C   UNL A   1      41.698  28.336  30.512  1.00  0.00     0.049 A 
ATOM     54  C   UNL A   1      41.488  32.252  34.507  1.00  0.00     0.074 A 
ATOM     55  C   UNL A   1      42.723  27.411  30.600  1.00  0.00     0.029 A 
ATOM     56  N   UNL A   1      41.833  29.190  31.596  1.00  0.00    -0.354 N 
ATOM     57  N   UNL A   1      41.674  31.285  33.640  1.00  0.00    -0.248 NA
ATOM     58  C   UNL A   1      42.422  32.225  35.642  1.00  0.00     0.031 C 
ATOM     59  C   UNL A   1      43.455  27.679  31.760  1.00  0.00     0.029 A 
ATOM     60  C   UNL A   1      42.920  28.807  32.363  1.00  0.00     0.049 A 
ATOM     61  H   UNL A   1      41.245  29.955  31.791  1.00  0.00     0.167 HD
ATOM     62  C   UNL A   1      42.774  30.570  34.098  1.00  0.00     0.074 A 
ATOM     63  C   UNL A   1      43.214  31.212  35.318  1.00  0.00     0.031 C 
ATOM     64  C   UNL A   1      43.369  29.481  33.553  1.00  0.00     0.037 A 
BRANCH  51  65
ATOM     65  C   UNL A   1      40.646  27.428  28.404  1.00  0.00     0.057 A 
ATOM     66  C   UNL A   1      39.855  26.273  28.477  1.00  0.00     0.134 A 
ATOM     67  C   UNL A   1      41.391  27.628  27.234  1.00  0.00     0.134 A 
ATOM     68  F   UNL A   1      39.128  26.015  29.574  1.00  0.00    -0.206 F 
ATOM     69  C   UNL A   1      39.825  25.342  27.438  1.00  0.00     0.040 A 
ATOM     70  C   UNL A   1      41.344  26.718  26.176  1.00  0.00     0.040 A 
ATOM     71  F   UNL A   1      42.165  28.714  27.095  1.00  0.00    -0.206 F 
ATOM     72  C   UNL A   1      40.565  25.568  26.280  1.00  0.00     0.006 A 
ENDBRANCH  51  65
BRANCH  52  73
ATOM     73  C   UNL A   1      40.451  34.375  35.579  1.00  0.00     0.057 A 
ATOM     74  C   UNL A   1      41.238  35.531  35.498  1.00  0.00     0.134 A 
ATOM     75  C   UNL A   1      39.688  34.197  36.739  1.00  0.00     0.134 A 
ATOM     76  F   UNL A   1      42.006  35.750  34.421  1.00  0.00    -0.206 F 
ATOM     77  C   UNL A   1      41.297  36.453  36.545  1.00  0.00     0.040 A 
ATOM     78  C   UNL A   1      39.714  35.127  37.781  1.00  0.00     0.040 A 
ATOM     79  F   UNL A   1      38.906  33.118  36.877  1.00  0.00    -0.206 F 
ATOM     80  C   UNL A   1      40.530  36.253  37.690  1.00  0.00     0.006 A 
ENDBRANCH  52  73
BRANCH  64  81
ATOM     81  C   UNL A   1      44.610  28.958  34.219  1.00  0.00     0.057 A 
ATOM     82  C   UNL A   1      45.884  29.453  33.920  1.00  0.00     0.134 A 
ATOM     83  C   UNL A   1      44.511  27.987  35.224  1.00  0.00     0.134 A 
ATOM     84  F   UNL A   1      46.049  30.375  32.960  1.00  0.00    -0.206 F 
ATOM     85  C   UNL A   1      47.021  28.987  34.585  1.00  0.00     0.040 A 
ATOM     86  C   UNL A   1      45.634  27.535  35.916  1.00  0.00     0.040 A 
ATOM     87  F   UNL A   1      43.318  27.479  35.566  1.00  0.00    -0.206 F 
ATOM     88  C   UNL A   1      46.896  28.033  35.594  1.00  0.00     0.006 A 
ENDBRANCH  64  81
ENDBRANCH  38  39
ENDBRANCH  30  33
ENDBRANCH  28  29
ENDBRANCH  27  28
ENDBRANCH   1  27
TORSDOF 16
ENDMDL
