MODEL 1
REMARK VINA RESULT:     -12.2      0.000      0.000
REMARK SMILES O=C(NCCCCNC(=O)[C@H](CO)NC(=O)[C@H](CS)NC(=O)[C@H](Cc1c[nH]c2ccccc12)NC(=O)c1ccc(F)cc1)c1ccc(-c2c3nc(c(-c4c(F)cccc4F)c4ccc([nH]4)c(-c4c(F)cccc4F)c4nc(c(-c5c(F)cccc5F)c5ccc2[nH]5)C=C4)C=C3)cc1
REMARK SMILES IDX 8 1 9 2 10 3 7 5 6 6 5 7 4 8 3 9 1 10 2 11 44 13 45 14 97 15
REMARK SMILES IDX 46 16 96 17 47 18 48 19 49 20 90 21 50 22 95 23 89 24 91 25
REMARK SMILES IDX 51 26 94 27 88 28 87 29 52 31 78 32 61 33 77 34 62 35 65 36
REMARK SMILES IDX 76 37 92 38 63 39 64 40 75 42 93 43 66 44 53 45 54 46 59 47
REMARK SMILES IDX 55 48 56 49 58 50 60 51 57 52 79 53 80 54 85 55 81 56 82 57
REMARK SMILES IDX 84 58 86 59 83 60 67 61 68 62 73 63 69 64 70 65 72 66 74 67
REMARK SMILES IDX 71 68 11 69 14 70 15 71 16 73 17 74 20 75 21 76 22 78 23 79
REMARK SMILES IDX 34 80 35 81 36 83 37 84 38 85 43 86 39 87 42 88 40 89 41 90
REMARK SMILES IDX 24 91 25 92 26 93 33 94 27 95 28 96 32 97 29 99 31 100
REMARK SMILES IDX 30 101 18 102 19 103 12 105 13 106
REMARK H PARENT 8 4 3 12 91 30 65 41 14 72 20 77 34 82 27 98 19 104 13 107
REMARK Flexibility Score: inf
ROOT
ATOM      1  N   UNL A   1      33.075  29.685  24.733  1.00  0.00    -0.354 N 
ATOM      2  C   UNL A   1      32.920  28.675  23.828  1.00  0.00     0.244 C 
ATOM      3  O   UNL A   1      33.913  28.373  23.158  1.00  0.00    -0.273 OA
ATOM      4  H   UNL A   1      33.947  30.138  24.682  1.00  0.00     0.163 HD
ENDROOT
BRANCH   1   5
ATOM      5  C   UNL A   1      32.190  30.219  25.759  1.00  0.00     0.116 C 
BRANCH   5   6
ATOM      6  C   UNL A   1      32.734  29.988  27.163  1.00  0.00     0.023 C 
BRANCH   6   7
ATOM      7  C   UNL A   1      33.759  28.871  27.230  1.00  0.00     0.023 C 
BRANCH   7   8
ATOM      8  C   UNL A   1      35.135  29.387  27.601  1.00  0.00     0.116 C 
BRANCH   8   9
ATOM      9  N   UNL A   1      35.113  30.306  28.741  1.00  0.00    -0.352 N 
ATOM     10  O   UNL A   1      35.758  31.350  30.630  1.00  0.00    -0.269 OA
ATOM     11  C   UNL A   1      36.065  30.637  29.678  1.00  0.00     0.251 C 
ATOM     12  H   UNL A   1      34.256  30.775  28.858  1.00  0.00     0.163 HD
BRANCH  11  13
ATOM     13  C   UNL A   1      37.452  30.124  29.577  1.00  0.00     0.039 A 
ATOM     14  C   UNL A   1      38.195  30.316  28.423  1.00  0.00     0.014 A 
ATOM     15  C   UNL A   1      38.040  29.452  30.657  1.00  0.00     0.014 A 
ATOM     16  C   UNL A   1      39.366  29.611  28.230  1.00  0.00     0.010 A 
ATOM     17  C   UNL A   1      39.331  28.916  30.536  1.00  0.00     0.010 A 
ATOM     18  C   UNL A   1      39.993  28.957  29.302  1.00  0.00    -0.014 A 
BRANCH  18  19
ATOM     19  C   UNL A   1      41.369  28.442  29.065  1.00  0.00     0.031 A 
ATOM     20  C   UNL A   1      41.623  27.061  28.533  1.00  0.00     0.074 A 
ATOM     21  C   UNL A   1      42.390  29.318  29.200  1.00  0.00     0.049 A 
ATOM     22  N   UNL A   1      42.756  26.540  28.132  1.00  0.00    -0.248 NA
ATOM     23  C   UNL A   1      40.482  26.138  28.450  1.00  0.00     0.031 C 
ATOM     24  C   UNL A   1      42.259  30.681  29.731  1.00  0.00     0.029 A 
ATOM     25  N   UNL A   1      43.704  29.246  28.816  1.00  0.00    -0.354 N 
ATOM     26  C   UNL A   1      42.474  25.226  27.789  1.00  0.00     0.074 A 
ATOM     27  C   UNL A   1      41.062  25.021  28.029  1.00  0.00     0.031 C 
ATOM     28  C   UNL A   1      43.382  31.362  29.484  1.00  0.00     0.029 A 
ATOM     29  C   UNL A   1      44.358  30.456  28.895  1.00  0.00     0.049 A 
ATOM     30  H   UNL A   1      44.137  28.415  28.516  1.00  0.00     0.167 HD
ATOM     31  C   UNL A   1      43.322  24.282  27.317  1.00  0.00     0.037 A 
ATOM     32  C   UNL A   1      45.606  30.805  28.532  1.00  0.00     0.037 A 
ATOM     33  C   UNL A   1      44.720  24.510  27.047  1.00  0.00     0.049 A 
ATOM     34  C   UNL A   1      46.510  29.746  27.984  1.00  0.00     0.074 A 
ATOM     35  C   UNL A   1      45.661  23.616  26.567  1.00  0.00     0.029 A 
ATOM     36  N   UNL A   1      45.371  25.721  27.219  1.00  0.00    -0.354 N 
ATOM     37  N   UNL A   1      46.230  28.499  27.693  1.00  0.00    -0.248 NA
ATOM     38  C   UNL A   1      47.909  30.126  27.753  1.00  0.00     0.031 C 
ATOM     39  C   UNL A   1      46.889  24.277  26.479  1.00  0.00     0.029 A 
ATOM     40  C   UNL A   1      46.705  25.594  26.866  1.00  0.00     0.049 A 
ATOM     41  H   UNL A   1      44.949  26.550  27.545  1.00  0.00     0.167 HD
ATOM     42  C   UNL A   1      47.423  27.937  27.265  1.00  0.00     0.074 A 
ATOM     43  C   UNL A   1      48.416  28.993  27.288  1.00  0.00     0.031 C 
ATOM     44  C   UNL A   1      47.677  26.655  26.909  1.00  0.00     0.037 A 
BRANCH  31  45
ATOM     45  C   UNL A   1      42.782  22.904  27.074  1.00  0.00     0.057 A 
ATOM     46  C   UNL A   1      42.527  22.042  28.150  1.00  0.00     0.134 A 
ATOM     47  C   UNL A   1      42.605  22.396  25.783  1.00  0.00     0.134 A 
ATOM     48  F   UNL A   1      42.684  22.466  29.413  1.00  0.00    -0.206 F 
ATOM     49  C   UNL A   1      42.137  20.718  27.948  1.00  0.00     0.040 A 
ATOM     50  C   UNL A   1      42.196  21.078  25.568  1.00  0.00     0.040 A 
ATOM     51  F   UNL A   1      42.819  23.174  24.711  1.00  0.00    -0.206 F 
ATOM     52  C   UNL A   1      41.972  20.232  26.653  1.00  0.00     0.006 A 
ENDBRANCH  31  45
BRANCH  32  53
ATOM     53  C   UNL A   1      46.066  32.208  28.698  1.00  0.00     0.057 A 
ATOM     54  C   UNL A   1      46.755  32.621  29.845  1.00  0.00     0.134 A 
ATOM     55  C   UNL A   1      45.799  33.178  27.726  1.00  0.00     0.134 A 
ATOM     56  F   UNL A   1      47.038  31.741  30.818  1.00  0.00    -0.206 F 
ATOM     57  C   UNL A   1      47.134  33.950  30.035  1.00  0.00     0.040 A 
ATOM     58  C   UNL A   1      46.200  34.506  27.887  1.00  0.00     0.040 A 
ATOM     59  F   UNL A   1      45.158  32.844  26.595  1.00  0.00    -0.206 F 
ATOM     60  C   UNL A   1      46.860  34.896  29.051  1.00  0.00     0.006 A 
ENDBRANCH  32  53
BRANCH  44  61
ATOM     61  C   UNL A   1      49.088  26.331  26.530  1.00  0.00     0.057 A 
ATOM     62  C   UNL A   1      49.970  25.769  27.459  1.00  0.00     0.134 A 
ATOM     63  C   UNL A   1      49.580  26.610  25.248  1.00  0.00     0.134 A 
ATOM     64  F   UNL A   1      49.559  25.486  28.704  1.00  0.00    -0.206 F 
ATOM     65  C   UNL A   1      51.297  25.496  27.126  1.00  0.00     0.040 A 
ATOM     66  C   UNL A   1      50.898  26.320  24.897  1.00  0.00     0.040 A 
ATOM     67  F   UNL A   1      48.776  27.136  24.311  1.00  0.00    -0.206 F 
ATOM     68  C   UNL A   1      51.762  25.766  25.840  1.00  0.00     0.006 A 
ENDBRANCH  44  61
ENDBRANCH  18  19
ENDBRANCH  11  13
ENDBRANCH   8   9
ENDBRANCH   7   8
ENDBRANCH   6   7
ENDBRANCH   5   6
ENDBRANCH   1   5
BRANCH   2  69
ATOM     69  C   UNL A   1      31.645  27.808  23.789  1.00  0.00     0.197 C 
BRANCH  69  70
ATOM     70  N   UNL A   1      31.157  27.391  25.096  1.00  0.00    -0.340 N 
ATOM     71  C   UNL A   1      31.145  26.132  25.618  1.00  0.00     0.244 C 
ATOM     72  H   UNL A   1      30.790  28.102  25.669  1.00  0.00     0.164 HD
ATOM     73  O   UNL A   1      30.861  26.021  26.814  1.00  0.00    -0.273 OA
BRANCH  71  74
ATOM     74  C   UNL A   1      31.651  24.925  24.787  1.00  0.00     0.181 C 
BRANCH  74  75
ATOM     75  N   UNL A   1      31.180  23.712  25.483  1.00  0.00    -0.342 N 
ATOM     76  C   UNL A   1      31.399  22.376  25.414  1.00  0.00     0.243 C 
ATOM     77  H   UNL A   1      30.532  23.933  26.191  1.00  0.00     0.164 HD
ATOM     78  O   UNL A   1      30.663  21.712  26.156  1.00  0.00    -0.273 OA
BRANCH  76  79
ATOM     79  C   UNL A   1      32.524  21.660  24.623  1.00  0.00     0.176 C 
BRANCH  79  80
ATOM     80  N   UNL A   1      32.028  21.250  23.303  1.00  0.00    -0.340 N 
ATOM     81  C   UNL A   1      32.145  20.034  22.677  1.00  0.00     0.251 C 
ATOM     82  H   UNL A   1      31.545  21.942  22.797  1.00  0.00     0.164 HD
ATOM     83  O   UNL A   1      31.903  19.930  21.487  1.00  0.00    -0.269 OA
BRANCH  81  84
ATOM     84  C   UNL A   1      32.596  18.860  23.454  1.00  0.00     0.040 A 
ATOM     85  C   UNL A   1      33.350  17.845  22.849  1.00  0.00     0.017 A 
ATOM     86  C   UNL A   1      32.275  18.792  24.814  1.00  0.00     0.017 A 
ATOM     87  C   UNL A   1      33.695  16.711  23.580  1.00  0.00     0.040 A 
ATOM     88  C   UNL A   1      32.646  17.665  25.548  1.00  0.00     0.040 A 
ATOM     89  C   UNL A   1      33.333  16.628  24.921  1.00  0.00     0.123 A 
ATOM     90  F   UNL A   1      33.660  15.537  25.623  1.00  0.00    -0.207 F 
ENDBRANCH  81  84
ENDBRANCH  79  80
BRANCH  79  91
ATOM     91  C   UNL A   1      33.832  22.456  24.494  1.00  0.00     0.072 C 
BRANCH  91  92
ATOM     92  C   UNL A   1      35.149  21.882  24.979  1.00  0.00    -0.020 A 
ATOM     93  C   UNL A   1      35.443  20.530  24.854  1.00  0.00     0.087 A 
ATOM     94  C   UNL A   1      36.345  22.494  25.508  1.00  0.00     0.003 A 
ATOM     95  N   UNL A   1      36.735  20.311  25.232  1.00  0.00    -0.361 N 
ATOM     96  C   UNL A   1      37.327  21.497  25.586  1.00  0.00     0.046 A 
ATOM     97  C   UNL A   1      36.735  23.799  25.879  1.00  0.00     0.010 A 
ATOM     98  H   UNL A   1      37.178  19.432  25.250  1.00  0.00     0.166 HD
ATOM     99  C   UNL A   1      38.658  21.748  25.952  1.00  0.00     0.026 A 
ATOM    100  C   UNL A   1      38.065  24.071  26.237  1.00  0.00     0.001 A 
ATOM    101  C   UNL A   1      39.015  23.060  26.261  1.00  0.00     0.002 A 
ENDBRANCH  91  92
ENDBRANCH  79  91
ENDBRANCH  76  79
ENDBRANCH  74  75
BRANCH  74 102
ATOM    102  C   UNL A   1      30.974  25.059  23.407  1.00  0.00     0.101 C 
BRANCH 102 103
ATOM    103  S   UNL A   1      32.138  24.999  22.014  1.00  0.00    -0.177 SA
ATOM    104  H   UNL A   1      32.965  26.078  22.067  1.00  0.00     0.102 HD
ENDBRANCH 102 103
ENDBRANCH  74 102
ENDBRANCH  71  74
ENDBRANCH  69  70
BRANCH  69 105
ATOM    105  C   UNL A   1      30.531  28.485  22.981  1.00  0.00     0.191 C 
BRANCH 105 106
ATOM    106  O   UNL A   1      31.082  28.970  21.749  1.00  0.00    -0.394 OA
ATOM    107  H   UNL A   1      31.773  28.362  21.442  1.00  0.00     0.210 HD
ENDBRANCH 105 106
ENDBRANCH  69 105
ENDBRANCH   2  69
TORSDOF 23
ENDMDL
MODEL 2
REMARK VINA RESULT:     -12.0      4.056      6.376
REMARK SMILES O=C(NCCCCNC(=O)[C@H](CO)NC(=O)[C@H](CS)NC(=O)[C@H](Cc1c[nH]c2ccccc12)NC(=O)c1ccc(F)cc1)c1ccc(-c2c3nc(c(-c4c(F)cccc4F)c4ccc([nH]4)c(-c4c(F)cccc4F)c4nc(c(-c5c(F)cccc5F)c5ccc2[nH]5)C=C4)C=C3)cc1
REMARK SMILES IDX 8 1 9 2 10 3 7 5 6 6 5 7 4 8 3 9 1 10 2 11 44 13 45 14 97 15
REMARK SMILES IDX 46 16 96 17 47 18 48 19 49 20 90 21 50 22 95 23 89 24 91 25
REMARK SMILES IDX 51 26 94 27 88 28 87 29 52 31 78 32 61 33 77 34 62 35 65 36
REMARK SMILES IDX 76 37 92 38 63 39 64 40 75 42 93 43 66 44 53 45 54 46 59 47
REMARK SMILES IDX 55 48 56 49 58 50 60 51 57 52 79 53 80 54 85 55 81 56 82 57
REMARK SMILES IDX 84 58 86 59 83 60 67 61 68 62 73 63 69 64 70 65 72 66 74 67
REMARK SMILES IDX 71 68 11 69 14 70 15 71 16 73 17 74 20 75 21 76 22 78 23 79
REMARK SMILES IDX 34 80 35 81 36 83 37 84 38 85 43 86 39 87 42 88 40 89 41 90
REMARK SMILES IDX 24 91 25 92 26 93 33 94 27 95 28 96 32 97 29 99 31 100
REMARK SMILES IDX 30 101 18 102 19 103 12 105 13 106
REMARK H PARENT 8 4 3 12 91 30 65 41 14 72 20 77 34 82 27 98 19 104 13 107
REMARK Flexibility Score: inf
ROOT
ATOM      1  N   UNL A   1      33.075  29.726  24.852  1.00  0.00    -0.354 N 
ATOM      2  C   UNL A   1      33.021  28.884  23.778  1.00  0.00     0.244 C 
ATOM      3  O   UNL A   1      34.068  28.728  23.142  1.00  0.00    -0.273 OA
ATOM      4  H   UNL A   1      33.931  30.203  24.944  1.00  0.00     0.163 HD
ENDROOT
BRANCH   1   5
ATOM      5  C   UNL A   1      32.102  30.052  25.886  1.00  0.00     0.116 C 
BRANCH   5   6
ATOM      6  C   UNL A   1      31.049  31.036  25.394  1.00  0.00     0.023 C 
BRANCH   6   7
ATOM      7  C   UNL A   1      30.932  32.272  26.267  1.00  0.00     0.023 C 
BRANCH   7   8
ATOM      8  C   UNL A   1      32.209  32.542  27.039  1.00  0.00     0.116 C 
BRANCH   8   9
ATOM      9  N   UNL A   1      32.303  33.919  27.526  1.00  0.00    -0.352 N 
ATOM     10  O   UNL A   1      32.948  35.686  28.765  1.00  0.00    -0.269 OA
ATOM     11  C   UNL A   1      33.159  34.527  28.416  1.00  0.00     0.251 C 
ATOM     12  H   UNL A   1      31.626  34.524  27.145  1.00  0.00     0.163 HD
BRANCH  11  13
ATOM     13  C   UNL A   1      34.317  33.799  28.986  1.00  0.00     0.039 A 
ATOM     14  C   UNL A   1      34.183  32.492  29.428  1.00  0.00     0.014 A 
ATOM     15  C   UNL A   1      35.571  34.419  29.071  1.00  0.00     0.014 A 
ATOM     16  C   UNL A   1      35.175  31.920  30.199  1.00  0.00     0.010 A 
ATOM     17  C   UNL A   1      36.650  33.747  29.666  1.00  0.00     0.010 A 
ATOM     18  C   UNL A   1      36.450  32.501  30.274  1.00  0.00    -0.014 A 
BRANCH  18  19
ATOM     19  C   UNL A   1      37.523  31.692  30.913  1.00  0.00     0.031 A 
ATOM     20  C   UNL A   1      38.481  30.862  30.108  1.00  0.00     0.074 A 
ATOM     21  C   UNL A   1      37.708  31.847  32.243  1.00  0.00     0.049 A 
ATOM     22  N   UNL A   1      39.556  30.235  30.519  1.00  0.00    -0.248 NA
ATOM     23  C   UNL A   1      38.205  30.692  28.674  1.00  0.00     0.031 C 
ATOM     24  C   UNL A   1      36.821  32.614  33.127  1.00  0.00     0.029 A 
ATOM     25  N   UNL A   1      38.736  31.468  33.067  1.00  0.00    -0.354 N 
ATOM     26  C   UNL A   1      40.059  29.570  29.410  1.00  0.00     0.074 A 
ATOM     27  C   UNL A   1      39.173  29.863  28.304  1.00  0.00     0.031 C 
ATOM     28  C   UNL A   1      37.421  32.792  34.309  1.00  0.00     0.029 A 
ATOM     29  C   UNL A   1      38.672  32.049  34.314  1.00  0.00     0.049 A 
ATOM     30  H   UNL A   1      39.446  30.843  32.795  1.00  0.00     0.167 HD
ATOM     31  C   UNL A   1      41.160  28.786  29.330  1.00  0.00     0.037 A 
ATOM     32  C   UNL A   1      39.525  31.994  35.353  1.00  0.00     0.037 A 
ATOM     33  C   UNL A   1      42.056  28.532  30.430  1.00  0.00     0.049 A 
ATOM     34  C   UNL A   1      40.751  31.145  35.223  1.00  0.00     0.074 A 
ATOM     35  C   UNL A   1      43.199  27.752  30.448  1.00  0.00     0.029 A 
ATOM     36  N   UNL A   1      41.916  29.064  31.703  1.00  0.00    -0.354 N 
ATOM     37  N   UNL A   1      41.194  30.500  34.172  1.00  0.00    -0.248 NA
ATOM     38  C   UNL A   1      41.572  30.980  36.428  1.00  0.00     0.031 C 
ATOM     39  C   UNL A   1      43.734  27.786  31.739  1.00  0.00     0.029 A 
ATOM     40  C   UNL A   1      42.946  28.620  32.516  1.00  0.00     0.049 A 
ATOM     41  H   UNL A   1      41.192  29.668  31.987  1.00  0.00     0.167 HD
ATOM     42  C   UNL A   1      42.333  29.833  34.593  1.00  0.00     0.074 A 
ATOM     43  C   UNL A   1      42.541  30.193  35.982  1.00  0.00     0.031 C 
ATOM     44  C   UNL A   1      43.124  28.980  33.898  1.00  0.00     0.037 A 
BRANCH  31  45
ATOM     45  C   UNL A   1      41.464  28.125  28.018  1.00  0.00     0.057 A 
ATOM     46  C   UNL A   1      42.177  28.811  27.026  1.00  0.00     0.134 A 
ATOM     47  C   UNL A   1      40.973  26.854  27.700  1.00  0.00     0.134 A 
ATOM     48  F   UNL A   1      42.670  30.036  27.266  1.00  0.00    -0.206 F 
ATOM     49  C   UNL A   1      42.373  28.266  25.757  1.00  0.00     0.040 A 
ATOM     50  C   UNL A   1      41.179  26.289  26.439  1.00  0.00     0.040 A 
ATOM     51  F   UNL A   1      40.295  26.139  28.610  1.00  0.00    -0.206 F 
ATOM     52  C   UNL A   1      41.870  27.000  25.460  1.00  0.00     0.006 A 
ENDBRANCH  31  45
BRANCH  32  53
ATOM     53  C   UNL A   1      39.233  32.748  36.599  1.00  0.00     0.057 A 
ATOM     54  C   UNL A   1      38.323  32.267  37.549  1.00  0.00     0.134 A 
ATOM     55  C   UNL A   1      39.834  33.985  36.856  1.00  0.00     0.134 A 
ATOM     56  F   UNL A   1      37.708  31.090  37.361  1.00  0.00    -0.206 F 
ATOM     57  C   UNL A   1      37.997  33.000  38.690  1.00  0.00     0.040 A 
ATOM     58  C   UNL A   1      39.542  34.716  38.009  1.00  0.00     0.040 A 
ATOM     59  F   UNL A   1      40.729  34.494  35.995  1.00  0.00    -0.206 F 
ATOM     60  C   UNL A   1      38.611  34.227  38.925  1.00  0.00     0.006 A 
ENDBRANCH  32  53
BRANCH  44  61
ATOM     61  C   UNL A   1      44.273  28.373  34.641  1.00  0.00     0.057 A 
ATOM     62  C   UNL A   1      45.517  29.012  34.685  1.00  0.00     0.134 A 
ATOM     63  C   UNL A   1      44.151  27.135  35.284  1.00  0.00     0.134 A 
ATOM     64  F   UNL A   1      45.696  30.196  34.082  1.00  0.00    -0.206 F 
ATOM     65  C   UNL A   1      46.604  28.437  35.345  1.00  0.00     0.040 A 
ATOM     66  C   UNL A   1      45.224  26.562  35.966  1.00  0.00     0.040 A 
ATOM     67  F   UNL A   1      42.978  26.482  35.287  1.00  0.00    -0.206 F 
ATOM     68  C   UNL A   1      46.457  27.212  35.992  1.00  0.00     0.006 A 
ENDBRANCH  44  61
ENDBRANCH  18  19
ENDBRANCH  11  13
ENDBRANCH   8   9
ENDBRANCH   7   8
ENDBRANCH   6   7
ENDBRANCH   5   6
ENDBRANCH   1   5
BRANCH   2  69
ATOM     69  C   UNL A   1      31.786  28.005  23.497  1.00  0.00     0.197 C 
BRANCH  69  70
ATOM     70  N   UNL A   1      31.047  27.601  24.684  1.00  0.00    -0.340 N 
ATOM     71  C   UNL A   1      31.076  26.392  25.313  1.00  0.00     0.244 C 
ATOM     72  H   UNL A   1      30.456  28.281  25.080  1.00  0.00     0.164 HD
ATOM     73  O   UNL A   1      30.519  26.315  26.412  1.00  0.00    -0.273 OA
BRANCH  71  74
ATOM     74  C   UNL A   1      31.934  25.229  24.753  1.00  0.00     0.181 C 
BRANCH  74  75
ATOM     75  N   UNL A   1      31.835  24.128  25.730  1.00  0.00    -0.342 N 
ATOM     76  C   UNL A   1      32.175  22.818  25.792  1.00  0.00     0.243 C 
ATOM     77  H   UNL A   1      31.406  24.427  26.565  1.00  0.00     0.164 HD
ATOM     78  O   UNL A   1      31.775  22.247  26.816  1.00  0.00    -0.273 OA
BRANCH  76  79
ATOM     79  C   UNL A   1      33.088  22.048  24.802  1.00  0.00     0.176 C 
BRANCH  79  80
ATOM     80  N   UNL A   1      32.364  21.786  23.552  1.00  0.00    -0.340 N 
ATOM     81  C   UNL A   1      32.182  20.595  22.894  1.00  0.00     0.251 C 
ATOM     82  H   UNL A   1      31.952  22.573  23.126  1.00  0.00     0.164 HD
ATOM     83  O   UNL A   1      31.777  20.585  21.743  1.00  0.00    -0.269 OA
BRANCH  81  84
ATOM     84  C   UNL A   1      32.509  19.329  23.583  1.00  0.00     0.040 A 
ATOM     85  C   UNL A   1      32.422  19.228  24.978  1.00  0.00     0.017 A 
ATOM     86  C   UNL A   1      32.884  18.224  22.813  1.00  0.00     0.017 A 
ATOM     87  C   UNL A   1      32.812  18.051  25.611  1.00  0.00     0.040 A 
ATOM     88  C   UNL A   1      33.248  17.038  23.451  1.00  0.00     0.040 A 
ATOM     89  C   UNL A   1      33.229  16.969  24.842  1.00  0.00     0.123 A 
ATOM     90  F   UNL A   1      33.608  15.839  25.451  1.00  0.00    -0.207 F 
ENDBRANCH  81  84
ENDBRANCH  79  80
BRANCH  79  91
ATOM     91  C   UNL A   1      34.444  22.714  24.521  1.00  0.00     0.072 C 
BRANCH  91  92
ATOM     92  C   UNL A   1      35.738  22.080  24.992  1.00  0.00    -0.020 A 
ATOM     93  C   UNL A   1      36.045  20.755  24.709  1.00  0.00     0.087 A 
ATOM     94  C   UNL A   1      36.905  22.618  25.652  1.00  0.00     0.003 A 
ATOM     95  N   UNL A   1      37.318  20.488  25.118  1.00  0.00    -0.361 N 
ATOM     96  C   UNL A   1      37.887  21.619  25.649  1.00  0.00     0.046 A 
ATOM     97  C   UNL A   1      37.271  23.864  26.205  1.00  0.00     0.010 A 
ATOM     98  H   UNL A   1      37.764  19.614  25.044  1.00  0.00     0.166 HD
ATOM     99  C   UNL A   1      39.198  21.819  26.108  1.00  0.00     0.026 A 
ATOM    100  C   UNL A   1      38.579  24.087  26.660  1.00  0.00     0.001 A 
ATOM    101  C   UNL A   1      39.532  23.079  26.599  1.00  0.00     0.002 A 
ENDBRANCH  91  92
ENDBRANCH  79  91
ENDBRANCH  76  79
ENDBRANCH  74  75
BRANCH  74 102
ATOM    102  C   UNL A   1      31.272  24.833  23.416  1.00  0.00     0.101 C 
BRANCH 102 103
ATOM    103  S   UNL A   1      32.387  24.949  21.986  1.00  0.00    -0.177 SA
ATOM    104  H   UNL A   1      32.104  23.950  21.109  1.00  0.00     0.102 HD
ENDBRANCH 102 103
ENDBRANCH  74 102
ENDBRANCH  71  74
ENDBRANCH  69  70
BRANCH  69 105
ATOM    105  C   UNL A   1      30.853  28.661  22.471  1.00  0.00     0.191 C 
BRANCH 105 106
ATOM    106  O   UNL A   1      31.518  29.796  21.899  1.00  0.00    -0.394 OA
ATOM    107  H   UNL A   1      31.961  29.532  21.078  1.00  0.00     0.210 HD
ENDBRANCH 105 106
ENDBRANCH  69 105
ENDBRANCH   2  69
TORSDOF 23
ENDMDL
MODEL 3
REMARK VINA RESULT:     -11.8      4.160      7.615
REMARK SMILES O=C(NCCCCNC(=O)[C@H](CO)NC(=O)[C@H](CS)NC(=O)[C@H](Cc1c[nH]c2ccccc12)NC(=O)c1ccc(F)cc1)c1ccc(-c2c3nc(c(-c4c(F)cccc4F)c4ccc([nH]4)c(-c4c(F)cccc4F)c4nc(c(-c5c(F)cccc5F)c5ccc2[nH]5)C=C4)C=C3)cc1
REMARK SMILES IDX 8 1 9 2 10 3 7 5 6 6 5 7 4 8 3 9 1 10 2 11 44 13 45 14 97 15
REMARK SMILES IDX 46 16 96 17 47 18 48 19 49 20 90 21 50 22 95 23 89 24 91 25
REMARK SMILES IDX 51 26 94 27 88 28 87 29 52 31 78 32 61 33 77 34 62 35 65 36
REMARK SMILES IDX 76 37 92 38 63 39 64 40 75 42 93 43 66 44 53 45 54 46 59 47
REMARK SMILES IDX 55 48 56 49 58 50 60 51 57 52 79 53 80 54 85 55 81 56 82 57
REMARK SMILES IDX 84 58 86 59 83 60 67 61 68 62 73 63 69 64 70 65 72 66 74 67
REMARK SMILES IDX 71 68 11 69 14 70 15 71 16 73 17 74 20 75 21 76 22 78 23 79
REMARK SMILES IDX 34 80 35 81 36 83 37 84 38 85 43 86 39 87 42 88 40 89 41 90
REMARK SMILES IDX 24 91 25 92 26 93 33 94 27 95 28 96 32 97 29 99 31 100
REMARK SMILES IDX 30 101 18 102 19 103 12 105 13 106
REMARK H PARENT 8 4 3 12 91 30 65 41 14 72 20 77 34 82 27 98 19 104 13 107
REMARK Flexibility Score: inf
ROOT
ATOM      1  N   UNL A   1      33.410  29.747  24.906  1.00  0.00    -0.354 N 
ATOM      2  C   UNL A   1      33.277  28.903  23.841  1.00  0.00     0.244 C 
ATOM      3  O   UNL A   1      34.168  28.946  22.986  1.00  0.00    -0.273 OA
ATOM      4  H   UNL A   1      34.160  30.378  24.827  1.00  0.00     0.163 HD
ENDROOT
BRANCH   1   5
ATOM      5  C   UNL A   1      32.647  29.888  26.139  1.00  0.00     0.116 C 
BRANCH   5   6
ATOM      6  C   UNL A   1      31.301  30.564  25.908  1.00  0.00     0.023 C 
BRANCH   6   7
ATOM      7  C   UNL A   1      31.339  32.063  26.134  1.00  0.00     0.023 C 
BRANCH   7   8
ATOM      8  C   UNL A   1      32.430  32.461  27.109  1.00  0.00     0.116 C 
BRANCH   8   9
ATOM      9  N   UNL A   1      32.306  33.843  27.575  1.00  0.00    -0.352 N 
ATOM     10  O   UNL A   1      32.620  35.692  28.823  1.00  0.00    -0.269 OA
ATOM     11  C   UNL A   1      33.006  34.567  28.513  1.00  0.00     0.251 C 
ATOM     12  H   UNL A   1      31.586  34.349  27.134  1.00  0.00     0.163 HD
BRANCH  11  13
ATOM     13  C   UNL A   1      34.203  34.005  29.180  1.00  0.00     0.039 A 
ATOM     14  C   UNL A   1      35.459  34.550  28.960  1.00  0.00     0.014 A 
ATOM     15  C   UNL A   1      34.081  32.921  30.060  1.00  0.00     0.014 A 
ATOM     16  C   UNL A   1      36.589  33.865  29.357  1.00  0.00     0.010 A 
ATOM     17  C   UNL A   1      35.225  32.353  30.642  1.00  0.00     0.010 A 
ATOM     18  C   UNL A   1      36.498  32.797  30.263  1.00  0.00    -0.014 A 
BRANCH  18  19
ATOM     19  C   UNL A   1      37.775  32.285  30.831  1.00  0.00     0.031 A 
ATOM     20  C   UNL A   1      38.210  32.606  32.232  1.00  0.00     0.074 A 
ATOM     21  C   UNL A   1      38.465  31.389  30.093  1.00  0.00     0.049 A 
ATOM     22  N   UNL A   1      39.214  32.103  32.906  1.00  0.00    -0.248 NA
ATOM     23  C   UNL A   1      37.446  33.622  32.972  1.00  0.00     0.031 C 
ATOM     24  C   UNL A   1      38.144  31.020  28.708  1.00  0.00     0.029 A 
ATOM     25  N   UNL A   1      39.503  30.552  30.416  1.00  0.00    -0.354 N 
ATOM     26  C   UNL A   1      39.226  32.765  34.126  1.00  0.00     0.074 A 
ATOM     27  C   UNL A   1      38.132  33.710  34.105  1.00  0.00     0.031 C 
ATOM     28  C   UNL A   1      38.841  29.931  28.367  1.00  0.00     0.029 A 
ATOM     29  C   UNL A   1      39.750  29.599  29.454  1.00  0.00     0.049 A 
ATOM     30  H   UNL A   1      40.019  30.627  31.252  1.00  0.00     0.167 HD
ATOM     31  C   UNL A   1      40.078  32.593  35.165  1.00  0.00     0.037 A 
ATOM     32  C   UNL A   1      40.613  28.567  29.442  1.00  0.00     0.037 A 
ATOM     33  C   UNL A   1      41.142  31.621  35.188  1.00  0.00     0.049 A 
ATOM     34  C   UNL A   1      41.520  28.384  30.619  1.00  0.00     0.074 A 
ATOM     35  C   UNL A   1      42.058  31.371  36.195  1.00  0.00     0.029 A 
ATOM     36  N   UNL A   1      41.422  30.730  34.163  1.00  0.00    -0.354 N 
ATOM     37  N   UNL A   1      41.534  29.040  31.753  1.00  0.00    -0.248 NA
ATOM     38  C   UNL A   1      42.555  27.350  30.501  1.00  0.00     0.031 C 
ATOM     39  C   UNL A   1      42.913  30.351  35.767  1.00  0.00     0.029 A 
ATOM     40  C   UNL A   1      42.504  29.937  34.510  1.00  0.00     0.049 A 
ATOM     41  H   UNL A   1      40.926  30.669  33.314  1.00  0.00     0.167 HD
ATOM     42  C   UNL A   1      42.593  28.515  32.477  1.00  0.00     0.074 A 
ATOM     43  C   UNL A   1      43.165  27.453  31.673  1.00  0.00     0.031 C 
ATOM     44  C   UNL A   1      43.064  28.896  33.689  1.00  0.00     0.037 A 
BRANCH  31  45
ATOM     45  C   UNL A   1      39.919  33.480  36.364  1.00  0.00     0.057 A 
ATOM     46  C   UNL A   1      39.023  33.138  37.385  1.00  0.00     0.134 A 
ATOM     47  C   UNL A   1      40.575  34.711  36.465  1.00  0.00     0.134 A 
ATOM     48  F   UNL A   1      38.357  31.973  37.345  1.00  0.00    -0.206 F 
ATOM     49  C   UNL A   1      38.768  33.999  38.453  1.00  0.00     0.040 A 
ATOM     50  C   UNL A   1      40.344  35.574  37.538  1.00  0.00     0.040 A 
ATOM     51  F   UNL A   1      41.456  35.091  35.527  1.00  0.00    -0.206 F 
ATOM     52  C   UNL A   1      39.429  35.223  38.530  1.00  0.00     0.006 A 
ENDBRANCH  31  45
BRANCH  32  53
ATOM     53  C   UNL A   1      40.666  27.652  28.273  1.00  0.00     0.057 A 
ATOM     54  C   UNL A   1      39.992  26.424  28.274  1.00  0.00     0.134 A 
ATOM     55  C   UNL A   1      41.418  27.970  27.137  1.00  0.00     0.134 A 
ATOM     56  F   UNL A   1      39.257  26.057  29.335  1.00  0.00    -0.206 F 
ATOM     57  C   UNL A   1      40.089  25.533  27.206  1.00  0.00     0.040 A 
ATOM     58  C   UNL A   1      41.498  27.101  26.046  1.00  0.00     0.040 A 
ATOM     59  F   UNL A   1      42.072  29.139  27.064  1.00  0.00    -0.206 F 
ATOM     60  C   UNL A   1      40.841  25.873  26.084  1.00  0.00     0.006 A 
ENDBRANCH  32  53
BRANCH  44  61
ATOM     61  C   UNL A   1      44.263  28.163  34.203  1.00  0.00     0.057 A 
ATOM     62  C   UNL A   1      44.121  26.994  34.959  1.00  0.00     0.134 A 
ATOM     63  C   UNL A   1      45.561  28.640  33.976  1.00  0.00     0.134 A 
ATOM     64  F   UNL A   1      42.903  26.493  35.215  1.00  0.00    -0.206 F 
ATOM     65  C   UNL A   1      45.230  26.323  35.473  1.00  0.00     0.040 A 
ATOM     66  C   UNL A   1      46.679  27.965  34.465  1.00  0.00     0.040 A 
ATOM     67  F   UNL A   1      45.759  29.749  33.247  1.00  0.00    -0.206 F 
ATOM     68  C   UNL A   1      46.514  26.806  35.222  1.00  0.00     0.006 A 
ENDBRANCH  44  61
ENDBRANCH  18  19
ENDBRANCH  11  13
ENDBRANCH   8   9
ENDBRANCH   7   8
ENDBRANCH   6   7
ENDBRANCH   5   6
ENDBRANCH   1   5
BRANCH   2  69
ATOM     69  C   UNL A   1      32.196  27.805  23.804  1.00  0.00     0.197 C 
BRANCH  69  70
ATOM     70  N   UNL A   1      31.785  27.316  25.112  1.00  0.00    -0.340 N 
ATOM     71  C   UNL A   1      31.978  26.073  25.637  1.00  0.00     0.244 C 
ATOM     72  H   UNL A   1      31.311  27.960  25.687  1.00  0.00     0.164 HD
ATOM     73  O   UNL A   1      31.719  25.919  26.834  1.00  0.00    -0.273 OA
BRANCH  71  74
ATOM     74  C   UNL A   1      32.670  24.962  24.805  1.00  0.00     0.181 C 
BRANCH  74  75
ATOM     75  N   UNL A   1      32.888  23.827  25.723  1.00  0.00    -0.342 N 
ATOM     76  C   UNL A   1      33.253  22.526  25.629  1.00  0.00     0.243 C 
ATOM     77  H   UNL A   1      32.724  24.087  26.659  1.00  0.00     0.164 HD
ATOM     78  O   UNL A   1      33.189  21.911  26.702  1.00  0.00    -0.273 OA
BRANCH  76  79
ATOM     79  C   UNL A   1      33.839  21.815  24.381  1.00  0.00     0.176 C 
BRANCH  79  80
ATOM     80  N   UNL A   1      32.774  21.556  23.404  1.00  0.00    -0.340 N 
ATOM     81  C   UNL A   1      32.302  20.353  22.941  1.00  0.00     0.251 C 
ATOM     82  H   UNL A   1      32.338  22.355  23.029  1.00  0.00     0.164 HD
ATOM     83  O   UNL A   1      31.594  20.312  21.949  1.00  0.00    -0.269 OA
BRANCH  81  84
ATOM     84  C   UNL A   1      32.685  19.108  23.638  1.00  0.00     0.040 A 
ATOM     85  C   UNL A   1      33.261  18.040  22.937  1.00  0.00     0.017 A 
ATOM     86  C   UNL A   1      32.483  19.024  25.020  1.00  0.00     0.017 A 
ATOM     87  C   UNL A   1      33.540  16.848  23.601  1.00  0.00     0.040 A 
ATOM     88  C   UNL A   1      32.788  17.836  25.684  1.00  0.00     0.040 A 
ATOM     89  C   UNL A   1      33.293  16.754  24.967  1.00  0.00     0.123 A 
ATOM     90  F   UNL A   1      33.557  15.607  25.604  1.00  0.00    -0.207 F 
ENDBRANCH  81  84
ENDBRANCH  79  80
BRANCH  79  91
ATOM     91  C   UNL A   1      35.025  22.537  23.722  1.00  0.00     0.072 C 
BRANCH  91  92
ATOM     92  C   UNL A   1      36.377  22.603  24.403  1.00  0.00    -0.020 A 
ATOM     93  C   UNL A   1      36.869  23.790  24.930  1.00  0.00     0.087 A 
ATOM     94  C   UNL A   1      37.338  21.588  24.766  1.00  0.00     0.003 A 
ATOM     95  N   UNL A   1      38.026  23.539  25.608  1.00  0.00    -0.361 N 
ATOM     96  C   UNL A   1      38.309  22.198  25.571  1.00  0.00     0.046 A 
ATOM     97  C   UNL A   1      37.470  20.198  24.556  1.00  0.00     0.010 A 
ATOM     98  H   UNL A   1      38.576  24.220  26.058  1.00  0.00     0.166 HD
ATOM     99  C   UNL A   1      39.345  21.493  26.204  1.00  0.00     0.026 A 
ATOM    100  C   UNL A   1      38.493  19.475  25.188  1.00  0.00     0.001 A 
ATOM    101  C   UNL A   1      39.410  20.114  26.011  1.00  0.00     0.002 A 
ENDBRANCH  91  92
ENDBRANCH  79  91
ENDBRANCH  76  79
ENDBRANCH  74  75
BRANCH  74 102
ATOM    102  C   UNL A   1      31.661  24.583  23.700  1.00  0.00     0.101 C 
BRANCH 102 103
ATOM    103  S   UNL A   1      32.332  24.732  22.018  1.00  0.00    -0.177 SA
ATOM    104  H   UNL A   1      32.960  23.575  21.677  1.00  0.00     0.102 HD
ENDBRANCH 102 103
ENDBRANCH  74 102
ENDBRANCH  71  74
ENDBRANCH  69  70
BRANCH  69 105
ATOM    105  C   UNL A   1      30.980  28.241  22.978  1.00  0.00     0.191 C 
BRANCH 105 106
ATOM    106  O   UNL A   1      31.357  29.351  22.151  1.00  0.00    -0.394 OA
ATOM    107  H   UNL A   1      32.115  29.807  22.547  1.00  0.00     0.210 HD
ENDBRANCH 105 106
ENDBRANCH  69 105
ENDBRANCH   2  69
TORSDOF 23
ENDMDL
