MODEL 1
REMARK VINA RESULT:     -10.6      0.000      0.000
REMARK SMILES Cc1cc(C(=O)Nc2nc(CC(=O)NCCCCNC(=O)c3ccc(-c4c5nc(c(-c6c(F)cccc6F)c6ccc([nH]6)c(-c6c(F)cccc6F)c6nc(c(-c7c(F)cccc7F)c7ccc4[nH]7)C=C6)C=C5)cc3)cs2)sc1C
REMARK SMILES IDX 16 1 15 2 14 3 12 4 13 5 11 7 10 8 8 9 9 10 77 11 76 12 7 13
REMARK SMILES IDX 5 14 6 15 4 17 1 18 2 19 3 20 79 21 78 22 80 23 17 24 18 25
REMARK SMILES IDX 19 26 20 27 21 29 22 30 23 31 75 32 24 33 74 34 25 35 26 36
REMARK SMILES IDX 27 37 68 38 28 39 73 40 67 41 69 42 29 43 72 44 66 45 65 46
REMARK SMILES IDX 30 48 56 49 39 50 55 51 40 52 43 53 54 54 70 55 41 56 42 57
REMARK SMILES IDX 53 59 71 60 44 61 31 62 32 63 37 64 33 65 34 66 36 67 38 68
REMARK SMILES IDX 35 69 57 70 58 71 63 72 59 73 60 74 62 75 64 76 61 77 45 78
REMARK SMILES IDX 46 79 51 80 47 81 48 82 50 83 52 84 49 85
REMARK H PARENT 14 6 7 16 19 28 69 47 43 58
REMARK Flexibility Score: inf
ROOT
ATOM      1  C   UNL A   1      34.472  35.086  28.771  1.00  0.00     0.023 C 
ENDROOT
BRANCH   1   2
ATOM      2  C   UNL A   1      33.247  36.004  28.759  1.00  0.00     0.116 C 
BRANCH   2   3
ATOM      3  N   UNL A   1      33.390  37.098  29.703  1.00  0.00    -0.356 N 
ATOM      4  C   UNL A   1      33.030  37.131  31.021  1.00  0.00     0.226 C 
ATOM      5  O   UNL A   1      33.145  38.194  31.634  1.00  0.00    -0.275 OA
ATOM      6  H   UNL A   1      33.798  37.921  29.348  1.00  0.00     0.163 HD
BRANCH   4   7
ATOM      7  C   UNL A   1      32.550  35.872  31.712  1.00  0.00     0.157 C 
BRANCH   7   8
ATOM      8  C   UNL A   1      33.619  35.204  32.509  1.00  0.00     0.063 A 
ATOM      9  C   UNL A   1      34.695  33.395  33.166  1.00  0.00     0.189 A 
ATOM     10  N   UNL A   1      33.653  33.818  32.504  1.00  0.00    -0.224 NA
ATOM     11  S   UNL A   1      35.566  34.578  34.030  1.00  0.00    -0.105 S 
ATOM     12  C   UNL A   1      34.614  35.794  33.270  1.00  0.00     0.093 A 
BRANCH   9  13
ATOM     13  N   UNL A   1      35.183  32.128  33.253  1.00  0.00    -0.297 N 
ATOM     14  C   UNL A   1      36.278  31.620  32.588  1.00  0.00     0.267 C 
ATOM     15  O   UNL A   1      36.311  30.389  32.476  1.00  0.00    -0.268 OA
ATOM     16  H   UNL A   1      34.703  31.510  33.850  1.00  0.00     0.172 HD
BRANCH  14  17
ATOM     17  C   UNL A   1      37.401  32.447  32.132  1.00  0.00     0.093 A 
ATOM     18  C   UNL A   1      39.079  34.580  29.501  1.00  0.00     0.045 C 
ATOM     19  C   UNL A   1      38.716  33.842  30.744  1.00  0.00    -0.037 A 
ATOM     20  C   UNL A   1      37.496  33.097  30.910  1.00  0.00     0.029 A 
ATOM     21  C   UNL A   1      39.467  33.792  31.905  1.00  0.00     0.005 A 
ATOM     22  S   UNL A   1      38.916  32.543  32.924  1.00  0.00    -0.135 S 
ATOM     23  C   UNL A   1      40.669  34.578  32.301  1.00  0.00     0.056 C 
ENDBRANCH  14  17
ENDBRANCH   9  13
ENDBRANCH   7   8
ENDBRANCH   4   7
ENDBRANCH   2   3
ENDBRANCH   1   2
BRANCH   1  24
ATOM     24  C   UNL A   1      34.175  33.628  29.121  1.00  0.00     0.023 C 
BRANCH  24  25
ATOM     25  C   UNL A   1      34.977  32.608  28.329  1.00  0.00     0.116 C 
BRANCH  25  26
ATOM     26  N   UNL A   1      34.244  31.375  28.086  1.00  0.00    -0.352 N 
ATOM     27  C   UNL A   1      34.730  30.097  27.967  1.00  0.00     0.251 C 
ATOM     28  H   UNL A   1      33.268  31.470  27.992  1.00  0.00     0.163 HD
ATOM     29  O   UNL A   1      33.991  29.179  27.627  1.00  0.00    -0.269 OA
BRANCH  27  30
ATOM     30  C   UNL A   1      36.164  29.840  28.217  1.00  0.00     0.039 A 
ATOM     31  C   UNL A   1      36.550  29.327  29.458  1.00  0.00     0.014 A 
ATOM     32  C   UNL A   1      37.118  30.078  27.225  1.00  0.00     0.014 A 
ATOM     33  C   UNL A   1      37.887  28.997  29.681  1.00  0.00     0.010 A 
ATOM     34  C   UNL A   1      38.433  29.669  27.419  1.00  0.00     0.010 A 
ATOM     35  C   UNL A   1      38.833  29.134  28.652  1.00  0.00    -0.014 A 
BRANCH  35  36
ATOM     36  C   UNL A   1      40.249  28.735  28.852  1.00  0.00     0.031 A 
ATOM     37  C   UNL A   1      41.228  29.707  29.449  1.00  0.00     0.074 A 
ATOM     38  C   UNL A   1      40.666  27.521  28.442  1.00  0.00     0.049 A 
ATOM     39  N   UNL A   1      42.514  29.566  29.655  1.00  0.00    -0.248 NA
ATOM     40  C   UNL A   1      40.699  31.023  29.843  1.00  0.00     0.031 C 
ATOM     41  C   UNL A   1      39.825  26.508  27.802  1.00  0.00     0.029 A 
ATOM     42  N   UNL A   1      41.906  26.937  28.500  1.00  0.00    -0.354 N 
ATOM     43  C   UNL A   1      42.945  30.774  30.187  1.00  0.00     0.074 A 
ATOM     44  C   UNL A   1      41.800  31.658  30.215  1.00  0.00     0.031 C 
ATOM     45  C   UNL A   1      40.567  25.416  27.552  1.00  0.00     0.029 A 
ATOM     46  C   UNL A   1      41.941  25.666  27.976  1.00  0.00     0.049 A 
ATOM     47  H   UNL A   1      42.697  27.385  28.879  1.00  0.00     0.167 HD
ATOM     48  C   UNL A   1      44.177  31.111  30.638  1.00  0.00     0.037 A 
ATOM     49  C   UNL A   1      42.966  24.802  27.850  1.00  0.00     0.037 A 
ATOM     50  C   UNL A   1      45.310  30.221  30.628  1.00  0.00     0.049 A 
ATOM     51  C   UNL A   1      44.328  25.202  28.350  1.00  0.00     0.074 A 
ATOM     52  C   UNL A   1      46.586  30.447  31.112  1.00  0.00     0.029 A 
ATOM     53  N   UNL A   1      45.301  28.937  30.104  1.00  0.00    -0.354 N 
ATOM     54  N   UNL A   1      44.706  26.323  28.915  1.00  0.00    -0.248 NA
ATOM     55  C   UNL A   1      45.402  24.211  28.202  1.00  0.00     0.031 C 
ATOM     56  C   UNL A   1      47.364  29.318  30.836  1.00  0.00     0.029 A 
ATOM     57  C   UNL A   1      46.557  28.367  30.232  1.00  0.00     0.049 A 
ATOM     58  H   UNL A   1      44.519  28.497  29.700  1.00  0.00     0.167 HD
ATOM     59  C   UNL A   1      46.052  26.161  29.220  1.00  0.00     0.074 A 
ATOM     60  C   UNL A   1      46.419  24.827  28.788  1.00  0.00     0.031 C 
ATOM     61  C   UNL A   1      46.905  27.035  29.807  1.00  0.00     0.037 A 
BRANCH  48  62
ATOM     62  C   UNL A   1      44.360  32.499  31.180  1.00  0.00     0.057 A 
ATOM     63  C   UNL A   1      44.724  33.573  30.357  1.00  0.00     0.134 A 
ATOM     64  C   UNL A   1      44.144  32.771  32.537  1.00  0.00     0.134 A 
ATOM     65  F   UNL A   1      44.959  33.381  29.050  1.00  0.00    -0.206 F 
ATOM     66  C   UNL A   1      44.898  34.860  30.869  1.00  0.00     0.040 A 
ATOM     67  C   UNL A   1      44.284  34.060  33.055  1.00  0.00     0.040 A 
ATOM     68  F   UNL A   1      43.787  31.791  33.381  1.00  0.00    -0.206 F 
ATOM     69  C   UNL A   1      44.670  35.108  32.221  1.00  0.00     0.006 A 
ENDBRANCH  48  62
BRANCH  49  70
ATOM     70  C   UNL A   1      42.742  23.463  27.249  1.00  0.00     0.057 A 
ATOM     71  C   UNL A   1      42.274  22.394  28.022  1.00  0.00     0.134 A 
ATOM     72  C   UNL A   1      42.998  23.215  25.895  1.00  0.00     0.134 A 
ATOM     73  F   UNL A   1      42.027  22.564  29.329  1.00  0.00    -0.206 F 
ATOM     74  C   UNL A   1      42.091  21.122  27.478  1.00  0.00     0.040 A 
ATOM     75  C   UNL A   1      42.793  21.955  25.331  1.00  0.00     0.040 A 
ATOM     76  F   UNL A   1      43.439  24.200  25.098  1.00  0.00    -0.206 F 
ATOM     77  C   UNL A   1      42.347  20.902  26.126  1.00  0.00     0.006 A 
ENDBRANCH  49  70
BRANCH  61  78
ATOM     78  C   UNL A   1      48.309  26.563  30.058  1.00  0.00     0.057 A 
ATOM     79  C   UNL A   1      49.344  26.785  29.140  1.00  0.00     0.134 A 
ATOM     80  C   UNL A   1      48.633  25.907  31.252  1.00  0.00     0.134 A 
ATOM     81  F   UNL A   1      49.098  27.397  27.972  1.00  0.00    -0.206 F 
ATOM     82  C   UNL A   1      50.646  26.347  29.390  1.00  0.00     0.040 A 
ATOM     83  C   UNL A   1      49.937  25.491  31.526  1.00  0.00     0.040 A 
ATOM     84  F   UNL A   1      47.692  25.671  32.178  1.00  0.00    -0.206 F 
ATOM     85  C   UNL A   1      50.946  25.704  30.590  1.00  0.00     0.006 A 
ENDBRANCH  61  78
ENDBRANCH  35  36
ENDBRANCH  27  30
ENDBRANCH  25  26
ENDBRANCH  24  25
ENDBRANCH   1  24
TORSDOF 14
ENDMDL
MODEL 2
REMARK VINA RESULT:     -10.5      4.665     10.046
REMARK SMILES Cc1cc(C(=O)Nc2nc(CC(=O)NCCCCNC(=O)c3ccc(-c4c5nc(c(-c6c(F)cccc6F)c6ccc([nH]6)c(-c6c(F)cccc6F)c6nc(c(-c7c(F)cccc7F)c7ccc4[nH]7)C=C6)C=C5)cc3)cs2)sc1C
REMARK SMILES IDX 16 1 15 2 14 3 12 4 13 5 11 7 10 8 8 9 9 10 77 11 76 12 7 13
REMARK SMILES IDX 5 14 6 15 4 17 1 18 2 19 3 20 79 21 78 22 80 23 17 24 18 25
REMARK SMILES IDX 19 26 20 27 21 29 22 30 23 31 75 32 24 33 74 34 25 35 26 36
REMARK SMILES IDX 27 37 68 38 28 39 73 40 67 41 69 42 29 43 72 44 66 45 65 46
REMARK SMILES IDX 30 48 56 49 39 50 55 51 40 52 43 53 54 54 70 55 41 56 42 57
REMARK SMILES IDX 53 59 71 60 44 61 31 62 32 63 37 64 33 65 34 66 36 67 38 68
REMARK SMILES IDX 35 69 57 70 58 71 63 72 59 73 60 74 62 75 64 76 61 77 45 78
REMARK SMILES IDX 46 79 51 80 47 81 48 82 50 83 52 84 49 85
REMARK H PARENT 14 6 7 16 19 28 69 47 43 58
REMARK Flexibility Score: inf
ROOT
ATOM      1  C   UNL A   1      36.580  19.428  25.004  1.00  0.00     0.023 C 
ENDROOT
BRANCH   1   2
ATOM      2  C   UNL A   1      35.437  20.444  24.930  1.00  0.00     0.116 C 
BRANCH   2   3
ATOM      3  N   UNL A   1      35.864  21.761  25.367  1.00  0.00    -0.356 N 
ATOM      4  C   UNL A   1      35.949  22.911  24.633  1.00  0.00     0.226 C 
ATOM      5  O   UNL A   1      36.431  23.913  25.165  1.00  0.00    -0.275 OA
ATOM      6  H   UNL A   1      36.127  21.836  26.314  1.00  0.00     0.163 HD
BRANCH   4   7
ATOM      7  C   UNL A   1      35.414  22.951  23.217  1.00  0.00     0.157 C 
BRANCH   7   8
ATOM      8  C   UNL A   1      34.010  23.447  23.141  1.00  0.00     0.063 A 
ATOM      9  C   UNL A   1      32.528  24.975  22.565  1.00  0.00     0.189 A 
ATOM     10  N   UNL A   1      33.807  24.730  22.656  1.00  0.00    -0.224 NA
ATOM     11  S   UNL A   1      31.490  23.815  23.257  1.00  0.00    -0.105 S 
ATOM     12  C   UNL A   1      32.848  22.782  23.492  1.00  0.00     0.093 A 
BRANCH   9  13
ATOM     13  N   UNL A   1      31.913  26.039  21.982  1.00  0.00    -0.297 N 
ATOM     14  C   UNL A   1      31.395  27.143  22.624  1.00  0.00     0.267 C 
ATOM     15  O   UNL A   1      30.539  27.775  21.992  1.00  0.00    -0.268 OA
ATOM     16  H   UNL A   1      31.828  26.017  21.002  1.00  0.00     0.172 HD
BRANCH  14  17
ATOM     17  C   UNL A   1      31.883  27.628  23.920  1.00  0.00     0.093 A 
ATOM     18  C   UNL A   1      31.408  28.201  27.626  1.00  0.00     0.045 C 
ATOM     19  C   UNL A   1      31.940  28.109  26.236  1.00  0.00    -0.037 A 
ATOM     20  C   UNL A   1      31.206  27.557  25.129  1.00  0.00     0.029 A 
ATOM     21  C   UNL A   1      33.200  28.505  25.824  1.00  0.00     0.005 A 
ATOM     22  S   UNL A   1      33.271  28.609  24.125  1.00  0.00    -0.135 S 
ATOM     23  C   UNL A   1      34.386  28.910  26.629  1.00  0.00     0.056 C 
ENDBRANCH  14  17
ENDBRANCH   9  13
ENDBRANCH   7   8
ENDBRANCH   4   7
ENDBRANCH   2   3
ENDBRANCH   1   2
BRANCH   1  24
ATOM     24  C   UNL A   1      37.953  19.982  24.626  1.00  0.00     0.023 C 
BRANCH  24  25
ATOM     25  C   UNL A   1      38.919  20.139  25.789  1.00  0.00     0.116 C 
BRANCH  25  26
ATOM     26  N   UNL A   1      39.959  19.122  25.804  1.00  0.00    -0.352 N 
ATOM     27  C   UNL A   1      41.308  19.278  26.011  1.00  0.00     0.251 C 
ATOM     28  H   UNL A   1      39.657  18.199  25.642  1.00  0.00     0.163 HD
ATOM     29  O   UNL A   1      42.074  18.332  25.859  1.00  0.00    -0.269 OA
BRANCH  27  30
ATOM     30  C   UNL A   1      41.836  20.606  26.387  1.00  0.00     0.039 A 
ATOM     31  C   UNL A   1      42.172  21.508  25.375  1.00  0.00     0.014 A 
ATOM     32  C   UNL A   1      41.973  20.968  27.729  1.00  0.00     0.014 A 
ATOM     33  C   UNL A   1      42.590  22.796  25.712  1.00  0.00     0.010 A 
ATOM     34  C   UNL A   1      42.308  22.277  28.061  1.00  0.00     0.010 A 
ATOM     35  C   UNL A   1      42.628  23.201  27.056  1.00  0.00    -0.014 A 
BRANCH  35  36
ATOM     36  C   UNL A   1      43.015  24.584  27.431  1.00  0.00     0.031 A 
ATOM     37  C   UNL A   1      44.460  25.001  27.386  1.00  0.00     0.074 A 
ATOM     38  C   UNL A   1      42.077  25.447  27.869  1.00  0.00     0.049 A 
ATOM     39  N   UNL A   1      45.002  26.144  27.724  1.00  0.00    -0.248 NA
ATOM     40  C   UNL A   1      45.426  23.991  26.926  1.00  0.00     0.031 C 
ATOM     41  C   UNL A   1      40.650  25.147  28.007  1.00  0.00     0.029 A 
ATOM     42  N   UNL A   1      42.185  26.750  28.283  1.00  0.00    -0.354 N 
ATOM     43  C   UNL A   1      46.368  25.984  27.530  1.00  0.00     0.074 A 
ATOM     44  C   UNL A   1      46.579  24.618  27.104  1.00  0.00     0.031 C 
ATOM     45  C   UNL A   1      40.013  26.244  28.446  1.00  0.00     0.029 A 
ATOM     46  C   UNL A   1      40.987  27.310  28.659  1.00  0.00     0.049 A 
ATOM     47  H   UNL A   1      43.039  27.238  28.310  1.00  0.00     0.167 HD
ATOM     48  C   UNL A   1      47.357  26.900  27.667  1.00  0.00     0.037 A 
ATOM     49  C   UNL A   1      40.708  28.542  29.125  1.00  0.00     0.037 A 
ATOM     50  C   UNL A   1      47.141  28.265  28.070  1.00  0.00     0.049 A 
ATOM     51  C   UNL A   1      41.824  29.539  29.277  1.00  0.00     0.074 A 
ATOM     52  C   UNL A   1      48.068  29.285  28.185  1.00  0.00     0.029 A 
ATOM     53  N   UNL A   1      45.912  28.798  28.426  1.00  0.00    -0.354 N 
ATOM     54  N   UNL A   1      43.102  29.395  29.022  1.00  0.00    -0.248 NA
ATOM     55  C   UNL A   1      41.456  30.872  29.772  1.00  0.00     0.031 C 
ATOM     56  C   UNL A   1      47.408  30.424  28.659  1.00  0.00     0.029 A 
ATOM     57  C   UNL A   1      46.060  30.128  28.784  1.00  0.00     0.049 A 
ATOM     58  H   UNL A   1      45.060  28.304  28.426  1.00  0.00     0.167 HD
ATOM     59  C   UNL A   1      43.686  30.627  29.294  1.00  0.00     0.074 A 
ATOM     60  C   UNL A   1      42.617  31.509  29.721  1.00  0.00     0.031 C 
ATOM     61  C   UNL A   1      44.986  30.996  29.197  1.00  0.00     0.037 A 
BRANCH  48  62
ATOM     62  C   UNL A   1      48.760  26.451  27.375  1.00  0.00     0.057 A 
ATOM     63  C   UNL A   1      49.302  26.509  26.083  1.00  0.00     0.134 A 
ATOM     64  C   UNL A   1      49.589  25.981  28.401  1.00  0.00     0.134 A 
ATOM     65  F   UNL A   1      48.559  26.937  25.052  1.00  0.00    -0.206 F 
ATOM     66  C   UNL A   1      50.606  26.084  25.818  1.00  0.00     0.040 A 
ATOM     67  C   UNL A   1      50.905  25.583  28.154  1.00  0.00     0.040 A 
ATOM     68  F   UNL A   1      49.138  25.905  29.662  1.00  0.00    -0.206 F 
ATOM     69  C   UNL A   1      51.413  25.627  26.858  1.00  0.00     0.006 A 
ENDBRANCH  48  62
BRANCH  49  70
ATOM     70  C   UNL A   1      39.309  28.913  29.456  1.00  0.00     0.057 A 
ATOM     71  C   UNL A   1      38.465  29.480  28.494  1.00  0.00     0.134 A 
ATOM     72  C   UNL A   1      38.785  28.722  30.740  1.00  0.00     0.134 A 
ATOM     73  F   UNL A   1      38.915  29.705  27.251  1.00  0.00    -0.206 F 
ATOM     74  C   UNL A   1      37.159  29.864  28.801  1.00  0.00     0.040 A 
ATOM     75  C   UNL A   1      37.472  29.077  31.054  1.00  0.00     0.040 A 
ATOM     76  F   UNL A   1      39.539  28.175  31.705  1.00  0.00    -0.206 F 
ATOM     77  C   UNL A   1      36.658  29.658  30.085  1.00  0.00     0.006 A 
ENDBRANCH  49  70
BRANCH  61  78
ATOM     78  C   UNL A   1      45.322  32.425  29.515  1.00  0.00     0.057 A 
ATOM     79  C   UNL A   1      45.718  32.829  30.796  1.00  0.00     0.134 A 
ATOM     80  C   UNL A   1      45.280  33.403  28.512  1.00  0.00     0.134 A 
ATOM     81  F   UNL A   1      45.768  31.945  31.804  1.00  0.00    -0.206 F 
ATOM     82  C   UNL A   1      46.035  34.160  31.074  1.00  0.00     0.040 A 
ATOM     83  C   UNL A   1      45.623  34.730  28.772  1.00  0.00     0.040 A 
ATOM     84  F   UNL A   1      44.918  33.081  27.261  1.00  0.00    -0.206 F 
ATOM     85  C   UNL A   1      45.994  35.114  30.058  1.00  0.00     0.006 A 
ENDBRANCH  61  78
ENDBRANCH  35  36
ENDBRANCH  27  30
ENDBRANCH  25  26
ENDBRANCH  24  25
ENDBRANCH   1  24
TORSDOF 14
ENDMDL
MODEL 3
REMARK VINA RESULT:     -10.5      5.103      9.936
REMARK SMILES Cc1cc(C(=O)Nc2nc(CC(=O)NCCCCNC(=O)c3ccc(-c4c5nc(c(-c6c(F)cccc6F)c6ccc([nH]6)c(-c6c(F)cccc6F)c6nc(c(-c7c(F)cccc7F)c7ccc4[nH]7)C=C6)C=C5)cc3)cs2)sc1C
REMARK SMILES IDX 16 1 15 2 14 3 12 4 13 5 11 7 10 8 8 9 9 10 77 11 76 12 7 13
REMARK SMILES IDX 5 14 6 15 4 17 1 18 2 19 3 20 79 21 78 22 80 23 17 24 18 25
REMARK SMILES IDX 19 26 20 27 21 29 22 30 23 31 75 32 24 33 74 34 25 35 26 36
REMARK SMILES IDX 27 37 68 38 28 39 73 40 67 41 69 42 29 43 72 44 66 45 65 46
REMARK SMILES IDX 30 48 56 49 39 50 55 51 40 52 43 53 54 54 70 55 41 56 42 57
REMARK SMILES IDX 53 59 71 60 44 61 31 62 32 63 37 64 33 65 34 66 36 67 38 68
REMARK SMILES IDX 35 69 57 70 58 71 63 72 59 73 60 74 62 75 64 76 61 77 45 78
REMARK SMILES IDX 46 79 51 80 47 81 48 82 50 83 52 84 49 85
REMARK H PARENT 14 6 7 16 19 28 69 47 43 58
REMARK Flexibility Score: inf
ROOT
ATOM      1  C   UNL A   1      31.757  30.117  26.317  1.00  0.00     0.023 C 
ENDROOT
BRANCH   1   2
ATOM      2  C   UNL A   1      33.153  29.679  25.866  1.00  0.00     0.116 C 
BRANCH   2   3
ATOM      3  N   UNL A   1      33.279  29.704  24.421  1.00  0.00    -0.356 N 
ATOM      4  C   UNL A   1      33.562  28.667  23.577  1.00  0.00     0.226 C 
ATOM      5  O   UNL A   1      33.724  28.910  22.380  1.00  0.00    -0.275 OA
ATOM      6  H   UNL A   1      33.144  30.581  23.992  1.00  0.00     0.163 HD
BRANCH   4   7
ATOM      7  C   UNL A   1      33.622  27.249  24.107  1.00  0.00     0.157 C 
BRANCH   7   8
ATOM      8  C   UNL A   1      32.273  26.668  24.364  1.00  0.00     0.063 A 
ATOM      9  C   UNL A   1      30.888  25.467  25.589  1.00  0.00     0.189 A 
ATOM     10  N   UNL A   1      32.139  25.811  25.446  1.00  0.00    -0.224 NA
ATOM     11  S   UNL A   1      29.833  25.933  24.336  1.00  0.00    -0.105 S 
ATOM     12  C   UNL A   1      31.103  26.877  23.656  1.00  0.00     0.093 A 
BRANCH   9  13
ATOM     13  N   UNL A   1      30.313  24.786  26.617  1.00  0.00    -0.297 N 
ATOM     14  C   UNL A   1      30.427  23.437  26.876  1.00  0.00     0.267 C 
ATOM     15  O   UNL A   1      29.532  22.951  27.577  1.00  0.00    -0.268 OA
ATOM     16  H   UNL A   1      29.758  25.310  27.239  1.00  0.00     0.172 HD
BRANCH  14  17
ATOM     17  C   UNL A   1      31.576  22.627  26.457  1.00  0.00     0.093 A 
ATOM     18  C   UNL A   1      33.126  19.982  24.246  1.00  0.00     0.045 C 
ATOM     19  C   UNL A   1      32.869  21.058  25.246  1.00  0.00    -0.037 A 
ATOM     20  C   UNL A   1      31.592  21.694  25.431  1.00  0.00     0.029 A 
ATOM     21  C   UNL A   1      33.805  21.611  26.099  1.00  0.00     0.005 A 
ATOM     22  S   UNL A   1      33.042  22.502  27.335  1.00  0.00    -0.135 S 
ATOM     23  C   UNL A   1      35.287  21.458  26.122  1.00  0.00     0.056 C 
ENDBRANCH  14  17
ENDBRANCH   9  13
ENDBRANCH   7   8
ENDBRANCH   4   7
ENDBRANCH   2   3
ENDBRANCH   1   2
BRANCH   1  24
ATOM     24  C   UNL A   1      31.588  31.624  26.502  1.00  0.00     0.023 C 
BRANCH  24  25
ATOM     25  C   UNL A   1      32.763  32.320  27.170  1.00  0.00     0.116 C 
BRANCH  25  26
ATOM     26  N   UNL A   1      32.484  33.706  27.509  1.00  0.00    -0.352 N 
ATOM     27  C   UNL A   1      33.084  34.495  28.460  1.00  0.00     0.251 C 
ATOM     28  H   UNL A   1      31.768  34.138  26.989  1.00  0.00     0.163 HD
ATOM     29  O   UNL A   1      32.640  35.610  28.714  1.00  0.00    -0.269 OA
BRANCH  27  30
ATOM     30  C   UNL A   1      34.251  33.975  29.202  1.00  0.00     0.039 A 
ATOM     31  C   UNL A   1      34.034  33.164  30.318  1.00  0.00     0.014 A 
ATOM     32  C   UNL A   1      35.552  34.265  28.783  1.00  0.00     0.014 A 
ATOM     33  C   UNL A   1      35.123  32.595  30.978  1.00  0.00     0.010 A 
ATOM     34  C   UNL A   1      36.631  33.629  29.389  1.00  0.00     0.010 A 
ATOM     35  C   UNL A   1      36.428  32.795  30.498  1.00  0.00    -0.014 A 
BRANCH  35  36
ATOM     36  C   UNL A   1      37.595  32.152  31.153  1.00  0.00     0.031 A 
ATOM     37  C   UNL A   1      38.333  31.043  30.456  1.00  0.00     0.074 A 
ATOM     38  C   UNL A   1      37.954  32.526  32.397  1.00  0.00     0.049 A 
ATOM     39  N   UNL A   1      39.340  30.323  30.883  1.00  0.00    -0.248 NA
ATOM     40  C   UNL A   1      37.860  30.674  29.113  1.00  0.00     0.031 C 
ATOM     41  C   UNL A   1      37.286  33.553  33.198  1.00  0.00     0.029 A 
ATOM     42  N   UNL A   1      38.966  32.078  33.207  1.00  0.00    -0.354 N 
ATOM     43  C   UNL A   1      39.610  29.412  29.870  1.00  0.00     0.074 A 
ATOM     44  C   UNL A   1      38.624  29.628  28.834  1.00  0.00     0.031 C 
ATOM     45  C   UNL A   1      37.925  33.677  34.373  1.00  0.00     0.029 A 
ATOM     46  C   UNL A   1      39.019  32.713  34.425  1.00  0.00     0.049 A 
ATOM     47  H   UNL A   1      39.595  31.368  32.942  1.00  0.00     0.167 HD
ATOM     48  C   UNL A   1      40.605  28.497  29.794  1.00  0.00     0.037 A 
ATOM     49  C   UNL A   1      39.854  32.534  35.466  1.00  0.00     0.037 A 
ATOM     50  C   UNL A   1      41.598  28.300  30.818  1.00  0.00     0.049 A 
ATOM     51  C   UNL A   1      40.946  31.505  35.362  1.00  0.00     0.074 A 
ATOM     52  C   UNL A   1      42.680  27.437  30.814  1.00  0.00     0.029 A 
ATOM     53  N   UNL A   1      41.627  28.973  32.030  1.00  0.00    -0.354 N 
ATOM     54  N   UNL A   1      41.233  30.699  34.369  1.00  0.00    -0.248 NA
ATOM     55  C   UNL A   1      41.837  31.368  36.523  1.00  0.00     0.031 C 
ATOM     56  C   UNL A   1      43.335  27.553  32.044  1.00  0.00     0.029 A 
ATOM     57  C   UNL A   1      42.695  28.528  32.791  1.00  0.00     0.049 A 
ATOM     58  H   UNL A   1      40.983  29.664  32.309  1.00  0.00     0.167 HD
ATOM     59  C   UNL A   1      42.355  29.984  34.769  1.00  0.00     0.074 A 
ATOM     60  C   UNL A   1      42.703  30.462  36.092  1.00  0.00     0.031 C 
ATOM     61  C   UNL A   1      43.036  29.021  34.102  1.00  0.00     0.037 A 
BRANCH  48  62
ATOM     62  C   UNL A   1      40.667  27.643  28.561  1.00  0.00     0.057 A 
ATOM     63  C   UNL A   1      39.968  26.432  28.463  1.00  0.00     0.134 A 
ATOM     64  C   UNL A   1      41.412  28.048  27.446  1.00  0.00     0.134 A 
ATOM     65  F   UNL A   1      39.245  25.978  29.498  1.00  0.00    -0.206 F 
ATOM     66  C   UNL A   1      40.035  25.640  27.315  1.00  0.00     0.040 A 
ATOM     67  C   UNL A   1      41.462  27.280  26.282  1.00  0.00     0.040 A 
ATOM     68  F   UNL A   1      42.101  29.200  27.468  1.00  0.00    -0.206 F 
ATOM     69  C   UNL A   1      40.778  26.068  26.217  1.00  0.00     0.006 A 
ENDBRANCH  48  62
BRANCH  49  70
ATOM     70  C   UNL A   1      39.709  33.365  36.688  1.00  0.00     0.057 A 
ATOM     71  C   UNL A   1      40.441  34.547  36.848  1.00  0.00     0.134 A 
ATOM     72  C   UNL A   1      38.847  32.997  37.727  1.00  0.00     0.134 A 
ATOM     73  F   UNL A   1      41.297  34.945  35.895  1.00  0.00    -0.206 F 
ATOM     74  C   UNL A   1      40.339  35.321  38.005  1.00  0.00     0.040 A 
ATOM     75  C   UNL A   1      38.714  33.775  38.879  1.00  0.00     0.040 A 
ATOM     76  F   UNL A   1      38.110  31.880  37.632  1.00  0.00    -0.206 F 
ATOM     77  C   UNL A   1      39.470  34.936  39.023  1.00  0.00     0.006 A 
ENDBRANCH  49  70
BRANCH  61  78
ATOM     78  C   UNL A   1      44.254  28.451  34.771  1.00  0.00     0.057 A 
ATOM     79  C   UNL A   1      45.521  29.029  34.627  1.00  0.00     0.134 A 
ATOM     80  C   UNL A   1      44.147  27.325  35.599  1.00  0.00     0.134 A 
ATOM     81  F   UNL A   1      45.695  30.101  33.840  1.00  0.00    -0.206 F 
ATOM     82  C   UNL A   1      46.643  28.493  35.262  1.00  0.00     0.040 A 
ATOM     83  C   UNL A   1      45.256  26.798  36.261  1.00  0.00     0.040 A 
ATOM     84  F   UNL A   1      42.961  26.728  35.787  1.00  0.00    -0.206 F 
ATOM     85  C   UNL A   1      46.511  27.377  36.087  1.00  0.00     0.006 A 
ENDBRANCH  61  78
ENDBRANCH  35  36
ENDBRANCH  27  30
ENDBRANCH  25  26
ENDBRANCH  24  25
ENDBRANCH   1  24
TORSDOF 14
ENDMDL
