MODEL 1
REMARK VINA RESULT:     -11.6      0.000      0.000
REMARK SMILES Cc1cc(CC(=O)C(=O)NCCCCNC(=O)c2ccc(-c3c4nc(c(-c5c(F)cccc5F)c5ccc([nH]5)c(-c5c(F)cccc5F)c5nc(c(-c6c(F)cccc6F)c6ccc3[nH]6)C=C5)C=C4)cc2)cc2cn[nH]c12
REMARK SMILES IDX 12 1 11 2 10 3 8 4 9 5 6 7 7 8 5 9 4 10 1 11 2 12 3 13 77 14
REMARK SMILES IDX 73 15 76 16 72 17 74 18 75 19 13 21 14 22 15 23 16 24 17 26
REMARK SMILES IDX 18 27 19 28 71 29 20 30 70 31 21 32 22 33 23 34 64 35 24 36
REMARK SMILES IDX 69 37 63 38 65 39 25 40 68 41 62 42 61 43 26 45 52 46 35 47
REMARK SMILES IDX 51 48 36 49 39 50 50 51 66 52 37 53 38 54 49 56 67 57 40 58
REMARK SMILES IDX 27 59 28 60 33 61 29 62 30 63 32 64 34 65 31 66 53 67 54 68
REMARK SMILES IDX 59 69 55 70 56 71 58 72 60 73 57 74 41 75 42 76 47 77 43 78
REMARK SMILES IDX 44 79 46 80 48 81 45 82
REMARK H PARENT 10 6 76 20 15 25 65 44 39 55
REMARK Flexibility Score: inf
ROOT
ATOM      1  C   UNL A   1      41.240  21.239  27.470  1.00  0.00     0.023 C 
ENDROOT
BRANCH   1   2
ATOM      2  C   UNL A   1      40.141  21.527  26.440  1.00  0.00     0.116 C 
BRANCH   2   3
ATOM      3  N   UNL A   1      39.372  22.708  26.792  1.00  0.00    -0.349 N 
ATOM      4  C   UNL A   1      38.184  23.183  26.282  1.00  0.00     0.287 C 
ATOM      5  O   UNL A   1      37.786  24.293  26.621  1.00  0.00    -0.266 OA
ATOM      6  H   UNL A   1      39.763  23.257  27.510  1.00  0.00     0.163 HD
BRANCH   4   7
ATOM      7  C   UNL A   1      37.347  22.354  25.292  1.00  0.00     0.224 C 
ATOM      8  O   UNL A   1      37.497  21.141  25.185  1.00  0.00    -0.288 OA
BRANCH   7   9
ATOM      9  C   UNL A   1      36.420  23.125  24.380  1.00  0.00     0.122 C 
BRANCH   9  10
ATOM     10  C   UNL A   1      35.147  23.626  25.023  1.00  0.00    -0.039 A 
ATOM     11  C   UNL A   1      33.438  27.016  25.504  1.00  0.00     0.047 C 
ATOM     12  C   UNL A   1      33.681  25.537  25.567  1.00  0.00    -0.025 A 
ATOM     13  C   UNL A   1      34.850  24.999  24.994  1.00  0.00     0.009 A 
ATOM     14  C   UNL A   1      32.816  24.610  26.169  1.00  0.00     0.068 A 
ATOM     15  C   UNL A   1      33.070  23.243  26.212  1.00  0.00     0.020 A 
ATOM     16  N   UNL A   1      31.614  24.767  26.811  1.00  0.00    -0.278 N 
ATOM     17  C   UNL A   1      34.244  22.735  25.626  1.00  0.00     0.016 A 
ATOM     18  C   UNL A   1      31.963  22.697  26.900  1.00  0.00     0.143 A 
ATOM     19  N   UNL A   1      31.075  23.623  27.271  1.00  0.00    -0.183 NA
ATOM     20  H   UNL A   1      31.181  25.644  26.926  1.00  0.00     0.190 HD
ENDBRANCH   9  10
ENDBRANCH   7   9
ENDBRANCH   4   7
ENDBRANCH   2   3
ENDBRANCH   1   2
BRANCH   1  21
ATOM     21  C   UNL A   1      42.161  20.049  27.148  1.00  0.00     0.023 C 
BRANCH  21  22
ATOM     22  C   UNL A   1      42.281  19.717  25.667  1.00  0.00     0.116 C 
BRANCH  22  23
ATOM     23  N   UNL A   1      43.662  19.529  25.233  1.00  0.00    -0.352 N 
ATOM     24  C   UNL A   1      44.582  20.495  24.866  1.00  0.00     0.251 C 
ATOM     25  H   UNL A   1      43.980  18.598  25.198  1.00  0.00     0.163 HD
ATOM     26  O   UNL A   1      45.551  20.215  24.181  1.00  0.00    -0.269 OA
BRANCH  24  27
ATOM     27  C   UNL A   1      44.379  21.878  25.335  1.00  0.00     0.039 A 
ATOM     28  C   UNL A   1      43.512  22.750  24.670  1.00  0.00     0.014 A 
ATOM     29  C   UNL A   1      45.086  22.297  26.459  1.00  0.00     0.014 A 
ATOM     30  C   UNL A   1      43.320  24.028  25.189  1.00  0.00     0.010 A 
ATOM     31  C   UNL A   1      44.780  23.489  27.057  1.00  0.00     0.010 A 
ATOM     32  C   UNL A   1      43.953  24.383  26.392  1.00  0.00    -0.014 A 
BRANCH  32  33
ATOM     33  C   UNL A   1      43.714  25.678  27.011  1.00  0.00     0.031 A 
ATOM     34  C   UNL A   1      44.718  26.717  26.678  1.00  0.00     0.074 A 
ATOM     35  C   UNL A   1      42.587  25.964  27.696  1.00  0.00     0.049 A 
ATOM     36  N   UNL A   1      45.638  27.189  27.451  1.00  0.00    -0.248 NA
ATOM     37  C   UNL A   1      44.809  27.185  25.288  1.00  0.00     0.031 C 
ATOM     38  C   UNL A   1      41.391  25.127  27.873  1.00  0.00     0.029 A 
ATOM     39  N   UNL A   1      42.248  27.113  28.344  1.00  0.00    -0.354 N 
ATOM     40  C   UNL A   1      46.289  28.173  26.715  1.00  0.00     0.074 A 
ATOM     41  C   UNL A   1      45.863  28.003  25.351  1.00  0.00     0.031 C 
ATOM     42  C   UNL A   1      40.393  25.862  28.410  1.00  0.00     0.029 A 
ATOM     43  C   UNL A   1      40.932  27.155  28.784  1.00  0.00     0.049 A 
ATOM     44  H   UNL A   1      42.884  27.852  28.487  1.00  0.00     0.167 HD
ATOM     45  C   UNL A   1      46.912  29.208  27.344  1.00  0.00     0.037 A 
ATOM     46  C   UNL A   1      40.327  28.167  29.446  1.00  0.00     0.037 A 
ATOM     47  C   UNL A   1      47.058  28.935  28.753  1.00  0.00     0.049 A 
ATOM     48  C   UNL A   1      41.391  28.956  30.099  1.00  0.00     0.074 A 
ATOM     49  C   UNL A   1      47.804  28.075  29.530  1.00  0.00     0.029 A 
ATOM     50  N   UNL A   1      46.022  29.382  29.531  1.00  0.00    -0.354 N 
ATOM     51  N   UNL A   1      42.129  28.495  31.070  1.00  0.00    -0.248 NA
ATOM     52  C   UNL A   1      41.916  30.134  29.425  1.00  0.00     0.031 C 
ATOM     53  C   UNL A   1      46.995  27.789  30.673  1.00  0.00     0.029 A 
ATOM     54  C   UNL A   1      45.808  28.516  30.569  1.00  0.00     0.049 A 
ATOM     55  H   UNL A   1      45.507  30.205  29.367  1.00  0.00     0.167 HD
ATOM     56  C   UNL A   1      43.381  29.039  30.846  1.00  0.00     0.074 A 
ATOM     57  C   UNL A   1      43.149  30.159  29.939  1.00  0.00     0.031 C 
ATOM     58  C   UNL A   1      44.509  28.348  31.185  1.00  0.00     0.037 A 
BRANCH  45  59
ATOM     59  C   UNL A   1      46.961  30.629  26.826  1.00  0.00     0.057 A 
ATOM     60  C   UNL A   1      45.822  31.427  26.588  1.00  0.00     0.134 A 
ATOM     61  C   UNL A   1      48.179  31.333  26.885  1.00  0.00     0.134 A 
ATOM     62  F   UNL A   1      44.583  30.927  26.576  1.00  0.00    -0.206 F 
ATOM     63  C   UNL A   1      45.885  32.817  26.455  1.00  0.00     0.040 A 
ATOM     64  C   UNL A   1      48.245  32.731  26.801  1.00  0.00     0.040 A 
ATOM     65  F   UNL A   1      49.335  30.691  27.111  1.00  0.00    -0.206 F 
ATOM     66  C   UNL A   1      47.094  33.478  26.597  1.00  0.00     0.006 A 
ENDBRANCH  45  59
BRANCH  46  67
ATOM     67  C   UNL A   1      38.917  28.598  29.405  1.00  0.00     0.057 A 
ATOM     68  C   UNL A   1      38.411  29.265  28.276  1.00  0.00     0.134 A 
ATOM     69  C   UNL A   1      38.113  28.619  30.552  1.00  0.00     0.134 A 
ATOM     70  F   UNL A   1      39.139  29.359  27.152  1.00  0.00    -0.206 F 
ATOM     71  C   UNL A   1      37.186  29.939  28.292  1.00  0.00     0.040 A 
ATOM     72  C   UNL A   1      36.882  29.291  30.581  1.00  0.00     0.040 A 
ATOM     73  F   UNL A   1      38.530  28.042  31.687  1.00  0.00    -0.206 F 
ATOM     74  C   UNL A   1      36.422  29.964  29.453  1.00  0.00     0.006 A 
ENDBRANCH  46  67
BRANCH  58  75
ATOM     75  C   UNL A   1      44.330  27.196  32.131  1.00  0.00     0.057 A 
ATOM     76  C   UNL A   1      44.300  27.449  33.504  1.00  0.00     0.134 A 
ATOM     77  C   UNL A   1      44.260  25.853  31.733  1.00  0.00     0.134 A 
ATOM     78  F   UNL A   1      44.414  28.706  33.961  1.00  0.00    -0.206 F 
ATOM     79  C   UNL A   1      44.186  26.419  34.441  1.00  0.00     0.040 A 
ATOM     80  C   UNL A   1      44.115  24.814  32.657  1.00  0.00     0.040 A 
ATOM     81  F   UNL A   1      44.368  25.506  30.446  1.00  0.00    -0.206 F 
ATOM     82  C   UNL A   1      44.080  25.096  34.018  1.00  0.00     0.006 A 
ENDBRANCH  58  75
ENDBRANCH  32  33
ENDBRANCH  24  27
ENDBRANCH  22  23
ENDBRANCH  21  22
ENDBRANCH   1  21
TORSDOF 13
ENDMDL
MODEL 2
REMARK VINA RESULT:     -11.5      3.106      6.107
REMARK SMILES Cc1cc(CC(=O)C(=O)NCCCCNC(=O)c2ccc(-c3c4nc(c(-c5c(F)cccc5F)c5ccc([nH]5)c(-c5c(F)cccc5F)c5nc(c(-c6c(F)cccc6F)c6ccc3[nH]6)C=C5)C=C4)cc2)cc2cn[nH]c12
REMARK SMILES IDX 12 1 11 2 10 3 8 4 9 5 6 7 7 8 5 9 4 10 1 11 2 12 3 13 77 14
REMARK SMILES IDX 73 15 76 16 72 17 74 18 75 19 13 21 14 22 15 23 16 24 17 26
REMARK SMILES IDX 18 27 19 28 71 29 20 30 70 31 21 32 22 33 23 34 64 35 24 36
REMARK SMILES IDX 69 37 63 38 65 39 25 40 68 41 62 42 61 43 26 45 52 46 35 47
REMARK SMILES IDX 51 48 36 49 39 50 50 51 66 52 37 53 38 54 49 56 67 57 40 58
REMARK SMILES IDX 27 59 28 60 33 61 29 62 30 63 32 64 34 65 31 66 53 67 54 68
REMARK SMILES IDX 59 69 55 70 56 71 58 72 60 73 57 74 41 75 42 76 47 77 43 78
REMARK SMILES IDX 44 79 46 80 48 81 45 82
REMARK H PARENT 10 6 76 20 15 25 65 44 39 55
REMARK Flexibility Score: inf
ROOT
ATOM      1  C   UNL A   1      41.894  19.808  26.373  1.00  0.00     0.023 C 
ENDROOT
BRANCH   1   2
ATOM      2  C   UNL A   1      43.028  19.511  25.384  1.00  0.00     0.116 C 
BRANCH   2   3
ATOM      3  N   UNL A   1      44.273  20.139  25.792  1.00  0.00    -0.349 N 
ATOM      4  C   UNL A   1      44.888  21.282  25.330  1.00  0.00     0.287 C 
ATOM      5  O   UNL A   1      46.022  21.549  25.712  1.00  0.00    -0.266 OA
ATOM      6  H   UNL A   1      44.754  19.673  26.513  1.00  0.00     0.163 HD
BRANCH   4   7
ATOM      7  C   UNL A   1      44.185  22.229  24.342  1.00  0.00     0.224 C 
ATOM      8  O   UNL A   1      44.448  22.217  23.144  1.00  0.00    -0.288 OA
BRANCH   7   9
ATOM      9  C   UNL A   1      43.244  23.251  24.940  1.00  0.00     0.122 C 
BRANCH   9  10
ATOM     10  C   UNL A   1      43.902  24.339  25.755  1.00  0.00    -0.039 A 
ATOM     11  C   UNL A   1      43.590  25.701  29.317  1.00  0.00     0.047 C 
ATOM     12  C   UNL A   1      44.075  25.536  27.908  1.00  0.00    -0.025 A 
ATOM     13  C   UNL A   1      43.503  24.545  27.086  1.00  0.00     0.009 A 
ATOM     14  C   UNL A   1      45.084  26.311  27.314  1.00  0.00     0.068 A 
ATOM     15  C   UNL A   1      45.513  26.133  26.002  1.00  0.00     0.020 A 
ATOM     16  N   UNL A   1      45.848  27.342  27.799  1.00  0.00    -0.278 N 
ATOM     17  C   UNL A   1      44.926  25.132  25.208  1.00  0.00     0.016 A 
ATOM     18  C   UNL A   1      46.520  27.109  25.823  1.00  0.00     0.143 A 
ATOM     19  N   UNL A   1      46.724  27.850  26.914  1.00  0.00    -0.183 NA
ATOM     20  H   UNL A   1      45.762  27.682  28.720  1.00  0.00     0.190 HD
ENDBRANCH   9  10
ENDBRANCH   7   9
ENDBRANCH   4   7
ENDBRANCH   2   3
ENDBRANCH   1   2
BRANCH   1  21
ATOM     21  C   UNL A   1      42.268  20.703  27.568  1.00  0.00     0.023 C 
BRANCH  21  22
ATOM     22  C   UNL A   1      41.340  21.889  27.792  1.00  0.00     0.116 C 
BRANCH  22  23
ATOM     23  N   UNL A   1      40.258  21.963  26.813  1.00  0.00    -0.352 N 
ATOM     24  C   UNL A   1      39.388  23.012  26.578  1.00  0.00     0.251 C 
ATOM     25  H   UNL A   1      40.135  21.167  26.248  1.00  0.00     0.163 HD
ATOM     26  O   UNL A   1      38.319  22.831  26.020  1.00  0.00    -0.269 OA
BRANCH  24  27
ATOM     27  C   UNL A   1      39.783  24.367  27.004  1.00  0.00     0.039 A 
ATOM     28  C   UNL A   1      40.302  25.292  26.094  1.00  0.00     0.014 A 
ATOM     29  C   UNL A   1      39.634  24.698  28.349  1.00  0.00     0.014 A 
ATOM     30  C   UNL A   1      40.609  26.573  26.544  1.00  0.00     0.010 A 
ATOM     31  C   UNL A   1      39.784  25.996  28.756  1.00  0.00     0.010 A 
ATOM     32  C   UNL A   1      40.335  26.918  27.878  1.00  0.00    -0.014 A 
BRANCH  32  33
ATOM     33  C   UNL A   1      40.563  28.269  28.366  1.00  0.00     0.031 A 
ATOM     34  C   UNL A   1      41.789  28.917  27.839  1.00  0.00     0.074 A 
ATOM     35  C   UNL A   1      39.656  28.943  29.103  1.00  0.00     0.049 A 
ATOM     36  N   UNL A   1      42.887  29.144  28.479  1.00  0.00    -0.248 NA
ATOM     37  C   UNL A   1      41.862  29.219  26.403  1.00  0.00     0.031 C 
ATOM     38  C   UNL A   1      38.292  28.533  29.467  1.00  0.00     0.029 A 
ATOM     39  N   UNL A   1      39.750  30.190  29.644  1.00  0.00    -0.354 N 
ATOM     40  C   UNL A   1      43.717  29.816  27.588  1.00  0.00     0.074 A 
ATOM     41  C   UNL A   1      43.113  29.675  26.290  1.00  0.00     0.031 C 
ATOM     42  C   UNL A   1      37.625  29.581  29.998  1.00  0.00     0.029 A 
ATOM     43  C   UNL A   1      38.563  30.671  30.180  1.00  0.00     0.049 A 
ATOM     44  H   UNL A   1      40.589  30.706  29.652  1.00  0.00     0.167 HD
ATOM     45  C   UNL A   1      44.686  30.656  28.046  1.00  0.00     0.037 A 
ATOM     46  C   UNL A   1      38.365  31.871  30.772  1.00  0.00     0.037 A 
ATOM     47  C   UNL A   1      44.899  30.468  29.460  1.00  0.00     0.049 A 
ATOM     48  C   UNL A   1      39.681  32.344  31.245  1.00  0.00     0.074 A 
ATOM     49  C   UNL A   1      45.434  29.487  30.266  1.00  0.00     0.029 A 
ATOM     50  N   UNL A   1      44.135  31.275  30.264  1.00  0.00    -0.354 N 
ATOM     51  N   UNL A   1      40.350  31.760  32.199  1.00  0.00    -0.248 NA
ATOM     52  C   UNL A   1      40.456  33.244  30.404  1.00  0.00     0.031 C 
ATOM     53  C   UNL A   1      44.709  29.559  31.495  1.00  0.00     0.029 A 
ATOM     54  C   UNL A   1      43.788  30.605  31.406  1.00  0.00     0.049 A 
ATOM     55  H   UNL A   1      43.875  32.200  30.051  1.00  0.00     0.167 HD
ATOM     56  C   UNL A   1      41.675  31.871  31.816  1.00  0.00     0.074 A 
ATOM     57  C   UNL A   1      41.689  32.930  30.812  1.00  0.00     0.031 C 
ATOM     58  C   UNL A   1      42.575  30.896  32.139  1.00  0.00     0.037 A 
BRANCH  45  59
ATOM     59  C   UNL A   1      45.100  31.946  27.370  1.00  0.00     0.057 A 
ATOM     60  C   UNL A   1      44.395  33.163  27.482  1.00  0.00     0.134 A 
ATOM     61  C   UNL A   1      46.412  32.063  26.872  1.00  0.00     0.134 A 
ATOM     62  F   UNL A   1      43.167  33.237  28.006  1.00  0.00    -0.206 F 
ATOM     63  C   UNL A   1      44.960  34.400  27.158  1.00  0.00     0.040 A 
ATOM     64  C   UNL A   1      47.003  33.302  26.590  1.00  0.00     0.040 A 
ATOM     65  F   UNL A   1      47.189  30.980  26.723  1.00  0.00    -0.206 F 
ATOM     66  C   UNL A   1      46.280  34.477  26.744  1.00  0.00     0.006 A 
ENDBRANCH  45  59
BRANCH  46  67
ATOM     67  C   UNL A   1      37.152  32.710  30.796  1.00  0.00     0.057 A 
ATOM     68  C   UNL A   1      36.229  32.592  31.850  1.00  0.00     0.134 A 
ATOM     69  C   UNL A   1      36.727  33.435  29.676  1.00  0.00     0.134 A 
ATOM     70  F   UNL A   1      36.518  31.859  32.936  1.00  0.00    -0.206 F 
ATOM     71  C   UNL A   1      34.945  33.142  31.785  1.00  0.00     0.040 A 
ATOM     72  C   UNL A   1      35.443  33.992  29.597  1.00  0.00     0.040 A 
ATOM     73  F   UNL A   1      37.525  33.568  28.608  1.00  0.00    -0.206 F 
ATOM     74  C   UNL A   1      34.543  33.835  30.648  1.00  0.00     0.006 A 
ENDBRANCH  46  67
BRANCH  58  75
ATOM     75  C   UNL A   1      42.165  29.937  33.219  1.00  0.00     0.057 A 
ATOM     76  C   UNL A   1      42.424  30.270  34.551  1.00  0.00     0.134 A 
ATOM     77  C   UNL A   1      41.596  28.678  32.980  1.00  0.00     0.134 A 
ATOM     78  F   UNL A   1      43.015  31.437  34.851  1.00  0.00    -0.206 F 
ATOM     79  C   UNL A   1      42.115  29.402  35.600  1.00  0.00     0.040 A 
ATOM     80  C   UNL A   1      41.253  27.811  34.022  1.00  0.00     0.040 A 
ATOM     81  F   UNL A   1      41.393  28.236  31.735  1.00  0.00    -0.206 F 
ATOM     82  C   UNL A   1      41.515  28.172  35.339  1.00  0.00     0.006 A 
ENDBRANCH  58  75
ENDBRANCH  32  33
ENDBRANCH  24  27
ENDBRANCH  22  23
ENDBRANCH  21  22
ENDBRANCH   1  21
TORSDOF 13
ENDMDL
MODEL 3
REMARK VINA RESULT:     -11.4      4.223     10.107
REMARK SMILES Cc1cc(CC(=O)C(=O)NCCCCNC(=O)c2ccc(-c3c4nc(c(-c5c(F)cccc5F)c5ccc([nH]5)c(-c5c(F)cccc5F)c5nc(c(-c6c(F)cccc6F)c6ccc3[nH]6)C=C5)C=C4)cc2)cc2cn[nH]c12
REMARK SMILES IDX 12 1 11 2 10 3 8 4 9 5 6 7 7 8 5 9 4 10 1 11 2 12 3 13 77 14
REMARK SMILES IDX 73 15 76 16 72 17 74 18 75 19 13 21 14 22 15 23 16 24 17 26
REMARK SMILES IDX 18 27 19 28 71 29 20 30 70 31 21 32 22 33 23 34 64 35 24 36
REMARK SMILES IDX 69 37 63 38 65 39 25 40 68 41 62 42 61 43 26 45 52 46 35 47
REMARK SMILES IDX 51 48 36 49 39 50 50 51 66 52 37 53 38 54 49 56 67 57 40 58
REMARK SMILES IDX 27 59 28 60 33 61 29 62 30 63 32 64 34 65 31 66 53 67 54 68
REMARK SMILES IDX 59 69 55 70 56 71 58 72 60 73 57 74 41 75 42 76 47 77 43 78
REMARK SMILES IDX 44 79 46 80 48 81 45 82
REMARK H PARENT 10 6 76 20 15 25 65 44 39 55
REMARK Flexibility Score: inf
ROOT
ATOM      1  C   UNL A   1      33.603  35.212  28.992  1.00  0.00     0.023 C 
ENDROOT
BRANCH   1   2
ATOM      2  C   UNL A   1      33.266  35.899  30.321  1.00  0.00     0.116 C 
BRANCH   2   3
ATOM      3  N   UNL A   1      32.952  34.932  31.359  1.00  0.00    -0.349 N 
ATOM      4  C   UNL A   1      33.637  34.605  32.509  1.00  0.00     0.287 C 
ATOM      5  O   UNL A   1      33.269  33.641  33.173  1.00  0.00    -0.266 OA
ATOM      6  H   UNL A   1      32.116  34.432  31.219  1.00  0.00     0.163 HD
BRANCH   4   7
ATOM      7  C   UNL A   1      34.856  35.418  32.976  1.00  0.00     0.224 C 
ATOM      8  O   UNL A   1      34.727  36.457  33.616  1.00  0.00    -0.288 OA
BRANCH   7   9
ATOM      9  C   UNL A   1      36.210  34.936  32.505  1.00  0.00     0.122 C 
BRANCH   9  10
ATOM     10  C   UNL A   1      36.667  33.619  33.088  1.00  0.00    -0.039 A 
ATOM     11  C   UNL A   1      36.650  29.952  31.993  1.00  0.00     0.047 C 
ATOM     12  C   UNL A   1      36.889  31.173  32.831  1.00  0.00    -0.025 A 
ATOM     13  C   UNL A   1      36.483  32.435  32.355  1.00  0.00     0.009 A 
ATOM     14  C   UNL A   1      37.502  31.167  34.094  1.00  0.00     0.068 A 
ATOM     15  C   UNL A   1      37.710  32.318  34.848  1.00  0.00     0.020 A 
ATOM     16  N   UNL A   1      38.013  30.148  34.856  1.00  0.00    -0.278 N 
ATOM     17  C   UNL A   1      37.298  33.565  34.343  1.00  0.00     0.016 A 
ATOM     18  C   UNL A   1      38.342  31.861  36.027  1.00  0.00     0.143 A 
ATOM     19  N   UNL A   1      38.524  30.538  36.038  1.00  0.00    -0.183 NA
ATOM     20  H   UNL A   1      38.007  29.208  34.562  1.00  0.00     0.190 HD
ENDBRANCH   9  10
ENDBRANCH   7   9
ENDBRANCH   4   7
ENDBRANCH   2   3
ENDBRANCH   1   2
BRANCH   1  21
ATOM     21  C   UNL A   1      35.096  34.923  28.751  1.00  0.00     0.023 C 
BRANCH  21  22
ATOM     22  C   UNL A   1      35.537  33.510  29.103  1.00  0.00     0.116 C 
BRANCH  22  23
ATOM     23  N   UNL A   1      34.634  32.483  28.590  1.00  0.00    -0.352 N 
ATOM     24  C   UNL A   1      34.960  31.276  27.998  1.00  0.00     0.251 C 
ATOM     25  H   UNL A   1      33.673  32.673  28.679  1.00  0.00     0.163 HD
ATOM     26  O   UNL A   1      34.163  30.688  27.287  1.00  0.00    -0.269 OA
BRANCH  24  27
ATOM     27  C   UNL A   1      36.293  30.701  28.254  1.00  0.00     0.039 A 
ATOM     28  C   UNL A   1      37.345  31.488  28.729  1.00  0.00     0.014 A 
ATOM     29  C   UNL A   1      36.477  29.344  27.999  1.00  0.00     0.014 A 
ATOM     30  C   UNL A   1      38.567  30.879  29.002  1.00  0.00     0.010 A 
ATOM     31  C   UNL A   1      37.622  28.718  28.414  1.00  0.00     0.010 A 
ATOM     32  C   UNL A   1      38.690  29.488  28.850  1.00  0.00    -0.014 A 
BRANCH  32  33
ATOM     33  C   UNL A   1      39.923  28.801  29.203  1.00  0.00     0.031 A 
ATOM     34  C   UNL A   1      40.190  28.721  30.660  1.00  0.00     0.074 A 
ATOM     35  C   UNL A   1      40.680  28.145  28.299  1.00  0.00     0.049 A 
ATOM     36  N   UNL A   1      41.073  29.384  31.329  1.00  0.00    -0.248 NA
ATOM     37  C   UNL A   1      39.282  27.924  31.497  1.00  0.00     0.031 C 
ATOM     38  C   UNL A   1      40.398  27.908  26.876  1.00  0.00     0.029 A 
ATOM     39  N   UNL A   1      41.860  27.490  28.485  1.00  0.00    -0.354 N 
ATOM     40  C   UNL A   1      40.981  28.928  32.640  1.00  0.00     0.074 A 
ATOM     41  C   UNL A   1      39.758  28.175  32.720  1.00  0.00     0.031 C 
ATOM     42  C   UNL A   1      41.274  27.008  26.379  1.00  0.00     0.029 A 
ATOM     43  C   UNL A   1      42.282  26.750  27.388  1.00  0.00     0.049 A 
ATOM     44  H   UNL A   1      42.369  27.537  29.326  1.00  0.00     0.167 HD
ATOM     45  C   UNL A   1      42.060  28.990  33.470  1.00  0.00     0.037 A 
ATOM     46  C   UNL A   1      43.405  26.002  27.295  1.00  0.00     0.037 A 
ATOM     47  C   UNL A   1      43.084  29.838  32.913  1.00  0.00     0.049 A 
ATOM     48  C   UNL A   1      44.357  26.523  28.296  1.00  0.00     0.074 A 
ATOM     49  C   UNL A   1      43.245  31.187  32.681  1.00  0.00     0.029 A 
ATOM     50  N   UNL A   1      44.005  29.186  32.134  1.00  0.00    -0.354 N 
ATOM     51  N   UNL A   1      44.899  27.706  28.220  1.00  0.00    -0.248 NA
ATOM     52  C   UNL A   1      44.426  25.890  29.605  1.00  0.00     0.031 C 
ATOM     53  C   UNL A   1      44.064  31.283  31.513  1.00  0.00     0.029 A 
ATOM     54  C   UNL A   1      44.404  29.993  31.103  1.00  0.00     0.049 A 
ATOM     55  H   UNL A   1      44.331  28.270  32.293  1.00  0.00     0.167 HD
ATOM     56  C   UNL A   1      44.980  28.138  29.532  1.00  0.00     0.074 A 
ATOM     57  C   UNL A   1      44.841  26.929  30.337  1.00  0.00     0.031 C 
ATOM     58  C   UNL A   1      44.857  29.464  29.835  1.00  0.00     0.037 A 
BRANCH  45  59
ATOM     59  C   UNL A   1      42.404  27.951  34.515  1.00  0.00     0.057 A 
ATOM     60  C   UNL A   1      42.076  28.061  35.883  1.00  0.00     0.134 A 
ATOM     61  C   UNL A   1      42.772  26.658  34.094  1.00  0.00     0.134 A 
ATOM     62  F   UNL A   1      41.636  29.199  36.427  1.00  0.00    -0.206 F 
ATOM     63  C   UNL A   1      42.079  26.968  36.754  1.00  0.00     0.040 A 
ATOM     64  C   UNL A   1      42.731  25.548  34.948  1.00  0.00     0.040 A 
ATOM     65  F   UNL A   1      43.101  26.420  32.815  1.00  0.00    -0.206 F 
ATOM     66  C   UNL A   1      42.373  25.699  36.281  1.00  0.00     0.006 A 
ENDBRANCH  45  59
BRANCH  46  67
ATOM     67  C   UNL A   1      43.640  24.765  26.527  1.00  0.00     0.057 A 
ATOM     68  C   UNL A   1      44.581  24.746  25.483  1.00  0.00     0.134 A 
ATOM     69  C   UNL A   1      42.775  23.667  26.604  1.00  0.00     0.134 A 
ATOM     70  F   UNL A   1      45.408  25.785  25.285  1.00  0.00    -0.206 F 
ATOM     71  C   UNL A   1      44.643  23.706  24.550  1.00  0.00     0.040 A 
ATOM     72  C   UNL A   1      42.826  22.617  25.676  1.00  0.00     0.040 A 
ATOM     73  F   UNL A   1      41.820  23.616  27.543  1.00  0.00    -0.206 F 
ATOM     74  C   UNL A   1      43.752  22.642  24.637  1.00  0.00     0.006 A 
ENDBRANCH  46  67
BRANCH  58  75
ATOM     75  C   UNL A   1      45.021  30.429  28.696  1.00  0.00     0.057 A 
ATOM     76  C   UNL A   1      46.296  30.921  28.407  1.00  0.00     0.134 A 
ATOM     77  C   UNL A   1      43.960  30.936  27.933  1.00  0.00     0.134 A 
ATOM     78  F   UNL A   1      47.354  30.521  29.131  1.00  0.00    -0.206 F 
ATOM     79  C   UNL A   1      46.512  31.859  27.395  1.00  0.00     0.040 A 
ATOM     80  C   UNL A   1      44.163  31.852  26.897  1.00  0.00     0.040 A 
ATOM     81  F   UNL A   1      42.694  30.590  28.194  1.00  0.00    -0.206 F 
ATOM     82  C   UNL A   1      45.445  32.318  26.626  1.00  0.00     0.006 A 
ENDBRANCH  58  75
ENDBRANCH  32  33
ENDBRANCH  24  27
ENDBRANCH  22  23
ENDBRANCH  21  22
ENDBRANCH   1  21
TORSDOF 13
ENDMDL
