MODEL 1
REMARK VINA RESULT:     -11.4      0.000      0.000
REMARK SMILES CCCCCCNC(=O)Oc1cccc(-c2ccc([C@@H](C)C(=O)NCCCCNC(=O)c3ccc(-c4c5nc(c(-c6c(F)cccc6F)c6ccc([nH]6)c(-c6c(F)cccc6F)c6nc(c(-c7c(F)cccc7F)c7ccc4[nH]7)C=C6)C=C5)cc3)cc2F)c1
REMARK SMILES IDX 20 1 21 2 19 3 16 4 17 5 87 6 18 7 86 8 88 9 15 10 11 11
REMARK SMILES IDX 12 12 89 13 13 14 14 15 10 16 8 17 7 18 9 20 6 21 5 22 4 23
REMARK SMILES IDX 3 24 2 25 1 26 22 27 23 28 24 29 25 31 26 32 27 33 28 34
REMARK SMILES IDX 29 35 30 36 31 38 32 39 33 40 85 41 34 42 84 43 35 44 36 45
REMARK SMILES IDX 37 46 78 47 38 48 83 49 77 50 79 51 39 52 82 53 76 54 75 55
REMARK SMILES IDX 40 57 66 58 49 59 65 60 50 61 53 62 64 63 80 64 51 65 52 66
REMARK SMILES IDX 63 68 81 69 54 70 41 71 42 72 47 73 43 74 44 75 46 76 48 77
REMARK SMILES IDX 45 78 67 79 68 80 73 81 69 82 70 83 72 84 74 85 71 86 55 87
REMARK SMILES IDX 56 88 61 89 57 90 58 91 60 92 62 93 59 94
REMARK H PARENT 7 19 24 30 29 37 79 56 53 67
REMARK Flexibility Score: inf
ROOT
ATOM      1  C   UNL A   1      32.376  19.089  23.962  1.00  0.00     0.105 C 
ATOM      2  C   UNL A   1      32.481  18.625  22.510  1.00  0.00     0.023 C 
ENDROOT
BRANCH   1   3
ATOM      3  C   UNL A   1      32.331  20.594  24.178  1.00  0.00    -0.033 A 
ATOM      4  C   UNL A   1      32.441  23.409  24.723  1.00  0.00     0.018 A 
ATOM      5  C   UNL A   1      32.658  22.891  23.434  1.00  0.00     0.012 A 
ATOM      6  C   UNL A   1      32.115  22.471  25.716  1.00  0.00     0.131 A 
ATOM      7  C   UNL A   1      32.564  21.520  23.159  1.00  0.00     0.005 A 
ATOM      8  C   UNL A   1      32.085  21.096  25.463  1.00  0.00     0.044 A 
ATOM      9  F   UNL A   1      31.813  22.868  26.963  1.00  0.00    -0.206 F 
BRANCH   4  10
ATOM     10  C   UNL A   1      32.574  24.862  24.994  1.00  0.00    -0.012 A 
ATOM     11  C   UNL A   1      31.695  27.135  24.932  1.00  0.00     0.133 A 
ATOM     12  C   UNL A   1      32.835  27.636  25.550  1.00  0.00     0.047 A 
ATOM     13  C   UNL A   1      31.557  25.773  24.657  1.00  0.00     0.056 A 
ATOM     14  C   UNL A   1      33.850  26.757  25.903  1.00  0.00     0.004 A 
ATOM     15  C   UNL A   1      33.724  25.392  25.618  1.00  0.00     0.009 A 
BRANCH  11  16
ATOM     16  O   UNL A   1      30.764  28.075  24.463  1.00  0.00    -0.410 OA
BRANCH  16  17
ATOM     17  C   UNL A   1      30.841  28.500  23.146  1.00  0.00     0.412 C 
ATOM     18  N   UNL A   1      29.614  28.594  22.548  1.00  0.00    -0.321 N 
ATOM     19  H   UNL A   1      29.601  28.861  21.601  1.00  0.00     0.167 HD
ATOM     20  O   UNL A   1      31.867  28.763  22.531  1.00  0.00    -0.224 OA
BRANCH  18  21
ATOM     21  C   UNL A   1      28.330  28.341  23.171  1.00  0.00     0.119 C 
BRANCH  21  22
ATOM     22  C   UNL A   1      27.342  29.482  22.933  1.00  0.00     0.021 C 
BRANCH  22  23
ATOM     23  C   UNL A   1      27.739  30.819  23.569  1.00  0.00     0.002 C 
BRANCH  23  24
ATOM     24  C   UNL A   1      27.984  31.971  22.588  1.00  0.00    -0.000 C 
BRANCH  24  25
ATOM     25  C   UNL A   1      28.312  31.553  21.152  1.00  0.00    -0.003 C 
ATOM     26  C   UNL A   1      27.885  32.578  20.115  1.00  0.00     0.004 C 
ENDBRANCH  24  25
ENDBRANCH  23  24
ENDBRANCH  22  23
ENDBRANCH  21  22
ENDBRANCH  18  21
ENDBRANCH  16  17
ENDBRANCH  11  16
ENDBRANCH   4  10
ENDBRANCH   1   3
BRANCH   1  27
ATOM     27  C   UNL A   1      33.328  18.358  24.922  1.00  0.00     0.227 C 
ATOM     28  O   UNL A   1      32.916  17.400  25.586  1.00  0.00    -0.274 OA
ATOM     29  N   UNL A   1      34.638  18.690  25.090  1.00  0.00    -0.356 N 
ATOM     30  H   UNL A   1      35.135  18.083  25.686  1.00  0.00     0.163 HD
BRANCH  29  31
ATOM     31  C   UNL A   1      35.431  19.773  24.549  1.00  0.00     0.116 C 
BRANCH  31  32
ATOM     32  C   UNL A   1      35.666  20.881  25.575  1.00  0.00     0.023 C 
BRANCH  32  33
ATOM     33  C   UNL A   1      35.922  22.266  24.984  1.00  0.00     0.023 C 
BRANCH  33  34
ATOM     34  C   UNL A   1      37.079  23.036  25.610  1.00  0.00     0.116 C 
BRANCH  34  35
ATOM     35  N   UNL A   1      38.222  22.210  25.972  1.00  0.00    -0.352 N 
ATOM     36  C   UNL A   1      39.401  22.599  26.564  1.00  0.00     0.251 C 
ATOM     37  H   UNL A   1      38.141  21.250  25.765  1.00  0.00     0.163 HD
ATOM     38  O   UNL A   1      40.308  21.793  26.744  1.00  0.00    -0.269 OA
BRANCH  36  39
ATOM     39  C   UNL A   1      39.581  24.018  26.936  1.00  0.00     0.039 A 
ATOM     40  C   UNL A   1      39.327  24.406  28.253  1.00  0.00     0.014 A 
ATOM     41  C   UNL A   1      40.069  24.939  26.007  1.00  0.00     0.014 A 
ATOM     42  C   UNL A   1      39.644  25.703  28.660  1.00  0.00     0.010 A 
ATOM     43  C   UNL A   1      40.459  26.204  26.432  1.00  0.00     0.010 A 
ATOM     44  C   UNL A   1      40.255  26.596  27.764  1.00  0.00    -0.014 A 
BRANCH  44  45
ATOM     45  C   UNL A   1      40.707  27.939  28.205  1.00  0.00     0.031 A 
ATOM     46  C   UNL A   1      42.170  28.278  28.222  1.00  0.00     0.074 A 
ATOM     47  C   UNL A   1      39.804  28.824  28.669  1.00  0.00     0.049 A 
ATOM     48  N   UNL A   1      42.761  29.372  28.627  1.00  0.00    -0.248 NA
ATOM     49  C   UNL A   1      43.095  27.235  27.751  1.00  0.00     0.031 C 
ATOM     50  C   UNL A   1      38.361  28.589  28.771  1.00  0.00     0.029 A 
ATOM     51  N   UNL A   1      39.966  30.098  29.151  1.00  0.00    -0.354 N 
ATOM     52  C   UNL A   1      44.122  29.143  28.479  1.00  0.00     0.074 A 
ATOM     53  C   UNL A   1      44.273  27.786  28.000  1.00  0.00     0.031 C 
ATOM     54  C   UNL A   1      37.770  29.691  29.259  1.00  0.00     0.029 A 
ATOM     55  C   UNL A   1      38.790  30.697  29.533  1.00  0.00     0.049 A 
ATOM     56  H   UNL A   1      40.843  30.541  29.217  1.00  0.00     0.167 HD
ATOM     57  C   UNL A   1      45.153  29.994  28.697  1.00  0.00     0.037 A 
ATOM     58  C   UNL A   1      38.562  31.921  30.045  1.00  0.00     0.037 A 
ATOM     59  C   UNL A   1      44.997  31.352  29.144  1.00  0.00     0.049 A 
ATOM     60  C   UNL A   1      39.718  32.857  30.256  1.00  0.00     0.074 A 
ATOM     61  C   UNL A   1      45.971  32.321  29.316  1.00  0.00     0.029 A 
ATOM     62  N   UNL A   1      43.787  31.934  29.490  1.00  0.00    -0.354 N 
ATOM     63  N   UNL A   1      40.994  32.657  30.031  1.00  0.00    -0.248 NA
ATOM     64  C   UNL A   1      39.402  34.191  30.786  1.00  0.00     0.031 C 
ATOM     65  C   UNL A   1      45.354  33.478  29.807  1.00  0.00     0.029 A 
ATOM     66  C   UNL A   1      43.991  33.243  29.898  1.00  0.00     0.049 A 
ATOM     67  H   UNL A   1      42.912  31.485  29.452  1.00  0.00     0.167 HD
ATOM     68  C   UNL A   1      41.630  33.843  30.369  1.00  0.00     0.074 A 
ATOM     69  C   UNL A   1      40.597  34.764  30.800  1.00  0.00     0.031 C 
ATOM     70  C   UNL A   1      42.951  34.144  30.327  1.00  0.00     0.037 A 
BRANCH  57  71
ATOM     71  C   UNL A   1      46.538  29.473  28.449  1.00  0.00     0.057 A 
ATOM     72  C   UNL A   1      47.178  29.637  27.212  1.00  0.00     0.134 A 
ATOM     73  C   UNL A   1      47.246  28.810  29.458  1.00  0.00     0.134 A 
ATOM     74  F   UNL A   1      46.550  30.250  26.197  1.00  0.00    -0.206 F 
ATOM     75  C   UNL A   1      48.458  29.130  26.979  1.00  0.00     0.040 A 
ATOM     76  C   UNL A   1      48.537  28.323  29.246  1.00  0.00     0.040 A 
ATOM     77  F   UNL A   1      46.695  28.623  30.667  1.00  0.00    -0.206 F 
ATOM     78  C   UNL A   1      49.143  28.476  28.000  1.00  0.00     0.006 A 
ENDBRANCH  57  71
BRANCH  58  79
ATOM     79  C   UNL A   1      37.174  32.341  30.360  1.00  0.00     0.057 A 
ATOM     80  C   UNL A   1      36.605  32.069  31.610  1.00  0.00     0.134 A 
ATOM     81  C   UNL A   1      36.389  33.033  29.430  1.00  0.00     0.134 A 
ATOM     82  F   UNL A   1      37.303  31.393  32.535  1.00  0.00    -0.206 F 
ATOM     83  C   UNL A   1      35.301  32.458  31.920  1.00  0.00     0.040 A 
ATOM     84  C   UNL A   1      35.091  33.448  29.735  1.00  0.00     0.040 A 
ATOM     85  F   UNL A   1      36.880  33.331  28.219  1.00  0.00    -0.206 F 
ATOM     86  C   UNL A   1      34.543  33.156  30.982  1.00  0.00     0.006 A 
ENDBRANCH  58  79
BRANCH  70  87
ATOM     87  C   UNL A   1      43.351  35.529  30.739  1.00  0.00     0.057 A 
ATOM     88  C   UNL A   1      43.668  35.840  32.067  1.00  0.00     0.134 A 
ATOM     89  C   UNL A   1      43.453  36.555  29.791  1.00  0.00     0.134 A 
ATOM     90  F   UNL A   1      43.577  34.906  33.025  1.00  0.00    -0.206 F 
ATOM     91  C   UNL A   1      44.055  37.129  32.441  1.00  0.00     0.040 A 
ATOM     92  C   UNL A   1      43.862  37.840  30.148  1.00  0.00     0.040 A 
ATOM     93  F   UNL A   1      43.170  36.321  28.501  1.00  0.00    -0.206 F 
ATOM     94  C   UNL A   1      44.159  38.131  31.478  1.00  0.00     0.006 A 
ENDBRANCH  70  87
ENDBRANCH  44  45
ENDBRANCH  36  39
ENDBRANCH  34  35
ENDBRANCH  33  34
ENDBRANCH  32  33
ENDBRANCH  31  32
ENDBRANCH  29  31
ENDBRANCH   1  27
TORSDOF 20
ENDMDL
MODEL 2
REMARK VINA RESULT:     -11.2      3.917      8.127
REMARK SMILES CCCCCCNC(=O)Oc1cccc(-c2ccc([C@@H](C)C(=O)NCCCCNC(=O)c3ccc(-c4c5nc(c(-c6c(F)cccc6F)c6ccc([nH]6)c(-c6c(F)cccc6F)c6nc(c(-c7c(F)cccc7F)c7ccc4[nH]7)C=C6)C=C5)cc3)cc2F)c1
REMARK SMILES IDX 20 1 21 2 19 3 16 4 17 5 87 6 18 7 86 8 88 9 15 10 11 11
REMARK SMILES IDX 12 12 89 13 13 14 14 15 10 16 8 17 7 18 9 20 6 21 5 22 4 23
REMARK SMILES IDX 3 24 2 25 1 26 22 27 23 28 24 29 25 31 26 32 27 33 28 34
REMARK SMILES IDX 29 35 30 36 31 38 32 39 33 40 85 41 34 42 84 43 35 44 36 45
REMARK SMILES IDX 37 46 78 47 38 48 83 49 77 50 79 51 39 52 82 53 76 54 75 55
REMARK SMILES IDX 40 57 66 58 49 59 65 60 50 61 53 62 64 63 80 64 51 65 52 66
REMARK SMILES IDX 63 68 81 69 54 70 41 71 42 72 47 73 43 74 44 75 46 76 48 77
REMARK SMILES IDX 45 78 67 79 68 80 73 81 69 82 70 83 72 84 74 85 71 86 55 87
REMARK SMILES IDX 56 88 61 89 57 90 58 91 60 92 62 93 59 94
REMARK H PARENT 7 19 24 30 29 37 79 56 53 67
REMARK Flexibility Score: inf
ROOT
ATOM      1  C   UNL A   1      41.454  21.810  27.107  1.00  0.00     0.105 C 
ATOM      2  C   UNL A   1      41.484  20.371  27.621  1.00  0.00     0.023 C 
ENDROOT
BRANCH   1   3
ATOM      3  C   UNL A   1      40.108  22.309  26.606  1.00  0.00    -0.033 A 
ATOM      4  C   UNL A   1      37.466  23.093  25.807  1.00  0.00     0.018 A 
ATOM      5  C   UNL A   1      38.323  23.964  26.502  1.00  0.00     0.012 A 
ATOM      6  C   UNL A   1      37.999  21.836  25.481  1.00  0.00     0.131 A 
ATOM      7  C   UNL A   1      39.628  23.596  26.857  1.00  0.00     0.005 A 
ATOM      8  C   UNL A   1      39.277  21.438  25.889  1.00  0.00     0.044 A 
ATOM      9  F   UNL A   1      37.291  20.958  24.751  1.00  0.00    -0.206 F 
BRANCH   4  10
ATOM     10  C   UNL A   1      36.079  23.497  25.468  1.00  0.00    -0.012 A 
ATOM     11  C   UNL A   1      34.430  24.358  23.892  1.00  0.00     0.133 A 
ATOM     12  C   UNL A   1      33.411  24.236  24.829  1.00  0.00     0.047 A 
ATOM     13  C   UNL A   1      35.744  23.995  24.196  1.00  0.00     0.056 A 
ATOM     14  C   UNL A   1      33.712  23.737  26.090  1.00  0.00     0.004 A 
ATOM     15  C   UNL A   1      35.029  23.384  26.406  1.00  0.00     0.009 A 
BRANCH  11  16
ATOM     16  O   UNL A   1      34.108  25.000  22.686  1.00  0.00    -0.410 OA
BRANCH  16  17
ATOM     17  C   UNL A   1      33.199  24.403  21.826  1.00  0.00     0.412 C 
ATOM     18  N   UNL A   1      32.132  25.211  21.542  1.00  0.00    -0.321 N 
ATOM     19  H   UNL A   1      31.434  24.833  20.960  1.00  0.00     0.167 HD
ATOM     20  O   UNL A   1      33.285  23.277  21.354  1.00  0.00    -0.224 OA
BRANCH  18  21
ATOM     21  C   UNL A   1      31.927  26.566  22.010  1.00  0.00     0.119 C 
BRANCH  21  22
ATOM     22  C   UNL A   1      31.030  26.618  23.245  1.00  0.00     0.021 C 
BRANCH  22  23
ATOM     23  C   UNL A   1      31.457  27.637  24.308  1.00  0.00     0.002 C 
BRANCH  23  24
ATOM     24  C   UNL A   1      32.961  27.924  24.381  1.00  0.00    -0.000 C 
BRANCH  24  25
ATOM     25  C   UNL A   1      33.607  27.697  25.751  1.00  0.00    -0.003 C 
ATOM     26  C   UNL A   1      32.637  27.864  26.908  1.00  0.00     0.004 C 
ENDBRANCH  24  25
ENDBRANCH  23  24
ENDBRANCH  22  23
ENDBRANCH  21  22
ENDBRANCH  18  21
ENDBRANCH  16  17
ENDBRANCH  11  16
ENDBRANCH   4  10
ENDBRANCH   1   3
BRANCH   1  27
ATOM     27  C   UNL A   1      42.626  22.166  26.178  1.00  0.00     0.227 C 
ATOM     28  O   UNL A   1      42.620  21.779  25.003  1.00  0.00    -0.274 OA
ATOM     29  N   UNL A   1      43.699  22.911  26.562  1.00  0.00    -0.356 N 
ATOM     30  H   UNL A   1      44.331  23.113  25.834  1.00  0.00     0.163 HD
BRANCH  29  31
ATOM     31  C   UNL A   1      44.076  23.459  27.847  1.00  0.00     0.116 C 
BRANCH  31  32
ATOM     32  C   UNL A   1      45.099  24.588  27.712  1.00  0.00     0.023 C 
BRANCH  32  33
ATOM     33  C   UNL A   1      45.556  24.879  26.284  1.00  0.00     0.023 C 
BRANCH  33  34
ATOM     34  C   UNL A   1      44.930  26.109  25.639  1.00  0.00     0.116 C 
BRANCH  34  35
ATOM     35  N   UNL A   1      43.609  25.878  25.069  1.00  0.00    -0.352 N 
ATOM     36  C   UNL A   1      42.388  26.268  25.567  1.00  0.00     0.251 C 
ATOM     37  H   UNL A   1      43.589  25.380  24.220  1.00  0.00     0.163 HD
ATOM     38  O   UNL A   1      41.348  25.937  25.006  1.00  0.00    -0.269 OA
BRANCH  36  39
ATOM     39  C   UNL A   1      42.341  27.051  26.819  1.00  0.00     0.039 A 
ATOM     40  C   UNL A   1      42.694  28.401  26.782  1.00  0.00     0.014 A 
ATOM     41  C   UNL A   1      41.881  26.471  28.003  1.00  0.00     0.014 A 
ATOM     42  C   UNL A   1      42.504  29.192  27.916  1.00  0.00     0.010 A 
ATOM     43  C   UNL A   1      41.616  27.276  29.105  1.00  0.00     0.010 A 
ATOM     44  C   UNL A   1      41.919  28.645  29.071  1.00  0.00    -0.014 A 
BRANCH  44  45
ATOM     45  C   UNL A   1      41.600  29.492  30.247  1.00  0.00     0.031 A 
ATOM     46  C   UNL A   1      40.343  30.313  30.268  1.00  0.00     0.074 A 
ATOM     47  C   UNL A   1      42.485  29.584  31.258  1.00  0.00     0.049 A 
ATOM     48  N   UNL A   1      39.922  31.157  31.176  1.00  0.00    -0.248 NA
ATOM     49  C   UNL A   1      39.458  30.199  29.099  1.00  0.00     0.031 C 
ATOM     50  C   UNL A   1      43.774  28.891  31.322  1.00  0.00     0.029 A 
ATOM     51  N   UNL A   1      42.438  30.305  32.424  1.00  0.00    -0.354 N 
ATOM     52  C   UNL A   1      38.737  31.684  30.680  1.00  0.00     0.074 A 
ATOM     53  C   UNL A   1      38.535  31.109  29.368  1.00  0.00     0.031 C 
ATOM     54  C   UNL A   1      44.383  29.202  32.478  1.00  0.00     0.029 A 
ATOM     55  C   UNL A   1      43.544  30.137  33.221  1.00  0.00     0.049 A 
ATOM     56  H   UNL A   1      41.683  30.889  32.666  1.00  0.00     0.167 HD
ATOM     57  C   UNL A   1      37.881  32.548  31.275  1.00  0.00     0.037 A 
ATOM     58  C   UNL A   1      43.847  30.675  34.417  1.00  0.00     0.037 A 
ATOM     59  C   UNL A   1      38.069  33.093  32.593  1.00  0.00     0.049 A 
ATOM     60  C   UNL A   1      42.870  31.613  35.069  1.00  0.00     0.074 A 
ATOM     61  C   UNL A   1      37.221  33.911  33.317  1.00  0.00     0.029 A 
ATOM     62  N   UNL A   1      39.187  32.874  33.384  1.00  0.00    -0.354 N 
ATOM     63  N   UNL A   1      41.711  32.037  34.626  1.00  0.00    -0.248 NA
ATOM     64  C   UNL A   1      43.240  32.142  36.389  1.00  0.00     0.031 C 
ATOM     65  C   UNL A   1      37.844  34.221  34.532  1.00  0.00     0.029 A 
ATOM     66  C   UNL A   1      39.061  33.560  34.581  1.00  0.00     0.049 A 
ATOM     67  H   UNL A   1      39.957  32.314  33.132  1.00  0.00     0.167 HD
ATOM     68  C   UNL A   1      41.204  32.863  35.620  1.00  0.00     0.074 A 
ATOM     69  C   UNL A   1      42.174  32.868  36.696  1.00  0.00     0.031 C 
ATOM     70  C   UNL A   1      40.039  33.556  35.640  1.00  0.00     0.037 A 
BRANCH  57  71
ATOM     71  C   UNL A   1      36.661  32.949  30.498  1.00  0.00     0.057 A 
ATOM     72  C   UNL A   1      35.414  32.348  30.719  1.00  0.00     0.134 A 
ATOM     73  C   UNL A   1      36.729  33.956  29.527  1.00  0.00     0.134 A 
ATOM     74  F   UNL A   1      35.283  31.367  31.625  1.00  0.00    -0.206 F 
ATOM     75  C   UNL A   1      34.288  32.709  29.978  1.00  0.00     0.040 A 
ATOM     76  C   UNL A   1      35.603  34.345  28.799  1.00  0.00     0.040 A 
ATOM     77  F   UNL A   1      37.890  34.577  29.269  1.00  0.00    -0.206 F 
ATOM     78  C   UNL A   1      34.380  33.715  29.018  1.00  0.00     0.006 A 
ENDBRANCH  57  71
BRANCH  58  79
ATOM     79  C   UNL A   1      45.117  30.309  35.091  1.00  0.00     0.057 A 
ATOM     80  C   UNL A   1      46.271  31.084  34.921  1.00  0.00     0.134 A 
ATOM     81  C   UNL A   1      45.208  29.190  35.927  1.00  0.00     0.134 A 
ATOM     82  F   UNL A   1      46.249  32.158  34.118  1.00  0.00    -0.206 F 
ATOM     83  C   UNL A   1      47.473  30.753  35.548  1.00  0.00     0.040 A 
ATOM     84  C   UNL A   1      46.398  28.860  36.578  1.00  0.00     0.040 A 
ATOM     85  F   UNL A   1      44.136  28.413  36.136  1.00  0.00    -0.206 F 
ATOM     86  C   UNL A   1      47.536  29.640  36.384  1.00  0.00     0.006 A 
ENDBRANCH  58  79
BRANCH  70  87
ATOM     87  C   UNL A   1      39.742  34.360  36.870  1.00  0.00     0.057 A 
ATOM     88  C   UNL A   1      40.074  35.717  36.961  1.00  0.00     0.134 A 
ATOM     89  C   UNL A   1      39.086  33.779  37.962  1.00  0.00     0.134 A 
ATOM     90  F   UNL A   1      40.716  36.329  35.955  1.00  0.00    -0.206 F 
ATOM     91  C   UNL A   1      39.781  36.464  38.104  1.00  0.00     0.040 A 
ATOM     92  C   UNL A   1      38.765  34.520  39.100  1.00  0.00     0.040 A 
ATOM     93  F   UNL A   1      38.734  32.484  37.935  1.00  0.00    -0.206 F 
ATOM     94  C   UNL A   1      39.118  35.866  39.174  1.00  0.00     0.006 A 
ENDBRANCH  70  87
ENDBRANCH  44  45
ENDBRANCH  36  39
ENDBRANCH  34  35
ENDBRANCH  33  34
ENDBRANCH  32  33
ENDBRANCH  31  32
ENDBRANCH  29  31
ENDBRANCH   1  27
TORSDOF 20
ENDMDL
MODEL 3
REMARK VINA RESULT:     -11.1      2.967      5.312
REMARK SMILES CCCCCCNC(=O)Oc1cccc(-c2ccc([C@@H](C)C(=O)NCCCCNC(=O)c3ccc(-c4c5nc(c(-c6c(F)cccc6F)c6ccc([nH]6)c(-c6c(F)cccc6F)c6nc(c(-c7c(F)cccc7F)c7ccc4[nH]7)C=C6)C=C5)cc3)cc2F)c1
REMARK SMILES IDX 20 1 21 2 19 3 16 4 17 5 87 6 18 7 86 8 88 9 15 10 11 11
REMARK SMILES IDX 12 12 89 13 13 14 14 15 10 16 8 17 7 18 9 20 6 21 5 22 4 23
REMARK SMILES IDX 3 24 2 25 1 26 22 27 23 28 24 29 25 31 26 32 27 33 28 34
REMARK SMILES IDX 29 35 30 36 31 38 32 39 33 40 85 41 34 42 84 43 35 44 36 45
REMARK SMILES IDX 37 46 78 47 38 48 83 49 77 50 79 51 39 52 82 53 76 54 75 55
REMARK SMILES IDX 40 57 66 58 49 59 65 60 50 61 53 62 64 63 80 64 51 65 52 66
REMARK SMILES IDX 63 68 81 69 54 70 41 71 42 72 47 73 43 74 44 75 46 76 48 77
REMARK SMILES IDX 45 78 67 79 68 80 73 81 69 82 70 83 72 84 74 85 71 86 55 87
REMARK SMILES IDX 56 88 61 89 57 90 58 91 60 92 62 93 59 94
REMARK H PARENT 7 19 24 30 29 37 79 56 53 67
REMARK Flexibility Score: inf
ROOT
ATOM      1  C   UNL A   1      31.527  25.490  23.759  1.00  0.00     0.105 C 
ATOM      2  C   UNL A   1      30.001  25.504  23.686  1.00  0.00     0.023 C 
ENDROOT
BRANCH   1   3
ATOM      3  C   UNL A   1      32.167  26.620  24.549  1.00  0.00    -0.033 A 
ATOM      4  C   UNL A   1      33.426  28.594  26.208  1.00  0.00     0.018 A 
ATOM      5  C   UNL A   1      33.951  28.228  24.956  1.00  0.00     0.012 A 
ATOM      6  C   UNL A   1      32.220  27.975  26.574  1.00  0.00     0.131 A 
ATOM      7  C   UNL A   1      33.314  27.294  24.128  1.00  0.00     0.005 A 
ATOM      8  C   UNL A   1      31.615  26.994  25.782  1.00  0.00     0.044 A 
ATOM      9  F   UNL A   1      31.595  28.310  27.714  1.00  0.00    -0.206 F 
BRANCH   4  10
ATOM     10  C   UNL A   1      34.135  29.564  27.079  1.00  0.00    -0.012 A 
ATOM     11  C   UNL A   1      34.220  31.674  28.299  1.00  0.00     0.133 A 
ATOM     12  C   UNL A   1      35.497  31.395  28.772  1.00  0.00     0.047 A 
ATOM     13  C   UNL A   1      33.542  30.779  27.468  1.00  0.00     0.056 A 
ATOM     14  C   UNL A   1      36.101  30.197  28.413  1.00  0.00     0.004 A 
ATOM     15  C   UNL A   1      35.433  29.302  27.569  1.00  0.00     0.009 A 
BRANCH  11  16
ATOM     16  O   UNL A   1      33.711  32.954  28.568  1.00  0.00    -0.410 OA
BRANCH  16  17
ATOM     17  C   UNL A   1      34.479  34.064  28.254  1.00  0.00     0.412 C 
ATOM     18  N   UNL A   1      34.414  35.039  29.211  1.00  0.00    -0.321 N 
ATOM     19  H   UNL A   1      34.913  35.868  29.034  1.00  0.00     0.167 HD
ATOM     20  O   UNL A   1      35.150  34.215  27.241  1.00  0.00    -0.224 OA
BRANCH  18  21
ATOM     21  C   UNL A   1      33.685  34.973  30.462  1.00  0.00     0.119 C 
BRANCH  21  22
ATOM     22  C   UNL A   1      34.354  34.038  31.468  1.00  0.00     0.021 C 
BRANCH  22  23
ATOM     23  C   UNL A   1      34.103  34.392  32.939  1.00  0.00     0.002 C 
BRANCH  23  24
ATOM     24  C   UNL A   1      34.782  35.673  33.435  1.00  0.00    -0.000 C 
BRANCH  24  25
ATOM     25  C   UNL A   1      33.858  36.882  33.607  1.00  0.00    -0.003 C 
ATOM     26  C   UNL A   1      34.022  37.924  32.513  1.00  0.00     0.004 C 
ENDBRANCH  24  25
ENDBRANCH  23  24
ENDBRANCH  22  23
ENDBRANCH  21  22
ENDBRANCH  18  21
ENDBRANCH  16  17
ENDBRANCH  11  16
ENDBRANCH   4  10
ENDBRANCH   1   3
BRANCH   1  27
ATOM     27  C   UNL A   1      32.214  25.217  22.411  1.00  0.00     0.227 C 
ATOM     28  O   UNL A   1      31.935  25.912  21.426  1.00  0.00    -0.274 OA
ATOM     29  N   UNL A   1      33.147  24.245  22.217  1.00  0.00    -0.356 N 
ATOM     30  H   UNL A   1      33.546  24.242  21.316  1.00  0.00     0.163 HD
BRANCH  29  31
ATOM     31  C   UNL A   1      33.659  23.217  23.098  1.00  0.00     0.116 C 
BRANCH  31  32
ATOM     32  C   UNL A   1      34.864  23.700  23.906  1.00  0.00     0.023 C 
BRANCH  32  33
ATOM     33  C   UNL A   1      36.008  22.695  24.024  1.00  0.00     0.023 C 
BRANCH  33  34
ATOM     34  C   UNL A   1      36.694  22.647  25.384  1.00  0.00     0.116 C 
BRANCH  34  35
ATOM     35  N   UNL A   1      37.614  21.530  25.549  1.00  0.00    -0.352 N 
ATOM     36  C   UNL A   1      38.875  21.541  26.100  1.00  0.00     0.251 C 
ATOM     37  H   UNL A   1      37.293  20.657  25.225  1.00  0.00     0.163 HD
ATOM     38  O   UNL A   1      39.564  20.526  26.106  1.00  0.00    -0.269 OA
BRANCH  36  39
ATOM     39  C   UNL A   1      39.410  22.808  26.639  1.00  0.00     0.039 A 
ATOM     40  C   UNL A   1      40.433  22.756  27.589  1.00  0.00     0.014 A 
ATOM     41  C   UNL A   1      38.955  24.035  26.155  1.00  0.00     0.014 A 
ATOM     42  C   UNL A   1      41.058  23.938  27.990  1.00  0.00     0.010 A 
ATOM     43  C   UNL A   1      39.631  25.202  26.492  1.00  0.00     0.010 A 
ATOM     44  C   UNL A   1      40.693  25.164  27.408  1.00  0.00    -0.014 A 
BRANCH  44  45
ATOM     45  C   UNL A   1      41.422  26.416  27.732  1.00  0.00     0.031 A 
ATOM     46  C   UNL A   1      42.821  26.628  27.230  1.00  0.00     0.074 A 
ATOM     47  C   UNL A   1      40.851  27.324  28.547  1.00  0.00     0.049 A 
ATOM     48  N   UNL A   1      43.638  27.625  27.455  1.00  0.00    -0.248 NA
ATOM     49  C   UNL A   1      43.391  25.561  26.392  1.00  0.00     0.031 C 
ATOM     50  C   UNL A   1      39.525  27.201  29.157  1.00  0.00     0.029 A 
ATOM     51  N   UNL A   1      41.319  28.528  29.010  1.00  0.00    -0.354 N 
ATOM     52  C   UNL A   1      44.820  27.298  26.804  1.00  0.00     0.074 A 
ATOM     53  C   UNL A   1      44.634  25.986  26.224  1.00  0.00     0.031 C 
ATOM     54  C   UNL A   1      39.276  28.296  29.893  1.00  0.00     0.029 A 
ATOM     55  C   UNL A   1      40.434  29.183  29.832  1.00  0.00     0.049 A 
ATOM     56  H   UNL A   1      42.205  28.887  28.776  1.00  0.00     0.167 HD
ATOM     57  C   UNL A   1      45.949  28.035  26.679  1.00  0.00     0.037 A 
ATOM     58  C   UNL A   1      40.544  30.366  30.464  1.00  0.00     0.037 A 
ATOM     59  C   UNL A   1      46.119  29.352  27.231  1.00  0.00     0.049 A 
ATOM     60  C   UNL A   1      41.797  31.177  30.291  1.00  0.00     0.074 A 
ATOM     61  C   UNL A   1      47.191  30.215  27.091  1.00  0.00     0.029 A 
ATOM     62  N   UNL A   1      45.187  29.997  28.032  1.00  0.00    -0.354 N 
ATOM     63  N   UNL A   1      42.876  30.895  29.601  1.00  0.00    -0.248 NA
ATOM     64  C   UNL A   1      41.845  32.476  30.978  1.00  0.00     0.031 C 
ATOM     65  C   UNL A   1      46.927  31.366  27.842  1.00  0.00     0.029 A 
ATOM     66  C   UNL A   1      45.671  31.239  28.413  1.00  0.00     0.049 A 
ATOM     67  H   UNL A   1      44.313  29.628  28.291  1.00  0.00     0.167 HD
ATOM     68  C   UNL A   1      43.721  31.985  29.753  1.00  0.00     0.074 A 
ATOM     69  C   UNL A   1      43.023  32.943  30.587  1.00  0.00     0.031 C 
ATOM     70  C   UNL A   1      44.963  32.178  29.246  1.00  0.00     0.037 A 
BRANCH  57  71
ATOM     71  C   UNL A   1      47.084  27.426  25.909  1.00  0.00     0.057 A 
ATOM     72  C   UNL A   1      47.202  27.581  24.521  1.00  0.00     0.134 A 
ATOM     73  C   UNL A   1      48.078  26.686  26.561  1.00  0.00     0.134 A 
ATOM     74  F   UNL A   1      46.276  28.266  23.832  1.00  0.00    -0.206 F 
ATOM     75  C   UNL A   1      48.247  26.994  23.806  1.00  0.00     0.040 A 
ATOM     76  C   UNL A   1      49.143  26.118  25.861  1.00  0.00     0.040 A 
ATOM     77  F   UNL A   1      48.029  26.503  27.890  1.00  0.00    -0.206 F 
ATOM     78  C   UNL A   1      49.225  26.264  24.478  1.00  0.00     0.006 A 
ENDBRANCH  57  71
BRANCH  58  79
ATOM     79  C   UNL A   1      39.419  30.869  31.291  1.00  0.00     0.057 A 
ATOM     80  C   UNL A   1      39.243  30.432  32.609  1.00  0.00     0.134 A 
ATOM     81  C   UNL A   1      38.503  31.802  30.792  1.00  0.00     0.134 A 
ATOM     82  F   UNL A   1      40.080  29.525  33.136  1.00  0.00    -0.206 F 
ATOM     83  C   UNL A   1      38.190  30.896  33.399  1.00  0.00     0.040 A 
ATOM     84  C   UNL A   1      37.458  32.291  31.578  1.00  0.00     0.040 A 
ATOM     85  F   UNL A   1      38.623  32.265  29.539  1.00  0.00    -0.206 F 
ATOM     86  C   UNL A   1      37.297  31.833  32.884  1.00  0.00     0.006 A 
ENDBRANCH  58  79
BRANCH  70  87
ATOM     87  C   UNL A   1      45.638  33.478  29.565  1.00  0.00     0.057 A 
ATOM     88  C   UNL A   1      46.476  33.621  30.677  1.00  0.00     0.134 A 
ATOM     89  C   UNL A   1      45.475  34.591  28.729  1.00  0.00     0.134 A 
ATOM     90  F   UNL A   1      46.662  32.597  31.524  1.00  0.00    -0.206 F 
ATOM     91  C   UNL A   1      47.113  34.831  30.959  1.00  0.00     0.040 A 
ATOM     92  C   UNL A   1      46.126  35.798  28.986  1.00  0.00     0.040 A 
ATOM     93  F   UNL A   1      44.691  34.517  27.643  1.00  0.00    -0.206 F 
ATOM     94  C   UNL A   1      46.944  35.921  30.107  1.00  0.00     0.006 A 
ENDBRANCH  70  87
ENDBRANCH  44  45
ENDBRANCH  36  39
ENDBRANCH  34  35
ENDBRANCH  33  34
ENDBRANCH  32  33
ENDBRANCH  31  32
ENDBRANCH  29  31
ENDBRANCH   1  27
TORSDOF 20
ENDMDL
