MODEL 1
REMARK VINA RESULT:     -12.5      0.000      0.000
REMARK SMILES Cc1cccc(NC(=O)C[C@H]([NH2+]C(C)C)C(=O)NCCCCNC(=O)c2ccc(-c3c4nc(c(-c5c(F)cccc5F)c5ccc([nH]5)c(-c5c(F)cccc5F)c5nc(c(-c6c(F)cccc6F)c6ccc3[nH]6)C=C5)C=C4)cc2)c1
REMARK SMILES IDX 20 1 19 2 18 3 16 4 17 5 11 7 10 8 8 9 7 10 9 12 6 13 1 14
REMARK SMILES IDX 2 15 3 16 80 17 4 18 5 19 12 20 13 23 14 24 15 25 21 26
REMARK SMILES IDX 22 27 23 28 24 29 25 31 26 32 27 33 79 34 28 35 78 36 29 37
REMARK SMILES IDX 30 38 31 39 72 40 32 41 77 42 71 43 73 44 33 45 76 46 70 47
REMARK SMILES IDX 69 48 34 50 60 51 43 52 59 53 44 54 47 55 58 56 74 57 45 58
REMARK SMILES IDX 46 59 57 61 75 62 48 63 35 64 36 65 41 66 37 67 38 68 40 69
REMARK SMILES IDX 42 70 39 71 61 72 62 73 67 74 63 75 64 76 66 77 68 78 65 79
REMARK SMILES IDX 49 80 50 81 55 82 51 83 52 84 54 85 56 86 53 87
REMARK H PARENT 18 6 7 11 12 21 12 22 23 30 73 49 47 60
REMARK Flexibility Score: inf
ROOT
ATOM      1  C   UNL A   1      35.052  31.885  28.112  1.00  0.00     0.023 C 
ENDROOT
BRANCH   1   2
ATOM      2  C   UNL A   1      34.759  30.198  27.585  1.00  0.00     0.116 C 
BRANCH   2   3
ATOM      3  N   UNL A   1      33.033  29.040  27.621  1.00  0.00    -0.351 N 
ATOM      4  C   UNL A   1      32.200  27.962  27.321  1.00  0.00     0.278 C 
ATOM      5  O   UNL A   1      31.182  27.939  28.043  1.00  0.00    -0.268 OA
ATOM      6  H   UNL A   1      32.449  29.581  28.201  1.00  0.00     0.163 HD
BRANCH   4   7
ATOM      7  C   UNL A   1      32.315  26.863  26.257  1.00  0.00     0.282 C 
BRANCH   7   8
ATOM      8  C   UNL A   1      33.735  26.649  25.662  1.00  0.00     0.175 C 
BRANCH   8   9
ATOM      9  C   UNL A   1      33.865  26.171  24.200  1.00  0.00     0.230 C 
ATOM     10  N   UNL A   1      34.366  24.942  23.838  1.00  0.00    -0.326 N 
ATOM     11  H   UNL A   1      34.531  24.790  22.879  1.00  0.00     0.169 HD
ATOM     12  O   UNL A   1      33.513  26.927  23.287  1.00  0.00    -0.274 OA
BRANCH  10  13
ATOM     13  C   UNL A   1      34.662  23.883  24.713  1.00  0.00     0.041 A 
ATOM     14  C   UNL A   1      38.629  22.103  25.921  1.00  0.00     0.044 C 
ATOM     15  C   UNL A   1      37.171  22.203  25.612  1.00  0.00    -0.049 A 
ATOM     16  C   UNL A   1      36.250  20.687  25.238  1.00  0.00     0.003 A 
ATOM     17  C   UNL A   1      36.378  23.816  25.297  1.00  0.00     0.029 A 
ATOM     18  C   UNL A   1      34.502  20.775  24.739  1.00  0.00     0.002 A 
ATOM     19  C   UNL A   1      33.698  22.363  24.518  1.00  0.00     0.026 A 
ENDBRANCH  10  13
ENDBRANCH   8   9
ENDBRANCH   7   8
BRANCH   7  20
ATOM     20  N   UNL A   1      31.160  26.866  25.279  1.00  0.00    -0.334 N 
ATOM     21  H   UNL A   1      31.542  27.019  24.345  1.00  0.00     0.347 HD
ATOM     22  H   UNL A   1      30.531  27.603  25.595  1.00  0.00     0.347 HD
BRANCH  20  23
ATOM     23  C   UNL A   1      30.344  25.625  25.241  1.00  0.00     0.176 C 
ATOM     24  C   UNL A   1      30.003  25.261  23.785  1.00  0.00     0.075 C 
ATOM     25  C   UNL A   1      30.846  24.407  26.002  1.00  0.00     0.075 C 
ENDBRANCH  20  23
ENDBRANCH   7  20
ENDBRANCH   4   7
ENDBRANCH   2   3
ENDBRANCH   1   2
BRANCH   1  26
ATOM     26  C   UNL A   1      34.856  32.300  29.590  1.00  0.00     0.023 C 
BRANCH  26  27
ATOM     27  C   UNL A   1      34.745  33.793  29.740  1.00  0.00     0.116 C 
BRANCH  27  28
ATOM     28  N   UNL A   1      33.881  34.252  30.798  1.00  0.00    -0.352 N 
ATOM     29  C   UNL A   1      34.073  34.115  32.159  1.00  0.00     0.251 C 
ATOM     30  H   UNL A   1      33.059  34.717  30.519  1.00  0.00     0.163 HD
ATOM     31  O   UNL A   1      33.157  34.405  32.924  1.00  0.00    -0.269 OA
BRANCH  29  32
ATOM     32  C   UNL A   1      35.439  33.844  32.697  1.00  0.00     0.039 A 
ATOM     33  C   UNL A   1      36.431  34.733  32.272  1.00  0.00     0.014 A 
ATOM     34  C   UNL A   1      35.800  32.597  33.199  1.00  0.00     0.014 A 
ATOM     35  C   UNL A   1      37.696  34.243  32.002  1.00  0.00     0.010 A 
ATOM     36  C   UNL A   1      36.990  32.056  32.789  1.00  0.00     0.010 A 
ATOM     37  C   UNL A   1      37.904  32.873  32.138  1.00  0.00    -0.014 A 
BRANCH  37  38
ATOM     38  C   UNL A   1      39.156  32.227  31.832  1.00  0.00     0.031 A 
ATOM     39  C   UNL A   1      39.000  30.999  31.052  1.00  0.00     0.074 A 
ATOM     40  C   UNL A   1      40.313  32.790  32.232  1.00  0.00     0.049 A 
ATOM     41  N   UNL A   1      39.650  29.920  31.262  1.00  0.00    -0.248 NA
ATOM     42  C   UNL A   1      37.951  30.848  30.042  1.00  0.00     0.031 C 
ATOM     43  C   UNL A   1      41.688  32.385  31.965  1.00  0.00     0.029 A 
ATOM     44  N   UNL A   1      40.439  33.794  33.200  1.00  0.00    -0.354 N 
ATOM     45  C   UNL A   1      39.393  29.096  30.187  1.00  0.00     0.074 A 
ATOM     46  C   UNL A   1      38.193  29.616  29.591  1.00  0.00     0.031 C 
ATOM     47  C   UNL A   1      42.471  32.856  32.956  1.00  0.00     0.029 A 
ATOM     48  C   UNL A   1      41.599  33.482  33.939  1.00  0.00     0.049 A 
ATOM     49  H   UNL A   1      39.840  34.563  33.338  1.00  0.00     0.167 HD
ATOM     50  C   UNL A   1      40.367  28.223  29.811  1.00  0.00     0.037 A 
ATOM     51  C   UNL A   1      41.475  33.107  35.246  1.00  0.00     0.037 A 
ATOM     52  C   UNL A   1      41.506  28.375  30.722  1.00  0.00     0.049 A 
ATOM     53  C   UNL A   1      41.849  31.658  35.460  1.00  0.00     0.074 A 
ATOM     54  C   UNL A   1      42.663  29.134  30.633  1.00  0.00     0.029 A 
ATOM     55  N   UNL A   1      41.336  28.080  32.068  1.00  0.00    -0.354 N 
ATOM     56  N   UNL A   1      41.846  30.747  34.524  1.00  0.00    -0.248 NA
ATOM     57  C   UNL A   1      42.304  31.144  36.745  1.00  0.00     0.031 C 
ATOM     58  C   UNL A   1      43.173  29.308  31.949  1.00  0.00     0.029 A 
ATOM     59  C   UNL A   1      42.340  28.641  32.833  1.00  0.00     0.049 A 
ATOM     60  H   UNL A   1      40.596  27.542  32.431  1.00  0.00     0.167 HD
ATOM     61  C   UNL A   1      42.296  29.552  35.039  1.00  0.00     0.074 A 
ATOM     62  C   UNL A   1      42.598  29.874  36.422  1.00  0.00     0.031 C 
ATOM     63  C   UNL A   1      42.376  28.413  34.276  1.00  0.00     0.037 A 
BRANCH  50  64
ATOM     64  C   UNL A   1      40.450  27.492  28.489  1.00  0.00     0.057 A 
ATOM     65  C   UNL A   1      39.804  26.249  28.333  1.00  0.00     0.134 A 
ATOM     66  C   UNL A   1      41.143  27.923  27.341  1.00  0.00     0.134 A 
ATOM     67  F   UNL A   1      39.047  25.722  29.306  1.00  0.00    -0.206 F 
ATOM     68  C   UNL A   1      39.891  25.475  27.168  1.00  0.00     0.040 A 
ATOM     69  C   UNL A   1      41.261  27.146  26.176  1.00  0.00     0.040 A 
ATOM     70  F   UNL A   1      41.700  29.133  27.254  1.00  0.00    -0.206 F 
ATOM     71  C   UNL A   1      40.637  25.914  26.088  1.00  0.00     0.006 A 
ENDBRANCH  50  64
BRANCH  51  72
ATOM     72  C   UNL A   1      40.358  33.839  35.923  1.00  0.00     0.057 A 
ATOM     73  C   UNL A   1      39.173  33.115  36.179  1.00  0.00     0.134 A 
ATOM     74  C   UNL A   1      40.601  34.956  36.724  1.00  0.00     0.134 A 
ATOM     75  F   UNL A   1      38.857  32.053  35.421  1.00  0.00    -0.206 F 
ATOM     76  C   UNL A   1      38.394  33.354  37.314  1.00  0.00     0.040 A 
ATOM     77  C   UNL A   1      39.799  35.228  37.840  1.00  0.00     0.040 A 
ATOM     78  F   UNL A   1      41.687  35.717  36.528  1.00  0.00    -0.206 F 
ATOM     79  C   UNL A   1      38.740  34.386  38.177  1.00  0.00     0.006 A 
ENDBRANCH  51  72
BRANCH  63  80
ATOM     80  C   UNL A   1      42.555  26.973  34.762  1.00  0.00     0.057 A 
ATOM     81  C   UNL A   1      43.450  26.036  34.231  1.00  0.00     0.134 A 
ATOM     82  C   UNL A   1      41.870  26.504  35.918  1.00  0.00     0.134 A 
ATOM     83  F   UNL A   1      44.278  26.323  33.223  1.00  0.00    -0.206 F 
ATOM     84  C   UNL A   1      43.599  24.739  34.747  1.00  0.00     0.040 A 
ATOM     85  C   UNL A   1      42.080  25.249  36.496  1.00  0.00     0.040 A 
ATOM     86  F   UNL A   1      40.964  27.242  36.574  1.00  0.00    -0.206 F 
ATOM     87  C   UNL A   1      42.931  24.347  35.894  1.00  0.00     0.006 A 
ENDBRANCH  63  80
ENDBRANCH  37  38
ENDBRANCH  29  32
ENDBRANCH  27  28
ENDBRANCH  26  27
ENDBRANCH   1  26
TORSDOF 16
ENDMDL
MODEL 2
REMARK VINA RESULT:     -12.3      1.743      2.290
REMARK SMILES Cc1cccc(NC(=O)C[C@H]([NH2+]C(C)C)C(=O)NCCCCNC(=O)c2ccc(-c3c4nc(c(-c5c(F)cccc5F)c5ccc([nH]5)c(-c5c(F)cccc5F)c5nc(c(-c6c(F)cccc6F)c6ccc3[nH]6)C=C5)C=C4)cc2)c1
REMARK SMILES IDX 20 1 19 2 18 3 16 4 17 5 11 7 10 8 8 9 7 10 9 12 6 13 1 14
REMARK SMILES IDX 2 15 3 16 80 17 4 18 5 19 12 20 13 23 14 24 15 25 21 26
REMARK SMILES IDX 22 27 23 28 24 29 25 31 26 32 27 33 79 34 28 35 78 36 29 37
REMARK SMILES IDX 30 38 31 39 72 40 32 41 77 42 71 43 73 44 33 45 76 46 70 47
REMARK SMILES IDX 69 48 34 50 60 51 43 52 59 53 44 54 47 55 58 56 74 57 45 58
REMARK SMILES IDX 46 59 57 61 75 62 48 63 35 64 36 65 41 66 37 67 38 68 40 69
REMARK SMILES IDX 42 70 39 71 61 72 62 73 67 74 63 75 64 76 66 77 68 78 65 79
REMARK SMILES IDX 49 80 50 81 55 82 51 83 52 84 54 85 56 86 53 87
REMARK H PARENT 18 6 7 11 12 21 12 22 23 30 73 49 47 60
REMARK Flexibility Score: inf
ROOT
ATOM      1  C   UNL A   1      33.477  31.304  27.620  1.00  0.00     0.023 C 
ENDROOT
BRANCH   1   2
ATOM      2  C   UNL A   1      33.025  29.859  26.662  1.00  0.00     0.116 C 
BRANCH   2   3
ATOM      3  N   UNL A   1      33.627  29.233  24.774  1.00  0.00    -0.351 N 
ATOM      4  C   UNL A   1      33.578  28.512  23.581  1.00  0.00     0.278 C 
ATOM      5  O   UNL A   1      34.373  28.958  22.729  1.00  0.00    -0.268 OA
ATOM      6  H   UNL A   1      34.439  29.774  24.641  1.00  0.00     0.163 HD
BRANCH   4   7
ATOM      7  C   UNL A   1      32.759  27.278  23.180  1.00  0.00     0.282 C 
BRANCH   7   8
ATOM      8  C   UNL A   1      33.569  25.966  22.987  1.00  0.00     0.175 C 
BRANCH   8   9
ATOM      9  C   UNL A   1      33.237  25.056  21.786  1.00  0.00     0.230 C 
ATOM     10  N   UNL A   1      33.168  23.684  21.861  1.00  0.00    -0.326 N 
ATOM     11  H   UNL A   1      33.082  23.193  21.012  1.00  0.00     0.169 HD
ATOM     12  O   UNL A   1      33.029  25.571  20.681  1.00  0.00    -0.274 OA
BRANCH  10  13
ATOM     13  C   UNL A   1      33.205  22.921  23.040  1.00  0.00     0.041 A 
ATOM     14  C   UNL A   1      36.675  20.942  25.139  1.00  0.00     0.044 C 
ATOM     15  C   UNL A   1      35.283  21.194  24.662  1.00  0.00    -0.049 A 
ATOM     16  C   UNL A   1      34.094  19.826  24.666  1.00  0.00     0.003 A 
ATOM     17  C   UNL A   1      34.845  22.739  23.795  1.00  0.00     0.029 A 
ATOM     18  C   UNL A   1      32.423  20.059  23.982  1.00  0.00     0.002 A 
ATOM     19  C   UNL A   1      31.965  21.612  23.210  1.00  0.00     0.026 A 
ENDBRANCH  10  13
ENDBRANCH   8   9
ENDBRANCH   7   8
BRANCH   7  20
ATOM     20  N   UNL A   1      31.701  27.584  22.142  1.00  0.00    -0.334 N 
ATOM     21  H   UNL A   1      31.617  26.770  21.532  1.00  0.00     0.347 HD
ATOM     22  H   UNL A   1      32.017  28.428  21.665  1.00  0.00     0.347 HD
BRANCH  20  23
ATOM     23  C   UNL A   1      30.350  27.899  22.671  1.00  0.00     0.176 C 
ATOM     24  C   UNL A   1      30.050  27.031  23.906  1.00  0.00     0.075 C 
ATOM     25  C   UNL A   1      29.998  29.357  22.934  1.00  0.00     0.075 C 
ENDBRANCH  20  23
ENDBRANCH   7  20
ENDBRANCH   4   7
ENDBRANCH   2   3
ENDBRANCH   1   2
BRANCH   1  26
ATOM     26  C   UNL A   1      34.961  31.625  27.920  1.00  0.00     0.023 C 
BRANCH  26  27
ATOM     27  C   UNL A   1      35.251  31.590  29.395  1.00  0.00     0.116 C 
BRANCH  27  28
ATOM     28  N   UNL A   1      34.414  32.427  30.218  1.00  0.00    -0.352 N 
ATOM     29  C   UNL A   1      34.621  32.783  31.537  1.00  0.00     0.251 C 
ATOM     30  H   UNL A   1      33.602  32.785  29.792  1.00  0.00     0.163 HD
ATOM     31  O   UNL A   1      33.723  33.357  32.148  1.00  0.00    -0.269 OA
BRANCH  29  32
ATOM     32  C   UNL A   1      35.985  32.680  32.134  1.00  0.00     0.039 A 
ATOM     33  C   UNL A   1      36.890  33.660  31.714  1.00  0.00     0.014 A 
ATOM     34  C   UNL A   1      36.459  31.498  32.693  1.00  0.00     0.014 A 
ATOM     35  C   UNL A   1      38.211  33.304  31.509  1.00  0.00     0.010 A 
ATOM     36  C   UNL A   1      37.717  31.079  32.347  1.00  0.00     0.010 A 
ATOM     37  C   UNL A   1      38.561  31.971  31.701  1.00  0.00    -0.014 A 
BRANCH  37  38
ATOM     38  C   UNL A   1      39.888  31.458  31.464  1.00  0.00     0.031 A 
ATOM     39  C   UNL A   1      39.920  30.352  30.507  1.00  0.00     0.074 A 
ATOM     40  C   UNL A   1      40.944  32.027  32.079  1.00  0.00     0.049 A 
ATOM     41  N   UNL A   1      40.627  29.297  30.643  1.00  0.00    -0.248 NA
ATOM     42  C   UNL A   1      39.007  30.287  29.364  1.00  0.00     0.031 C 
ATOM     43  C   UNL A   1      42.368  31.754  31.929  1.00  0.00     0.029 A 
ATOM     44  N   UNL A   1      40.879  32.882  33.186  1.00  0.00    -0.354 N 
ATOM     45  C   UNL A   1      40.559  28.627  29.439  1.00  0.00     0.074 A 
ATOM     46  C   UNL A   1      39.397  29.154  28.778  1.00  0.00     0.031 C 
ATOM     47  C   UNL A   1      42.994  32.121  33.065  1.00  0.00     0.029 A 
ATOM     48  C   UNL A   1      41.969  32.538  34.011  1.00  0.00     0.049 A 
ATOM     49  H   UNL A   1      40.208  33.583  33.355  1.00  0.00     0.167 HD
ATOM     50  C   UNL A   1      41.637  27.883  29.068  1.00  0.00     0.037 A 
ATOM     51  C   UNL A   1      41.729  31.966  35.228  1.00  0.00     0.037 A 
ATOM     52  C   UNL A   1      42.649  27.970  30.125  1.00  0.00     0.049 A 
ATOM     53  C   UNL A   1      42.191  30.528  35.281  1.00  0.00     0.074 A 
ATOM     54  C   UNL A   1      43.744  28.805  30.285  1.00  0.00     0.029 A 
ATOM     55  N   UNL A   1      42.354  27.468  31.384  1.00  0.00    -0.354 N 
ATOM     56  N   UNL A   1      42.367  29.767  34.233  1.00  0.00    -0.248 NA
ATOM     57  C   UNL A   1      42.538  29.858  36.527  1.00  0.00     0.031 C 
ATOM     58  C   UNL A   1      44.087  28.814  31.666  1.00  0.00     0.029 A 
ATOM     59  C   UNL A   1      43.216  27.972  32.338  1.00  0.00     0.049 A 
ATOM     60  H   UNL A   1      41.623  26.836  31.574  1.00  0.00     0.167 HD
ATOM     61  C   UNL A   1      42.850  28.539  34.627  1.00  0.00     0.074 A 
ATOM     62  C   UNL A   1      42.968  28.671  36.069  1.00  0.00     0.031 C 
ATOM     63  C   UNL A   1      43.107  27.534  33.729  1.00  0.00     0.037 A 
BRANCH  50  64
ATOM     64  C   UNL A   1      41.927  27.364  27.676  1.00  0.00     0.057 A 
ATOM     65  C   UNL A   1      41.994  25.974  27.447  1.00  0.00     0.134 A 
ATOM     66  C   UNL A   1      42.164  28.144  26.528  1.00  0.00     0.134 A 
ATOM     67  F   UNL A   1      41.732  25.086  28.417  1.00  0.00    -0.206 F 
ATOM     68  C   UNL A   1      42.328  25.413  26.207  1.00  0.00     0.040 A 
ATOM     69  C   UNL A   1      42.527  27.596  25.286  1.00  0.00     0.040 A 
ATOM     70  F   UNL A   1      42.010  29.470  26.521  1.00  0.00    -0.206 F 
ATOM     71  C   UNL A   1      42.614  26.224  25.122  1.00  0.00     0.006 A 
ENDBRANCH  50  64
BRANCH  51  72
ATOM     72  C   UNL A   1      40.487  32.517  35.857  1.00  0.00     0.057 A 
ATOM     73  C   UNL A   1      40.496  33.881  36.218  1.00  0.00     0.134 A 
ATOM     74  C   UNL A   1      39.239  31.930  35.637  1.00  0.00     0.134 A 
ATOM     75  F   UNL A   1      41.658  34.499  36.484  1.00  0.00    -0.206 F 
ATOM     76  C   UNL A   1      39.346  34.672  36.140  1.00  0.00     0.040 A 
ATOM     77  C   UNL A   1      38.075  32.709  35.598  1.00  0.00     0.040 A 
ATOM     78  F   UNL A   1      39.140  30.631  35.320  1.00  0.00    -0.206 F 
ATOM     79  C   UNL A   1      38.138  34.090  35.778  1.00  0.00     0.006 A 
ENDBRANCH  51  72
BRANCH  63  80
ATOM     80  C   UNL A   1      43.345  26.052  34.027  1.00  0.00     0.057 A 
ATOM     81  C   UNL A   1      44.496  25.326  33.694  1.00  0.00     0.134 A 
ATOM     82  C   UNL A   1      42.413  25.306  34.801  1.00  0.00     0.134 A 
ATOM     83  F   UNL A   1      45.543  25.880  33.078  1.00  0.00    -0.206 F 
ATOM     84  C   UNL A   1      44.674  23.975  34.031  1.00  0.00     0.040 A 
ATOM     85  C   UNL A   1      42.623  23.990  35.223  1.00  0.00     0.040 A 
ATOM     86  F   UNL A   1      41.244  25.813  35.217  1.00  0.00    -0.206 F 
ATOM     87  C   UNL A   1      43.749  23.307  34.815  1.00  0.00     0.006 A 
ENDBRANCH  63  80
ENDBRANCH  37  38
ENDBRANCH  29  32
ENDBRANCH  27  28
ENDBRANCH  26  27
ENDBRANCH   1  26
TORSDOF 16
ENDMDL
MODEL 3
REMARK VINA RESULT:     -12.2      1.871      2.976
REMARK SMILES Cc1cccc(NC(=O)C[C@H]([NH2+]C(C)C)C(=O)NCCCCNC(=O)c2ccc(-c3c4nc(c(-c5c(F)cccc5F)c5ccc([nH]5)c(-c5c(F)cccc5F)c5nc(c(-c6c(F)cccc6F)c6ccc3[nH]6)C=C5)C=C4)cc2)c1
REMARK SMILES IDX 20 1 19 2 18 3 16 4 17 5 11 7 10 8 8 9 7 10 9 12 6 13 1 14
REMARK SMILES IDX 2 15 3 16 80 17 4 18 5 19 12 20 13 23 14 24 15 25 21 26
REMARK SMILES IDX 22 27 23 28 24 29 25 31 26 32 27 33 79 34 28 35 78 36 29 37
REMARK SMILES IDX 30 38 31 39 72 40 32 41 77 42 71 43 73 44 33 45 76 46 70 47
REMARK SMILES IDX 69 48 34 50 60 51 43 52 59 53 44 54 47 55 58 56 74 57 45 58
REMARK SMILES IDX 46 59 57 61 75 62 48 63 35 64 36 65 41 66 37 67 38 68 40 69
REMARK SMILES IDX 42 70 39 71 61 72 62 73 67 74 63 75 64 76 66 77 68 78 65 79
REMARK SMILES IDX 49 80 50 81 55 82 51 83 52 84 54 85 56 86 53 87
REMARK H PARENT 18 6 7 11 12 21 12 22 23 30 73 49 47 60
REMARK Flexibility Score: inf
ROOT
ATOM      1  C   UNL A   1      34.450  30.948  27.665  1.00  0.00     0.023 C 
ENDROOT
BRANCH   1   2
ATOM      2  C   UNL A   1      32.933  30.320  26.947  1.00  0.00     0.116 C 
BRANCH   2   3
ATOM      3  N   UNL A   1      32.566  29.423  25.109  1.00  0.00    -0.351 N 
ATOM      4  C   UNL A   1      31.837  29.060  23.976  1.00  0.00     0.278 C 
ATOM      5  O   UNL A   1      32.563  28.574  23.085  1.00  0.00    -0.268 OA
ATOM      6  H   UNL A   1      33.434  28.995  24.926  1.00  0.00     0.163 HD
BRANCH   4   7
ATOM      7  C   UNL A   1      30.332  29.124  23.682  1.00  0.00     0.282 C 
BRANCH   7   8
ATOM      8  C   UNL A   1      29.744  27.908  22.913  1.00  0.00     0.175 C 
BRANCH   8   9
ATOM      9  C   UNL A   1      28.809  26.935  23.662  1.00  0.00     0.230 C 
ATOM     10  N   UNL A   1      29.211  25.719  24.161  1.00  0.00    -0.326 N 
ATOM     11  H   UNL A   1      28.508  25.119  24.501  1.00  0.00     0.169 HD
ATOM     12  O   UNL A   1      27.623  27.246  23.823  1.00  0.00    -0.274 OA
BRANCH  10  13
ATOM     13  C   UNL A   1      30.536  25.254  24.231  1.00  0.00     0.041 A 
ATOM     14  C   UNL A   1      32.287  21.226  23.196  1.00  0.00     0.044 C 
ATOM     15  C   UNL A   1      32.103  22.544  23.873  1.00  0.00    -0.049 A 
ATOM     16  C   UNL A   1      32.870  22.812  25.494  1.00  0.00     0.003 A 
ATOM     17  C   UNL A   1      30.887  23.760  23.263  1.00  0.00     0.029 A 
ATOM     18  C   UNL A   1      32.573  24.357  26.407  1.00  0.00     0.002 A 
ATOM     19  C   UNL A   1      31.444  25.593  25.760  1.00  0.00     0.026 A 
ENDBRANCH  10  13
ENDBRANCH   8   9
ENDBRANCH   7   8
BRANCH   7  20
ATOM     20  N   UNL A   1      29.878  30.497  23.234  1.00  0.00    -0.334 N 
ATOM     21  H   UNL A   1      30.529  30.824  22.520  1.00  0.00     0.347 HD
ATOM     22  H   UNL A   1      29.862  31.072  24.076  1.00  0.00     0.347 HD
BRANCH  20  23
ATOM     23  C   UNL A   1      28.506  30.569  22.669  1.00  0.00     0.176 C 
ATOM     24  C   UNL A   1      27.586  31.363  23.613  1.00  0.00     0.075 C 
ATOM     25  C   UNL A   1      28.341  31.036  21.230  1.00  0.00     0.075 C 
ENDBRANCH  20  23
ENDBRANCH   7  20
ENDBRANCH   4   7
ENDBRANCH   2   3
ENDBRANCH   1   2
BRANCH   1  26
ATOM     26  C   UNL A   1      34.500  32.355  28.309  1.00  0.00     0.023 C 
BRANCH  26  27
ATOM     27  C   UNL A   1      34.909  32.293  29.755  1.00  0.00     0.116 C 
BRANCH  27  28
ATOM     28  N   UNL A   1      34.119  33.086  30.663  1.00  0.00    -0.352 N 
ATOM     29  C   UNL A   1      34.414  33.402  31.975  1.00  0.00     0.251 C 
ATOM     30  H   UNL A   1      33.273  33.442  30.309  1.00  0.00     0.163 HD
ATOM     31  O   UNL A   1      33.553  33.939  32.668  1.00  0.00    -0.269 OA
BRANCH  29  32
ATOM     32  C   UNL A   1      35.819  33.306  32.470  1.00  0.00     0.039 A 
ATOM     33  C   UNL A   1      36.724  34.175  31.854  1.00  0.00     0.014 A 
ATOM     34  C   UNL A   1      36.291  32.181  33.140  1.00  0.00     0.014 A 
ATOM     35  C   UNL A   1      38.007  33.728  31.592  1.00  0.00     0.010 A 
ATOM     36  C   UNL A   1      37.496  31.656  32.752  1.00  0.00     0.010 A 
ATOM     37  C   UNL A   1      38.317  32.414  31.929  1.00  0.00    -0.014 A 
BRANCH  37  38
ATOM     38  C   UNL A   1      39.596  31.807  31.657  1.00  0.00     0.031 A 
ATOM     39  C   UNL A   1      39.509  30.635  30.786  1.00  0.00     0.074 A 
ATOM     40  C   UNL A   1      40.718  32.355  32.166  1.00  0.00     0.049 A 
ATOM     41  N   UNL A   1      40.163  29.551  30.960  1.00  0.00    -0.248 NA
ATOM     42  C   UNL A   1      38.525  30.542  29.705  1.00  0.00     0.031 C 
ATOM     43  C   UNL A   1      42.113  31.987  31.956  1.00  0.00     0.029 A 
ATOM     44  N   UNL A   1      40.769  33.290  33.207  1.00  0.00    -0.354 N 
ATOM     45  C   UNL A   1      39.985  28.802  29.817  1.00  0.00     0.074 A 
ATOM     46  C   UNL A   1      38.814  29.348  29.185  1.00  0.00     0.031 C 
ATOM     47  C   UNL A   1      42.827  32.396  33.023  1.00  0.00     0.029 A 
ATOM     48  C   UNL A   1      41.887  32.941  33.992  1.00  0.00     0.049 A 
ATOM     49  H   UNL A   1      40.150  34.040  33.359  1.00  0.00     0.167 HD
ATOM     50  C   UNL A   1      40.994  27.969  29.443  1.00  0.00     0.037 A 
ATOM     51  C   UNL A   1      41.690  32.475  35.260  1.00  0.00     0.037 A 
ATOM     52  C   UNL A   1      42.073  28.072  30.430  1.00  0.00     0.049 A 
ATOM     53  C   UNL A   1      42.074  31.019  35.395  1.00  0.00     0.074 A 
ATOM     54  C   UNL A   1      43.220  28.849  30.465  1.00  0.00     0.029 A 
ATOM     55  N   UNL A   1      41.827  27.681  31.739  1.00  0.00    -0.354 N 
ATOM     56  N   UNL A   1      42.143  30.175  34.400  1.00  0.00    -0.248 NA
ATOM     57  C   UNL A   1      42.459  30.422  36.667  1.00  0.00     0.031 C 
ATOM     58  C   UNL A   1      43.647  28.937  31.819  1.00  0.00     0.029 A 
ATOM     59  C   UNL A   1      42.774  28.200  32.601  1.00  0.00     0.049 A 
ATOM     60  H   UNL A   1      41.076  27.109  32.018  1.00  0.00     0.167 HD
ATOM     61  C   UNL A   1      42.581  28.953  34.858  1.00  0.00     0.074 A 
ATOM     62  C   UNL A   1      42.794  29.181  36.277  1.00  0.00     0.031 C 
ATOM     63  C   UNL A   1      42.726  27.871  34.025  1.00  0.00     0.037 A 
BRANCH  50  64
ATOM     64  C   UNL A   1      41.169  27.334  28.080  1.00  0.00     0.057 A 
ATOM     65  C   UNL A   1      41.805  28.054  27.048  1.00  0.00     0.134 A 
ATOM     66  C   UNL A   1      40.737  26.050  27.697  1.00  0.00     0.134 A 
ATOM     67  F   UNL A   1      42.334  29.268  27.258  1.00  0.00    -0.206 F 
ATOM     68  C   UNL A   1      41.943  27.568  25.741  1.00  0.00     0.040 A 
ATOM     69  C   UNL A   1      40.844  25.561  26.384  1.00  0.00     0.040 A 
ATOM     70  F   UNL A   1      40.237  25.174  28.572  1.00  0.00    -0.206 F 
ATOM     71  C   UNL A   1      41.446  26.323  25.398  1.00  0.00     0.006 A 
ENDBRANCH  50  64
BRANCH  51  72
ATOM     72  C   UNL A   1      40.522  33.143  35.915  1.00  0.00     0.057 A 
ATOM     73  C   UNL A   1      39.374  32.355  36.149  1.00  0.00     0.134 A 
ATOM     74  C   UNL A   1      40.688  34.271  36.722  1.00  0.00     0.134 A 
ATOM     75  F   UNL A   1      39.131  31.278  35.385  1.00  0.00    -0.206 F 
ATOM     76  C   UNL A   1      38.562  32.550  37.269  1.00  0.00     0.040 A 
ATOM     77  C   UNL A   1      39.852  34.497  37.822  1.00  0.00     0.040 A 
ATOM     78  F   UNL A   1      41.734  35.090  36.545  1.00  0.00    -0.206 F 
ATOM     79  C   UNL A   1      38.834  33.598  38.138  1.00  0.00     0.006 A 
ENDBRANCH  51  72
BRANCH  63  80
ATOM     80  C   UNL A   1      42.899  26.403  34.420  1.00  0.00     0.057 A 
ATOM     81  C   UNL A   1      42.037  25.672  35.247  1.00  0.00     0.134 A 
ATOM     82  C   UNL A   1      43.939  25.615  33.854  1.00  0.00     0.134 A 
ATOM     83  F   UNL A   1      40.930  26.198  35.776  1.00  0.00    -0.206 F 
ATOM     84  C   UNL A   1      42.227  24.312  35.541  1.00  0.00     0.040 A 
ATOM     85  C   UNL A   1      44.082  24.240  34.065  1.00  0.00     0.040 A 
ATOM     86  F   UNL A   1      44.876  26.122  33.040  1.00  0.00    -0.206 F 
ATOM     87  C   UNL A   1      43.237  23.585  34.935  1.00  0.00     0.006 A 
ENDBRANCH  63  80
ENDBRANCH  37  38
ENDBRANCH  29  32
ENDBRANCH  27  28
ENDBRANCH  26  27
ENDBRANCH   1  26
TORSDOF 16
ENDMDL
