MODEL 1
REMARK VINA RESULT:     -12.5      0.000      0.000
REMARK SMILES CCn1c(N2CCC(C(=O)NCCCCNC(=O)c3ccc(-c4c5nc(c(-c6c(F)cccc6F)c6ccc([nH]6)c(-c6c(F)cccc6F)c6nc(c(-c7c(F)cccc7F)c7ccc4[nH]7)C=C6)C=C5)cc3)CC2)nc2cc(C)ccc21
REMARK SMILES IDX 13 1 12 2 11 3 9 4 10 5 8 7 5 8 6 9 74 10 7 11 73 12 4 13
REMARK SMILES IDX 3 14 82 15 75 16 76 17 81 18 77 19 80 20 78 21 79 22 2 23
REMARK SMILES IDX 1 24 14 25 15 26 16 27 17 28 18 30 19 31 20 32 72 33 21 34
REMARK SMILES IDX 71 35 22 36 23 37 24 38 65 39 25 40 70 41 64 42 66 43 26 44
REMARK SMILES IDX 69 45 63 46 62 47 27 49 53 50 36 51 52 52 37 53 40 54 51 55
REMARK SMILES IDX 67 56 38 57 39 58 50 60 68 61 41 62 28 63 29 64 34 65 30 66
REMARK SMILES IDX 31 67 33 68 35 69 32 70 54 71 55 72 60 73 56 74 57 75 59 76
REMARK SMILES IDX 61 77 58 78 42 79 43 80 48 81 44 82 45 83 47 84 49 85 46 86
REMARK H PARENT 11 6 16 29 66 48 40 59
REMARK Flexibility Score: inf
ROOT
ATOM      1  C   UNL A   1      32.136  29.054  26.269  1.00  0.00     0.023 C 
ENDROOT
BRANCH   1   2
ATOM      2  C   UNL A   1      32.173  29.159  24.750  1.00  0.00     0.116 C 
BRANCH   2   3
ATOM      3  N   UNL A   1      30.926  29.684  24.214  1.00  0.00    -0.356 N 
ATOM      4  C   UNL A   1      29.965  29.076  23.465  1.00  0.00     0.223 C 
ATOM      5  O   UNL A   1      28.970  29.733  23.153  1.00  0.00    -0.275 OA
ATOM      6  H   UNL A   1      30.750  30.630  24.427  1.00  0.00     0.163 HD
BRANCH   4   7
ATOM      7  C   UNL A   1      30.099  27.623  23.040  1.00  0.00     0.082 C 
ATOM      8  N   UNL A   1      31.724  25.294  23.223  1.00  0.00    -0.342 N 
ATOM      9  C   UNL A   1      31.712  25.980  21.941  1.00  0.00     0.120 C 
ATOM     10  C   UNL A   1      30.494  25.285  23.989  1.00  0.00     0.120 C 
ATOM     11  C   UNL A   1      31.302  27.432  22.104  1.00  0.00     0.035 C 
ATOM     12  C   UNL A   1      30.037  26.706  24.270  1.00  0.00     0.035 C 
BRANCH   8  13
ATOM     13  C   UNL A   1      32.883  24.769  23.689  1.00  0.00     0.206 A 
ATOM     14  N   UNL A   1      33.435  23.613  23.170  1.00  0.00    -0.310 N 
ATOM     15  C   UNL A   1      34.644  23.397  23.801  1.00  0.00     0.070 A 
ATOM     16  N   UNL A   1      33.686  25.312  24.577  1.00  0.00    -0.213 NA
ATOM     17  C   UNL A   1      34.760  24.462  24.686  1.00  0.00     0.091 A 
ATOM     18  C   UNL A   1      35.628  22.405  23.682  1.00  0.00     0.029 A 
ATOM     19  C   UNL A   1      35.891  24.543  25.519  1.00  0.00     0.034 A 
ATOM     20  C   UNL A   1      36.748  22.505  24.516  1.00  0.00     0.006 A 
ATOM     21  C   UNL A   1      36.889  23.553  25.433  1.00  0.00    -0.049 A 
ATOM     22  C   UNL A   1      38.089  23.621  26.333  1.00  0.00     0.044 C 
BRANCH  14  23
ATOM     23  C   UNL A   1      32.892  22.786  22.111  1.00  0.00     0.122 C 
ATOM     24  C   UNL A   1      32.106  21.579  22.601  1.00  0.00     0.028 C 
ENDBRANCH  14  23
ENDBRANCH   8  13
ENDBRANCH   4   7
ENDBRANCH   2   3
ENDBRANCH   1   2
BRANCH   1  25
ATOM     25  C   UNL A   1      33.233  28.173  26.869  1.00  0.00     0.023 C 
BRANCH  25  26
ATOM     26  C   UNL A   1      34.610  28.837  26.963  1.00  0.00     0.116 C 
BRANCH  26  27
ATOM     27  N   UNL A   1      34.761  29.739  28.087  1.00  0.00    -0.352 N 
ATOM     28  C   UNL A   1      35.815  30.155  28.856  1.00  0.00     0.251 C 
ATOM     29  H   UNL A   1      33.908  30.147  28.361  1.00  0.00     0.163 HD
ATOM     30  O   UNL A   1      35.580  31.036  29.676  1.00  0.00    -0.269 OA
BRANCH  28  31
ATOM     31  C   UNL A   1      37.190  29.586  28.789  1.00  0.00     0.039 A 
ATOM     32  C   UNL A   1      37.811  28.852  29.797  1.00  0.00     0.014 A 
ATOM     33  C   UNL A   1      37.915  29.849  27.611  1.00  0.00     0.014 A 
ATOM     34  C   UNL A   1      39.142  28.474  29.682  1.00  0.00     0.010 A 
ATOM     35  C   UNL A   1      39.237  29.434  27.471  1.00  0.00     0.010 A 
ATOM     36  C   UNL A   1      39.862  28.781  28.528  1.00  0.00    -0.014 A 
BRANCH  36  37
ATOM     37  C   UNL A   1      41.235  28.284  28.454  1.00  0.00     0.031 A 
ATOM     38  C   UNL A   1      41.390  26.959  27.790  1.00  0.00     0.074 A 
ATOM     39  C   UNL A   1      42.312  28.990  28.852  1.00  0.00     0.049 A 
ATOM     40  N   UNL A   1      41.924  25.881  28.266  1.00  0.00    -0.248 NA
ATOM     41  C   UNL A   1      40.811  26.796  26.447  1.00  0.00     0.031 C 
ATOM     42  C   UNL A   1      42.337  30.404  29.236  1.00  0.00     0.029 A 
ATOM     43  N   UNL A   1      43.631  28.628  28.894  1.00  0.00    -0.354 N 
ATOM     44  C   UNL A   1      41.926  24.963  27.217  1.00  0.00     0.074 A 
ATOM     45  C   UNL A   1      41.120  25.530  26.169  1.00  0.00     0.031 C 
ATOM     46  C   UNL A   1      43.615  30.835  29.249  1.00  0.00     0.029 A 
ATOM     47  C   UNL A   1      44.498  29.702  29.021  1.00  0.00     0.049 A 
ATOM     48  H   UNL A   1      43.936  27.693  28.839  1.00  0.00     0.167 HD
ATOM     49  C   UNL A   1      42.806  23.925  27.191  1.00  0.00     0.037 A 
ATOM     50  C   UNL A   1      45.846  29.698  28.906  1.00  0.00     0.037 A 
ATOM     51  C   UNL A   1      43.379  23.667  28.482  1.00  0.00     0.049 A 
ATOM     52  C   UNL A   1      46.355  28.328  29.132  1.00  0.00     0.074 A 
ATOM     53  C   UNL A   1      43.063  22.953  29.615  1.00  0.00     0.029 A 
ATOM     54  N   UNL A   1      44.430  24.479  28.792  1.00  0.00    -0.354 N 
ATOM     55  N   UNL A   1      46.325  27.720  30.283  1.00  0.00    -0.248 NA
ATOM     56  C   UNL A   1      46.696  27.485  27.989  1.00  0.00     0.031 C 
ATOM     57  C   UNL A   1      43.902  23.452  30.657  1.00  0.00     0.029 A 
ATOM     58  C   UNL A   1      44.706  24.458  30.131  1.00  0.00     0.049 A 
ATOM     59  H   UNL A   1      44.927  25.015  28.133  1.00  0.00     0.167 HD
ATOM     60  C   UNL A   1      46.226  26.384  29.958  1.00  0.00     0.074 A 
ATOM     61  C   UNL A   1      46.649  26.283  28.570  1.00  0.00     0.031 C 
ATOM     62  C   UNL A   1      45.473  25.534  30.710  1.00  0.00     0.037 A 
BRANCH  49  63
ATOM     63  C   UNL A   1      43.532  23.469  25.942  1.00  0.00     0.057 A 
ATOM     64  C   UNL A   1      44.516  24.236  25.283  1.00  0.00     0.134 A 
ATOM     65  C   UNL A   1      43.512  22.104  25.597  1.00  0.00     0.134 A 
ATOM     66  F   UNL A   1      44.722  25.528  25.566  1.00  0.00    -0.206 F 
ATOM     67  C   UNL A   1      45.422  23.686  24.372  1.00  0.00     0.040 A 
ATOM     68  C   UNL A   1      44.446  21.534  24.722  1.00  0.00     0.040 A 
ATOM     69  F   UNL A   1      42.632  21.263  26.164  1.00  0.00    -0.206 F 
ATOM     70  C   UNL A   1      45.412  22.325  24.113  1.00  0.00     0.006 A 
ENDBRANCH  49  63
BRANCH  50  71
ATOM     71  C   UNL A   1      46.728  30.792  28.451  1.00  0.00     0.057 A 
ATOM     72  C   UNL A   1      47.328  31.674  29.367  1.00  0.00     0.134 A 
ATOM     73  C   UNL A   1      46.805  31.155  27.100  1.00  0.00     0.134 A 
ATOM     74  F   UNL A   1      47.243  31.462  30.688  1.00  0.00    -0.206 F 
ATOM     75  C   UNL A   1      47.962  32.852  28.964  1.00  0.00     0.040 A 
ATOM     76  C   UNL A   1      47.427  32.338  26.683  1.00  0.00     0.040 A 
ATOM     77  F   UNL A   1      46.229  30.397  26.156  1.00  0.00    -0.206 F 
ATOM     78  C   UNL A   1      48.001  33.195  27.619  1.00  0.00     0.006 A 
ENDBRANCH  50  71
BRANCH  62  79
ATOM     79  C   UNL A   1      45.266  25.885  32.146  1.00  0.00     0.057 A 
ATOM     80  C   UNL A   1      44.111  26.587  32.502  1.00  0.00     0.134 A 
ATOM     81  C   UNL A   1      46.176  25.583  33.165  1.00  0.00     0.134 A 
ATOM     82  F   UNL A   1      43.219  26.945  31.565  1.00  0.00    -0.206 F 
ATOM     83  C   UNL A   1      43.855  26.957  33.823  1.00  0.00     0.040 A 
ATOM     84  C   UNL A   1      45.917  25.919  34.496  1.00  0.00     0.040 A 
ATOM     85  F   UNL A   1      47.343  24.981  32.896  1.00  0.00    -0.206 F 
ATOM     86  C   UNL A   1      44.754  26.610  34.828  1.00  0.00     0.006 A 
ENDBRANCH  62  79
ENDBRANCH  36  37
ENDBRANCH  28  31
ENDBRANCH  26  27
ENDBRANCH  25  26
ENDBRANCH   1  25
TORSDOF 13
ENDMDL
MODEL 2
REMARK VINA RESULT:     -12.3      2.310      6.346
REMARK SMILES CCn1c(N2CCC(C(=O)NCCCCNC(=O)c3ccc(-c4c5nc(c(-c6c(F)cccc6F)c6ccc([nH]6)c(-c6c(F)cccc6F)c6nc(c(-c7c(F)cccc7F)c7ccc4[nH]7)C=C6)C=C5)cc3)CC2)nc2cc(C)ccc21
REMARK SMILES IDX 13 1 12 2 11 3 9 4 10 5 8 7 5 8 6 9 74 10 7 11 73 12 4 13
REMARK SMILES IDX 3 14 82 15 75 16 76 17 81 18 77 19 80 20 78 21 79 22 2 23
REMARK SMILES IDX 1 24 14 25 15 26 16 27 17 28 18 30 19 31 20 32 72 33 21 34
REMARK SMILES IDX 71 35 22 36 23 37 24 38 65 39 25 40 70 41 64 42 66 43 26 44
REMARK SMILES IDX 69 45 63 46 62 47 27 49 53 50 36 51 52 52 37 53 40 54 51 55
REMARK SMILES IDX 67 56 38 57 39 58 50 60 68 61 41 62 28 63 29 64 34 65 30 66
REMARK SMILES IDX 31 67 33 68 35 69 32 70 54 71 55 72 60 73 56 74 57 75 59 76
REMARK SMILES IDX 61 77 58 78 42 79 43 80 48 81 44 82 45 83 47 84 49 85 46 86
REMARK H PARENT 11 6 16 29 66 48 40 59
REMARK Flexibility Score: inf
ROOT
ATOM      1  C   UNL A   1      32.750  30.145  26.469  1.00  0.00     0.023 C 
ENDROOT
BRANCH   1   2
ATOM      2  C   UNL A   1      31.819  28.960  26.683  1.00  0.00     0.116 C 
BRANCH   2   3
ATOM      3  N   UNL A   1      31.432  28.342  25.423  1.00  0.00    -0.356 N 
ATOM      4  C   UNL A   1      31.476  27.038  25.032  1.00  0.00     0.223 C 
ATOM      5  O   UNL A   1      31.058  26.755  23.908  1.00  0.00    -0.275 OA
ATOM      6  H   UNL A   1      31.083  28.966  24.746  1.00  0.00     0.163 HD
BRANCH   4   7
ATOM      7  C   UNL A   1      32.005  25.955  25.958  1.00  0.00     0.082 C 
ATOM      8  N   UNL A   1      32.680  23.198  26.155  1.00  0.00    -0.342 N 
ATOM      9  C   UNL A   1      31.476  23.624  26.850  1.00  0.00     0.120 C 
ATOM     10  C   UNL A   1      33.787  24.132  26.100  1.00  0.00     0.120 C 
ATOM     11  C   UNL A   1      30.924  24.903  26.248  1.00  0.00     0.035 C 
ATOM     12  C   UNL A   1      33.351  25.429  25.441  1.00  0.00     0.035 C 
BRANCH   8  13
ATOM     13  C   UNL A   1      32.698  22.000  25.522  1.00  0.00     0.206 A 
ATOM     14  N   UNL A   1      32.221  21.834  24.235  1.00  0.00    -0.310 N 
ATOM     15  C   UNL A   1      32.458  20.528  23.857  1.00  0.00     0.070 A 
ATOM     16  N   UNL A   1      33.253  20.892  25.960  1.00  0.00    -0.213 NA
ATOM     17  C   UNL A   1      33.084  19.963  24.962  1.00  0.00     0.091 A 
ATOM     18  C   UNL A   1      32.203  19.804  22.685  1.00  0.00     0.029 A 
ATOM     19  C   UNL A   1      33.453  18.606  24.923  1.00  0.00     0.034 A 
ATOM     20  C   UNL A   1      32.582  18.456  22.663  1.00  0.00     0.006 A 
ATOM     21  C   UNL A   1      33.196  17.849  23.764  1.00  0.00    -0.049 A 
ATOM     22  C   UNL A   1      33.570  16.396  23.722  1.00  0.00     0.044 C 
BRANCH  14  23
ATOM     23  C   UNL A   1      31.625  22.848  23.388  1.00  0.00     0.122 C 
ATOM     24  C   UNL A   1      32.615  23.568  22.485  1.00  0.00     0.028 C 
ENDBRANCH  14  23
ENDBRANCH   8  13
ENDBRANCH   4   7
ENDBRANCH   2   3
ENDBRANCH   1   2
BRANCH   1  25
ATOM     25  C   UNL A   1      34.025  30.109  27.314  1.00  0.00     0.023 C 
BRANCH  25  26
ATOM     26  C   UNL A   1      34.614  31.484  27.646  1.00  0.00     0.116 C 
BRANCH  26  27
ATOM     27  N   UNL A   1      34.457  31.880  29.031  1.00  0.00    -0.352 N 
ATOM     28  C   UNL A   1      35.246  31.815  30.149  1.00  0.00     0.251 C 
ATOM     29  H   UNL A   1      33.580  32.291  29.210  1.00  0.00     0.163 HD
ATOM     30  O   UNL A   1      34.813  32.363  31.157  1.00  0.00    -0.269 OA
BRANCH  28  31
ATOM     31  C   UNL A   1      36.549  31.098  30.226  1.00  0.00     0.039 A 
ATOM     32  C   UNL A   1      37.806  31.689  30.118  1.00  0.00     0.014 A 
ATOM     33  C   UNL A   1      36.481  29.701  30.393  1.00  0.00     0.014 A 
ATOM     34  C   UNL A   1      38.955  30.912  30.079  1.00  0.00     0.010 A 
ATOM     35  C   UNL A   1      37.633  28.919  30.399  1.00  0.00     0.010 A 
ATOM     36  C   UNL A   1      38.869  29.525  30.200  1.00  0.00    -0.014 A 
BRANCH  36  37
ATOM     37  C   UNL A   1      40.129  28.784  30.224  1.00  0.00     0.031 A 
ATOM     38  C   UNL A   1      40.788  28.704  31.558  1.00  0.00     0.074 A 
ATOM     39  C   UNL A   1      40.632  28.124  29.162  1.00  0.00     0.049 A 
ATOM     40  N   UNL A   1      41.982  29.080  31.887  1.00  0.00    -0.248 NA
ATOM     41  C   UNL A   1      39.986  28.206  32.687  1.00  0.00     0.031 C 
ATOM     42  C   UNL A   1      39.951  27.866  27.890  1.00  0.00     0.029 A 
ATOM     43  N   UNL A   1      41.816  27.448  29.030  1.00  0.00    -0.354 N 
ATOM     44  C   UNL A   1      42.152  28.686  33.213  1.00  0.00     0.074 A 
ATOM     45  C   UNL A   1      40.859  28.273  33.692  1.00  0.00     0.031 C 
ATOM     46  C   UNL A   1      40.626  26.912  27.215  1.00  0.00     0.029 A 
ATOM     47  C   UNL A   1      41.853  26.603  27.932  1.00  0.00     0.049 A 
ATOM     48  H   UNL A   1      42.569  27.553  29.655  1.00  0.00     0.167 HD
ATOM     49  C   UNL A   1      43.392  28.484  33.735  1.00  0.00     0.037 A 
ATOM     50  C   UNL A   1      42.789  25.674  27.632  1.00  0.00     0.037 A 
ATOM     51  C   UNL A   1      44.419  29.101  32.944  1.00  0.00     0.049 A 
ATOM     52  C   UNL A   1      44.047  25.998  28.337  1.00  0.00     0.074 A 
ATOM     53  C   UNL A   1      45.018  30.336  32.832  1.00  0.00     0.029 A 
ATOM     54  N   UNL A   1      44.810  28.359  31.869  1.00  0.00    -0.354 N 
ATOM     55  N   UNL A   1      44.796  27.026  28.056  1.00  0.00    -0.248 NA
ATOM     56  C   UNL A   1      44.384  25.299  29.575  1.00  0.00     0.031 C 
ATOM     57  C   UNL A   1      45.701  30.343  31.578  1.00  0.00     0.029 A 
ATOM     58  C   UNL A   1      45.500  29.113  30.960  1.00  0.00     0.049 A 
ATOM     59  H   UNL A   1      44.618  27.400  31.760  1.00  0.00     0.167 HD
ATOM     60  C   UNL A   1      45.398  27.343  29.255  1.00  0.00     0.074 A 
ATOM     61  C   UNL A   1      45.269  26.158  30.088  1.00  0.00     0.031 C 
ATOM     62  C   UNL A   1      45.625  28.640  29.602  1.00  0.00     0.037 A 
BRANCH  49  63
ATOM     63  C   UNL A   1      43.741  27.330  34.652  1.00  0.00     0.057 A 
ATOM     64  C   UNL A   1      43.811  27.439  36.057  1.00  0.00     0.134 A 
ATOM     65  C   UNL A   1      43.654  26.013  34.160  1.00  0.00     0.134 A 
ATOM     66  F   UNL A   1      43.808  28.622  36.683  1.00  0.00    -0.206 F 
ATOM     67  C   UNL A   1      43.774  26.330  36.907  1.00  0.00     0.040 A 
ATOM     68  C   UNL A   1      43.568  24.898  35.005  1.00  0.00     0.040 A 
ATOM     69  F   UNL A   1      43.568  25.774  32.843  1.00  0.00    -0.206 F 
ATOM     70  C   UNL A   1      43.619  25.056  36.384  1.00  0.00     0.006 A 
ENDBRANCH  49  63
BRANCH  50  71
ATOM     71  C   UNL A   1      42.617  24.412  26.884  1.00  0.00     0.057 A 
ATOM     72  C   UNL A   1      42.189  23.236  27.525  1.00  0.00     0.134 A 
ATOM     73  C   UNL A   1      43.105  24.263  25.579  1.00  0.00     0.134 A 
ATOM     74  F   UNL A   1      41.779  23.254  28.802  1.00  0.00    -0.206 F 
ATOM     75  C   UNL A   1      42.250  21.983  26.909  1.00  0.00     0.040 A 
ATOM     76  C   UNL A   1      43.182  23.013  24.953  1.00  0.00     0.040 A 
ATOM     77  F   UNL A   1      43.571  25.321  24.901  1.00  0.00    -0.206 F 
ATOM     78  C   UNL A   1      42.761  21.867  25.622  1.00  0.00     0.006 A 
ENDBRANCH  50  71
BRANCH  62  79
ATOM     79  C   UNL A   1      45.781  29.632  28.498  1.00  0.00     0.057 A 
ATOM     80  C   UNL A   1      44.652  30.338  28.070  1.00  0.00     0.134 A 
ATOM     81  C   UNL A   1      46.987  29.882  27.833  1.00  0.00     0.134 A 
ATOM     82  F   UNL A   1      43.456  30.113  28.638  1.00  0.00    -0.206 F 
ATOM     83  C   UNL A   1      44.719  31.274  27.037  1.00  0.00     0.040 A 
ATOM     84  C   UNL A   1      47.075  30.839  26.819  1.00  0.00     0.040 A 
ATOM     85  F   UNL A   1      48.097  29.192  28.130  1.00  0.00    -0.206 F 
ATOM     86  C   UNL A   1      45.938  31.537  26.418  1.00  0.00     0.006 A 
ENDBRANCH  62  79
ENDBRANCH  36  37
ENDBRANCH  28  31
ENDBRANCH  26  27
ENDBRANCH  25  26
ENDBRANCH   1  25
TORSDOF 13
ENDMDL
MODEL 3
REMARK VINA RESULT:     -12.3      1.868      5.971
REMARK SMILES CCn1c(N2CCC(C(=O)NCCCCNC(=O)c3ccc(-c4c5nc(c(-c6c(F)cccc6F)c6ccc([nH]6)c(-c6c(F)cccc6F)c6nc(c(-c7c(F)cccc7F)c7ccc4[nH]7)C=C6)C=C5)cc3)CC2)nc2cc(C)ccc21
REMARK SMILES IDX 13 1 12 2 11 3 9 4 10 5 8 7 5 8 6 9 74 10 7 11 73 12 4 13
REMARK SMILES IDX 3 14 82 15 75 16 76 17 81 18 77 19 80 20 78 21 79 22 2 23
REMARK SMILES IDX 1 24 14 25 15 26 16 27 17 28 18 30 19 31 20 32 72 33 21 34
REMARK SMILES IDX 71 35 22 36 23 37 24 38 65 39 25 40 70 41 64 42 66 43 26 44
REMARK SMILES IDX 69 45 63 46 62 47 27 49 53 50 36 51 52 52 37 53 40 54 51 55
REMARK SMILES IDX 67 56 38 57 39 58 50 60 68 61 41 62 28 63 29 64 34 65 30 66
REMARK SMILES IDX 31 67 33 68 35 69 32 70 54 71 55 72 60 73 56 74 57 75 59 76
REMARK SMILES IDX 61 77 58 78 42 79 43 80 48 81 44 82 45 83 47 84 49 85 46 86
REMARK H PARENT 11 6 16 29 66 48 40 59
REMARK Flexibility Score: inf
ROOT
ATOM      1  C   UNL A   1      33.606  28.719  26.305  1.00  0.00     0.023 C 
ENDROOT
BRANCH   1   2
ATOM      2  C   UNL A   1      33.426  28.849  24.799  1.00  0.00     0.116 C 
BRANCH   2   3
ATOM      3  N   UNL A   1      32.176  29.516  24.459  1.00  0.00    -0.356 N 
ATOM      4  C   UNL A   1      30.980  28.997  24.068  1.00  0.00     0.223 C 
ATOM      5  O   UNL A   1      30.048  29.778  23.864  1.00  0.00    -0.275 OA
ATOM      6  H   UNL A   1      32.202  30.499  24.523  1.00  0.00     0.163 HD
BRANCH   4   7
ATOM      7  C   UNL A   1      30.786  27.499  23.906  1.00  0.00     0.082 C 
ATOM      8  N   UNL A   1      32.015  24.953  24.233  1.00  0.00    -0.342 N 
ATOM      9  C   UNL A   1      31.848  25.424  22.868  1.00  0.00     0.120 C 
ATOM     10  C   UNL A   1      30.985  25.301  25.192  1.00  0.00     0.120 C 
ATOM     11  C   UNL A   1      31.721  26.936  22.826  1.00  0.00     0.035 C 
ATOM     12  C   UNL A   1      30.833  26.809  25.277  1.00  0.00     0.035 C 
BRANCH   8  13
ATOM     13  C   UNL A   1      33.144  24.289  24.578  1.00  0.00     0.206 A 
ATOM     14  N   UNL A   1      33.247  22.912  24.504  1.00  0.00    -0.310 N 
ATOM     15  C   UNL A   1      34.539  22.562  24.841  1.00  0.00     0.070 A 
ATOM     16  N   UNL A   1      34.299  24.827  24.902  1.00  0.00    -0.213 NA
ATOM     17  C   UNL A   1      35.163  23.777  25.104  1.00  0.00     0.091 A 
ATOM     18  C   UNL A   1      35.212  21.336  24.932  1.00  0.00     0.029 A 
ATOM     19  C   UNL A   1      36.511  23.784  25.504  1.00  0.00     0.034 A 
ATOM     20  C   UNL A   1      36.554  21.363  25.327  1.00  0.00     0.006 A 
ATOM     21  C   UNL A   1      37.209  22.566  25.618  1.00  0.00    -0.049 A 
ATOM     22  C   UNL A   1      38.643  22.565  26.063  1.00  0.00     0.044 C 
BRANCH  14  23
ATOM     23  C   UNL A   1      32.215  21.981  24.093  1.00  0.00     0.122 C 
ATOM     24  C   UNL A   1      32.224  21.655  22.607  1.00  0.00     0.028 C 
ENDBRANCH  14  23
ENDBRANCH   8  13
ENDBRANCH   4   7
ENDBRANCH   2   3
ENDBRANCH   1   2
BRANCH   1  25
ATOM     25  C   UNL A   1      33.233  29.972  27.098  1.00  0.00     0.023 C 
BRANCH  25  26
ATOM     26  C   UNL A   1      34.403  30.915  27.397  1.00  0.00     0.116 C 
BRANCH  26  27
ATOM     27  N   UNL A   1      34.328  31.567  28.689  1.00  0.00    -0.352 N 
ATOM     28  C   UNL A   1      35.178  31.697  29.755  1.00  0.00     0.251 C 
ATOM     29  H   UNL A   1      33.467  32.022  28.833  1.00  0.00     0.163 HD
ATOM     30  O   UNL A   1      34.807  32.433  30.663  1.00  0.00    -0.269 OA
BRANCH  28  31
ATOM     31  C   UNL A   1      36.476  30.980  29.896  1.00  0.00     0.039 A 
ATOM     32  C   UNL A   1      37.735  31.541  29.698  1.00  0.00     0.014 A 
ATOM     33  C   UNL A   1      36.398  29.614  30.230  1.00  0.00     0.014 A 
ATOM     34  C   UNL A   1      38.877  30.753  29.735  1.00  0.00     0.010 A 
ATOM     35  C   UNL A   1      37.544  28.826  30.311  1.00  0.00     0.010 A 
ATOM     36  C   UNL A   1      38.782  29.391  30.022  1.00  0.00    -0.014 A 
BRANCH  36  37
ATOM     37  C   UNL A   1      40.036  28.646  30.114  1.00  0.00     0.031 A 
ATOM     38  C   UNL A   1      40.662  28.630  31.465  1.00  0.00     0.074 A 
ATOM     39  C   UNL A   1      40.559  27.929  29.099  1.00  0.00     0.049 A 
ATOM     40  N   UNL A   1      41.850  29.015  31.804  1.00  0.00    -0.248 NA
ATOM     41  C   UNL A   1      39.829  28.195  32.599  1.00  0.00     0.031 C 
ATOM     42  C   UNL A   1      39.907  27.610  27.826  1.00  0.00     0.029 A 
ATOM     43  N   UNL A   1      41.741  27.240  29.030  1.00  0.00    -0.354 N 
ATOM     44  C   UNL A   1      41.986  28.689  33.152  1.00  0.00     0.074 A 
ATOM     45  C   UNL A   1      40.679  28.308  33.619  1.00  0.00     0.031 C 
ATOM     46  C   UNL A   1      40.590  26.619  27.216  1.00  0.00     0.029 A 
ATOM     47  C   UNL A   1      41.798  26.340  27.978  1.00  0.00     0.049 A 
ATOM     48  H   UNL A   1      42.480  27.373  29.667  1.00  0.00     0.167 HD
ATOM     49  C   UNL A   1      43.211  28.507  33.713  1.00  0.00     0.037 A 
ATOM     50  C   UNL A   1      42.734  25.391  27.749  1.00  0.00     0.037 A 
ATOM     51  C   UNL A   1      44.262  29.077  32.917  1.00  0.00     0.049 A 
ATOM     52  C   UNL A   1      43.978  25.744  28.466  1.00  0.00     0.074 A 
ATOM     53  C   UNL A   1      44.872  30.300  32.756  1.00  0.00     0.029 A 
ATOM     54  N   UNL A   1      44.673  28.278  31.891  1.00  0.00    -0.354 N 
ATOM     55  N   UNL A   1      44.740  26.752  28.151  1.00  0.00    -0.248 NA
ATOM     56  C   UNL A   1      44.280  25.107  29.746  1.00  0.00     0.031 C 
ATOM     57  C   UNL A   1      45.584  30.239  31.520  1.00  0.00     0.029 A 
ATOM     58  C   UNL A   1      45.390  28.980  30.961  1.00  0.00     0.049 A 
ATOM     59  H   UNL A   1      44.476  27.316  31.826  1.00  0.00     0.167 HD
ATOM     60  C   UNL A   1      45.316  27.126  29.347  1.00  0.00     0.074 A 
ATOM     61  C   UNL A   1      45.158  25.986  30.236  1.00  0.00     0.031 C 
ATOM     62  C   UNL A   1      45.543  28.438  29.633  1.00  0.00     0.037 A 
BRANCH  49  63
ATOM     63  C   UNL A   1      43.530  27.399  34.697  1.00  0.00     0.057 A 
ATOM     64  C   UNL A   1      43.521  27.568  36.097  1.00  0.00     0.134 A 
ATOM     65  C   UNL A   1      43.495  26.062  34.257  1.00  0.00     0.134 A 
ATOM     66  F   UNL A   1      43.462  28.776  36.670  1.00  0.00    -0.206 F 
ATOM     67  C   UNL A   1      43.458  26.495  36.990  1.00  0.00     0.040 A 
ATOM     68  C   UNL A   1      43.383  24.981  35.143  1.00  0.00     0.040 A 
ATOM     69  F   UNL A   1      43.485  25.766  32.948  1.00  0.00    -0.206 F 
ATOM     70  C   UNL A   1      43.355  25.197  36.515  1.00  0.00     0.006 A 
ENDBRANCH  49  63
BRANCH  50  71
ATOM     71  C   UNL A   1      42.571  24.093  27.062  1.00  0.00     0.057 A 
ATOM     72  C   UNL A   1      42.202  22.935  27.768  1.00  0.00     0.134 A 
ATOM     73  C   UNL A   1      43.016  23.901  25.747  1.00  0.00     0.134 A 
ATOM     74  F   UNL A   1      41.838  22.999  29.058  1.00  0.00    -0.206 F 
ATOM     75  C   UNL A   1      42.276  21.659  27.204  1.00  0.00     0.040 A 
ATOM     76  C   UNL A   1      43.106  22.628  25.173  1.00  0.00     0.040 A 
ATOM     77  F   UNL A   1      43.426  24.941  25.007  1.00  0.00    -0.206 F 
ATOM     78  C   UNL A   1      42.742  21.501  25.905  1.00  0.00     0.006 A 
ENDBRANCH  50  71
BRANCH  62  79
ATOM     79  C   UNL A   1      45.732  29.371  28.484  1.00  0.00     0.057 A 
ATOM     80  C   UNL A   1      44.623  30.075  28.006  1.00  0.00     0.134 A 
ATOM     81  C   UNL A   1      46.951  29.566  27.825  1.00  0.00     0.134 A 
ATOM     82  F   UNL A   1      43.416  29.900  28.566  1.00  0.00    -0.206 F 
ATOM     83  C   UNL A   1      44.721  30.957  26.929  1.00  0.00     0.040 A 
ATOM     84  C   UNL A   1      47.071  30.470  26.766  1.00  0.00     0.040 A 
ATOM     85  F   UNL A   1      48.044  28.872  28.171  1.00  0.00    -0.206 F 
ATOM     86  C   UNL A   1      45.953  31.168  26.315  1.00  0.00     0.006 A 
ENDBRANCH  62  79
ENDBRANCH  36  37
ENDBRANCH  28  31
ENDBRANCH  26  27
ENDBRANCH  25  26
ENDBRANCH   1  25
TORSDOF 13
ENDMDL
