MODEL 1
REMARK VINA RESULT:     -11.3      0.000      0.000
REMARK SMILES O=C(C[C@@H]1C[N@@H+]([C@H]2CCCc3sccc32)CCO1)NCCCCNC(=O)c1ccc(-c2c3nc(c(-c4c(F)cccc4F)c4ccc([nH]4)c(-c4c(F)cccc4F)c4nc(c(-c5c(F)cccc5F)c5ccc2[nH]5)C=C4)C=C3)cc1
REMARK SMILES IDX 21 1 20 2 19 3 1 4 2 5 3 7 4 8 5 9 18 10 6 11 17 12 16 13
REMARK SMILES IDX 7 15 8 16 15 17 9 18 11 19 14 20 10 21 12 22 13 23 22 24
REMARK SMILES IDX 23 25 24 26 25 27 26 29 27 30 28 31 80 32 29 33 79 34 30 35
REMARK SMILES IDX 31 36 32 37 73 38 33 39 78 40 72 41 74 42 34 43 77 44 71 45
REMARK SMILES IDX 70 46 35 48 61 49 44 50 60 51 45 52 48 53 59 54 75 55 46 56
REMARK SMILES IDX 47 57 58 59 76 60 49 61 36 62 37 63 42 64 38 65 39 66 41 67
REMARK SMILES IDX 43 68 40 69 62 70 63 71 68 72 64 73 65 74 67 75 69 76 66 77
REMARK SMILES IDX 50 78 51 79 56 80 52 81 53 82 55 83 57 84 54 85
REMARK H PARENT 19 6 6 14 24 28 74 47 48 58
REMARK Flexibility Score: inf
ROOT
ATOM      1  C   UNL A   1      32.955  29.414  24.943  1.00  0.00     0.023 C 
ENDROOT
BRANCH   1   2
ATOM      2  C   UNL A   1      31.480  29.571  24.589  1.00  0.00     0.116 C 
BRANCH   2   3
ATOM      3  N   UNL A   1      30.803  28.293  24.527  1.00  0.00    -0.356 N 
ATOM      4  O   UNL A   1      30.227  28.436  22.307  1.00  0.00    -0.275 OA
ATOM      5  C   UNL A   1      30.258  27.804  23.358  1.00  0.00     0.222 C 
ATOM      6  H   UNL A   1      30.729  27.754  25.348  1.00  0.00     0.163 HD
BRANCH   5   7
ATOM      7  C   UNL A   1      29.688  26.411  23.498  1.00  0.00     0.138 C 
BRANCH   7   8
ATOM      8  C   UNL A   1      30.645  25.406  24.141  1.00  0.00     0.182 C 
ATOM      9  C   UNL A   1      30.590  23.977  23.552  1.00  0.00     0.295 C 
ATOM     10  O   UNL A   1      30.412  25.347  25.553  1.00  0.00    -0.366 OA
ATOM     11  N   UNL A   1      31.551  23.038  24.149  1.00  0.00    -0.325 N 
ATOM     12  C   UNL A   1      31.450  24.588  26.186  1.00  0.00     0.222 C 
ATOM     13  C   UNL A   1      31.574  23.160  25.613  1.00  0.00     0.291 C 
ATOM     14  H   UNL A   1      31.213  22.083  24.026  1.00  0.00     0.348 HD
BRANCH  11  15
ATOM     15  C   UNL A   1      32.794  22.849  23.394  1.00  0.00     0.216 C 
ATOM     16  C   UNL A   1      33.570  24.098  22.912  1.00  0.00     0.071 C 
ATOM     17  C   UNL A   1      33.731  21.916  24.135  1.00  0.00     0.023 A 
ATOM     18  C   UNL A   1      34.483  24.709  23.982  1.00  0.00     0.012 C 
ATOM     19  C   UNL A   1      34.953  22.336  24.631  1.00  0.00     0.014 A 
ATOM     20  C   UNL A   1      33.544  20.514  24.356  1.00  0.00     0.022 A 
ATOM     21  C   UNL A   1      35.527  23.713  24.500  1.00  0.00     0.047 C 
ATOM     22  S   UNL A   1      35.836  21.079  25.367  1.00  0.00    -0.148 S 
ATOM     23  C   UNL A   1      34.617  19.937  25.001  1.00  0.00     0.065 A 
ENDBRANCH  11  15
ENDBRANCH   7   8
ENDBRANCH   5   7
ENDBRANCH   2   3
ENDBRANCH   1   2
BRANCH   1  24
ATOM     24  C   UNL A   1      33.296  28.177  25.781  1.00  0.00     0.023 C 
BRANCH  24  25
ATOM     25  C   UNL A   1      33.588  28.445  27.254  1.00  0.00     0.116 C 
BRANCH  25  26
ATOM     26  N   UNL A   1      33.588  29.864  27.570  1.00  0.00    -0.352 N 
ATOM     27  C   UNL A   1      34.571  30.639  28.133  1.00  0.00     0.251 C 
ATOM     28  H   UNL A   1      32.755  30.341  27.348  1.00  0.00     0.163 HD
ATOM     29  O   UNL A   1      34.311  31.786  28.498  1.00  0.00    -0.269 OA
BRANCH  27  30
ATOM     30  C   UNL A   1      35.934  30.102  28.328  1.00  0.00     0.039 A 
ATOM     31  C   UNL A   1      36.825  30.118  27.251  1.00  0.00     0.014 A 
ATOM     32  C   UNL A   1      36.334  29.566  29.555  1.00  0.00     0.014 A 
ATOM     33  C   UNL A   1      38.134  29.659  27.423  1.00  0.00     0.010 A 
ATOM     34  C   UNL A   1      37.659  29.181  29.747  1.00  0.00     0.010 A 
ATOM     35  C   UNL A   1      38.574  29.223  28.684  1.00  0.00    -0.014 A 
BRANCH  35  36
ATOM     36  C   UNL A   1      39.988  28.820  28.907  1.00  0.00     0.031 A 
ATOM     37  C   UNL A   1      40.975  29.792  29.493  1.00  0.00     0.074 A 
ATOM     38  C   UNL A   1      40.400  27.595  28.526  1.00  0.00     0.049 A 
ATOM     39  N   UNL A   1      42.260  29.644  29.699  1.00  0.00    -0.248 NA
ATOM     40  C   UNL A   1      40.454  31.114  29.876  1.00  0.00     0.031 C 
ATOM     41  C   UNL A   1      39.554  26.573  27.905  1.00  0.00     0.029 A 
ATOM     42  N   UNL A   1      41.637  27.005  28.592  1.00  0.00    -0.354 N 
ATOM     43  C   UNL A   1      42.701  30.851  30.225  1.00  0.00     0.074 A 
ATOM     44  C   UNL A   1      41.559  31.741  30.253  1.00  0.00     0.031 C 
ATOM     45  C   UNL A   1      40.291  25.478  27.667  1.00  0.00     0.029 A 
ATOM     46  C   UNL A   1      41.669  25.731  28.077  1.00  0.00     0.049 A 
ATOM     47  H   UNL A   1      42.428  27.452  28.972  1.00  0.00     0.167 HD
ATOM     48  C   UNL A   1      43.937  31.183  30.669  1.00  0.00     0.037 A 
ATOM     49  C   UNL A   1      42.693  24.868  27.939  1.00  0.00     0.037 A 
ATOM     50  C   UNL A   1      45.069  30.294  30.652  1.00  0.00     0.049 A 
ATOM     51  C   UNL A   1      44.062  25.266  28.417  1.00  0.00     0.074 A 
ATOM     52  C   UNL A   1      46.351  30.521  31.123  1.00  0.00     0.029 A 
ATOM     53  N   UNL A   1      45.058  29.008  30.131  1.00  0.00    -0.354 N 
ATOM     54  N   UNL A   1      44.449  26.389  28.970  1.00  0.00    -0.248 NA
ATOM     55  C   UNL A   1      45.135  24.275  28.255  1.00  0.00     0.031 C 
ATOM     56  C   UNL A   1      47.129  29.394  30.839  1.00  0.00     0.029 A 
ATOM     57  C   UNL A   1      46.317  28.440  30.247  1.00  0.00     0.049 A 
ATOM     58  H   UNL A   1      44.272  28.564  29.739  1.00  0.00     0.167 HD
ATOM     59  C   UNL A   1      45.801  26.229  29.251  1.00  0.00     0.074 A 
ATOM     60  C   UNL A   1      46.161  24.895  28.819  1.00  0.00     0.031 C 
ATOM     61  C   UNL A   1      46.664  27.109  29.816  1.00  0.00     0.037 A 
BRANCH  48  62
ATOM     62  C   UNL A   1      44.129  32.571  31.212  1.00  0.00     0.057 A 
ATOM     63  C   UNL A   1      43.951  32.864  32.572  1.00  0.00     0.134 A 
ATOM     64  C   UNL A   1      44.528  33.620  30.375  1.00  0.00     0.134 A 
ATOM     65  F   UNL A   1      43.560  31.908  33.428  1.00  0.00    -0.206 F 
ATOM     66  C   UNL A   1      44.132  34.155  33.071  1.00  0.00     0.040 A 
ATOM     67  C   UNL A   1      44.742  34.909  30.868  1.00  0.00     0.040 A 
ATOM     68  F   UNL A   1      44.724  33.410  29.064  1.00  0.00    -0.206 F 
ATOM     69  C   UNL A   1      44.535  35.181  32.219  1.00  0.00     0.006 A 
ENDBRANCH  48  62
BRANCH  49  70
ATOM     70  C   UNL A   1      42.461  23.532  27.330  1.00  0.00     0.057 A 
ATOM     71  C   UNL A   1      42.122  22.426  28.119  1.00  0.00     0.134 A 
ATOM     72  C   UNL A   1      42.580  23.327  25.951  1.00  0.00     0.134 A 
ATOM     73  F   UNL A   1      42.011  22.555  29.449  1.00  0.00    -0.206 F 
ATOM     74  C   UNL A   1      41.931  21.160  27.562  1.00  0.00     0.040 A 
ATOM     75  C   UNL A   1      42.364  22.073  25.376  1.00  0.00     0.040 A 
ATOM     76  F   UNL A   1      42.894  24.346  25.139  1.00  0.00    -0.206 F 
ATOM     77  C   UNL A   1      42.047  20.983  26.185  1.00  0.00     0.006 A 
ENDBRANCH  49  70
BRANCH  61  78
ATOM     78  C   UNL A   1      48.076  26.644  30.036  1.00  0.00     0.057 A 
ATOM     79  C   UNL A   1      48.459  25.953  31.193  1.00  0.00     0.134 A 
ATOM     80  C   UNL A   1      49.056  26.858  29.058  1.00  0.00     0.134 A 
ATOM     81  F   UNL A   1      47.572  25.726  32.175  1.00  0.00    -0.206 F 
ATOM     82  C   UNL A   1      49.771  25.514  31.380  1.00  0.00     0.040 A 
ATOM     83  C   UNL A   1      50.363  26.398  29.220  1.00  0.00     0.040 A 
ATOM     84  F   UNL A   1      48.756  27.505  27.922  1.00  0.00    -0.206 F 
ATOM     85  C   UNL A   1      50.725  25.730  30.388  1.00  0.00     0.006 A 
ENDBRANCH  61  78
ENDBRANCH  35  36
ENDBRANCH  27  30
ENDBRANCH  25  26
ENDBRANCH  24  25
ENDBRANCH   1  24
TORSDOF 13
ENDMDL
MODEL 2
REMARK VINA RESULT:     -11.3      2.703      7.791
REMARK SMILES O=C(C[C@@H]1C[N@@H+]([C@H]2CCCc3sccc32)CCO1)NCCCCNC(=O)c1ccc(-c2c3nc(c(-c4c(F)cccc4F)c4ccc([nH]4)c(-c4c(F)cccc4F)c4nc(c(-c5c(F)cccc5F)c5ccc2[nH]5)C=C4)C=C3)cc1
REMARK SMILES IDX 21 1 20 2 19 3 1 4 2 5 3 7 4 8 5 9 18 10 6 11 17 12 16 13
REMARK SMILES IDX 7 15 8 16 15 17 9 18 11 19 14 20 10 21 12 22 13 23 22 24
REMARK SMILES IDX 23 25 24 26 25 27 26 29 27 30 28 31 80 32 29 33 79 34 30 35
REMARK SMILES IDX 31 36 32 37 73 38 33 39 78 40 72 41 74 42 34 43 77 44 71 45
REMARK SMILES IDX 70 46 35 48 61 49 44 50 60 51 45 52 48 53 59 54 75 55 46 56
REMARK SMILES IDX 47 57 58 59 76 60 49 61 36 62 37 63 42 64 38 65 39 66 41 67
REMARK SMILES IDX 43 68 40 69 62 70 63 71 68 72 64 73 65 74 67 75 69 76 66 77
REMARK SMILES IDX 50 78 51 79 56 80 52 81 53 82 55 83 57 84 54 85
REMARK H PARENT 19 6 6 14 24 28 74 47 48 58
REMARK Flexibility Score: inf
ROOT
ATOM      1  C   UNL A   1      37.123  21.067  24.566  1.00  0.00     0.023 C 
ENDROOT
BRANCH   1   2
ATOM      2  C   UNL A   1      35.935  21.199  25.515  1.00  0.00     0.116 C 
BRANCH   2   3
ATOM      3  N   UNL A   1      34.711  21.500  24.804  1.00  0.00    -0.356 N 
ATOM      4  O   UNL A   1      33.911  19.346  24.783  1.00  0.00    -0.275 OA
ATOM      5  C   UNL A   1      33.763  20.537  24.528  1.00  0.00     0.222 C 
ATOM      6  H   UNL A   1      34.549  22.425  24.507  1.00  0.00     0.163 HD
BRANCH   5   7
ATOM      7  C   UNL A   1      32.521  21.089  23.867  1.00  0.00     0.138 C 
BRANCH   7   8
ATOM      8  C   UNL A   1      32.508  22.612  23.733  1.00  0.00     0.182 C 
ATOM      9  C   UNL A   1      31.126  23.233  23.427  1.00  0.00     0.295 C 
ATOM     10  O   UNL A   1      33.446  23.020  22.729  1.00  0.00    -0.366 OA
ATOM     11  N   UNL A   1      31.124  24.702  23.350  1.00  0.00    -0.325 N 
ATOM     12  C   UNL A   1      33.604  24.444  22.762  1.00  0.00     0.222 C 
ATOM     13  C   UNL A   1      32.269  25.195  22.571  1.00  0.00     0.291 C 
ATOM     14  H   UNL A   1      30.338  25.011  22.780  1.00  0.00     0.348 HD
BRANCH  11  15
ATOM     15  C   UNL A   1      30.697  25.393  24.572  1.00  0.00     0.216 C 
ATOM     16  C   UNL A   1      31.346  24.994  25.919  1.00  0.00     0.071 C 
ATOM     17  C   UNL A   1      30.775  26.895  24.388  1.00  0.00     0.023 A 
ATOM     18  C   UNL A   1      32.695  25.674  26.179  1.00  0.00     0.012 C 
ATOM     19  C   UNL A   1      31.646  27.685  25.119  1.00  0.00     0.014 A 
ATOM     20  C   UNL A   1      29.949  27.697  23.536  1.00  0.00     0.022 A 
ATOM     21  C   UNL A   1      32.592  27.203  26.175  1.00  0.00     0.047 C 
ATOM     22  S   UNL A   1      31.490  29.344  24.764  1.00  0.00    -0.148 S 
ATOM     23  C   UNL A   1      30.226  29.042  23.654  1.00  0.00     0.065 A 
ENDBRANCH  11  15
ENDBRANCH   7   8
ENDBRANCH   5   7
ENDBRANCH   2   3
ENDBRANCH   1   2
BRANCH   1  24
ATOM     24  C   UNL A   1      38.054  19.883  24.849  1.00  0.00     0.023 C 
BRANCH  24  25
ATOM     25  C   UNL A   1      39.051  20.094  25.985  1.00  0.00     0.116 C 
BRANCH  25  26
ATOM     26  N   UNL A   1      40.225  19.247  25.857  1.00  0.00    -0.352 N 
ATOM     27  C   UNL A   1      41.554  19.560  25.997  1.00  0.00     0.251 C 
ATOM     28  H   UNL A   1      40.039  18.305  25.635  1.00  0.00     0.163 HD
ATOM     29  O   UNL A   1      42.413  18.744  25.661  1.00  0.00    -0.269 OA
BRANCH  27  30
ATOM     30  C   UNL A   1      41.967  20.878  26.525  1.00  0.00     0.039 A 
ATOM     31  C   UNL A   1      42.367  21.870  25.625  1.00  0.00     0.014 A 
ATOM     32  C   UNL A   1      41.982  21.136  27.898  1.00  0.00     0.014 A 
ATOM     33  C   UNL A   1      42.717  23.137  26.096  1.00  0.00     0.010 A 
ATOM     34  C   UNL A   1      42.255  22.422  28.361  1.00  0.00     0.010 A 
ATOM     35  C   UNL A   1      42.626  23.437  27.466  1.00  0.00    -0.014 A 
BRANCH  35  36
ATOM     36  C   UNL A   1      42.904  24.806  27.973  1.00  0.00     0.031 A 
ATOM     37  C   UNL A   1      44.303  25.208  28.355  1.00  0.00     0.074 A 
ATOM     38  C   UNL A   1      41.887  25.672  28.148  1.00  0.00     0.049 A 
ATOM     39  N   UNL A   1      44.727  26.332  28.878  1.00  0.00    -0.248 NA
ATOM     40  C   UNL A   1      45.360  24.206  28.147  1.00  0.00     0.031 C 
ATOM     41  C   UNL A   1      40.479  25.393  27.857  1.00  0.00     0.029 A 
ATOM     42  N   UNL A   1      41.877  26.959  28.623  1.00  0.00    -0.354 N 
ATOM     43  C   UNL A   1      46.094  26.169  29.066  1.00  0.00     0.074 A 
ATOM     44  C   UNL A   1      46.417  24.819  28.658  1.00  0.00     0.031 C 
ATOM     45  C   UNL A   1      39.748  26.481  28.141  1.00  0.00     0.029 A 
ATOM     46  C   UNL A   1      40.624  27.521  28.673  1.00  0.00     0.049 A 
ATOM     47  H   UNL A   1      42.692  27.436  28.903  1.00  0.00     0.167 HD
ATOM     48  C   UNL A   1      47.002  27.069  29.514  1.00  0.00     0.037 A 
ATOM     49  C   UNL A   1      40.222  28.729  29.108  1.00  0.00     0.037 A 
ATOM     50  C   UNL A   1      46.680  28.416  29.910  1.00  0.00     0.049 A 
ATOM     51  C   UNL A   1      41.245  29.704  29.624  1.00  0.00     0.074 A 
ATOM     52  C   UNL A   1      47.536  29.418  30.333  1.00  0.00     0.029 A 
ATOM     53  N   UNL A   1      45.399  28.949  29.936  1.00  0.00    -0.354 N 
ATOM     54  N   UNL A   1      42.542  29.558  29.737  1.00  0.00    -0.248 NA
ATOM     55  C   UNL A   1      40.747  31.013  30.068  1.00  0.00     0.031 C 
ATOM     56  C   UNL A   1      46.770  30.539  30.666  1.00  0.00     0.029 A 
ATOM     57  C   UNL A   1      45.441  30.258  30.392  1.00  0.00     0.049 A 
ATOM     58  H   UNL A   1      44.582  28.469  29.669  1.00  0.00     0.167 HD
ATOM     59  C   UNL A   1      43.019  30.764  30.235  1.00  0.00     0.074 A 
ATOM     60  C   UNL A   1      41.873  31.635  30.389  1.00  0.00     0.031 C 
ATOM     61  C   UNL A   1      44.293  31.117  30.538  1.00  0.00     0.037 A 
BRANCH  48  62
ATOM     62  C   UNL A   1      48.434  26.624  29.603  1.00  0.00     0.057 A 
ATOM     63  C   UNL A   1      49.342  26.845  28.558  1.00  0.00     0.134 A 
ATOM     64  C   UNL A   1      48.921  25.996  30.756  1.00  0.00     0.134 A 
ATOM     65  F   UNL A   1      48.940  27.431  27.420  1.00  0.00    -0.206 F 
ATOM     66  C   UNL A   1      50.672  26.430  28.645  1.00  0.00     0.040 A 
ATOM     67  C   UNL A   1      50.256  25.604  30.867  1.00  0.00     0.040 A 
ATOM     68  F   UNL A   1      48.109  25.760  31.798  1.00  0.00    -0.206 F 
ATOM     69  C   UNL A   1      51.134  25.813  29.806  1.00  0.00     0.006 A 
ENDBRANCH  48  62
BRANCH  49  70
ATOM     70  C   UNL A   1      38.781  29.094  29.063  1.00  0.00     0.057 A 
ATOM     71  C   UNL A   1      38.196  29.589  27.892  1.00  0.00     0.134 A 
ATOM     72  C   UNL A   1      37.960  28.964  30.189  1.00  0.00     0.134 A 
ATOM     73  F   UNL A   1      38.935  29.752  26.786  1.00  0.00    -0.206 F 
ATOM     74  C   UNL A   1      36.852  29.962  27.848  1.00  0.00     0.040 A 
ATOM     75  C   UNL A   1      36.607  29.307  30.151  1.00  0.00     0.040 A 
ATOM     76  F   UNL A   1      38.457  28.488  31.340  1.00  0.00    -0.206 F 
ATOM     77  C   UNL A   1      36.052  29.816  28.979  1.00  0.00     0.006 A 
ENDBRANCH  49  70
BRANCH  61  78
ATOM     78  C   UNL A   1      44.522  32.518  31.029  1.00  0.00     0.057 A 
ATOM     79  C   UNL A   1      44.747  33.586  30.150  1.00  0.00     0.134 A 
ATOM     80  C   UNL A   1      44.476  32.809  32.399  1.00  0.00     0.134 A 
ATOM     81  F   UNL A   1      44.816  33.375  28.827  1.00  0.00    -0.206 F 
ATOM     82  C   UNL A   1      44.945  34.886  30.618  1.00  0.00     0.040 A 
ATOM     83  C   UNL A   1      44.642  34.109  32.877  1.00  0.00     0.040 A 
ATOM     84  F   UNL A   1      44.255  31.835  33.295  1.00  0.00    -0.206 F 
ATOM     85  C   UNL A   1      44.884  35.151  31.985  1.00  0.00     0.006 A 
ENDBRANCH  61  78
ENDBRANCH  35  36
ENDBRANCH  27  30
ENDBRANCH  25  26
ENDBRANCH  24  25
ENDBRANCH   1  24
TORSDOF 13
ENDMDL
MODEL 3
REMARK VINA RESULT:     -11.3      3.713      7.526
REMARK SMILES O=C(C[C@@H]1C[N@@H+]([C@H]2CCCc3sccc32)CCO1)NCCCCNC(=O)c1ccc(-c2c3nc(c(-c4c(F)cccc4F)c4ccc([nH]4)c(-c4c(F)cccc4F)c4nc(c(-c5c(F)cccc5F)c5ccc2[nH]5)C=C4)C=C3)cc1
REMARK SMILES IDX 21 1 20 2 19 3 1 4 2 5 3 7 4 8 5 9 18 10 6 11 17 12 16 13
REMARK SMILES IDX 7 15 8 16 15 17 9 18 11 19 14 20 10 21 12 22 13 23 22 24
REMARK SMILES IDX 23 25 24 26 25 27 26 29 27 30 28 31 80 32 29 33 79 34 30 35
REMARK SMILES IDX 31 36 32 37 73 38 33 39 78 40 72 41 74 42 34 43 77 44 71 45
REMARK SMILES IDX 70 46 35 48 61 49 44 50 60 51 45 52 48 53 59 54 75 55 46 56
REMARK SMILES IDX 47 57 58 59 76 60 49 61 36 62 37 63 42 64 38 65 39 66 41 67
REMARK SMILES IDX 43 68 40 69 62 70 63 71 68 72 64 73 65 74 67 75 69 76 66 77
REMARK SMILES IDX 50 78 51 79 56 80 52 81 53 82 55 83 57 84 54 85
REMARK H PARENT 19 6 6 14 24 28 74 47 48 58
REMARK Flexibility Score: inf
ROOT
ATOM      1  C   UNL A   1      31.661  30.160  26.606  1.00  0.00     0.023 C 
ENDROOT
BRANCH   1   2
ATOM      2  C   UNL A   1      32.186  29.589  25.291  1.00  0.00     0.116 C 
BRANCH   2   3
ATOM      3  N   UNL A   1      31.423  28.435  24.864  1.00  0.00    -0.356 N 
ATOM      4  O   UNL A   1      30.080  29.571  23.386  1.00  0.00    -0.275 OA
ATOM      5  C   UNL A   1      30.441  28.518  23.898  1.00  0.00     0.222 C 
ATOM      6  H   UNL A   1      31.611  27.562  25.277  1.00  0.00     0.163 HD
BRANCH   5   7
ATOM      7  C   UNL A   1      29.843  27.178  23.535  1.00  0.00     0.138 C 
BRANCH   7   8
ATOM      8  C   UNL A   1      30.603  25.978  24.102  1.00  0.00     0.182 C 
ATOM      9  C   UNL A   1      30.278  24.621  23.439  1.00  0.00     0.295 C 
ATOM     10  O   UNL A   1      30.380  25.884  25.514  1.00  0.00    -0.366 OA
ATOM     11  N   UNL A   1      31.054  23.488  23.963  1.00  0.00    -0.325 N 
ATOM     12  C   UNL A   1      31.265  24.911  26.083  1.00  0.00     0.222 C 
ATOM     13  C   UNL A   1      31.116  23.520  25.431  1.00  0.00     0.291 C 
ATOM     14  H   UNL A   1      30.544  22.620  23.797  1.00  0.00     0.348 HD
BRANCH  11  15
ATOM     15  C   UNL A   1      32.233  23.116  23.173  1.00  0.00     0.216 C 
ATOM     16  C   UNL A   1      33.209  24.229  22.723  1.00  0.00     0.071 C 
ATOM     17  C   UNL A   1      33.002  22.002  23.855  1.00  0.00     0.023 A 
ATOM     18  C   UNL A   1      34.232  24.623  23.795  1.00  0.00     0.012 C 
ATOM     19  C   UNL A   1      34.287  22.179  24.339  1.00  0.00     0.014 A 
ATOM     20  C   UNL A   1      32.574  20.646  24.024  1.00  0.00     0.022 A 
ATOM     21  C   UNL A   1      35.093  23.438  24.249  1.00  0.00     0.047 C 
ATOM     22  S   UNL A   1      34.945  20.756  25.004  1.00  0.00    -0.148 S 
ATOM     23  C   UNL A   1      33.538  19.863  24.622  1.00  0.00     0.065 A 
ENDBRANCH  11  15
ENDBRANCH   7   8
ENDBRANCH   5   7
ENDBRANCH   2   3
ENDBRANCH   1   2
BRANCH   1  24
ATOM     24  C   UNL A   1      31.490  31.682  26.632  1.00  0.00     0.023 C 
BRANCH  24  25
ATOM     25  C   UNL A   1      32.769  32.479  26.876  1.00  0.00     0.116 C 
BRANCH  25  26
ATOM     26  N   UNL A   1      32.501  33.828  27.346  1.00  0.00    -0.352 N 
ATOM     27  C   UNL A   1      33.056  34.519  28.394  1.00  0.00     0.251 C 
ATOM     28  H   UNL A   1      31.817  34.320  26.837  1.00  0.00     0.163 HD
ATOM     29  O   UNL A   1      32.560  35.587  28.752  1.00  0.00    -0.269 OA
BRANCH  27  30
ATOM     30  C   UNL A   1      34.231  33.982  29.114  1.00  0.00     0.039 A 
ATOM     31  C   UNL A   1      34.023  33.120  30.194  1.00  0.00     0.014 A 
ATOM     32  C   UNL A   1      35.531  34.339  28.746  1.00  0.00     0.014 A 
ATOM     33  C   UNL A   1      35.118  32.564  30.860  1.00  0.00     0.010 A 
ATOM     34  C   UNL A   1      36.620  33.724  29.360  1.00  0.00     0.010 A 
ATOM     35  C   UNL A   1      36.426  32.830  30.424  1.00  0.00    -0.014 A 
BRANCH  35  36
ATOM     36  C   UNL A   1      37.598  32.173  31.062  1.00  0.00     0.031 A 
ATOM     37  C   UNL A   1      38.324  31.058  30.359  1.00  0.00     0.074 A 
ATOM     38  C   UNL A   1      37.974  32.540  32.302  1.00  0.00     0.049 A 
ATOM     39  N   UNL A   1      39.321  30.323  30.784  1.00  0.00    -0.248 NA
ATOM     40  C   UNL A   1      37.850  30.706  29.012  1.00  0.00     0.031 C 
ATOM     41  C   UNL A   1      37.328  33.577  33.110  1.00  0.00     0.029 A 
ATOM     42  N   UNL A   1      38.983  32.075  33.108  1.00  0.00    -0.354 N 
ATOM     43  C   UNL A   1      39.587  29.420  29.763  1.00  0.00     0.074 A 
ATOM     44  C   UNL A   1      38.610  29.659  28.724  1.00  0.00     0.031 C 
ATOM     45  C   UNL A   1      37.969  33.682  34.284  1.00  0.00     0.029 A 
ATOM     46  C   UNL A   1      39.042  32.694  34.333  1.00  0.00     0.049 A 
ATOM     47  H   UNL A   1      39.606  31.363  32.834  1.00  0.00     0.167 HD
ATOM     48  C   UNL A   1      40.571  28.492  29.686  1.00  0.00     0.037 A 
ATOM     49  C   UNL A   1      39.859  32.483  35.382  1.00  0.00     0.037 A 
ATOM     50  C   UNL A   1      41.550  28.262  30.717  1.00  0.00     0.049 A 
ATOM     51  C   UNL A   1      40.929  31.431  35.284  1.00  0.00     0.074 A 
ATOM     52  C   UNL A   1      42.615  27.377  30.712  1.00  0.00     0.029 A 
ATOM     53  N   UNL A   1      41.582  28.917  31.939  1.00  0.00    -0.354 N 
ATOM     54  N   UNL A   1      41.208  30.628  34.286  1.00  0.00    -0.248 NA
ATOM     55  C   UNL A   1      41.801  31.260  36.454  1.00  0.00     0.031 C 
ATOM     56  C   UNL A   1      43.259  27.459  31.952  1.00  0.00     0.029 A 
ATOM     57  C   UNL A   1      42.633  28.438  32.706  1.00  0.00     0.049 A 
ATOM     58  H   UNL A   1      40.952  29.620  32.220  1.00  0.00     0.167 HD
ATOM     59  C   UNL A   1      42.305  29.879  34.696  1.00  0.00     0.074 A 
ATOM     60  C   UNL A   1      42.647  30.335  36.027  1.00  0.00     0.031 C 
ATOM     61  C   UNL A   1      42.967  28.902  34.029  1.00  0.00     0.037 A 
BRANCH  48  62
ATOM     62  C   UNL A   1      40.636  27.653  28.442  1.00  0.00     0.057 A 
ATOM     63  C   UNL A   1      41.390  28.043  27.326  1.00  0.00     0.134 A 
ATOM     64  C   UNL A   1      39.966  26.426  28.367  1.00  0.00     0.134 A 
ATOM     65  F   UNL A   1      42.048  29.212  27.325  1.00  0.00    -0.206 F 
ATOM     66  C   UNL A   1      41.448  27.259  26.172  1.00  0.00     0.040 A 
ATOM     67  C   UNL A   1      40.041  25.618  27.231  1.00  0.00     0.040 A 
ATOM     68  F   UNL A   1      39.233  25.985  29.402  1.00  0.00    -0.206 F 
ATOM     69  C   UNL A   1      40.777  26.038  26.126  1.00  0.00     0.006 A 
ENDBRANCH  48  62
BRANCH  49  70
ATOM     70  C   UNL A   1      39.706  33.296  36.617  1.00  0.00     0.057 A 
ATOM     71  C   UNL A   1      38.818  32.914  37.630  1.00  0.00     0.134 A 
ATOM     72  C   UNL A   1      40.435  34.475  36.810  1.00  0.00     0.134 A 
ATOM     73  F   UNL A   1      38.078  31.805  37.495  1.00  0.00    -0.206 F 
ATOM     74  C   UNL A   1      38.644  33.687  38.780  1.00  0.00     0.040 A 
ATOM     75  C   UNL A   1      40.292  35.242  37.968  1.00  0.00     0.040 A 
ATOM     76  F   UNL A   1      41.309  34.892  35.882  1.00  0.00    -0.206 F 
ATOM     77  C   UNL A   1      39.388  34.852  38.953  1.00  0.00     0.006 A 
ENDBRANCH  49  70
BRANCH  61  78
ATOM     78  C   UNL A   1      44.154  28.285  34.711  1.00  0.00     0.057 A 
ATOM     79  C   UNL A   1      45.439  28.835  34.609  1.00  0.00     0.134 A 
ATOM     80  C   UNL A   1      44.003  27.146  35.513  1.00  0.00     0.134 A 
ATOM     81  F   UNL A   1      45.656  29.919  33.847  1.00  0.00    -0.206 F 
ATOM     82  C   UNL A   1      46.533  28.261  35.259  1.00  0.00     0.040 A 
ATOM     83  C   UNL A   1      45.082  26.580  36.192  1.00  0.00     0.040 A 
ATOM     84  F   UNL A   1      42.798  26.573  35.662  1.00  0.00    -0.206 F 
ATOM     85  C   UNL A   1      46.353  27.133  36.059  1.00  0.00     0.006 A 
ENDBRANCH  61  78
ENDBRANCH  35  36
ENDBRANCH  27  30
ENDBRANCH  25  26
ENDBRANCH  24  25
ENDBRANCH   1  24
TORSDOF 13
ENDMDL
