MODEL 1
REMARK VINA RESULT:     -10.3      0.000      0.000
REMARK SMILES O=C(NCCCCNC(=O)c1cccc2c1cc(Br)c1ccccc12)c1ccc(-c2c3nc(c(-c4c(F)cccc4F)c4ccc([nH]4)c(-c4c(F)cccc4F)c4nc(c(-c5c(F)cccc5F)c5ccc2[nH]5)C=C4)C=C3)cc1
REMARK SMILES IDX 4 1 3 2 1 3 2 4 26 6 27 7 79 8 28 9 78 10 29 11 30 12 31 13
REMARK SMILES IDX 72 14 32 15 77 16 71 17 73 18 33 19 76 20 70 21 69 22 34 24
REMARK SMILES IDX 60 25 43 26 59 27 44 28 47 29 58 30 74 31 45 32 46 33 57 35
REMARK SMILES IDX 75 36 48 37 35 38 36 39 41 40 37 41 38 42 40 43 42 44 39 45
REMARK SMILES IDX 61 46 62 47 67 48 63 49 64 50 66 51 68 52 65 53 49 54 50 55
REMARK SMILES IDX 55 56 51 57 52 58 54 59 56 60 53 61 5 62 6 63 7 64 8 65 9 66
REMARK SMILES IDX 10 68 11 69 12 70 16 71 13 72 15 73 17 74 14 75 25 76 18 77
REMARK SMILES IDX 20 78 24 79 19 80 21 81 23 82 22 83
REMARK H PARENT 3 5 73 23 47 34 8 67
REMARK Flexibility Score: inf
ROOT
ATOM      1  C   UNL A   1      33.451  36.838  29.961  1.00  0.00     0.116 C 
ENDROOT
BRANCH   1   2
ATOM      2  N   UNL A   1      32.704  35.916  29.123  1.00  0.00    -0.352 N 
ATOM      3  O   UNL A   1      32.339  34.148  27.781  1.00  0.00    -0.269 OA
ATOM      4  C   UNL A   1      33.088  34.719  28.570  1.00  0.00     0.251 C 
ATOM      5  H   UNL A   1      31.781  36.190  28.921  1.00  0.00     0.163 HD
BRANCH   4   6
ATOM      6  C   UNL A   1      34.404  34.121  28.895  1.00  0.00     0.039 A 
ATOM      7  C   UNL A   1      34.471  33.175  29.923  1.00  0.00     0.014 A 
ATOM      8  C   UNL A   1      35.570  34.504  28.228  1.00  0.00     0.014 A 
ATOM      9  C   UNL A   1      35.696  32.591  30.252  1.00  0.00     0.010 A 
ATOM     10  C   UNL A   1      36.774  33.856  28.496  1.00  0.00     0.010 A 
ATOM     11  C   UNL A   1      36.856  32.911  29.528  1.00  0.00    -0.014 A 
BRANCH  11  12
ATOM     12  C   UNL A   1      38.165  32.303  29.882  1.00  0.00     0.031 A 
ATOM     13  C   UNL A   1      39.083  32.996  30.854  1.00  0.00     0.074 A 
ATOM     14  C   UNL A   1      38.538  31.137  29.322  1.00  0.00     0.049 A 
ATOM     15  N   UNL A   1      40.253  32.617  31.304  1.00  0.00    -0.248 NA
ATOM     16  C   UNL A   1      38.637  34.299  31.371  1.00  0.00     0.031 C 
ATOM     17  C   UNL A   1      37.762  30.384  28.335  1.00  0.00     0.029 A 
ATOM     18  N   UNL A   1      39.663  30.375  29.514  1.00  0.00    -0.354 N 
ATOM     19  C   UNL A   1      40.683  33.637  32.144  1.00  0.00     0.074 A 
ATOM     20  C   UNL A   1      39.683  34.679  32.087  1.00  0.00     0.031 C 
ATOM     21  C   UNL A   1      38.412  29.245  28.044  1.00  0.00     0.029 A 
ATOM     22  C   UNL A   1      39.662  29.203  28.798  1.00  0.00     0.049 A 
ATOM     23  H   UNL A   1      40.401  30.643  30.108  1.00  0.00     0.167 HD
ATOM     24  C   UNL A   1      41.793  33.691  32.919  1.00  0.00     0.037 A 
ATOM     25  C   UNL A   1      40.562  28.203  28.764  1.00  0.00     0.037 A 
ATOM     26  C   UNL A   1      42.782  32.648  32.990  1.00  0.00     0.049 A 
ATOM     27  C   UNL A   1      41.798  28.295  29.615  1.00  0.00     0.074 A 
ATOM     28  C   UNL A   1      43.914  32.581  33.783  1.00  0.00     0.029 A 
ATOM     29  N   UNL A   1      42.757  31.487  32.231  1.00  0.00    -0.354 N 
ATOM     30  N   UNL A   1      42.158  29.232  30.458  1.00  0.00    -0.248 NA
ATOM     31  C   UNL A   1      42.753  27.182  29.510  1.00  0.00     0.031 C 
ATOM     32  C   UNL A   1      44.599  31.401  33.470  1.00  0.00     0.029 A 
ATOM     33  C   UNL A   1      43.869  30.710  32.517  1.00  0.00     0.049 A 
ATOM     34  H   UNL A   1      42.054  31.251  31.584  1.00  0.00     0.167 HD
ATOM     35  C   UNL A   1      43.366  28.813  31.001  1.00  0.00     0.074 A 
ATOM     36  C   UNL A   1      43.664  27.525  30.408  1.00  0.00     0.031 C 
ATOM     37  C   UNL A   1      44.157  29.435  31.909  1.00  0.00     0.037 A 
BRANCH  24  38
ATOM     38  C   UNL A   1      41.987  34.932  33.746  1.00  0.00     0.057 A 
ATOM     39  C   UNL A   1      41.498  35.004  35.056  1.00  0.00     0.134 A 
ATOM     40  C   UNL A   1      42.670  36.051  33.250  1.00  0.00     0.134 A 
ATOM     41  F   UNL A   1      40.829  33.973  35.592  1.00  0.00    -0.206 F 
ATOM     42  C   UNL A   1      41.692  36.138  35.847  1.00  0.00     0.040 A 
ATOM     43  C   UNL A   1      42.898  37.179  34.041  1.00  0.00     0.040 A 
ATOM     44  F   UNL A   1      43.178  36.044  32.008  1.00  0.00    -0.206 F 
ATOM     45  C   UNL A   1      42.405  37.225  35.344  1.00  0.00     0.006 A 
ENDBRANCH  24  38
BRANCH  25  46
ATOM     46  C   UNL A   1      40.313  27.002  27.927  1.00  0.00     0.057 A 
ATOM     47  C   UNL A   1      40.854  26.874  26.643  1.00  0.00     0.134 A 
ATOM     48  C   UNL A   1      39.535  25.942  28.408  1.00  0.00     0.134 A 
ATOM     49  F   UNL A   1      41.604  27.856  26.124  1.00  0.00    -0.206 F 
ATOM     50  C   UNL A   1      40.629  25.736  25.866  1.00  0.00     0.040 A 
ATOM     51  C   UNL A   1      39.321  24.789  27.653  1.00  0.00     0.040 A 
ATOM     52  F   UNL A   1      39.006  25.998  29.640  1.00  0.00    -0.206 F 
ATOM     53  C   UNL A   1      39.866  24.686  26.374  1.00  0.00     0.006 A 
ENDBRANCH  25  46
BRANCH  37  54
ATOM     54  C   UNL A   1      45.408  28.715  32.324  1.00  0.00     0.057 A 
ATOM     55  C   UNL A   1      45.394  27.825  33.406  1.00  0.00     0.134 A 
ATOM     56  C   UNL A   1      46.624  28.898  31.653  1.00  0.00     0.134 A 
ATOM     57  F   UNL A   1      44.266  27.610  34.097  1.00  0.00    -0.206 F 
ATOM     58  C   UNL A   1      46.543  27.137  33.799  1.00  0.00     0.040 A 
ATOM     59  C   UNL A   1      47.773  28.194  32.019  1.00  0.00     0.040 A 
ATOM     60  F   UNL A   1      46.700  29.726  30.599  1.00  0.00    -0.206 F 
ATOM     61  C   UNL A   1      47.734  27.313  33.098  1.00  0.00     0.006 A 
ENDBRANCH  37  54
ENDBRANCH  11  12
ENDBRANCH   4   6
ENDBRANCH   1   2
BRANCH   1  62
ATOM     62  C   UNL A   1      32.968  36.860  31.406  1.00  0.00     0.023 C 
BRANCH  62  63
ATOM     63  C   UNL A   1      34.022  37.214  32.452  1.00  0.00     0.023 C 
BRANCH  63  64
ATOM     64  C   UNL A   1      34.779  36.033  33.052  1.00  0.00     0.116 C 
BRANCH  64  65
ATOM     65  N   UNL A   1      34.026  34.790  32.994  1.00  0.00    -0.352 N 
ATOM     66  C   UNL A   1      34.351  33.555  33.498  1.00  0.00     0.251 C 
ATOM     67  H   UNL A   1      33.162  34.841  32.527  1.00  0.00     0.163 HD
ATOM     68  O   UNL A   1      33.586  32.604  33.332  1.00  0.00    -0.269 OA
BRANCH  66  69
ATOM     69  C   UNL A   1      35.618  33.377  34.246  1.00  0.00     0.047 A 
ATOM     70  C   UNL A   1      35.856  34.273  35.294  1.00  0.00     0.014 A 
ATOM     71  C   UNL A   1      36.540  32.343  33.924  1.00  0.00    -0.004 A 
ATOM     72  C   UNL A   1      37.056  34.219  35.975  1.00  0.00     0.002 A 
ATOM     73  C   UNL A   1      37.770  32.265  34.629  1.00  0.00    -0.010 A 
ATOM     74  C   UNL A   1      36.283  31.384  32.927  1.00  0.00     0.026 A 
ATOM     75  C   UNL A   1      37.995  33.243  35.635  1.00  0.00     0.009 A 
ATOM     76  C   UNL A   1      38.719  31.220  34.317  1.00  0.00    -0.009 A 
ATOM     77  C   UNL A   1      37.184  30.357  32.641  1.00  0.00     0.026 A 
ATOM     78  C   UNL A   1      38.411  30.248  33.325  1.00  0.00    -0.004 A 
ATOM     79  C   UNL A   1      39.974  31.095  34.972  1.00  0.00     0.009 A 
ATOM     80  Br  UNL A   1      36.641  29.129  31.282  1.00  0.00    -0.050 Br
ATOM     81  C   UNL A   1      39.346  29.210  33.066  1.00  0.00     0.010 A 
ATOM     82  C   UNL A   1      40.879  30.068  34.692  1.00  0.00     0.001 A 
ATOM     83  C   UNL A   1      40.560  29.119  33.741  1.00  0.00     0.001 A 
ENDBRANCH  66  69
ENDBRANCH  64  65
ENDBRANCH  63  64
ENDBRANCH  62  63
ENDBRANCH   1  62
TORSDOF 11
ENDMDL
MODEL 2
REMARK VINA RESULT:      -9.7      4.950     10.136
REMARK SMILES O=C(NCCCCNC(=O)c1cccc2c1cc(Br)c1ccccc12)c1ccc(-c2c3nc(c(-c4c(F)cccc4F)c4ccc([nH]4)c(-c4c(F)cccc4F)c4nc(c(-c5c(F)cccc5F)c5ccc2[nH]5)C=C4)C=C3)cc1
REMARK SMILES IDX 4 1 3 2 1 3 2 4 26 6 27 7 79 8 28 9 78 10 29 11 30 12 31 13
REMARK SMILES IDX 72 14 32 15 77 16 71 17 73 18 33 19 76 20 70 21 69 22 34 24
REMARK SMILES IDX 60 25 43 26 59 27 44 28 47 29 58 30 74 31 45 32 46 33 57 35
REMARK SMILES IDX 75 36 48 37 35 38 36 39 41 40 37 41 38 42 40 43 42 44 39 45
REMARK SMILES IDX 61 46 62 47 67 48 63 49 64 50 66 51 68 52 65 53 49 54 50 55
REMARK SMILES IDX 55 56 51 57 52 58 54 59 56 60 53 61 5 62 6 63 7 64 8 65 9 66
REMARK SMILES IDX 10 68 11 69 12 70 16 71 13 72 15 73 17 74 14 75 25 76 18 77
REMARK SMILES IDX 20 78 24 79 19 80 21 81 23 82 22 83
REMARK H PARENT 3 5 73 23 47 34 8 67
REMARK Flexibility Score: inf
ROOT
ATOM      1  C   UNL A   1      36.644  23.529  25.880  1.00  0.00     0.116 C 
ENDROOT
BRANCH   1   2
ATOM      2  N   UNL A   1      37.733  22.579  26.030  1.00  0.00    -0.352 N 
ATOM      3  O   UNL A   1      39.831  21.854  26.391  1.00  0.00    -0.269 OA
ATOM      4  C   UNL A   1      39.023  22.778  26.455  1.00  0.00     0.251 C 
ATOM      5  H   UNL A   1      37.511  21.650  25.792  1.00  0.00     0.163 HD
BRANCH   4   6
ATOM      6  C   UNL A   1      39.459  24.098  26.968  1.00  0.00     0.039 A 
ATOM      7  C   UNL A   1      40.016  25.012  26.068  1.00  0.00     0.014 A 
ATOM      8  C   UNL A   1      39.359  24.429  28.321  1.00  0.00     0.014 A 
ATOM      9  C   UNL A   1      40.433  26.266  26.519  1.00  0.00     0.010 A 
ATOM     10  C   UNL A   1      39.694  25.711  28.754  1.00  0.00     0.010 A 
ATOM     11  C   UNL A   1      40.258  26.634  27.864  1.00  0.00    -0.014 A 
BRANCH  11  12
ATOM     12  C   UNL A   1      40.714  27.962  28.353  1.00  0.00     0.031 A 
ATOM     13  C   UNL A   1      42.178  28.313  28.335  1.00  0.00     0.074 A 
ATOM     14  C   UNL A   1      39.818  28.847  28.827  1.00  0.00     0.049 A 
ATOM     15  N   UNL A   1      42.770  29.423  28.700  1.00  0.00    -0.248 NA
ATOM     16  C   UNL A   1      43.103  27.269  27.868  1.00  0.00     0.031 C 
ATOM     17  C   UNL A   1      38.376  28.618  28.939  1.00  0.00     0.029 A 
ATOM     18  N   UNL A   1      39.989  30.127  29.294  1.00  0.00    -0.354 N 
ATOM     19  C   UNL A   1      44.129  29.205  28.516  1.00  0.00     0.074 A 
ATOM     20  C   UNL A   1      44.280  27.837  28.074  1.00  0.00     0.031 C 
ATOM     21  C   UNL A   1      37.789  29.736  29.397  1.00  0.00     0.029 A 
ATOM     22  C   UNL A   1      38.813  30.747  29.641  1.00  0.00     0.049 A 
ATOM     23  H   UNL A   1      40.870  30.558  29.374  1.00  0.00     0.167 HD
ATOM     24  C   UNL A   1      45.160  30.072  28.668  1.00  0.00     0.037 A 
ATOM     25  C   UNL A   1      38.588  31.995  30.092  1.00  0.00     0.037 A 
ATOM     26  C   UNL A   1      45.010  31.439  29.092  1.00  0.00     0.049 A 
ATOM     27  C   UNL A   1      39.749  32.933  30.276  1.00  0.00     0.074 A 
ATOM     28  C   UNL A   1      45.982  32.414  29.225  1.00  0.00     0.029 A 
ATOM     29  N   UNL A   1      43.806  32.023  29.457  1.00  0.00    -0.354 N 
ATOM     30  N   UNL A   1      41.022  32.736  30.030  1.00  0.00    -0.248 NA
ATOM     31  C   UNL A   1      39.437  34.271  30.797  1.00  0.00     0.031 C 
ATOM     32  C   UNL A   1      45.372  33.576  29.716  1.00  0.00     0.029 A 
ATOM     33  C   UNL A   1      44.014  33.338  29.842  1.00  0.00     0.049 A 
ATOM     34  H   UNL A   1      42.932  31.570  29.444  1.00  0.00     0.167 HD
ATOM     35  C   UNL A   1      41.659  33.931  30.343  1.00  0.00     0.074 A 
ATOM     36  C   UNL A   1      40.627  34.851  30.774  1.00  0.00     0.031 C 
ATOM     37  C   UNL A   1      42.977  34.239  30.280  1.00  0.00     0.037 A 
BRANCH  24  38
ATOM     38  C   UNL A   1      46.538  29.550  28.375  1.00  0.00     0.057 A 
ATOM     39  C   UNL A   1      47.314  28.969  29.385  1.00  0.00     0.134 A 
ATOM     40  C   UNL A   1      47.094  29.610  27.089  1.00  0.00     0.134 A 
ATOM     41  F   UNL A   1      46.849  28.884  30.640  1.00  0.00    -0.206 F 
ATOM     42  C   UNL A   1      48.586  28.455  29.125  1.00  0.00     0.040 A 
ATOM     43  C   UNL A   1      48.351  29.072  26.809  1.00  0.00     0.040 A 
ATOM     44  F   UNL A   1      46.398  30.140  26.071  1.00  0.00    -0.206 F 
ATOM     45  C   UNL A   1      49.103  28.494  27.831  1.00  0.00     0.006 A 
ENDBRANCH  24  38
BRANCH  25  46
ATOM     46  C   UNL A   1      37.202  32.452  30.363  1.00  0.00     0.057 A 
ATOM     47  C   UNL A   1      36.591  32.254  31.606  1.00  0.00     0.134 A 
ATOM     48  C   UNL A   1      36.462  33.119  29.378  1.00  0.00     0.134 A 
ATOM     49  F   UNL A   1      37.245  31.619  32.588  1.00  0.00    -0.206 F 
ATOM     50  C   UNL A   1      35.292  32.699  31.860  1.00  0.00     0.040 A 
ATOM     51  C   UNL A   1      35.172  33.590  29.626  1.00  0.00     0.040 A 
ATOM     52  F   UNL A   1      37.002  33.357  28.173  1.00  0.00    -0.206 F 
ATOM     53  C   UNL A   1      34.582  33.376  30.870  1.00  0.00     0.006 A 
ENDBRANCH  25  46
BRANCH  37  54
ATOM     54  C   UNL A   1      43.366  35.636  30.668  1.00  0.00     0.057 A 
ATOM     55  C   UNL A   1      43.662  35.952  32.000  1.00  0.00     0.134 A 
ATOM     56  C   UNL A   1      43.452  36.668  29.725  1.00  0.00     0.134 A 
ATOM     57  F   UNL A   1      43.591  35.012  32.956  1.00  0.00    -0.206 F 
ATOM     58  C   UNL A   1      44.038  37.241  32.379  1.00  0.00     0.040 A 
ATOM     59  C   UNL A   1      43.855  37.956  30.087  1.00  0.00     0.040 A 
ATOM     60  F   UNL A   1      43.196  36.429  28.430  1.00  0.00    -0.206 F 
ATOM     61  C   UNL A   1      44.145  38.245  31.419  1.00  0.00     0.006 A 
ENDBRANCH  37  54
ENDBRANCH  11  12
ENDBRANCH   4   6
ENDBRANCH   1   2
BRANCH   1  62
ATOM     62  C   UNL A   1      35.271  22.869  25.869  1.00  0.00     0.023 C 
BRANCH  62  63
ATOM     63  C   UNL A   1      34.551  22.814  27.215  1.00  0.00     0.023 C 
BRANCH  63  64
ATOM     64  C   UNL A   1      33.524  21.697  27.368  1.00  0.00     0.116 C 
BRANCH  64  65
ATOM     65  N   UNL A   1      32.193  22.189  27.690  1.00  0.00    -0.352 N 
ATOM     66  C   UNL A   1      31.344  22.953  26.930  1.00  0.00     0.251 C 
ATOM     67  H   UNL A   1      31.855  21.940  28.579  1.00  0.00     0.163 HD
ATOM     68  O   UNL A   1      30.251  23.292  27.384  1.00  0.00    -0.269 OA
BRANCH  66  69
ATOM     69  C   UNL A   1      31.745  23.357  25.562  1.00  0.00     0.047 A 
ATOM     70  C   UNL A   1      31.688  22.366  24.574  1.00  0.00     0.014 A 
ATOM     71  C   UNL A   1      32.157  24.685  25.263  1.00  0.00    -0.004 A 
ATOM     72  C   UNL A   1      32.131  22.652  23.299  1.00  0.00     0.002 A 
ATOM     73  C   UNL A   1      32.597  24.997  23.949  1.00  0.00    -0.010 A 
ATOM     74  C   UNL A   1      32.146  25.715  26.222  1.00  0.00     0.026 A 
ATOM     75  C   UNL A   1      32.588  23.937  23.002  1.00  0.00     0.009 A 
ATOM     76  C   UNL A   1      33.017  26.342  23.626  1.00  0.00    -0.009 A 
ATOM     77  C   UNL A   1      32.524  27.021  25.908  1.00  0.00     0.026 A 
ATOM     78  C   UNL A   1      32.962  27.364  24.613  1.00  0.00    -0.004 A 
ATOM     79  C   UNL A   1      33.486  26.717  22.337  1.00  0.00     0.009 A 
ATOM     80  Br  UNL A   1      32.405  28.288  27.332  1.00  0.00    -0.050 Br
ATOM     81  C   UNL A   1      33.345  28.685  24.257  1.00  0.00     0.010 A 
ATOM     82  C   UNL A   1      33.863  28.022  22.016  1.00  0.00     0.001 A 
ATOM     83  C   UNL A   1      33.786  29.010  22.977  1.00  0.00     0.001 A 
ENDBRANCH  66  69
ENDBRANCH  64  65
ENDBRANCH  63  64
ENDBRANCH  62  63
ENDBRANCH   1  62
TORSDOF 11
ENDMDL
MODEL 3
REMARK VINA RESULT:      -9.7      4.949     10.134
REMARK SMILES O=C(NCCCCNC(=O)c1cccc2c1cc(Br)c1ccccc12)c1ccc(-c2c3nc(c(-c4c(F)cccc4F)c4ccc([nH]4)c(-c4c(F)cccc4F)c4nc(c(-c5c(F)cccc5F)c5ccc2[nH]5)C=C4)C=C3)cc1
REMARK SMILES IDX 4 1 3 2 1 3 2 4 26 6 27 7 79 8 28 9 78 10 29 11 30 12 31 13
REMARK SMILES IDX 72 14 32 15 77 16 71 17 73 18 33 19 76 20 70 21 69 22 34 24
REMARK SMILES IDX 60 25 43 26 59 27 44 28 47 29 58 30 74 31 45 32 46 33 57 35
REMARK SMILES IDX 75 36 48 37 35 38 36 39 41 40 37 41 38 42 40 43 42 44 39 45
REMARK SMILES IDX 61 46 62 47 67 48 63 49 64 50 66 51 68 52 65 53 49 54 50 55
REMARK SMILES IDX 55 56 51 57 52 58 54 59 56 60 53 61 5 62 6 63 7 64 8 65 9 66
REMARK SMILES IDX 10 68 11 69 12 70 16 71 13 72 15 73 17 74 14 75 25 76 18 77
REMARK SMILES IDX 20 78 24 79 19 80 21 81 23 82 22 83
REMARK H PARENT 3 5 73 23 47 34 8 67
REMARK Flexibility Score: inf
ROOT
ATOM      1  C   UNL A   1      36.706  23.494  25.960  1.00  0.00     0.116 C 
ENDROOT
BRANCH   1   2
ATOM      2  N   UNL A   1      37.812  22.557  26.051  1.00  0.00    -0.352 N 
ATOM      3  O   UNL A   1      39.933  21.857  26.316  1.00  0.00    -0.269 OA
ATOM      4  C   UNL A   1      39.115  22.767  26.429  1.00  0.00     0.251 C 
ATOM      5  H   UNL A   1      37.595  21.629  25.804  1.00  0.00     0.163 HD
BRANCH   4   6
ATOM      6  C   UNL A   1      39.552  24.084  26.949  1.00  0.00     0.039 A 
ATOM      7  C   UNL A   1      40.044  25.029  26.044  1.00  0.00     0.014 A 
ATOM      8  C   UNL A   1      39.517  24.381  28.313  1.00  0.00     0.014 A 
ATOM      9  C   UNL A   1      40.462  26.280  26.502  1.00  0.00     0.010 A 
ATOM     10  C   UNL A   1      39.850  25.660  28.758  1.00  0.00     0.010 A 
ATOM     11  C   UNL A   1      40.350  26.614  27.862  1.00  0.00    -0.014 A 
BRANCH  11  12
ATOM     12  C   UNL A   1      40.806  27.939  28.358  1.00  0.00     0.031 A 
ATOM     13  C   UNL A   1      42.270  28.293  28.337  1.00  0.00     0.074 A 
ATOM     14  C   UNL A   1      39.911  28.820  28.842  1.00  0.00     0.049 A 
ATOM     15  N   UNL A   1      42.861  29.401  28.706  1.00  0.00    -0.248 NA
ATOM     16  C   UNL A   1      43.194  27.253  27.859  1.00  0.00     0.031 C 
ATOM     17  C   UNL A   1      38.470  28.588  28.958  1.00  0.00     0.029 A 
ATOM     18  N   UNL A   1      40.082  30.097  29.316  1.00  0.00    -0.354 N 
ATOM     19  C   UNL A   1      44.220  29.186  28.515  1.00  0.00     0.074 A 
ATOM     20  C   UNL A   1      44.371  27.821  28.063  1.00  0.00     0.031 C 
ATOM     21  C   UNL A   1      37.883  29.702  29.425  1.00  0.00     0.029 A 
ATOM     22  C   UNL A   1      38.907  30.713  29.671  1.00  0.00     0.049 A 
ATOM     23  H   UNL A   1      40.962  30.529  29.395  1.00  0.00     0.167 HD
ATOM     24  C   UNL A   1      45.250  30.054  28.669  1.00  0.00     0.037 A 
ATOM     25  C   UNL A   1      38.682  31.958  30.132  1.00  0.00     0.037 A 
ATOM     26  C   UNL A   1      45.101  31.418  29.102  1.00  0.00     0.049 A 
ATOM     27  C   UNL A   1      39.842  32.896  30.317  1.00  0.00     0.074 A 
ATOM     28  C   UNL A   1      46.071  32.394  29.238  1.00  0.00     0.029 A 
ATOM     29  N   UNL A   1      43.897  31.997  29.476  1.00  0.00    -0.354 N 
ATOM     30  N   UNL A   1      41.114  32.703  30.065  1.00  0.00    -0.248 NA
ATOM     31  C   UNL A   1      39.530  34.230  30.848  1.00  0.00     0.031 C 
ATOM     32  C   UNL A   1      45.462  33.551  29.739  1.00  0.00     0.029 A 
ATOM     33  C   UNL A   1      44.104  33.310  29.868  1.00  0.00     0.049 A 
ATOM     34  H   UNL A   1      43.023  31.543  29.464  1.00  0.00     0.167 HD
ATOM     35  C   UNL A   1      41.750  33.896  30.383  1.00  0.00     0.074 A 
ATOM     36  C   UNL A   1      40.719  34.813  30.824  1.00  0.00     0.031 C 
ATOM     37  C   UNL A   1      43.068  34.207  30.317  1.00  0.00     0.037 A 
BRANCH  24  38
ATOM     38  C   UNL A   1      46.628  29.535  28.367  1.00  0.00     0.057 A 
ATOM     39  C   UNL A   1      47.411  28.954  29.371  1.00  0.00     0.134 A 
ATOM     40  C   UNL A   1      47.176  29.599  27.078  1.00  0.00     0.134 A 
ATOM     41  F   UNL A   1      46.953  28.866  30.628  1.00  0.00    -0.206 F 
ATOM     42  C   UNL A   1      48.683  28.444  29.102  1.00  0.00     0.040 A 
ATOM     43  C   UNL A   1      48.433  29.065  26.789  1.00  0.00     0.040 A 
ATOM     44  F   UNL A   1      46.473  30.130  26.065  1.00  0.00    -0.206 F 
ATOM     45  C   UNL A   1      49.192  28.487  27.805  1.00  0.00     0.006 A 
ENDBRANCH  24  38
BRANCH  25  46
ATOM     46  C   UNL A   1      37.296  32.411  30.411  1.00  0.00     0.057 A 
ATOM     47  C   UNL A   1      36.517  33.044  29.436  1.00  0.00     0.134 A 
ATOM     48  C   UNL A   1      36.713  32.201  31.667  1.00  0.00     0.134 A 
ATOM     49  F   UNL A   1      37.019  33.277  28.215  1.00  0.00    -0.206 F 
ATOM     50  C   UNL A   1      35.209  33.454  29.700  1.00  0.00     0.040 A 
ATOM     51  C   UNL A   1      35.399  32.585  31.938  1.00  0.00     0.040 A 
ATOM     52  F   UNL A   1      37.403  31.582  32.636  1.00  0.00    -0.206 F 
ATOM     53  C   UNL A   1      34.644  33.218  30.952  1.00  0.00     0.006 A 
ENDBRANCH  25  46
BRANCH  37  54
ATOM     54  C   UNL A   1      43.457  35.602  30.713  1.00  0.00     0.057 A 
ATOM     55  C   UNL A   1      43.500  36.629  29.761  1.00  0.00     0.134 A 
ATOM     56  C   UNL A   1      43.783  35.931  32.035  1.00  0.00     0.134 A 
ATOM     57  F   UNL A   1      43.207  36.381  28.476  1.00  0.00    -0.206 F 
ATOM     58  C   UNL A   1      43.846  37.935  30.112  1.00  0.00     0.040 A 
ATOM     59  C   UNL A   1      44.103  37.240  32.403  1.00  0.00     0.040 A 
ATOM     60  F   UNL A   1      43.747  34.997  32.997  1.00  0.00    -0.206 F 
ATOM     61  C   UNL A   1      44.139  38.245  31.438  1.00  0.00     0.006 A 
ENDBRANCH  37  54
ENDBRANCH  11  12
ENDBRANCH   4   6
ENDBRANCH   1   2
BRANCH   1  62
ATOM     62  C   UNL A   1      35.344  22.810  25.921  1.00  0.00     0.023 C 
BRANCH  62  63
ATOM     63  C   UNL A   1      34.539  22.863  27.218  1.00  0.00     0.023 C 
BRANCH  63  64
ATOM     64  C   UNL A   1      33.539  21.729  27.420  1.00  0.00     0.116 C 
BRANCH  64  65
ATOM     65  N   UNL A   1      32.197  22.201  27.719  1.00  0.00    -0.352 N 
ATOM     66  C   UNL A   1      31.347  22.948  26.943  1.00  0.00     0.251 C 
ATOM     67  H   UNL A   1      31.849  21.951  28.605  1.00  0.00     0.163 HD
ATOM     68  O   UNL A   1      30.242  23.272  27.380  1.00  0.00    -0.269 OA
BRANCH  66  69
ATOM     69  C   UNL A   1      31.762  23.352  25.580  1.00  0.00     0.047 A 
ATOM     70  C   UNL A   1      31.732  22.356  24.596  1.00  0.00     0.014 A 
ATOM     71  C   UNL A   1      32.159  24.685  25.281  1.00  0.00    -0.004 A 
ATOM     72  C   UNL A   1      32.190  22.643  23.325  1.00  0.00     0.002 A 
ATOM     73  C   UNL A   1      32.614  24.997  23.972  1.00  0.00    -0.010 A 
ATOM     74  C   UNL A   1      32.120  25.718  26.235  1.00  0.00     0.026 A 
ATOM     75  C   UNL A   1      32.633  23.933  23.030  1.00  0.00     0.009 A 
ATOM     76  C   UNL A   1      33.020  26.346  23.649  1.00  0.00    -0.009 A 
ATOM     77  C   UNL A   1      32.485  27.028  25.920  1.00  0.00     0.026 A 
ATOM     78  C   UNL A   1      32.936  27.372  24.631  1.00  0.00    -0.004 A 
ATOM     79  C   UNL A   1      33.501  26.722  22.365  1.00  0.00     0.009 A 
ATOM     80  Br  UNL A   1      32.327  28.299  27.338  1.00  0.00    -0.050 Br
ATOM     81  C   UNL A   1      33.306  28.697  24.274  1.00  0.00     0.010 A 
ATOM     82  C   UNL A   1      33.865  28.032  22.043  1.00  0.00     0.001 A 
ATOM     83  C   UNL A   1      33.760  29.023  22.999  1.00  0.00     0.001 A 
ENDBRANCH  66  69
ENDBRANCH  64  65
ENDBRANCH  63  64
ENDBRANCH  62  63
ENDBRANCH   1  62
TORSDOF 11
ENDMDL
