MODEL 1
REMARK VINA RESULT:     -11.3      0.000      0.000
REMARK SMILES C[C@@H](C#N)CN(C)C(=O)N1CCC(CC(=O)NCCCCNC(=O)c2ccc(-c3c4nc(c(-c5c(F)cccc5F)c5ccc([nH]5)c(-c5c(F)cccc5F)c5nc(c(-c6c(F)cccc6F)c6ccc3[nH]6)C=C5)C=C4)cc2)CC1
REMARK SMILES IDX 18 1 17 2 15 3 16 4 14 6 13 7 8 8 9 9 10 10 11 11 80 12
REMARK SMILES IDX 12 13 79 14 6 15 7 16 5 17 2 18 1 19 3 20 4 21 19 22 20 23
REMARK SMILES IDX 21 24 22 25 23 26 24 28 25 29 26 30 78 31 27 32 77 33 28 34
REMARK SMILES IDX 29 35 30 36 71 37 31 38 76 39 70 40 72 41 32 42 75 43 69 44
REMARK SMILES IDX 68 45 33 47 59 48 42 49 58 50 43 51 46 52 57 53 73 54 44 55
REMARK SMILES IDX 45 56 56 58 74 59 47 60 34 61 35 62 40 63 36 64 37 65 39 66
REMARK SMILES IDX 41 67 38 68 60 69 61 70 66 71 62 72 63 73 65 74 67 75 64 76
REMARK SMILES IDX 48 77 49 78 54 79 50 80 51 81 53 82 55 83 52 84
REMARK H PARENT 17 5 22 27 72 46 46 57
REMARK Flexibility Score: inf
ROOT
ATOM      1  C   UNL A   1      32.532  29.898  25.814  1.00  0.00     0.116 C 
ENDROOT
BRANCH   1   2
ATOM      2  N   UNL A   1      33.277  29.713  24.580  1.00  0.00    -0.356 N 
ATOM      3  C   UNL A   1      33.558  28.575  23.882  1.00  0.00     0.220 C 
ATOM      4  O   UNL A   1      34.295  28.660  22.899  1.00  0.00    -0.275 OA
ATOM      5  H   UNL A   1      33.635  30.541  24.184  1.00  0.00     0.163 HD
BRANCH   3   6
ATOM      6  C   UNL A   1      32.981  27.234  24.308  1.00  0.00     0.103 C 
BRANCH   6   7
ATOM      7  C   UNL A   1      33.919  26.037  24.050  1.00  0.00     0.002 C 
ATOM      8  C   UNL A   1      33.491  22.325  25.075  1.00  0.00     0.319 C 
ATOM      9  O   UNL A   1      32.590  22.749  25.793  1.00  0.00    -0.248 OA
ATOM     10  N   UNL A   1      34.367  23.170  24.416  1.00  0.00    -0.325 N 
ATOM     11  C   UNL A   1      35.135  24.097  25.217  1.00  0.00     0.121 C 
ATOM     12  C   UNL A   1      34.005  23.668  23.100  1.00  0.00     0.121 C 
ATOM     13  C   UNL A   1      34.421  25.430  25.363  1.00  0.00     0.026 C 
ATOM     14  C   UNL A   1      33.203  24.970  23.199  1.00  0.00     0.026 C 
BRANCH   8  15
ATOM     15  N   UNL A   1      33.779  20.974  24.927  1.00  0.00    -0.326 N 
ATOM     16  C   UNL A   1      35.136  20.458  25.018  1.00  0.00     0.148 C 
BRANCH  15  17
ATOM     17  C   UNL A   1      32.682  20.012  24.761  1.00  0.00     0.139 C 
BRANCH  17  18
ATOM     18  C   UNL A   1      33.169  18.572  24.511  1.00  0.00     0.109 C 
ATOM     19  C   UNL A   1      32.668  17.583  25.562  1.00  0.00     0.026 C 
BRANCH  18  20
ATOM     20  C   UNL A   1      32.710  18.107  23.139  1.00  0.00     0.067 C 
ATOM     21  N   UNL A   1      32.328  17.723  22.001  1.00  0.00    -0.198 NA
ENDBRANCH  18  20
ENDBRANCH  17  18
ENDBRANCH  15  17
ENDBRANCH   8  15
ENDBRANCH   6   7
ENDBRANCH   3   6
ENDBRANCH   1   2
BRANCH   1  22
ATOM     22  C   UNL A   1      31.202  30.613  25.562  1.00  0.00     0.023 C 
BRANCH  22  23
ATOM     23  C   UNL A   1      31.065  31.974  26.224  1.00  0.00     0.023 C 
BRANCH  23  24
ATOM     24  C   UNL A   1      32.350  32.494  26.838  1.00  0.00     0.116 C 
BRANCH  24  25
ATOM     25  N   UNL A   1      32.212  33.813  27.446  1.00  0.00    -0.352 N 
ATOM     26  C   UNL A   1      33.043  34.430  28.359  1.00  0.00     0.251 C 
ATOM     27  H   UNL A   1      31.422  34.331  27.169  1.00  0.00     0.163 HD
ATOM     28  O   UNL A   1      32.752  35.499  28.856  1.00  0.00    -0.269 OA
BRANCH  26  29
ATOM     29  C   UNL A   1      34.280  33.725  28.754  1.00  0.00     0.039 A 
ATOM     30  C   UNL A   1      35.510  34.359  28.568  1.00  0.00     0.014 A 
ATOM     31  C   UNL A   1      34.199  32.498  29.413  1.00  0.00     0.014 A 
ATOM     32  C   UNL A   1      36.657  33.802  29.136  1.00  0.00     0.010 A 
ATOM     33  C   UNL A   1      35.318  32.006  30.067  1.00  0.00     0.010 A 
ATOM     34  C   UNL A   1      36.558  32.650  29.934  1.00  0.00    -0.014 A 
BRANCH  34  35
ATOM     35  C   UNL A   1      37.732  32.072  30.629  1.00  0.00     0.031 A 
ATOM     36  C   UNL A   1      38.513  30.978  29.957  1.00  0.00     0.074 A 
ATOM     37  C   UNL A   1      38.027  32.443  31.890  1.00  0.00     0.049 A 
ATOM     38  N   UNL A   1      39.456  30.213  30.443  1.00  0.00    -0.248 NA
ATOM     39  C   UNL A   1      38.147  30.670  28.564  1.00  0.00     0.031 C 
ATOM     40  C   UNL A   1      37.306  33.449  32.674  1.00  0.00     0.029 A 
ATOM     41  N   UNL A   1      39.003  31.996  32.745  1.00  0.00    -0.354 N 
ATOM     42  C   UNL A   1      39.764  29.313  29.432  1.00  0.00     0.074 A 
ATOM     43  C   UNL A   1      38.870  29.587  28.329  1.00  0.00     0.031 C 
ATOM     44  C   UNL A   1      37.877  33.555  33.885  1.00  0.00     0.029 A 
ATOM     45  C   UNL A   1      38.976  32.600  33.978  1.00  0.00     0.049 A 
ATOM     46  H   UNL A   1      39.661  31.307  32.496  1.00  0.00     0.167 HD
ATOM     47  C   UNL A   1      40.725  28.361  29.411  1.00  0.00     0.037 A 
ATOM     48  C   UNL A   1      39.747  32.397  35.063  1.00  0.00     0.037 A 
ATOM     49  C   UNL A   1      41.649  28.131  30.487  1.00  0.00     0.049 A 
ATOM     50  C   UNL A   1      40.840  31.366  35.003  1.00  0.00     0.074 A 
ATOM     51  C   UNL A   1      42.706  27.242  30.542  1.00  0.00     0.029 A 
ATOM     52  N   UNL A   1      41.631  28.812  31.695  1.00  0.00    -0.354 N 
ATOM     53  N   UNL A   1      41.156  30.557  34.021  1.00  0.00    -0.248 NA
ATOM     54  C   UNL A   1      41.686  31.223  36.195  1.00  0.00     0.031 C 
ATOM     55  C   UNL A   1      43.316  27.369  31.795  1.00  0.00     0.029 A 
ATOM     56  C   UNL A   1      42.657  28.359  32.505  1.00  0.00     0.049 A 
ATOM     57  H   UNL A   1      40.984  29.513  31.940  1.00  0.00     0.167 HD
ATOM     58  C   UNL A   1      42.249  29.827  34.467  1.00  0.00     0.074 A 
ATOM     59  C   UNL A   1      42.548  30.296  35.804  1.00  0.00     0.031 C 
ATOM     60  C   UNL A   1      42.944  28.855  33.827  1.00  0.00     0.037 A 
BRANCH  47  61
ATOM     61  C   UNL A   1      40.827  27.519  28.176  1.00  0.00     0.057 A 
ATOM     62  C   UNL A   1      41.582  27.924  27.066  1.00  0.00     0.134 A 
ATOM     63  C   UNL A   1      40.160  26.290  28.089  1.00  0.00     0.134 A 
ATOM     64  F   UNL A   1      42.229  29.100  27.078  1.00  0.00    -0.206 F 
ATOM     65  C   UNL A   1      41.642  27.157  25.903  1.00  0.00     0.040 A 
ATOM     66  C   UNL A   1      40.237  25.500  26.940  1.00  0.00     0.040 A 
ATOM     67  F   UNL A   1      39.422  25.841  29.115  1.00  0.00    -0.206 F 
ATOM     68  C   UNL A   1      40.971  25.937  25.840  1.00  0.00     0.006 A 
ENDBRANCH  47  61
BRANCH  48  69
ATOM     69  C   UNL A   1      39.530  33.206  36.288  1.00  0.00     0.057 A 
ATOM     70  C   UNL A   1      38.666  32.765  37.297  1.00  0.00     0.134 A 
ATOM     71  C   UNL A   1      40.181  34.429  36.484  1.00  0.00     0.134 A 
ATOM     72  F   UNL A   1      38.000  31.609  37.156  1.00  0.00    -0.206 F 
ATOM     73  C   UNL A   1      38.444  33.517  38.451  1.00  0.00     0.040 A 
ATOM     74  C   UNL A   1      39.985  35.182  37.643  1.00  0.00     0.040 A 
ATOM     75  F   UNL A   1      41.029  34.902  35.559  1.00  0.00    -0.206 F 
ATOM     76  C   UNL A   1      39.110  34.729  38.628  1.00  0.00     0.006 A 
ENDBRANCH  48  69
BRANCH  60  77
ATOM     77  C   UNL A   1      44.113  28.259  34.547  1.00  0.00     0.057 A 
ATOM     78  C   UNL A   1      45.385  28.840  34.492  1.00  0.00     0.134 A 
ATOM     79  C   UNL A   1      43.947  27.130  35.360  1.00  0.00     0.134 A 
ATOM     80  F   UNL A   1      45.608  29.916  33.722  1.00  0.00    -0.206 F 
ATOM     81  C   UNL A   1      46.457  28.310  35.213  1.00  0.00     0.040 A 
ATOM     82  C   UNL A   1      45.005  26.604  36.100  1.00  0.00     0.040 A 
ATOM     83  F   UNL A   1      42.749  26.533  35.460  1.00  0.00    -0.206 F 
ATOM     84  C   UNL A   1      46.265  27.195  36.026  1.00  0.00     0.006 A 
ENDBRANCH  60  77
ENDBRANCH  34  35
ENDBRANCH  26  29
ENDBRANCH  24  25
ENDBRANCH  23  24
ENDBRANCH  22  23
ENDBRANCH   1  22
TORSDOF 16
ENDMDL
MODEL 2
REMARK VINA RESULT:     -11.1      0.497      6.313
REMARK SMILES C[C@@H](C#N)CN(C)C(=O)N1CCC(CC(=O)NCCCCNC(=O)c2ccc(-c3c4nc(c(-c5c(F)cccc5F)c5ccc([nH]5)c(-c5c(F)cccc5F)c5nc(c(-c6c(F)cccc6F)c6ccc3[nH]6)C=C5)C=C4)cc2)CC1
REMARK SMILES IDX 18 1 17 2 15 3 16 4 14 6 13 7 8 8 9 9 10 10 11 11 80 12
REMARK SMILES IDX 12 13 79 14 6 15 7 16 5 17 2 18 1 19 3 20 4 21 19 22 20 23
REMARK SMILES IDX 21 24 22 25 23 26 24 28 25 29 26 30 78 31 27 32 77 33 28 34
REMARK SMILES IDX 29 35 30 36 71 37 31 38 76 39 70 40 72 41 32 42 75 43 69 44
REMARK SMILES IDX 68 45 33 47 59 48 42 49 58 50 43 51 46 52 57 53 73 54 44 55
REMARK SMILES IDX 45 56 56 58 74 59 47 60 34 61 35 62 40 63 36 64 37 65 39 66
REMARK SMILES IDX 41 67 38 68 60 69 61 70 66 71 62 72 63 73 65 74 67 75 64 76
REMARK SMILES IDX 48 77 49 78 54 79 50 80 51 81 53 82 55 83 52 84
REMARK H PARENT 17 5 22 27 72 46 46 57
REMARK Flexibility Score: inf
ROOT
ATOM      1  C   UNL A   1      33.210  29.820  26.027  1.00  0.00     0.116 C 
ENDROOT
BRANCH   1   2
ATOM      2  N   UNL A   1      33.288  29.716  24.579  1.00  0.00    -0.356 N 
ATOM      3  C   UNL A   1      33.086  28.644  23.760  1.00  0.00     0.220 C 
ATOM      4  O   UNL A   1      33.303  28.781  22.556  1.00  0.00    -0.275 OA
ATOM      5  H   UNL A   1      33.525  30.552  24.116  1.00  0.00     0.163 HD
BRANCH   3   6
ATOM      6  C   UNL A   1      32.607  27.312  24.319  1.00  0.00     0.103 C 
BRANCH   6   7
ATOM      7  C   UNL A   1      33.630  26.167  24.172  1.00  0.00     0.002 C 
ATOM      8  C   UNL A   1      33.246  22.414  25.055  1.00  0.00     0.319 C 
ATOM      9  O   UNL A   1      32.234  22.778  25.646  1.00  0.00    -0.248 OA
ATOM     10  N   UNL A   1      34.164  23.316  24.542  1.00  0.00    -0.325 N 
ATOM     11  C   UNL A   1      34.765  24.255  25.461  1.00  0.00     0.121 C 
ATOM     12  C   UNL A   1      33.965  23.830  23.198  1.00  0.00     0.121 C 
ATOM     13  C   UNL A   1      33.973  25.550  25.531  1.00  0.00     0.026 C 
ATOM     14  C   UNL A   1      33.094  25.091  23.208  1.00  0.00     0.026 C 
BRANCH   8  15
ATOM     15  N   UNL A   1      33.618  21.082  24.922  1.00  0.00    -0.326 N 
ATOM     16  C   UNL A   1      35.013  20.669  24.880  1.00  0.00     0.148 C 
BRANCH  15  17
ATOM     17  C   UNL A   1      32.586  20.038  24.913  1.00  0.00     0.139 C 
BRANCH  17  18
ATOM     18  C   UNL A   1      33.148  18.632  24.631  1.00  0.00     0.109 C 
ATOM     19  C   UNL A   1      32.682  17.589  25.646  1.00  0.00     0.026 C 
BRANCH  18  20
ATOM     20  C   UNL A   1      32.731  18.184  23.239  1.00  0.00     0.067 C 
ATOM     21  N   UNL A   1      32.386  17.811  22.086  1.00  0.00    -0.198 NA
ENDBRANCH  18  20
ENDBRANCH  17  18
ENDBRANCH  15  17
ENDBRANCH   8  15
ENDBRANCH   6   7
ENDBRANCH   3   6
ENDBRANCH   1   2
BRANCH   1  22
ATOM     22  C   UNL A   1      31.815  30.263  26.480  1.00  0.00     0.023 C 
BRANCH  22  23
ATOM     23  C   UNL A   1      31.626  31.765  26.607  1.00  0.00     0.023 C 
BRANCH  23  24
ATOM     24  C   UNL A   1      32.778  32.478  27.287  1.00  0.00     0.116 C 
BRANCH  24  25
ATOM     25  N   UNL A   1      32.507  33.883  27.570  1.00  0.00    -0.352 N 
ATOM     26  C   UNL A   1      33.114  34.707  28.496  1.00  0.00     0.251 C 
ATOM     27  H   UNL A   1      31.797  34.299  27.029  1.00  0.00     0.163 HD
ATOM     28  O   UNL A   1      32.720  35.839  28.691  1.00  0.00    -0.269 OA
BRANCH  26  29
ATOM     29  C   UNL A   1      34.234  34.151  29.285  1.00  0.00     0.039 A 
ATOM     30  C   UNL A   1      33.952  33.331  30.378  1.00  0.00     0.014 A 
ATOM     31  C   UNL A   1      35.548  34.351  28.859  1.00  0.00     0.014 A 
ATOM     32  C   UNL A   1      34.992  32.627  30.988  1.00  0.00     0.010 A 
ATOM     33  C   UNL A   1      36.559  33.570  29.395  1.00  0.00     0.010 A 
ATOM     34  C   UNL A   1      36.293  32.701  30.465  1.00  0.00    -0.014 A 
BRANCH  34  35
ATOM     35  C   UNL A   1      37.412  31.906  31.024  1.00  0.00     0.031 A 
ATOM     36  C   UNL A   1      37.900  32.207  32.413  1.00  0.00     0.074 A 
ATOM     37  C   UNL A   1      38.054  31.003  30.258  1.00  0.00     0.049 A 
ATOM     38  N   UNL A   1      38.964  31.766  33.032  1.00  0.00    -0.248 NA
ATOM     39  C   UNL A   1      37.110  33.176  33.191  1.00  0.00     0.031 C 
ATOM     40  C   UNL A   1      37.715  30.665  28.873  1.00  0.00     0.029 A 
ATOM     41  N   UNL A   1      39.145  30.217  30.532  1.00  0.00    -0.354 N 
ATOM     42  C   UNL A   1      38.990  32.432  34.250  1.00  0.00     0.074 A 
ATOM     43  C   UNL A   1      37.871  33.349  34.259  1.00  0.00     0.031 C 
ATOM     44  C   UNL A   1      38.569  29.729  28.428  1.00  0.00     0.029 A 
ATOM     45  C   UNL A   1      39.536  29.429  29.478  1.00  0.00     0.049 A 
ATOM     46  H   UNL A   1      39.604  30.220  31.403  1.00  0.00     0.167 HD
ATOM     47  C   UNL A   1      39.851  32.274  35.282  1.00  0.00     0.037 A 
ATOM     48  C   UNL A   1      40.566  28.569  29.370  1.00  0.00     0.037 A 
ATOM     49  C   UNL A   1      40.926  31.321  35.291  1.00  0.00     0.049 A 
ATOM     50  C   UNL A   1      41.484  28.375  30.545  1.00  0.00     0.074 A 
ATOM     51  C   UNL A   1      41.812  31.030  36.311  1.00  0.00     0.029 A 
ATOM     52  N   UNL A   1      41.247  30.492  34.226  1.00  0.00    -0.354 N 
ATOM     53  N   UNL A   1      41.467  28.973  31.712  1.00  0.00    -0.248 NA
ATOM     54  C   UNL A   1      42.559  27.385  30.393  1.00  0.00     0.031 C 
ATOM     55  C   UNL A   1      42.687  30.037  35.855  1.00  0.00     0.029 A 
ATOM     56  C   UNL A   1      42.323  29.690  34.564  1.00  0.00     0.049 A 
ATOM     57  H   UNL A   1      40.780  30.477  33.360  1.00  0.00     0.167 HD
ATOM     58  C   UNL A   1      42.510  28.417  32.440  1.00  0.00     0.074 A 
ATOM     59  C   UNL A   1      43.134  27.426  31.587  1.00  0.00     0.031 C 
ATOM     60  C   UNL A   1      42.916  28.700  33.702  1.00  0.00     0.037 A 
BRANCH  47  61
ATOM     61  C   UNL A   1      39.643  33.144  36.485  1.00  0.00     0.057 A 
ATOM     62  C   UNL A   1      40.323  34.359  36.644  1.00  0.00     0.134 A 
ATOM     63  C   UNL A   1      38.757  32.762  37.501  1.00  0.00     0.134 A 
ATOM     64  F   UNL A   1      41.200  34.773  35.716  1.00  0.00    -0.206 F 
ATOM     65  C   UNL A   1      40.157  35.146  37.783  1.00  0.00     0.040 A 
ATOM     66  C   UNL A   1      38.561  33.555  38.632  1.00  0.00     0.040 A 
ATOM     67  F   UNL A   1      38.073  31.611  37.411  1.00  0.00    -0.206 F 
ATOM     68  C   UNL A   1      39.269  34.746  38.780  1.00  0.00     0.006 A 
ENDBRANCH  47  61
BRANCH  48  69
ATOM     69  C   UNL A   1      40.768  27.806  28.113  1.00  0.00     0.057 A 
ATOM     70  C   UNL A   1      41.547  28.327  27.074  1.00  0.00     0.134 A 
ATOM     71  C   UNL A   1      40.197  26.544  27.921  1.00  0.00     0.134 A 
ATOM     72  F   UNL A   1      42.105  29.542  27.193  1.00  0.00    -0.206 F 
ATOM     73  C   UNL A   1      41.739  27.628  25.882  1.00  0.00     0.040 A 
ATOM     74  C   UNL A   1      40.398  25.822  26.743  1.00  0.00     0.040 A 
ATOM     75  F   UNL A   1      39.448  25.985  28.884  1.00  0.00    -0.206 F 
ATOM     76  C   UNL A   1      41.166  26.368  25.717  1.00  0.00     0.006 A 
ENDBRANCH  48  69
BRANCH  60  77
ATOM     77  C   UNL A   1      44.063  27.909  34.248  1.00  0.00     0.057 A 
ATOM     78  C   UNL A   1      43.871  26.670  34.871  1.00  0.00     0.134 A 
ATOM     79  C   UNL A   1      45.379  28.361  34.088  1.00  0.00     0.134 A 
ATOM     80  F   UNL A   1      42.633  26.190  35.063  1.00  0.00    -0.206 F 
ATOM     81  C   UNL A   1      44.951  25.912  35.327  1.00  0.00     0.040 A 
ATOM     82  C   UNL A   1      46.466  27.604  34.521  1.00  0.00     0.040 A 
ATOM     83  F   UNL A   1      45.627  29.537  33.491  1.00  0.00    -0.206 F 
ATOM     84  C   UNL A   1      46.253  26.375  35.143  1.00  0.00     0.006 A 
ENDBRANCH  60  77
ENDBRANCH  34  35
ENDBRANCH  26  29
ENDBRANCH  24  25
ENDBRANCH  23  24
ENDBRANCH  22  23
ENDBRANCH   1  22
TORSDOF 16
ENDMDL
MODEL 3
REMARK VINA RESULT:     -10.8      5.897     10.264
REMARK SMILES C[C@@H](C#N)CN(C)C(=O)N1CCC(CC(=O)NCCCCNC(=O)c2ccc(-c3c4nc(c(-c5c(F)cccc5F)c5ccc([nH]5)c(-c5c(F)cccc5F)c5nc(c(-c6c(F)cccc6F)c6ccc3[nH]6)C=C5)C=C4)cc2)CC1
REMARK SMILES IDX 18 1 17 2 15 3 16 4 14 6 13 7 8 8 9 9 10 10 11 11 80 12
REMARK SMILES IDX 12 13 79 14 6 15 7 16 5 17 2 18 1 19 3 20 4 21 19 22 20 23
REMARK SMILES IDX 21 24 22 25 23 26 24 28 25 29 26 30 78 31 27 32 77 33 28 34
REMARK SMILES IDX 29 35 30 36 71 37 31 38 76 39 70 40 72 41 32 42 75 43 69 44
REMARK SMILES IDX 68 45 33 47 59 48 42 49 58 50 43 51 46 52 57 53 73 54 44 55
REMARK SMILES IDX 45 56 56 58 74 59 47 60 34 61 35 62 40 63 36 64 37 65 39 66
REMARK SMILES IDX 41 67 38 68 60 69 61 70 66 71 62 72 63 73 65 74 67 75 64 76
REMARK SMILES IDX 48 77 49 78 54 79 50 80 51 81 53 82 55 83 52 84
REMARK H PARENT 17 5 22 27 72 46 46 57
REMARK Flexibility Score: inf
ROOT
ATOM      1  C   UNL A   1      39.580  21.457  26.140  1.00  0.00     0.116 C 
ENDROOT
BRANCH   1   2
ATOM      2  N   UNL A   1      39.260  22.641  26.921  1.00  0.00    -0.356 N 
ATOM      3  C   UNL A   1      38.602  23.781  26.564  1.00  0.00     0.220 C 
ATOM      4  O   UNL A   1      38.533  24.696  27.386  1.00  0.00    -0.275 OA
ATOM      5  H   UNL A   1      39.568  22.615  27.856  1.00  0.00     0.163 HD
BRANCH   3   6
ATOM      6  C   UNL A   1      37.972  23.922  25.187  1.00  0.00     0.103 C 
BRANCH   6   7
ATOM      7  C   UNL A   1      36.458  23.632  25.158  1.00  0.00     0.002 C 
ATOM      8  C   UNL A   1      34.622  20.229  24.908  1.00  0.00     0.319 C 
ATOM      9  O   UNL A   1      35.728  19.787  24.611  1.00  0.00    -0.248 OA
ATOM     10  N   UNL A   1      34.372  21.588  25.002  1.00  0.00    -0.325 N 
ATOM     11  C   UNL A   1      34.632  22.399  23.834  1.00  0.00     0.121 C 
ATOM     12  C   UNL A   1      34.612  22.259  26.268  1.00  0.00     0.121 C 
ATOM     13  C   UNL A   1      36.046  22.956  23.847  1.00  0.00     0.026 C 
ATOM     14  C   UNL A   1      36.056  22.762  26.365  1.00  0.00     0.026 C 
BRANCH   8  15
ATOM     15  N   UNL A   1      33.501  19.428  25.086  1.00  0.00    -0.326 N 
ATOM     16  C   UNL A   1      32.154  19.910  24.814  1.00  0.00     0.148 C 
BRANCH  15  17
ATOM     17  C   UNL A   1      33.667  18.022  25.475  1.00  0.00     0.139 C 
BRANCH  17  18
ATOM     18  C   UNL A   1      33.146  17.033  24.416  1.00  0.00     0.109 C 
ATOM     19  C   UNL A   1      33.989  17.028  23.141  1.00  0.00     0.026 C 
BRANCH  18  20
ATOM     20  C   UNL A   1      33.122  15.628  24.996  1.00  0.00     0.067 C 
ATOM     21  N   UNL A   1      33.101  14.463  25.476  1.00  0.00    -0.198 NA
ENDBRANCH  18  20
ENDBRANCH  17  18
ENDBRANCH  15  17
ENDBRANCH   8  15
ENDBRANCH   6   7
ENDBRANCH   3   6
ENDBRANCH   1   2
BRANCH   1  22
ATOM     22  C   UNL A   1      41.087  21.184  26.133  1.00  0.00     0.023 C 
BRANCH  22  23
ATOM     23  C   UNL A   1      41.476  19.717  26.071  1.00  0.00     0.023 C 
BRANCH  23  24
ATOM     24  C   UNL A   1      42.945  19.454  26.337  1.00  0.00     0.116 C 
BRANCH  24  25
ATOM     25  N   UNL A   1      43.643  18.855  25.205  1.00  0.00    -0.352 N 
ATOM     26  C   UNL A   1      44.550  19.442  24.346  1.00  0.00     0.251 C 
ATOM     27  H   UNL A   1      43.442  17.907  25.031  1.00  0.00     0.163 HD
ATOM     28  O   UNL A   1      44.985  18.846  23.381  1.00  0.00    -0.269 OA
BRANCH  26  29
ATOM     29  C   UNL A   1      44.941  20.843  24.606  1.00  0.00     0.039 A 
ATOM     30  C   UNL A   1      44.573  21.831  23.691  1.00  0.00     0.014 A 
ATOM     31  C   UNL A   1      45.560  21.178  25.811  1.00  0.00     0.014 A 
ATOM     32  C   UNL A   1      44.740  23.174  24.033  1.00  0.00     0.010 A 
ATOM     33  C   UNL A   1      45.624  22.509  26.192  1.00  0.00     0.010 A 
ATOM     34  C   UNL A   1      45.216  23.521  25.308  1.00  0.00    -0.014 A 
BRANCH  34  35
ATOM     35  C   UNL A   1      45.329  24.931  25.748  1.00  0.00     0.031 A 
ATOM     36  C   UNL A   1      46.669  25.608  25.695  1.00  0.00     0.074 A 
ATOM     37  C   UNL A   1      44.269  25.560  26.293  1.00  0.00     0.049 A 
ATOM     38  N   UNL A   1      47.035  26.764  26.188  1.00  0.00    -0.248 NA
ATOM     39  C   UNL A   1      47.758  24.861  25.044  1.00  0.00     0.031 C 
ATOM     40  C   UNL A   1      42.931  24.988  26.458  1.00  0.00     0.029 A 
ATOM     41  N   UNL A   1      44.160  26.818  26.831  1.00  0.00    -0.354 N 
ATOM     42  C   UNL A   1      48.397  26.860  25.940  1.00  0.00     0.074 A 
ATOM     43  C   UNL A   1      48.806  25.624  25.308  1.00  0.00     0.031 C 
ATOM     44  C   UNL A   1      42.133  25.899  27.039  1.00  0.00     0.029 A 
ATOM     45  C   UNL A   1      42.909  27.101  27.322  1.00  0.00     0.049 A 
ATOM     46  H   UNL A   1      44.909  27.456  26.862  1.00  0.00     0.167 HD
ATOM     47  C   UNL A   1      49.231  27.896  26.190  1.00  0.00     0.037 A 
ATOM     48  C   UNL A   1      42.446  28.205  27.938  1.00  0.00     0.037 A 
ATOM     49  C   UNL A   1      48.810  29.144  26.764  1.00  0.00     0.049 A 
ATOM     50  C   UNL A   1      43.378  29.363  28.165  1.00  0.00     0.074 A 
ATOM     51  C   UNL A   1      49.557  30.284  26.994  1.00  0.00     0.029 A 
ATOM     52  N   UNL A   1      47.517  29.415  27.186  1.00  0.00    -0.354 N 
ATOM     53  N   UNL A   1      44.654  29.462  27.878  1.00  0.00    -0.248 NA
ATOM     54  C   UNL A   1      42.808  30.562  28.793  1.00  0.00     0.031 C 
ATOM     55  C   UNL A   1      48.719  31.241  27.577  1.00  0.00     0.029 A 
ATOM     56  C   UNL A   1      47.445  30.707  27.679  1.00  0.00     0.049 A 
ATOM     57  H   UNL A   1      46.763  28.785  27.141  1.00  0.00     0.167 HD
ATOM     58  C   UNL A   1      45.033  30.740  28.268  1.00  0.00     0.074 A 
ATOM     59  C   UNL A   1      43.850  31.382  28.803  1.00  0.00     0.031 C 
ATOM     60  C   UNL A   1      46.251  31.328  28.191  1.00  0.00     0.037 A 
BRANCH  47  61
ATOM     61  C   UNL A   1      50.673  27.718  25.821  1.00  0.00     0.057 A 
ATOM     62  C   UNL A   1      51.126  27.897  24.507  1.00  0.00     0.134 A 
ATOM     63  C   UNL A   1      51.621  27.359  26.788  1.00  0.00     0.134 A 
ATOM     64  F   UNL A   1      50.265  28.222  23.530  1.00  0.00    -0.206 F 
ATOM     65  C   UNL A   1      52.461  27.691  24.159  1.00  0.00     0.040 A 
ATOM     66  C   UNL A   1      52.965  27.178  26.457  1.00  0.00     0.040 A 
ATOM     67  F   UNL A   1      51.255  27.174  28.065  1.00  0.00    -0.206 F 
ATOM     68  C   UNL A   1      53.387  27.335  25.139  1.00  0.00     0.006 A 
ENDBRANCH  47  61
BRANCH  48  69
ATOM     69  C   UNL A   1      41.026  28.278  28.361  1.00  0.00     0.057 A 
ATOM     70  C   UNL A   1      40.043  28.768  27.493  1.00  0.00     0.134 A 
ATOM     71  C   UNL A   1      40.615  27.857  29.630  1.00  0.00     0.134 A 
ATOM     72  F   UNL A   1      40.379  29.203  26.269  1.00  0.00    -0.206 F 
ATOM     73  C   UNL A   1      38.704  28.852  27.877  1.00  0.00     0.040 A 
ATOM     74  C   UNL A   1      39.276  27.915  30.021  1.00  0.00     0.040 A 
ATOM     75  F   UNL A   1      41.507  27.369  30.504  1.00  0.00    -0.206 F 
ATOM     76  C   UNL A   1      38.317  28.419  29.144  1.00  0.00     0.006 A 
ENDBRANCH  48  69
BRANCH  60  77
ATOM     77  C   UNL A   1      46.360  32.745  28.662  1.00  0.00     0.057 A 
ATOM     78  C   UNL A   1      46.709  33.057  29.981  1.00  0.00     0.134 A 
ATOM     79  C   UNL A   1      46.179  33.807  27.767  1.00  0.00     0.134 A 
ATOM     80  F   UNL A   1      46.884  32.083  30.886  1.00  0.00    -0.206 F 
ATOM     81  C   UNL A   1      46.865  34.380  30.397  1.00  0.00     0.040 A 
ATOM     82  C   UNL A   1      46.351  35.132  28.166  1.00  0.00     0.040 A 
ATOM     83  F   UNL A   1      45.852  33.571  26.487  1.00  0.00    -0.206 F 
ATOM     84  C   UNL A   1      46.694  35.421  29.486  1.00  0.00     0.006 A 
ENDBRANCH  60  77
ENDBRANCH  34  35
ENDBRANCH  26  29
ENDBRANCH  24  25
ENDBRANCH  23  24
ENDBRANCH  22  23
ENDBRANCH   1  22
TORSDOF 16
ENDMDL
