MODEL 1
REMARK VINA RESULT:     -12.6      0.000      0.000
REMARK SMILES NC(=O)C[C@@H](C(=O)NCCCCNC(=O)c1ccc(-c2c3nc(c(-c4c(F)cccc4F)c4ccc([nH]4)c(-c4c(F)cccc4F)c4nc(c(-c5c(F)cccc5F)c5ccc2[nH]5)C=C4)C=C3)cc1)N1C(=O)/C(=C/c2ccccc2)SC1=S
REMARK SMILES IDX 10 1 9 2 8 3 6 4 7 5 5 7 4 8 2 9 1 10 3 13 70 14 71 15 82 16
REMARK SMILES IDX 72 17 73 18 81 19 83 20 74 21 75 22 76 23 80 24 77 25 79 26
REMARK SMILES IDX 78 27 11 28 12 29 13 30 14 31 15 33 16 34 17 35 69 36 18 37
REMARK SMILES IDX 68 38 19 39 20 40 21 41 62 42 22 43 67 44 61 45 63 46 23 47
REMARK SMILES IDX 66 48 60 49 59 50 24 52 50 53 33 54 49 55 34 56 37 57 48 58
REMARK SMILES IDX 64 59 35 60 36 61 47 63 65 64 38 65 25 66 26 67 31 68 27 69
REMARK SMILES IDX 28 70 30 71 32 72 29 73 51 74 52 75 57 76 53 77 54 78 56 79
REMARK SMILES IDX 58 80 55 81 39 82 40 83 45 84 41 85 42 86 44 87 46 88 43 89
REMARK H PARENT 8 6 1 11 1 12 13 32 63 51 37 62
REMARK Flexibility Score: inf
ROOT
ATOM      1  C   UNL A   1      31.767  30.550  26.685  1.00  0.00     0.023 C 
ENDROOT
BRANCH   1   2
ATOM      2  C   UNL A   1      31.559  30.046  25.257  1.00  0.00     0.116 C 
BRANCH   2   3
ATOM      3  N   UNL A   1      32.832  29.724  24.655  1.00  0.00    -0.354 N 
ATOM      4  C   UNL A   1      33.188  28.819  23.711  1.00  0.00     0.243 C 
ATOM      5  O   UNL A   1      34.359  28.931  23.323  1.00  0.00    -0.273 OA
ATOM      6  H   UNL A   1      33.583  30.262  24.995  1.00  0.00     0.163 HD
BRANCH   4   7
ATOM      7  C   UNL A   1      32.211  27.795  23.071  1.00  0.00     0.190 C 
BRANCH   7   8
ATOM      8  C   UNL A   1      30.689  27.959  23.085  1.00  0.00     0.135 C 
BRANCH   8   9
ATOM      9  C   UNL A   1      30.065  28.984  22.191  1.00  0.00     0.220 C 
ATOM     10  N   UNL A   1      30.946  29.858  21.628  1.00  0.00    -0.370 N 
ATOM     11  H   UNL A   1      30.620  30.566  21.025  1.00  0.00     0.159 HD
ATOM     12  H   UNL A   1      31.908  29.783  21.823  1.00  0.00     0.159 HD
ATOM     13  O   UNL A   1      28.860  29.075  21.998  1.00  0.00    -0.275 OA
ENDBRANCH   8   9
ENDBRANCH   7   8
BRANCH   7  14
ATOM     14  N   UNL A   1      32.532  26.467  23.689  1.00  0.00    -0.280 N 
ATOM     15  C   UNL A   1      33.369  25.602  23.002  1.00  0.00     0.266 C 
ATOM     16  C   UNL A   1      32.037  26.001  24.903  1.00  0.00     0.149 C 
ATOM     17  O   UNL A   1      33.950  25.842  21.953  1.00  0.00    -0.268 OA
ATOM     18  C   UNL A   1      33.402  24.276  23.675  1.00  0.00     0.081 C 
ATOM     19  S   UNL A   1      32.580  24.354  25.177  1.00  0.00    -0.054 SA
ATOM     20  S   UNL A   1      31.028  26.738  26.020  1.00  0.00    -0.052 S 
ATOM     21  C   UNL A   1      33.929  23.187  23.101  1.00  0.00     0.029 C 
BRANCH  21  22
ATOM     22  C   UNL A   1      33.812  21.832  23.654  1.00  0.00    -0.024 A 
ATOM     23  C   UNL A   1      34.826  21.299  24.452  1.00  0.00     0.008 A 
ATOM     24  C   UNL A   1      32.662  21.070  23.399  1.00  0.00     0.008 A 
ATOM     25  C   UNL A   1      34.685  20.022  25.001  1.00  0.00     0.001 A 
ATOM     26  C   UNL A   1      32.522  19.798  23.952  1.00  0.00     0.001 A 
ATOM     27  C   UNL A   1      33.533  19.274  24.754  1.00  0.00     0.000 A 
ENDBRANCH  21  22
ENDBRANCH   7  14
ENDBRANCH   4   7
ENDBRANCH   2   3
ENDBRANCH   1   2
BRANCH   1  28
ATOM     28  C   UNL A   1      31.520  32.041  26.876  1.00  0.00     0.023 C 
BRANCH  28  29
ATOM     29  C   UNL A   1      32.763  32.846  27.209  1.00  0.00     0.116 C 
BRANCH  29  30
ATOM     30  N   UNL A   1      32.460  34.207  27.627  1.00  0.00    -0.352 N 
ATOM     31  C   UNL A   1      33.019  34.951  28.638  1.00  0.00     0.251 C 
ATOM     32  H   UNL A   1      31.754  34.660  27.111  1.00  0.00     0.163 HD
ATOM     33  O   UNL A   1      32.527  36.025  28.968  1.00  0.00    -0.269 OA
BRANCH  31  34
ATOM     34  C   UNL A   1      34.202  34.426  29.349  1.00  0.00     0.039 A 
ATOM     35  C   UNL A   1      34.028  33.733  30.548  1.00  0.00     0.014 A 
ATOM     36  C   UNL A   1      35.474  34.571  28.795  1.00  0.00     0.014 A 
ATOM     37  C   UNL A   1      35.127  33.122  31.151  1.00  0.00     0.010 A 
ATOM     38  C   UNL A   1      36.538  33.856  29.324  1.00  0.00     0.010 A 
ATOM     39  C   UNL A   1      36.382  33.139  30.518  1.00  0.00    -0.014 A 
BRANCH  39  40
ATOM     40  C   UNL A   1      37.553  32.436  31.099  1.00  0.00     0.031 A 
ATOM     41  C   UNL A   1      38.141  32.907  32.401  1.00  0.00     0.074 A 
ATOM     42  C   UNL A   1      38.125  31.422  30.422  1.00  0.00     0.049 A 
ATOM     43  N   UNL A   1      39.183  32.455  33.051  1.00  0.00    -0.248 NA
ATOM     44  C   UNL A   1      37.499  34.069  33.039  1.00  0.00     0.031 C 
ATOM     45  C   UNL A   1      37.690  30.916  29.118  1.00  0.00     0.029 A 
ATOM     46  N   UNL A   1      39.199  30.629  30.741  1.00  0.00    -0.354 N 
ATOM     47  C   UNL A   1      39.332  33.291  34.152  1.00  0.00     0.074 A 
ATOM     48  C   UNL A   1      38.323  34.320  34.042  1.00  0.00     0.031 C 
ATOM     49  C   UNL A   1      38.453  29.867  28.775  1.00  0.00     0.029 A 
ATOM     50  C   UNL A   1      39.456  29.650  29.812  1.00  0.00     0.049 A 
ATOM     51  H   UNL A   1      39.735  30.752  31.558  1.00  0.00     0.167 HD
ATOM     52  C   UNL A   1      40.208  33.193  35.178  1.00  0.00     0.037 A 
ATOM     53  C   UNL A   1      40.390  28.682  29.806  1.00  0.00     0.037 A 
ATOM     54  C   UNL A   1      41.184  32.143  35.299  1.00  0.00     0.049 A 
ATOM     55  C   UNL A   1      41.347  28.585  30.963  1.00  0.00     0.074 A 
ATOM     56  C   UNL A   1      42.063  31.898  36.338  1.00  0.00     0.029 A 
ATOM     57  N   UNL A   1      41.409  31.164  34.341  1.00  0.00    -0.354 N 
ATOM     58  N   UNL A   1      41.419  29.327  32.042  1.00  0.00    -0.248 NA
ATOM     59  C   UNL A   1      42.349  27.514  30.900  1.00  0.00     0.031 C 
ATOM     60  C   UNL A   1      42.860  30.804  35.983  1.00  0.00     0.029 A 
ATOM     61  C   UNL A   1      42.436  30.332  34.750  1.00  0.00     0.049 A 
ATOM     62  H   UNL A   1      40.912  31.076  33.497  1.00  0.00     0.167 HD
ATOM     63  C   UNL A   1      42.452  28.793  32.803  1.00  0.00     0.074 A 
ATOM     64  C   UNL A   1      42.964  27.655  32.066  1.00  0.00     0.031 C 
ATOM     65  C   UNL A   1      42.933  29.203  34.002  1.00  0.00     0.037 A 
BRANCH  52  66
ATOM     66  C   UNL A   1      40.146  34.253  36.243  1.00  0.00     0.057 A 
ATOM     67  C   UNL A   1      39.365  34.106  37.398  1.00  0.00     0.134 A 
ATOM     68  C   UNL A   1      40.874  35.442  36.108  1.00  0.00     0.134 A 
ATOM     69  F   UNL A   1      38.630  32.999  37.586  1.00  0.00    -0.206 F 
ATOM     70  C   UNL A   1      39.278  35.117  38.357  1.00  0.00     0.040 A 
ATOM     71  C   UNL A   1      40.822  36.446  37.076  1.00  0.00     0.040 A 
ATOM     72  F   UNL A   1      41.647  35.650  35.031  1.00  0.00    -0.206 F 
ATOM     73  C   UNL A   1      40.012  36.290  38.200  1.00  0.00     0.006 A 
ENDBRANCH  52  66
BRANCH  53  74
ATOM     74  C   UNL A   1      40.432  27.692  28.700  1.00  0.00     0.057 A 
ATOM     75  C   UNL A   1      39.672  26.517  28.762  1.00  0.00     0.134 A 
ATOM     76  C   UNL A   1      41.224  27.887  27.562  1.00  0.00     0.134 A 
ATOM     77  F   UNL A   1      38.905  26.265  29.833  1.00  0.00    -0.206 F 
ATOM     78  C   UNL A   1      39.712  25.564  27.742  1.00  0.00     0.040 A 
ATOM     79  C   UNL A   1      41.254  26.954  26.524  1.00  0.00     0.040 A 
ATOM     80  F   UNL A   1      41.969  28.995  27.437  1.00  0.00    -0.206 F 
ATOM     81  C   UNL A   1      40.501  25.785  26.617  1.00  0.00     0.006 A 
ENDBRANCH  53  74
BRANCH  65  82
ATOM     82  C   UNL A   1      44.045  28.395  34.603  1.00  0.00     0.057 A 
ATOM     83  C   UNL A   1      45.392  28.724  34.407  1.00  0.00     0.134 A 
ATOM     84  C   UNL A   1      43.762  27.285  35.411  1.00  0.00     0.134 A 
ATOM     85  F   UNL A   1      45.732  29.767  33.634  1.00  0.00    -0.206 F 
ATOM     86  C   UNL A   1      46.418  27.958  34.963  1.00  0.00     0.040 A 
ATOM     87  C   UNL A   1      44.778  26.532  35.999  1.00  0.00     0.040 A 
ATOM     88  F   UNL A   1      42.493  26.922  35.650  1.00  0.00    -0.206 F 
ATOM     89  C   UNL A   1      46.111  26.861  35.767  1.00  0.00     0.006 A 
ENDBRANCH  65  82
ENDBRANCH  39  40
ENDBRANCH  31  34
ENDBRANCH  29  30
ENDBRANCH  28  29
ENDBRANCH   1  28
TORSDOF 15
ENDMDL
MODEL 2
REMARK VINA RESULT:     -12.6      0.581      6.214
REMARK SMILES NC(=O)C[C@@H](C(=O)NCCCCNC(=O)c1ccc(-c2c3nc(c(-c4c(F)cccc4F)c4ccc([nH]4)c(-c4c(F)cccc4F)c4nc(c(-c5c(F)cccc5F)c5ccc2[nH]5)C=C4)C=C3)cc1)N1C(=O)/C(=C/c2ccccc2)SC1=S
REMARK SMILES IDX 10 1 9 2 8 3 6 4 7 5 5 7 4 8 2 9 1 10 3 13 70 14 71 15 82 16
REMARK SMILES IDX 72 17 73 18 81 19 83 20 74 21 75 22 76 23 80 24 77 25 79 26
REMARK SMILES IDX 78 27 11 28 12 29 13 30 14 31 15 33 16 34 17 35 69 36 18 37
REMARK SMILES IDX 68 38 19 39 20 40 21 41 62 42 22 43 67 44 61 45 63 46 23 47
REMARK SMILES IDX 66 48 60 49 59 50 24 52 50 53 33 54 49 55 34 56 37 57 48 58
REMARK SMILES IDX 64 59 35 60 36 61 47 63 65 64 38 65 25 66 26 67 31 68 27 69
REMARK SMILES IDX 28 70 30 71 32 72 29 73 51 74 52 75 57 76 53 77 54 78 56 79
REMARK SMILES IDX 58 80 55 81 39 82 40 83 45 84 41 85 42 86 44 87 46 88 43 89
REMARK H PARENT 8 6 1 11 1 12 13 32 63 51 37 62
REMARK Flexibility Score: inf
ROOT
ATOM      1  C   UNL A   1      31.931  30.526  26.670  1.00  0.00     0.023 C 
ENDROOT
BRANCH   1   2
ATOM      2  C   UNL A   1      31.639  30.045  25.249  1.00  0.00     0.116 C 
BRANCH   2   3
ATOM      3  N   UNL A   1      32.874  29.726  24.570  1.00  0.00    -0.354 N 
ATOM      4  C   UNL A   1      33.168  28.844  23.584  1.00  0.00     0.243 C 
ATOM      5  O   UNL A   1      34.317  28.954  23.137  1.00  0.00    -0.273 OA
ATOM      6  H   UNL A   1      33.648  30.246  24.884  1.00  0.00     0.163 HD
BRANCH   4   7
ATOM      7  C   UNL A   1      32.145  27.849  22.969  1.00  0.00     0.190 C 
BRANCH   7   8
ATOM      8  C   UNL A   1      30.629  28.060  23.019  1.00  0.00     0.135 C 
BRANCH   8   9
ATOM      9  C   UNL A   1      30.016  29.101  22.136  1.00  0.00     0.220 C 
ATOM     10  N   UNL A   1      30.904  29.982  21.596  1.00  0.00    -0.370 N 
ATOM     11  H   UNL A   1      30.584  30.700  21.002  1.00  0.00     0.159 HD
ATOM     12  H   UNL A   1      31.863  29.902  21.799  1.00  0.00     0.159 HD
ATOM     13  O   UNL A   1      28.813  29.198  21.933  1.00  0.00    -0.275 OA
ENDBRANCH   8   9
ENDBRANCH   7   8
BRANCH   7  14
ATOM     14  N   UNL A   1      32.440  26.513  23.583  1.00  0.00    -0.280 N 
ATOM     15  C   UNL A   1      33.228  25.620  22.875  1.00  0.00     0.266 C 
ATOM     16  C   UNL A   1      31.963  26.066  24.812  1.00  0.00     0.149 C 
ATOM     17  O   UNL A   1      33.788  25.838  21.811  1.00  0.00    -0.268 OA
ATOM     18  C   UNL A   1      33.237  24.295  23.551  1.00  0.00     0.081 C 
ATOM     19  S   UNL A   1      32.461  24.403  25.076  1.00  0.00    -0.054 SA
ATOM     20  S   UNL A   1      31.011  26.838  25.954  1.00  0.00    -0.052 S 
ATOM     21  C   UNL A   1      33.712  23.188  22.967  1.00  0.00     0.029 C 
BRANCH  21  22
ATOM     22  C   UNL A   1      33.567  21.839  23.527  1.00  0.00    -0.024 A 
ATOM     23  C   UNL A   1      32.474  21.040  23.184  1.00  0.00     0.008 A 
ATOM     24  C   UNL A   1      34.543  21.335  24.398  1.00  0.00     0.008 A 
ATOM     25  C   UNL A   1      32.367  19.745  23.696  1.00  0.00     0.001 A 
ATOM     26  C   UNL A   1      34.437  20.039  24.904  1.00  0.00     0.001 A 
ATOM     27  C   UNL A   1      33.349  19.244  24.552  1.00  0.00     0.000 A 
ENDBRANCH  21  22
ENDBRANCH   7  14
ENDBRANCH   4   7
ENDBRANCH   2   3
ENDBRANCH   1   2
BRANCH   1  28
ATOM     28  C   UNL A   1      31.643  32.003  26.913  1.00  0.00     0.023 C 
BRANCH  28  29
ATOM     29  C   UNL A   1      32.858  32.820  27.317  1.00  0.00     0.116 C 
BRANCH  29  30
ATOM     30  N   UNL A   1      32.531  34.206  27.620  1.00  0.00    -0.352 N 
ATOM     31  C   UNL A   1      33.029  35.021  28.607  1.00  0.00     0.251 C 
ATOM     32  H   UNL A   1      31.856  34.618  27.033  1.00  0.00     0.163 HD
ATOM     33  O   UNL A   1      32.519  36.113  28.831  1.00  0.00    -0.269 OA
BRANCH  31  34
ATOM     34  C   UNL A   1      34.169  34.551  29.421  1.00  0.00     0.039 A 
ATOM     35  C   UNL A   1      33.924  33.927  30.645  1.00  0.00     0.014 A 
ATOM     36  C   UNL A   1      35.473  34.681  28.942  1.00  0.00     0.014 A 
ATOM     37  C   UNL A   1      34.988  33.364  31.350  1.00  0.00     0.010 A 
ATOM     38  C   UNL A   1      36.507  34.010  29.578  1.00  0.00     0.010 A 
ATOM     39  C   UNL A   1      36.281  33.360  30.799  1.00  0.00    -0.014 A 
BRANCH  39  40
ATOM     40  C   UNL A   1      37.417  32.706  31.492  1.00  0.00     0.031 A 
ATOM     41  C   UNL A   1      38.114  31.536  30.853  1.00  0.00     0.074 A 
ATOM     42  C   UNL A   1      37.777  33.122  32.723  1.00  0.00     0.049 A 
ATOM     43  N   UNL A   1      39.097  30.805  31.312  1.00  0.00    -0.248 NA
ATOM     44  C   UNL A   1      37.610  31.100  29.539  1.00  0.00     0.031 C 
ATOM     45  C   UNL A   1      37.136  34.201  33.477  1.00  0.00     0.029 A 
ATOM     46  N   UNL A   1      38.775  32.684  33.556  1.00  0.00    -0.354 N 
ATOM     47  C   UNL A   1      39.308  29.815  30.360  1.00  0.00     0.074 A 
ATOM     48  C   UNL A   1      38.304  29.992  29.335  1.00  0.00     0.031 C 
ATOM     49  C   UNL A   1      37.790  34.378  34.635  1.00  0.00     0.029 A 
ATOM     50  C   UNL A   1      38.868  33.400  34.726  1.00  0.00     0.049 A 
ATOM     51  H   UNL A   1      39.367  31.929  33.337  1.00  0.00     0.167 HD
ATOM     52  C   UNL A   1      40.270  28.864  30.323  1.00  0.00     0.037 A 
ATOM     53  C   UNL A   1      39.735  33.283  35.748  1.00  0.00     0.037 A 
ATOM     54  C   UNL A   1      41.289  28.719  31.328  1.00  0.00     0.049 A 
ATOM     55  C   UNL A   1      40.802  32.226  35.682  1.00  0.00     0.074 A 
ATOM     56  C   UNL A   1      42.362  27.847  31.349  1.00  0.00     0.029 A 
ATOM     57  N   UNL A   1      41.356  29.468  32.495  1.00  0.00    -0.354 N 
ATOM     58  N   UNL A   1      41.048  31.355  34.733  1.00  0.00    -0.248 NA
ATOM     59  C   UNL A   1      41.716  32.141  36.828  1.00  0.00     0.031 C 
ATOM     60  C   UNL A   1      43.046  28.029  32.556  1.00  0.00     0.029 A 
ATOM     61  C   UNL A   1      42.434  29.056  33.259  1.00  0.00     0.049 A 
ATOM     62  H   UNL A   1      40.729  30.185  32.742  1.00  0.00     0.167 HD
ATOM     63  C   UNL A   1      42.162  30.639  35.152  1.00  0.00     0.074 A 
ATOM     64  C   UNL A   1      42.552  31.191  36.433  1.00  0.00     0.031 C 
ATOM     65  C   UNL A   1      42.806  29.618  34.533  1.00  0.00     0.037 A 
BRANCH  52  66
ATOM     66  C   UNL A   1      40.255  27.911  29.161  1.00  0.00     0.057 A 
ATOM     67  C   UNL A   1      40.969  28.163  27.980  1.00  0.00     0.134 A 
ATOM     68  C   UNL A   1      39.511  26.726  29.220  1.00  0.00     0.134 A 
ATOM     69  F   UNL A   1      41.692  29.285  27.848  1.00  0.00    -0.206 F 
ATOM     70  C   UNL A   1      40.910  27.294  26.889  1.00  0.00     0.040 A 
ATOM     71  C   UNL A   1      39.471  25.832  28.149  1.00  0.00     0.040 A 
ATOM     72  F   UNL A   1      38.807  26.417  30.320  1.00  0.00    -0.206 F 
ATOM     73  C   UNL A   1      40.163  26.121  26.974  1.00  0.00     0.006 A 
ENDBRANCH  52  66
BRANCH  53  74
ATOM     74  C   UNL A   1      39.668  34.225  36.894  1.00  0.00     0.057 A 
ATOM     75  C   UNL A   1      40.298  35.475  36.832  1.00  0.00     0.134 A 
ATOM     76  C   UNL A   1      38.982  33.909  38.073  1.00  0.00     0.134 A 
ATOM     77  F   UNL A   1      40.985  35.829  35.735  1.00  0.00    -0.206 F 
ATOM     78  C   UNL A   1      40.264  36.367  37.904  1.00  0.00     0.040 A 
ATOM     79  C   UNL A   1      38.919  34.803  39.144  1.00  0.00     0.040 A 
ATOM     80  F   UNL A   1      38.350  32.732  38.194  1.00  0.00    -0.206 F 
ATOM     81  C   UNL A   1      39.568  36.033  39.063  1.00  0.00     0.006 A 
ENDBRANCH  53  74
BRANCH  65  82
ATOM     82  C   UNL A   1      44.018  29.061  35.221  1.00  0.00     0.057 A 
ATOM     83  C   UNL A   1      45.309  29.529  34.946  1.00  0.00     0.134 A 
ATOM     84  C   UNL A   1      43.887  28.057  36.191  1.00  0.00     0.134 A 
ATOM     85  F   UNL A   1      45.505  30.479  34.019  1.00  0.00    -0.206 F 
ATOM     86  C   UNL A   1      46.429  28.995  35.585  1.00  0.00     0.040 A 
ATOM     87  C   UNL A   1      44.996  27.539  36.860  1.00  0.00     0.040 A 
ATOM     88  F   UNL A   1      42.678  27.573  36.511  1.00  0.00    -0.206 F 
ATOM     89  C   UNL A   1      46.273  28.001  36.550  1.00  0.00     0.006 A 
ENDBRANCH  65  82
ENDBRANCH  39  40
ENDBRANCH  31  34
ENDBRANCH  29  30
ENDBRANCH  28  29
ENDBRANCH   1  28
TORSDOF 15
ENDMDL
MODEL 3
REMARK VINA RESULT:     -12.6      5.253     10.496
REMARK SMILES NC(=O)C[C@@H](C(=O)NCCCCNC(=O)c1ccc(-c2c3nc(c(-c4c(F)cccc4F)c4ccc([nH]4)c(-c4c(F)cccc4F)c4nc(c(-c5c(F)cccc5F)c5ccc2[nH]5)C=C4)C=C3)cc1)N1C(=O)/C(=C/c2ccccc2)SC1=S
REMARK SMILES IDX 10 1 9 2 8 3 6 4 7 5 5 7 4 8 2 9 1 10 3 13 70 14 71 15 82 16
REMARK SMILES IDX 72 17 73 18 81 19 83 20 74 21 75 22 76 23 80 24 77 25 79 26
REMARK SMILES IDX 78 27 11 28 12 29 13 30 14 31 15 33 16 34 17 35 69 36 18 37
REMARK SMILES IDX 68 38 19 39 20 40 21 41 62 42 22 43 67 44 61 45 63 46 23 47
REMARK SMILES IDX 66 48 60 49 59 50 24 52 50 53 33 54 49 55 34 56 37 57 48 58
REMARK SMILES IDX 64 59 35 60 36 61 47 63 65 64 38 65 25 66 26 67 31 68 27 69
REMARK SMILES IDX 28 70 30 71 32 72 29 73 51 74 52 75 57 76 53 77 54 78 56 79
REMARK SMILES IDX 58 80 55 81 39 82 40 83 45 84 41 85 42 86 44 87 46 88 43 89
REMARK H PARENT 8 6 1 11 1 12 13 32 63 51 37 62
REMARK Flexibility Score: inf
ROOT
ATOM      1  C   UNL A   1      37.338  20.911  24.824  1.00  0.00     0.023 C 
ENDROOT
BRANCH   1   2
ATOM      2  C   UNL A   1      35.892  20.606  25.217  1.00  0.00     0.116 C 
BRANCH   2   3
ATOM      3  N   UNL A   1      35.529  21.360  26.395  1.00  0.00    -0.354 N 
ATOM      4  C   UNL A   1      34.345  21.853  26.829  1.00  0.00     0.243 C 
ATOM      5  O   UNL A   1      34.383  22.320  27.975  1.00  0.00    -0.273 OA
ATOM      6  H   UNL A   1      36.286  21.554  26.994  1.00  0.00     0.163 HD
BRANCH   4   7
ATOM      7  C   UNL A   1      33.013  21.755  26.034  1.00  0.00     0.190 C 
BRANCH   7   8
ATOM      8  C   UNL A   1      32.769  20.731  24.921  1.00  0.00     0.135 C 
BRANCH   8   9
ATOM      9  C   UNL A   1      32.528  19.302  25.296  1.00  0.00     0.220 C 
ATOM     10  N   UNL A   1      32.914  18.974  26.562  1.00  0.00    -0.370 N 
ATOM     11  H   UNL A   1      32.791  18.054  26.890  1.00  0.00     0.159 HD
ATOM     12  H   UNL A   1      33.317  19.656  27.146  1.00  0.00     0.159 HD
ATOM     13  O   UNL A   1      32.060  18.468  24.533  1.00  0.00    -0.275 OA
ENDBRANCH   8   9
ENDBRANCH   7   8
BRANCH   7  14
ATOM     14  N   UNL A   1      32.768  23.118  25.460  1.00  0.00    -0.280 N 
ATOM     15  C   UNL A   1      31.897  23.968  26.123  1.00  0.00     0.266 C 
ATOM     16  C   UNL A   1      33.324  23.611  24.283  1.00  0.00     0.149 C 
ATOM     17  O   UNL A   1      31.352  23.749  27.195  1.00  0.00    -0.268 OA
ATOM     18  C   UNL A   1      31.633  25.178  25.299  1.00  0.00     0.081 C 
ATOM     19  S   UNL A   1      32.668  25.202  23.933  1.00  0.00    -0.054 SA
ATOM     20  S   UNL A   1      34.414  22.912  23.220  1.00  0.00    -0.052 S 
ATOM     21  C   UNL A   1      30.651  26.044  25.580  1.00  0.00     0.029 C 
BRANCH  21  22
ATOM     22  C   UNL A   1      30.245  27.139  24.691  1.00  0.00    -0.024 A 
ATOM     23  C   UNL A   1      29.157  26.989  23.827  1.00  0.00     0.008 A 
ATOM     24  C   UNL A   1      30.939  28.357  24.720  1.00  0.00     0.008 A 
ATOM     25  C   UNL A   1      28.760  28.052  23.013  1.00  0.00     0.001 A 
ATOM     26  C   UNL A   1      30.538  29.419  23.910  1.00  0.00     0.001 A 
ATOM     27  C   UNL A   1      29.447  29.266  23.056  1.00  0.00     0.000 A 
ENDBRANCH  21  22
ENDBRANCH   7  14
ENDBRANCH   4   7
ENDBRANCH   2   3
ENDBRANCH   1   2
BRANCH   1  28
ATOM     28  C   UNL A   1      38.301  19.741  24.985  1.00  0.00     0.023 C 
BRANCH  28  29
ATOM     29  C   UNL A   1      39.400  19.970  26.008  1.00  0.00     0.116 C 
BRANCH  29  30
ATOM     30  N   UNL A   1      40.445  18.958  25.949  1.00  0.00    -0.352 N 
ATOM     31  C   UNL A   1      41.807  19.109  26.044  1.00  0.00     0.251 C 
ATOM     32  H   UNL A   1      40.131  18.033  25.823  1.00  0.00     0.163 HD
ATOM     33  O   UNL A   1      42.558  18.170  25.801  1.00  0.00    -0.269 OA
BRANCH  31  34
ATOM     34  C   UNL A   1      42.361  20.429  26.410  1.00  0.00     0.039 A 
ATOM     35  C   UNL A   1      42.846  21.269  25.407  1.00  0.00     0.014 A 
ATOM     36  C   UNL A   1      42.347  20.851  27.740  1.00  0.00     0.014 A 
ATOM     37  C   UNL A   1      43.244  22.565  25.734  1.00  0.00     0.010 A 
ATOM     38  C   UNL A   1      42.619  22.176  28.041  1.00  0.00     0.010 A 
ATOM     39  C   UNL A   1      43.090  23.044  27.046  1.00  0.00    -0.014 A 
BRANCH  39  40
ATOM     40  C   UNL A   1      43.437  24.440  27.408  1.00  0.00     0.031 A 
ATOM     41  C   UNL A   1      44.869  24.898  27.343  1.00  0.00     0.074 A 
ATOM     42  C   UNL A   1      42.477  25.272  27.859  1.00  0.00     0.049 A 
ATOM     43  N   UNL A   1      45.382  26.061  27.655  1.00  0.00    -0.248 NA
ATOM     44  C   UNL A   1      45.865  23.904  26.910  1.00  0.00     0.031 C 
ATOM     45  C   UNL A   1      41.065  24.926  28.032  1.00  0.00     0.029 A 
ATOM     46  N   UNL A   1      42.546  26.584  28.252  1.00  0.00    -0.354 N 
ATOM     47  C   UNL A   1      46.753  25.927  27.481  1.00  0.00     0.074 A 
ATOM     48  C   UNL A   1      47.001  24.553  27.110  1.00  0.00     0.031 C 
ATOM     49  C   UNL A   1      40.392  26.012  28.442  1.00  0.00     0.029 A 
ATOM     50  C   UNL A   1      41.329  27.118  28.602  1.00  0.00     0.049 A 
ATOM     51  H   UNL A   1      43.388  27.095  28.281  1.00  0.00     0.167 HD
ATOM     52  C   UNL A   1      47.719  26.870  27.589  1.00  0.00     0.037 A 
ATOM     53  C   UNL A   1      41.009  28.364  28.997  1.00  0.00     0.037 A 
ATOM     54  C   UNL A   1      47.459  28.245  27.921  1.00  0.00     0.049 A 
ATOM     55  C   UNL A   1      42.095  29.398  29.099  1.00  0.00     0.074 A 
ATOM     56  C   UNL A   1      48.348  29.302  27.974  1.00  0.00     0.029 A 
ATOM     57  N   UNL A   1      46.212  28.750  28.262  1.00  0.00    -0.354 N 
ATOM     58  N   UNL A   1      43.376  29.282  28.844  1.00  0.00    -0.248 NA
ATOM     59  C   UNL A   1      41.688  30.739  29.541  1.00  0.00     0.031 C 
ATOM     60  C   UNL A   1      47.650  30.437  28.402  1.00  0.00     0.029 A 
ATOM     61  C   UNL A   1      46.314  30.099  28.558  1.00  0.00     0.049 A 
ATOM     62  H   UNL A   1      45.379  28.227  28.289  1.00  0.00     0.167 HD
ATOM     63  C   UNL A   1      43.924  30.540  29.062  1.00  0.00     0.074 A 
ATOM     64  C   UNL A   1      42.831  31.406  29.455  1.00  0.00     0.031 C 
ATOM     65  C   UNL A   1      45.213  30.944  28.948  1.00  0.00     0.037 A 
BRANCH  52  66
ATOM     66  C   UNL A   1      49.138  26.436  27.347  1.00  0.00     0.057 A 
ATOM     67  C   UNL A   1      49.693  26.384  26.060  1.00  0.00     0.134 A 
ATOM     68  C   UNL A   1      49.960  26.060  28.416  1.00  0.00     0.134 A 
ATOM     69  F   UNL A   1      48.958  26.717  24.988  1.00  0.00    -0.206 F 
ATOM     70  C   UNL A   1      50.997  25.934  25.843  1.00  0.00     0.040 A 
ATOM     71  C   UNL A   1      51.276  25.641  28.215  1.00  0.00     0.040 A 
ATOM     72  F   UNL A   1      49.497  26.089  29.675  1.00  0.00    -0.206 F 
ATOM     73  C   UNL A   1      51.794  25.566  26.923  1.00  0.00     0.006 A 
ENDBRANCH  52  66
BRANCH  53  74
ATOM     74  C   UNL A   1      39.592  28.719  29.270  1.00  0.00     0.057 A 
ATOM     75  C   UNL A   1      39.039  28.531  30.542  1.00  0.00     0.134 A 
ATOM     76  C   UNL A   1      38.759  29.250  28.278  1.00  0.00     0.134 A 
ATOM     77  F   UNL A   1      39.782  28.010  31.531  1.00  0.00    -0.206 F 
ATOM     78  C   UNL A   1      37.705  28.840  30.815  1.00  0.00     0.040 A 
ATOM     79  C   UNL A   1      37.430  29.588  28.543  1.00  0.00     0.040 A 
ATOM     80  F   UNL A   1      39.231  29.464  27.040  1.00  0.00    -0.206 F 
ATOM     81  C   UNL A   1      36.899  29.375  29.813  1.00  0.00     0.006 A 
ENDBRANCH  53  74
BRANCH  65  82
ATOM     82  C   UNL A   1      45.500  32.393  29.217  1.00  0.00     0.057 A 
ATOM     83  C   UNL A   1      45.876  32.852  30.486  1.00  0.00     0.134 A 
ATOM     84  C   UNL A   1      45.422  33.338  28.185  1.00  0.00     0.134 A 
ATOM     85  F   UNL A   1      45.957  32.001  31.521  1.00  0.00    -0.206 F 
ATOM     86  C   UNL A   1      46.130  34.203  30.726  1.00  0.00     0.040 A 
ATOM     87  C   UNL A   1      45.705  34.685  28.405  1.00  0.00     0.040 A 
ATOM     88  F   UNL A   1      45.080  32.963  26.943  1.00  0.00    -0.206 F 
ATOM     89  C   UNL A   1      46.050  35.123  29.682  1.00  0.00     0.006 A 
ENDBRANCH  65  82
ENDBRANCH  39  40
ENDBRANCH  31  34
ENDBRANCH  29  30
ENDBRANCH  28  29
ENDBRANCH   1  28
TORSDOF 15
ENDMDL
