MODEL 1
REMARK VINA RESULT:     -11.2      0.000      0.000
REMARK SMILES C[C@H](/N=C(\Cc1ccccc1)C(=O)OC(C)(C)C)C(=O)NCCCCNC(=O)c1ccc(-c2c3nc(c(-c4c(F)cccc4F)c4ccc([nH]4)c(-c4c(F)cccc4F)c4nc(c(-c5c(F)cccc5F)c5ccc2[nH]5)C=C4)C=C3)cc1
REMARK SMILES IDX 22 1 21 2 19 3 20 4 2 6 1 7 3 8 4 9 5 10 6 11 7 12 11 13
REMARK SMILES IDX 8 14 10 15 9 16 12 17 13 18 14 19 15 20 16 21 17 22 18 23
REMARK SMILES IDX 23 24 24 25 25 26 26 27 27 28 28 30 29 31 30 32 82 33 31 34
REMARK SMILES IDX 81 35 32 36 33 37 34 38 75 39 35 40 80 41 74 42 76 43 36 44
REMARK SMILES IDX 79 45 73 46 72 47 37 49 63 50 46 51 62 52 47 53 50 54 61 55
REMARK SMILES IDX 77 56 48 57 49 58 60 60 78 61 51 62 38 63 39 64 44 65 40 66
REMARK SMILES IDX 41 67 43 68 45 69 42 70 64 71 65 72 70 73 66 74 67 75 69 76
REMARK SMILES IDX 71 77 68 78 52 79 53 80 58 81 54 82 55 83 57 84 59 85 56 86
REMARK H PARENT 21 5 26 29 76 48 50 59
REMARK Flexibility Score: inf
ROOT
ATOM      1  C   UNL A   1      36.320  21.595  25.774  1.00  0.00     0.116 C 
ENDROOT
BRANCH   1   2
ATOM      2  N   UNL A   1      35.181  20.718  25.854  1.00  0.00    -0.354 N 
ATOM      3  C   UNL A   1      33.872  21.018  26.091  1.00  0.00     0.244 C 
ATOM      4  O   UNL A   1      33.073  20.074  26.071  1.00  0.00    -0.273 OA
ATOM      5  H   UNL A   1      35.376  19.762  25.717  1.00  0.00     0.163 HD
BRANCH   3   6
ATOM      6  C   UNL A   1      33.380  22.465  26.286  1.00  0.00     0.191 C 
ATOM      7  C   UNL A   1      32.189  22.556  27.219  1.00  0.00     0.044 C 
BRANCH   6   8
ATOM      8  N   UNL A   1      33.332  23.203  25.024  1.00  0.00    -0.269 NA
ATOM      9  C   UNL A   1      33.742  24.343  24.609  1.00  0.00     0.125 C 
BRANCH   9  10
ATOM     10  C   UNL A   1      34.373  25.456  25.410  1.00  0.00     0.099 C 
BRANCH  10  11
ATOM     11  C   UNL A   1      33.460  26.553  25.890  1.00  0.00    -0.042 A 
ATOM     12  C   UNL A   1      32.145  26.239  26.271  1.00  0.00     0.004 A 
ATOM     13  C   UNL A   1      33.928  27.858  26.079  1.00  0.00     0.004 A 
ATOM     14  C   UNL A   1      31.315  27.209  26.827  1.00  0.00     0.000 A 
ATOM     15  C   UNL A   1      33.098  28.827  26.645  1.00  0.00     0.000 A 
ATOM     16  C   UNL A   1      31.794  28.502  27.020  1.00  0.00     0.000 A 
ENDBRANCH  10  11
ENDBRANCH   9  10
BRANCH   9  17
ATOM     17  C   UNL A   1      33.483  24.638  23.112  1.00  0.00     0.353 C 
ATOM     18  O   UNL A   1      34.232  24.247  22.233  1.00  0.00    -0.245 OA
BRANCH  17  19
ATOM     19  O   UNL A   1      32.340  25.331  22.951  1.00  0.00    -0.455 OA
BRANCH  19  20
ATOM     20  C   UNL A   1      32.294  26.487  22.076  1.00  0.00     0.104 C 
ATOM     21  C   UNL A   1      33.495  27.420  22.284  1.00  0.00     0.056 C 
ATOM     22  C   UNL A   1      32.157  26.050  20.615  1.00  0.00     0.056 C 
ATOM     23  C   UNL A   1      31.023  27.243  22.490  1.00  0.00     0.056 C 
ENDBRANCH  19  20
ENDBRANCH  17  19
ENDBRANCH   9  17
ENDBRANCH   6   8
ENDBRANCH   3   6
ENDBRANCH   1   2
BRANCH   1  24
ATOM     24  C   UNL A   1      37.283  21.192  24.660  1.00  0.00     0.023 C 
BRANCH  24  25
ATOM     25  C   UNL A   1      38.101  19.944  24.982  1.00  0.00     0.023 C 
BRANCH  25  26
ATOM     26  C   UNL A   1      39.380  20.204  25.773  1.00  0.00     0.116 C 
BRANCH  26  27
ATOM     27  N   UNL A   1      40.297  19.073  25.803  1.00  0.00    -0.352 N 
ATOM     28  C   UNL A   1      41.645  19.092  26.079  1.00  0.00     0.251 C 
ATOM     29  H   UNL A   1      39.906  18.192  25.602  1.00  0.00     0.163 HD
ATOM     30  O   UNL A   1      42.323  18.076  25.985  1.00  0.00    -0.269 OA
BRANCH  28  31
ATOM     31  C   UNL A   1      42.268  20.380  26.443  1.00  0.00     0.039 A 
ATOM     32  C   UNL A   1      42.795  21.187  25.435  1.00  0.00     0.014 A 
ATOM     33  C   UNL A   1      42.229  20.826  27.767  1.00  0.00     0.014 A 
ATOM     34  C   UNL A   1      43.210  22.483  25.742  1.00  0.00     0.010 A 
ATOM     35  C   UNL A   1      42.567  22.143  28.054  1.00  0.00     0.010 A 
ATOM     36  C   UNL A   1      43.056  22.986  27.044  1.00  0.00    -0.014 A 
BRANCH  36  37
ATOM     37  C   UNL A   1      43.392  24.395  27.373  1.00  0.00     0.031 A 
ATOM     38  C   UNL A   1      44.826  24.846  27.364  1.00  0.00     0.074 A 
ATOM     39  C   UNL A   1      42.418  25.245  27.751  1.00  0.00     0.049 A 
ATOM     40  N   UNL A   1      45.329  26.008  27.693  1.00  0.00    -0.248 NA
ATOM     41  C   UNL A   1      45.830  23.848  26.962  1.00  0.00     0.031 C 
ATOM     42  C   UNL A   1      40.996  24.914  27.859  1.00  0.00     0.029 A 
ATOM     43  N   UNL A   1      42.480  26.564  28.128  1.00  0.00    -0.354 N 
ATOM     44  C   UNL A   1      46.704  25.875  27.552  1.00  0.00     0.074 A 
ATOM     45  C   UNL A   1      46.961  24.505  27.169  1.00  0.00     0.031 C 
ATOM     46  C   UNL A   1      40.318  26.004  28.251  1.00  0.00     0.029 A 
ATOM     47  C   UNL A   1      41.259  27.101  28.457  1.00  0.00     0.049 A 
ATOM     48  H   UNL A   1      43.320  27.076  28.160  1.00  0.00     0.167 HD
ATOM     49  C   UNL A   1      47.666  26.818  27.700  1.00  0.00     0.037 A 
ATOM     50  C   UNL A   1      40.936  28.338  28.882  1.00  0.00     0.037 A 
ATOM     51  C   UNL A   1      47.406  28.187  28.057  1.00  0.00     0.049 A 
ATOM     52  C   UNL A   1      42.019  29.368  29.036  1.00  0.00     0.074 A 
ATOM     53  C   UNL A   1      48.304  29.232  28.174  1.00  0.00     0.029 A 
ATOM     54  N   UNL A   1      46.153  28.700  28.355  1.00  0.00    -0.354 N 
ATOM     55  N   UNL A   1      43.309  29.249  28.829  1.00  0.00    -0.248 NA
ATOM     56  C   UNL A   1      41.603  30.708  29.475  1.00  0.00     0.031 C 
ATOM     57  C   UNL A   1      47.600  30.370  28.583  1.00  0.00     0.029 A 
ATOM     58  C   UNL A   1      46.256  30.044  28.674  1.00  0.00     0.049 A 
ATOM     59  H   UNL A   1      45.313  28.186  28.342  1.00  0.00     0.167 HD
ATOM     60  C   UNL A   1      43.854  30.500  29.086  1.00  0.00     0.074 A 
ATOM     61  C   UNL A   1      42.752  31.368  29.450  1.00  0.00     0.031 C 
ATOM     62  C   UNL A   1      45.148  30.895  29.027  1.00  0.00     0.037 A 
BRANCH  49  63
ATOM     63  C   UNL A   1      49.086  26.394  27.465  1.00  0.00     0.057 A 
ATOM     64  C   UNL A   1      49.665  26.430  26.188  1.00  0.00     0.134 A 
ATOM     65  C   UNL A   1      49.891  25.962  28.525  1.00  0.00     0.134 A 
ATOM     66  F   UNL A   1      48.944  26.819  25.126  1.00  0.00    -0.206 F 
ATOM     67  C   UNL A   1      50.982  26.024  25.972  1.00  0.00     0.040 A 
ATOM     68  C   UNL A   1      51.219  25.582  28.326  1.00  0.00     0.040 A 
ATOM     69  F   UNL A   1      49.402  25.908  29.775  1.00  0.00    -0.206 F 
ATOM     70  C   UNL A   1      51.766  25.604  27.045  1.00  0.00     0.006 A 
ENDBRANCH  49  63
BRANCH  50  71
ATOM     71  C   UNL A   1      39.519  28.679  29.166  1.00  0.00     0.057 A 
ATOM     72  C   UNL A   1      38.692  29.218  28.174  1.00  0.00     0.134 A 
ATOM     73  C   UNL A   1      38.959  28.481  30.434  1.00  0.00     0.134 A 
ATOM     74  F   UNL A   1      39.177  29.448  26.944  1.00  0.00    -0.206 F 
ATOM     75  C   UNL A   1      37.366  29.566  28.434  1.00  0.00     0.040 A 
ATOM     76  C   UNL A   1      37.627  28.802  30.703  1.00  0.00     0.040 A 
ATOM     77  F   UNL A   1      39.695  27.961  31.426  1.00  0.00    -0.206 F 
ATOM     78  C   UNL A   1      36.829  29.354  29.702  1.00  0.00     0.006 A 
ENDBRANCH  50  71
BRANCH  62  79
ATOM     79  C   UNL A   1      45.442  32.336  29.329  1.00  0.00     0.057 A 
ATOM     80  C   UNL A   1      45.783  32.767  30.617  1.00  0.00     0.134 A 
ATOM     81  C   UNL A   1      45.426  33.294  28.308  1.00  0.00     0.134 A 
ATOM     82  F   UNL A   1      45.804  31.901  31.641  1.00  0.00    -0.206 F 
ATOM     83  C   UNL A   1      46.074  34.106  30.883  1.00  0.00     0.040 A 
ATOM     84  C   UNL A   1      45.742  34.630  28.555  1.00  0.00     0.040 A 
ATOM     85  F   UNL A   1      45.117  32.944  27.050  1.00  0.00    -0.206 F 
ATOM     86  C   UNL A   1      46.063  35.040  29.848  1.00  0.00     0.006 A 
ENDBRANCH  62  79
ENDBRANCH  36  37
ENDBRANCH  28  31
ENDBRANCH  26  27
ENDBRANCH  25  26
ENDBRANCH  24  25
ENDBRANCH   1  24
TORSDOF 17
ENDMDL
MODEL 2
REMARK VINA RESULT:     -10.9      1.537      2.126
REMARK SMILES C[C@H](/N=C(\Cc1ccccc1)C(=O)OC(C)(C)C)C(=O)NCCCCNC(=O)c1ccc(-c2c3nc(c(-c4c(F)cccc4F)c4ccc([nH]4)c(-c4c(F)cccc4F)c4nc(c(-c5c(F)cccc5F)c5ccc2[nH]5)C=C4)C=C3)cc1
REMARK SMILES IDX 22 1 21 2 19 3 20 4 2 6 1 7 3 8 4 9 5 10 6 11 7 12 11 13
REMARK SMILES IDX 8 14 10 15 9 16 12 17 13 18 14 19 15 20 16 21 17 22 18 23
REMARK SMILES IDX 23 24 24 25 25 26 26 27 27 28 28 30 29 31 30 32 82 33 31 34
REMARK SMILES IDX 81 35 32 36 33 37 34 38 75 39 35 40 80 41 74 42 76 43 36 44
REMARK SMILES IDX 79 45 73 46 72 47 37 49 63 50 46 51 62 52 47 53 50 54 61 55
REMARK SMILES IDX 77 56 48 57 49 58 60 60 78 61 51 62 38 63 39 64 44 65 40 66
REMARK SMILES IDX 41 67 43 68 45 69 42 70 64 71 65 72 70 73 66 74 67 75 69 76
REMARK SMILES IDX 71 77 68 78 52 79 53 80 58 81 54 82 55 83 57 84 59 85 56 86
REMARK H PARENT 21 5 26 29 76 48 50 59
REMARK Flexibility Score: inf
ROOT
ATOM      1  C   UNL A   1      35.548  21.885  24.510  1.00  0.00     0.116 C 
ENDROOT
BRANCH   1   2
ATOM      2  N   UNL A   1      35.201  22.050  25.898  1.00  0.00    -0.354 N 
ATOM      3  C   UNL A   1      34.009  21.830  26.525  1.00  0.00     0.244 C 
ATOM      4  O   UNL A   1      33.983  22.014  27.748  1.00  0.00    -0.273 OA
ATOM      5  H   UNL A   1      35.930  22.367  26.479  1.00  0.00     0.163 HD
BRANCH   3   6
ATOM      6  C   UNL A   1      32.772  21.292  25.780  1.00  0.00     0.191 C 
ATOM      7  C   UNL A   1      32.942  19.854  25.334  1.00  0.00     0.044 C 
BRANCH   6   8
ATOM      8  N   UNL A   1      32.245  22.261  24.821  1.00  0.00    -0.269 NA
ATOM      9  C   UNL A   1      31.772  23.449  24.878  1.00  0.00     0.125 C 
BRANCH   9  10
ATOM     10  C   UNL A   1      31.469  24.274  26.107  1.00  0.00     0.099 C 
BRANCH  10  11
ATOM     11  C   UNL A   1      32.011  25.678  26.136  1.00  0.00    -0.042 A 
ATOM     12  C   UNL A   1      31.139  26.748  26.396  1.00  0.00     0.004 A 
ATOM     13  C   UNL A   1      33.383  25.931  26.030  1.00  0.00     0.004 A 
ATOM     14  C   UNL A   1      31.629  28.044  26.544  1.00  0.00     0.000 A 
ATOM     15  C   UNL A   1      33.872  27.228  26.188  1.00  0.00     0.000 A 
ATOM     16  C   UNL A   1      32.996  28.282  26.447  1.00  0.00     0.000 A 
ENDBRANCH  10  11
ENDBRANCH   9  10
BRANCH   9  17
ATOM     17  C   UNL A   1      31.393  24.082  23.518  1.00  0.00     0.353 C 
ATOM     18  O   UNL A   1      30.250  24.080  23.096  1.00  0.00    -0.245 OA
BRANCH  17  19
ATOM     19  O   UNL A   1      32.472  24.630  22.928  1.00  0.00    -0.455 OA
BRANCH  19  20
ATOM     20  C   UNL A   1      32.355  25.866  22.178  1.00  0.00     0.104 C 
ATOM     21  C   UNL A   1      32.255  25.620  20.666  1.00  0.00     0.056 C 
ATOM     22  C   UNL A   1      31.184  26.703  22.699  1.00  0.00     0.056 C 
ATOM     23  C   UNL A   1      33.666  26.619  22.454  1.00  0.00     0.056 C 
ENDBRANCH  19  20
ENDBRANCH  17  19
ENDBRANCH   9  17
ENDBRANCH   6   8
ENDBRANCH   3   6
ENDBRANCH   1   2
BRANCH   1  24
ATOM     24  C   UNL A   1      37.053  21.749  24.303  1.00  0.00     0.023 C 
BRANCH  24  25
ATOM     25  C   UNL A   1      37.647  20.494  24.940  1.00  0.00     0.023 C 
BRANCH  25  26
ATOM     26  C   UNL A   1      38.915  20.729  25.755  1.00  0.00     0.116 C 
BRANCH  26  27
ATOM     27  N   UNL A   1      39.865  19.627  25.701  1.00  0.00    -0.352 N 
ATOM     28  C   UNL A   1      41.197  19.648  26.048  1.00  0.00     0.251 C 
ATOM     29  H   UNL A   1      39.514  18.766  25.377  1.00  0.00     0.163 HD
ATOM     30  O   UNL A   1      41.912  18.669  25.871  1.00  0.00    -0.269 OA
BRANCH  28  31
ATOM     31  C   UNL A   1      41.759  20.900  26.593  1.00  0.00     0.039 A 
ATOM     32  C   UNL A   1      42.258  21.860  25.712  1.00  0.00     0.014 A 
ATOM     33  C   UNL A   1      41.689  21.159  27.965  1.00  0.00     0.014 A 
ATOM     34  C   UNL A   1      42.613  23.118  26.200  1.00  0.00     0.010 A 
ATOM     35  C   UNL A   1      41.965  22.437  28.434  1.00  0.00     0.010 A 
ATOM     36  C   UNL A   1      42.425  23.431  27.556  1.00  0.00    -0.014 A 
BRANCH  36  37
ATOM     37  C   UNL A   1      42.696  24.795  28.078  1.00  0.00     0.031 A 
ATOM     38  C   UNL A   1      44.083  25.167  28.520  1.00  0.00     0.074 A 
ATOM     39  C   UNL A   1      41.681  25.669  28.225  1.00  0.00     0.049 A 
ATOM     40  N   UNL A   1      44.505  26.277  29.072  1.00  0.00    -0.248 NA
ATOM     41  C   UNL A   1      45.128  24.146  28.349  1.00  0.00     0.031 C 
ATOM     42  C   UNL A   1      40.280  25.408  27.891  1.00  0.00     0.029 A 
ATOM     43  N   UNL A   1      41.672  26.954  28.708  1.00  0.00    -0.354 N 
ATOM     44  C   UNL A   1      45.856  26.080  29.325  1.00  0.00     0.074 A 
ATOM     45  C   UNL A   1      46.169  24.726  28.924  1.00  0.00     0.031 C 
ATOM     46  C   UNL A   1      39.552  26.505  28.155  1.00  0.00     0.029 A 
ATOM     47  C   UNL A   1      40.427  27.533  28.711  1.00  0.00     0.049 A 
ATOM     48  H   UNL A   1      42.482  27.417  29.022  1.00  0.00     0.167 HD
ATOM     49  C   UNL A   1      46.762  26.957  29.819  1.00  0.00     0.037 A 
ATOM     50  C   UNL A   1      40.032  28.754  29.121  1.00  0.00     0.037 A 
ATOM     51  C   UNL A   1      46.453  28.311  30.193  1.00  0.00     0.049 A 
ATOM     52  C   UNL A   1      41.056  29.712  29.663  1.00  0.00     0.074 A 
ATOM     53  C   UNL A   1      47.310  29.297  30.648  1.00  0.00     0.029 A 
ATOM     54  N   UNL A   1      45.184  28.870  30.156  1.00  0.00    -0.354 N 
ATOM     55  N   UNL A   1      42.345  29.538  29.829  1.00  0.00    -0.248 NA
ATOM     56  C   UNL A   1      40.573  31.040  30.068  1.00  0.00     0.031 C 
ATOM     57  C   UNL A   1      46.554  30.441  30.925  1.00  0.00     0.029 A 
ATOM     58  C   UNL A   1      45.232  30.182  30.596  1.00  0.00     0.049 A 
ATOM     59  H   UNL A   1      44.369  28.404  29.859  1.00  0.00     0.167 HD
ATOM     60  C   UNL A   1      42.831  30.738  30.331  1.00  0.00     0.074 A 
ATOM     61  C   UNL A   1      41.699  31.638  30.429  1.00  0.00     0.031 C 
ATOM     62  C   UNL A   1      44.098  31.066  30.681  1.00  0.00     0.037 A 
BRANCH  49  63
ATOM     63  C   UNL A   1      48.174  26.475  29.971  1.00  0.00     0.057 A 
ATOM     64  C   UNL A   1      49.127  26.645  28.956  1.00  0.00     0.134 A 
ATOM     65  C   UNL A   1      48.595  25.848  31.151  1.00  0.00     0.134 A 
ATOM     66  F   UNL A   1      48.785  27.224  27.796  1.00  0.00    -0.206 F 
ATOM     67  C   UNL A   1      50.435  26.185  29.098  1.00  0.00     0.040 A 
ATOM     68  C   UNL A   1      49.910  25.409  31.315  1.00  0.00     0.040 A 
ATOM     69  F   UNL A   1      47.737  25.656  32.165  1.00  0.00    -0.206 F 
ATOM     70  C   UNL A   1      50.832  25.570  30.284  1.00  0.00     0.006 A 
ENDBRANCH  49  63
BRANCH  50  71
ATOM     71  C   UNL A   1      38.606  29.151  29.010  1.00  0.00     0.057 A 
ATOM     72  C   UNL A   1      38.073  29.597  27.795  1.00  0.00     0.134 A 
ATOM     73  C   UNL A   1      37.744  29.101  30.112  1.00  0.00     0.134 A 
ATOM     74  F   UNL A   1      38.854  29.685  26.707  1.00  0.00    -0.206 F 
ATOM     75  C   UNL A   1      36.740  29.997  27.682  1.00  0.00     0.040 A 
ATOM     76  C   UNL A   1      36.403  29.474  30.008  1.00  0.00     0.040 A 
ATOM     77  F   UNL A   1      38.191  28.674  31.302  1.00  0.00    -0.206 F 
ATOM     78  C   UNL A   1      35.900  29.931  28.791  1.00  0.00     0.006 A 
ENDBRANCH  50  71
BRANCH  62  79
ATOM     79  C   UNL A   1      44.336  32.466  31.168  1.00  0.00     0.057 A 
ATOM     80  C   UNL A   1      44.623  33.516  30.288  1.00  0.00     0.134 A 
ATOM     81  C   UNL A   1      44.235  32.772  32.531  1.00  0.00     0.134 A 
ATOM     82  F   UNL A   1      44.746  33.287  28.972  1.00  0.00    -0.206 F 
ATOM     83  C   UNL A   1      44.823  34.818  30.749  1.00  0.00     0.040 A 
ATOM     84  C   UNL A   1      44.406  34.074  33.002  1.00  0.00     0.040 A 
ATOM     85  F   UNL A   1      43.953  31.812  33.426  1.00  0.00    -0.206 F 
ATOM     86  C   UNL A   1      44.706  35.101  32.109  1.00  0.00     0.006 A 
ENDBRANCH  62  79
ENDBRANCH  36  37
ENDBRANCH  28  31
ENDBRANCH  26  27
ENDBRANCH  25  26
ENDBRANCH  24  25
ENDBRANCH   1  24
TORSDOF 17
ENDMDL
MODEL 3
REMARK VINA RESULT:     -10.9      1.650      2.359
REMARK SMILES C[C@H](/N=C(\Cc1ccccc1)C(=O)OC(C)(C)C)C(=O)NCCCCNC(=O)c1ccc(-c2c3nc(c(-c4c(F)cccc4F)c4ccc([nH]4)c(-c4c(F)cccc4F)c4nc(c(-c5c(F)cccc5F)c5ccc2[nH]5)C=C4)C=C3)cc1
REMARK SMILES IDX 22 1 21 2 19 3 20 4 2 6 1 7 3 8 4 9 5 10 6 11 7 12 11 13
REMARK SMILES IDX 8 14 10 15 9 16 12 17 13 18 14 19 15 20 16 21 17 22 18 23
REMARK SMILES IDX 23 24 24 25 25 26 26 27 27 28 28 30 29 31 30 32 82 33 31 34
REMARK SMILES IDX 81 35 32 36 33 37 34 38 75 39 35 40 80 41 74 42 76 43 36 44
REMARK SMILES IDX 79 45 73 46 72 47 37 49 63 50 46 51 62 52 47 53 50 54 61 55
REMARK SMILES IDX 77 56 48 57 49 58 60 60 78 61 51 62 38 63 39 64 44 65 40 66
REMARK SMILES IDX 41 67 43 68 45 69 42 70 64 71 65 72 70 73 66 74 67 75 69 76
REMARK SMILES IDX 71 77 68 78 52 79 53 80 58 81 54 82 55 83 57 84 59 85 56 86
REMARK H PARENT 21 5 26 29 76 48 50 59
REMARK Flexibility Score: inf
ROOT
ATOM      1  C   UNL A   1      35.533  22.125  24.751  1.00  0.00     0.116 C 
ENDROOT
BRANCH   1   2
ATOM      2  N   UNL A   1      34.584  21.983  23.676  1.00  0.00    -0.354 N 
ATOM      3  C   UNL A   1      33.457  22.705  23.415  1.00  0.00     0.244 C 
ATOM      4  O   UNL A   1      32.828  22.404  22.394  1.00  0.00    -0.273 OA
ATOM      5  H   UNL A   1      34.779  21.260  23.036  1.00  0.00     0.163 HD
BRANCH   3   6
ATOM      6  C   UNL A   1      33.023  23.900  24.287  1.00  0.00     0.191 C 
ATOM      7  C   UNL A   1      32.259  23.471  25.523  1.00  0.00     0.044 C 
BRANCH   6   8
ATOM      8  N   UNL A   1      32.488  24.999  23.485  1.00  0.00    -0.269 NA
ATOM      9  C   UNL A   1      32.736  26.248  23.355  1.00  0.00     0.125 C 
BRANCH   9  10
ATOM     10  C   UNL A   1      33.687  27.100  24.162  1.00  0.00     0.099 C 
BRANCH  10  11
ATOM     11  C   UNL A   1      33.143  27.728  25.417  1.00  0.00    -0.042 A 
ATOM     12  C   UNL A   1      33.624  28.984  25.823  1.00  0.00     0.004 A 
ATOM     13  C   UNL A   1      32.086  27.146  26.123  1.00  0.00     0.004 A 
ATOM     14  C   UNL A   1      33.059  29.642  26.913  1.00  0.00     0.000 A 
ATOM     15  C   UNL A   1      31.516  27.811  27.209  1.00  0.00     0.000 A 
ATOM     16  C   UNL A   1      32.000  29.058  27.602  1.00  0.00     0.000 A 
ENDBRANCH  10  11
ENDBRANCH   9  10
BRANCH   9  17
ATOM     17  C   UNL A   1      31.893  26.986  22.287  1.00  0.00     0.353 C 
ATOM     18  O   UNL A   1      31.465  26.424  21.294  1.00  0.00    -0.245 OA
BRANCH  17  19
ATOM     19  O   UNL A   1      31.698  28.272  22.636  1.00  0.00    -0.455 OA
BRANCH  19  20
ATOM     20  C   UNL A   1      30.386  28.734  23.047  1.00  0.00     0.104 C 
ATOM     21  C   UNL A   1      29.456  27.575  23.429  1.00  0.00     0.056 C 
ATOM     22  C   UNL A   1      30.508  29.764  24.174  1.00  0.00     0.056 C 
ATOM     23  C   UNL A   1      29.805  29.425  21.805  1.00  0.00     0.056 C 
ENDBRANCH  19  20
ENDBRANCH  17  19
ENDBRANCH   9  17
ENDBRANCH   6   8
ENDBRANCH   3   6
ENDBRANCH   1   2
BRANCH   1  24
ATOM     24  C   UNL A   1      36.965  21.855  24.297  1.00  0.00     0.023 C 
BRANCH  24  25
ATOM     25  C   UNL A   1      37.570  20.591  24.904  1.00  0.00     0.023 C 
BRANCH  25  26
ATOM     26  C   UNL A   1      38.845  20.815  25.710  1.00  0.00     0.116 C 
BRANCH  26  27
ATOM     27  N   UNL A   1      39.780  19.701  25.660  1.00  0.00    -0.352 N 
ATOM     28  C   UNL A   1      41.109  19.702  26.019  1.00  0.00     0.251 C 
ATOM     29  H   UNL A   1      39.420  18.846  25.329  1.00  0.00     0.163 HD
ATOM     30  O   UNL A   1      41.812  18.713  25.845  1.00  0.00    -0.269 OA
BRANCH  28  31
ATOM     31  C   UNL A   1      41.683  20.943  26.575  1.00  0.00     0.039 A 
ATOM     32  C   UNL A   1      42.207  21.898  25.703  1.00  0.00     0.014 A 
ATOM     33  C   UNL A   1      41.601  21.199  27.947  1.00  0.00     0.014 A 
ATOM     34  C   UNL A   1      42.575  23.149  26.199  1.00  0.00     0.010 A 
ATOM     35  C   UNL A   1      41.891  22.471  28.423  1.00  0.00     0.010 A 
ATOM     36  C   UNL A   1      42.376  23.460  27.554  1.00  0.00    -0.014 A 
BRANCH  36  37
ATOM     37  C   UNL A   1      42.661  24.819  28.084  1.00  0.00     0.031 A 
ATOM     38  C   UNL A   1      44.055  25.178  28.515  1.00  0.00     0.074 A 
ATOM     39  C   UNL A   1      41.654  25.699  28.246  1.00  0.00     0.049 A 
ATOM     40  N   UNL A   1      44.490  26.281  29.071  1.00  0.00    -0.248 NA
ATOM     41  C   UNL A   1      45.092  24.152  28.326  1.00  0.00     0.031 C 
ATOM     42  C   UNL A   1      40.248  25.450  27.923  1.00  0.00     0.029 A 
ATOM     43  N   UNL A   1      41.659  26.980  28.739  1.00  0.00    -0.354 N 
ATOM     44  C   UNL A   1      45.842  26.073  29.310  1.00  0.00     0.074 A 
ATOM     45  C   UNL A   1      46.142  24.720  28.897  1.00  0.00     0.031 C 
ATOM     46  C   UNL A   1      39.531  26.549  28.203  1.00  0.00     0.029 A 
ATOM     47  C   UNL A   1      40.417  27.567  28.758  1.00  0.00     0.049 A 
ATOM     48  H   UNL A   1      42.474  27.436  29.048  1.00  0.00     0.167 HD
ATOM     49  C   UNL A   1      46.758  26.940  29.802  1.00  0.00     0.037 A 
ATOM     50  C   UNL A   1      40.035  28.788  29.181  1.00  0.00     0.037 A 
ATOM     51  C   UNL A   1      46.462  28.293  30.189  1.00  0.00     0.049 A 
ATOM     52  C   UNL A   1      41.070  29.735  29.720  1.00  0.00     0.074 A 
ATOM     53  C   UNL A   1      47.331  29.269  30.643  1.00  0.00     0.029 A 
ATOM     54  N   UNL A   1      45.197  28.861  30.168  1.00  0.00    -0.354 N 
ATOM     55  N   UNL A   1      42.360  29.551  29.873  1.00  0.00    -0.248 NA
ATOM     56  C   UNL A   1      40.600  31.063  30.140  1.00  0.00     0.031 C 
ATOM     57  C   UNL A   1      46.585  30.417  30.936  1.00  0.00     0.029 A 
ATOM     58  C   UNL A   1      45.259  30.169  30.618  1.00  0.00     0.049 A 
ATOM     59  H   UNL A   1      44.376  28.403  29.876  1.00  0.00     0.167 HD
ATOM     60  C   UNL A   1      42.858  30.744  30.380  1.00  0.00     0.074 A 
ATOM     61  C   UNL A   1      41.734  31.651  30.495  1.00  0.00     0.031 C 
ATOM     62  C   UNL A   1      44.131  31.060  30.720  1.00  0.00     0.037 A 
BRANCH  49  63
ATOM     63  C   UNL A   1      48.169  26.447  29.938  1.00  0.00     0.057 A 
ATOM     64  C   UNL A   1      48.620  25.809  31.102  1.00  0.00     0.134 A 
ATOM     65  C   UNL A   1      49.084  26.594  28.888  1.00  0.00     0.134 A 
ATOM     66  F   UNL A   1      47.798  25.649  32.150  1.00  0.00    -0.206 F 
ATOM     67  C   UNL A   1      49.935  25.363  31.228  1.00  0.00     0.040 A 
ATOM     68  C   UNL A   1      50.395  26.126  28.992  1.00  0.00     0.040 A 
ATOM     69  F   UNL A   1      48.718  27.192  27.743  1.00  0.00    -0.206 F 
ATOM     70  C   UNL A   1      50.826  25.516  30.167  1.00  0.00     0.006 A 
ENDBRANCH  49  63
BRANCH  50  71
ATOM     71  C   UNL A   1      38.610  29.196  29.086  1.00  0.00     0.057 A 
ATOM     72  C   UNL A   1      38.069  29.654  27.879  1.00  0.00     0.134 A 
ATOM     73  C   UNL A   1      37.759  29.144  30.196  1.00  0.00     0.134 A 
ATOM     74  F   UNL A   1      38.841  29.745  26.785  1.00  0.00    -0.206 F 
ATOM     75  C   UNL A   1      36.738  30.064  27.782  1.00  0.00     0.040 A 
ATOM     76  C   UNL A   1      36.419  29.527  30.107  1.00  0.00     0.040 A 
ATOM     77  F   UNL A   1      38.214  28.706  31.379  1.00  0.00    -0.206 F 
ATOM     78  C   UNL A   1      35.908  29.996  28.898  1.00  0.00     0.006 A 
ENDBRANCH  50  71
BRANCH  62  79
ATOM     79  C   UNL A   1      44.384  32.455  31.215  1.00  0.00     0.057 A 
ATOM     80  C   UNL A   1      44.360  32.771  32.579  1.00  0.00     0.134 A 
ATOM     81  C   UNL A   1      44.698  33.483  30.317  1.00  0.00     0.134 A 
ATOM     82  F   UNL A   1      44.054  31.834  33.489  1.00  0.00    -0.206 F 
ATOM     83  C   UNL A   1      44.617  34.066  33.031  1.00  0.00     0.040 A 
ATOM     84  C   UNL A   1      44.983  34.775  30.758  1.00  0.00     0.040 A 
ATOM     85  F   UNL A   1      44.747  33.244  28.998  1.00  0.00    -0.206 F 
ATOM     86  C   UNL A   1      44.938  35.070  32.119  1.00  0.00     0.006 A 
ENDBRANCH  62  79
ENDBRANCH  36  37
ENDBRANCH  28  31
ENDBRANCH  26  27
ENDBRANCH  25  26
ENDBRANCH  24  25
ENDBRANCH   1  24
TORSDOF 17
ENDMDL
