MODEL 1
REMARK VINA RESULT:     -11.8      0.000      0.000
REMARK SMILES Cc1nsc(NC(=O)C2([NH3+])CCCCC2)c1C(=O)NCCCCNC(=O)c1ccc(-c2c3nc(c(-c4c(F)cccc4F)c4ccc([nH]4)c(-c4c(F)cccc4F)c4nc(c(-c5c(F)cccc5F)c5ccc2[nH]5)C=C4)C=C3)cc1
REMARK SMILES IDX 21 1 20 2 19 3 17 4 18 5 16 7 1 8 2 9 3 10 4 11 5 12 6 13
REMARK SMILES IDX 7 14 8 16 9 17 11 18 15 19 12 20 14 21 13 22 10 23 22 27
REMARK SMILES IDX 23 28 24 29 25 30 26 32 27 33 28 34 80 35 29 36 79 37 30 38
REMARK SMILES IDX 31 39 32 40 73 41 33 42 78 43 72 44 74 45 34 46 77 47 71 48
REMARK SMILES IDX 70 49 35 51 61 52 44 53 60 54 45 55 48 56 59 57 75 58 46 59
REMARK SMILES IDX 47 60 58 62 76 63 49 64 36 65 37 66 42 67 38 68 39 69 41 70
REMARK SMILES IDX 43 71 40 72 62 73 63 74 68 75 64 76 65 77 67 78 69 79 66 80
REMARK SMILES IDX 50 81 51 82 56 83 52 84 53 85 55 86 57 87 54 88
REMARK H PARENT 19 6 6 15 10 24 10 25 10 26 24 31 74 50 48 61
REMARK Flexibility Score: inf
ROOT
ATOM      1  C   UNL A   1      39.223  22.607  26.133  1.00  0.00     0.023 C 
ENDROOT
BRANCH   1   2
ATOM      2  C   UNL A   1      38.071  23.532  25.753  1.00  0.00     0.116 C 
BRANCH   2   3
ATOM      3  N   UNL A   1      37.358  23.168  24.553  1.00  0.00    -0.352 N 
ATOM      4  C   UNL A   1      36.042  22.985  24.220  1.00  0.00     0.256 C 
ATOM      5  O   UNL A   1      35.849  22.878  23.002  1.00  0.00    -0.269 OA
ATOM      6  H   UNL A   1      37.961  23.016  23.790  1.00  0.00     0.163 HD
BRANCH   4   7
ATOM      7  C   UNL A   1      34.925  22.785  25.156  1.00  0.00     0.097 A 
ATOM      8  C   UNL A   1      33.225  24.853  25.067  1.00  0.00     0.069 C 
ATOM      9  C   UNL A   1      33.814  23.605  25.623  1.00  0.00     0.066 A 
ATOM     10  N   UNL A   1      33.157  23.138  26.688  1.00  0.00    -0.195 NA
ATOM     11  S   UNL A   1      33.708  21.640  27.039  1.00  0.00    -0.017 S 
ATOM     12  C   UNL A   1      34.702  21.497  25.682  1.00  0.00     0.129 A 
BRANCH  12  13
ATOM     13  N   UNL A   1      35.276  20.307  25.272  1.00  0.00    -0.310 N 
ATOM     14  C   UNL A   1      34.824  19.057  24.958  1.00  0.00     0.286 C 
ATOM     15  H   UNL A   1      36.254  20.380  25.187  1.00  0.00     0.171 HD
ATOM     16  O   UNL A   1      35.715  18.272  24.596  1.00  0.00    -0.267 OA
BRANCH  14  17
ATOM     17  C   UNL A   1      33.337  18.560  25.002  1.00  0.00     0.174 C 
ATOM     18  C   UNL A   1      32.371  19.601  24.369  1.00  0.00     0.079 C 
ATOM     19  C   UNL A   1      33.218  17.206  24.273  1.00  0.00     0.079 C 
ATOM     20  C   UNL A   1      32.376  19.665  22.843  1.00  0.00     0.007 C 
ATOM     21  C   UNL A   1      33.306  17.339  22.751  1.00  0.00     0.007 C 
ATOM     22  C   UNL A   1      32.243  18.287  22.215  1.00  0.00     0.001 C 
BRANCH  17  23
ATOM     23  N   UNL A   1      32.846  18.474  26.398  1.00  0.00    -0.345 N 
ATOM     24  H   UNL A   1      33.321  19.173  26.969  1.00  0.00     0.345 HD
ATOM     25  H   UNL A   1      33.040  17.544  26.770  1.00  0.00     0.345 HD
ATOM     26  H   UNL A   1      31.841  18.644  26.418  1.00  0.00     0.345 HD
ENDBRANCH  17  23
ENDBRANCH  14  17
ENDBRANCH  12  13
ENDBRANCH   4   7
ENDBRANCH   2   3
ENDBRANCH   1   2
BRANCH   1  27
ATOM     27  C   UNL A   1      39.130  21.181  25.571  1.00  0.00     0.023 C 
BRANCH  27  28
ATOM     28  C   UNL A   1      39.617  20.066  26.498  1.00  0.00     0.116 C 
BRANCH  28  29
ATOM     29  N   UNL A   1      40.757  19.321  25.975  1.00  0.00    -0.352 N 
ATOM     30  C   UNL A   1      42.032  19.805  25.732  1.00  0.00     0.251 C 
ATOM     31  H   UNL A   1      40.602  18.369  25.771  1.00  0.00     0.163 HD
ATOM     32  O   UNL A   1      42.788  19.261  24.952  1.00  0.00    -0.269 OA
BRANCH  30  33
ATOM     33  C   UNL A   1      42.458  21.010  26.468  1.00  0.00     0.039 A 
ATOM     34  C   UNL A   1      42.865  22.158  25.789  1.00  0.00     0.014 A 
ATOM     35  C   UNL A   1      42.362  20.988  27.858  1.00  0.00     0.014 A 
ATOM     36  C   UNL A   1      43.072  23.326  26.517  1.00  0.00     0.010 A 
ATOM     37  C   UNL A   1      42.471  22.165  28.565  1.00  0.00     0.010 A 
ATOM     38  C   UNL A   1      42.837  23.338  27.905  1.00  0.00    -0.014 A 
BRANCH  38  39
ATOM     39  C   UNL A   1      42.793  24.618  28.620  1.00  0.00     0.031 A 
ATOM     40  C   UNL A   1      41.633  25.481  28.255  1.00  0.00     0.074 A 
ATOM     41  C   UNL A   1      43.574  24.925  29.679  1.00  0.00     0.049 A 
ATOM     42  N   UNL A   1      41.660  26.621  27.649  1.00  0.00    -0.248 NA
ATOM     43  C   UNL A   1      40.271  24.966  28.482  1.00  0.00     0.031 C 
ATOM     44  C   UNL A   1      44.526  24.042  30.362  1.00  0.00     0.029 A 
ATOM     45  N   UNL A   1      43.605  26.055  30.451  1.00  0.00    -0.354 N 
ATOM     46  C   UNL A   1      40.343  27.077  27.634  1.00  0.00     0.074 A 
ATOM     47  C   UNL A   1      39.520  25.951  27.980  1.00  0.00     0.031 C 
ATOM     48  C   UNL A   1      44.847  24.563  31.564  1.00  0.00     0.029 A 
ATOM     49  C   UNL A   1      44.281  25.897  31.655  1.00  0.00     0.049 A 
ATOM     50  H   UNL A   1      43.186  26.903  30.177  1.00  0.00     0.167 HD
ATOM     51  C   UNL A   1      40.078  28.414  27.648  1.00  0.00     0.037 A 
ATOM     52  C   UNL A   1      44.393  26.788  32.668  1.00  0.00     0.037 A 
ATOM     53  C   UNL A   1      41.268  29.171  27.359  1.00  0.00     0.049 A 
ATOM     54  C   UNL A   1      44.147  28.137  32.123  1.00  0.00     0.074 A 
ATOM     55  C   UNL A   1      42.031  29.489  26.260  1.00  0.00     0.029 A 
ATOM     56  N   UNL A   1      42.020  29.429  28.471  1.00  0.00    -0.354 N 
ATOM     57  N   UNL A   1      44.948  28.730  31.284  1.00  0.00    -0.248 NA
ATOM     58  C   UNL A   1      42.824  28.739  32.258  1.00  0.00     0.031 C 
ATOM     59  C   UNL A   1      43.332  29.804  26.758  1.00  0.00     0.029 A 
ATOM     60  C   UNL A   1      43.318  29.705  28.146  1.00  0.00     0.049 A 
ATOM     61  H   UNL A   1      41.671  29.417  29.391  1.00  0.00     0.167 HD
ATOM     62  C   UNL A   1      44.104  29.467  30.480  1.00  0.00     0.074 A 
ATOM     63  C   UNL A   1      42.865  29.595  31.235  1.00  0.00     0.031 C 
ATOM     64  C   UNL A   1      44.355  29.601  29.147  1.00  0.00     0.037 A 
BRANCH  51  65
ATOM     65  C   UNL A   1      38.949  29.071  28.421  1.00  0.00     0.057 A 
ATOM     66  C   UNL A   1      38.833  28.814  29.803  1.00  0.00     0.134 A 
ATOM     67  C   UNL A   1      37.802  29.634  27.825  1.00  0.00     0.134 A 
ATOM     68  F   UNL A   1      39.849  28.265  30.487  1.00  0.00    -0.206 F 
ATOM     69  C   UNL A   1      37.643  29.024  30.513  1.00  0.00     0.040 A 
ATOM     70  C   UNL A   1      36.625  29.894  28.536  1.00  0.00     0.040 A 
ATOM     71  F   UNL A   1      37.715  29.863  26.510  1.00  0.00    -0.206 F 
ATOM     72  C   UNL A   1      36.529  29.557  29.876  1.00  0.00     0.006 A 
ENDBRANCH  51  65
BRANCH  52  73
ATOM     73  C   UNL A   1      44.561  26.543  34.116  1.00  0.00     0.057 A 
ATOM     74  C   UNL A   1      43.475  26.204  34.935  1.00  0.00     0.134 A 
ATOM     75  C   UNL A   1      45.838  26.366  34.673  1.00  0.00     0.134 A 
ATOM     76  F   UNL A   1      42.219  26.310  34.477  1.00  0.00    -0.206 F 
ATOM     77  C   UNL A   1      43.649  25.690  36.225  1.00  0.00     0.040 A 
ATOM     78  C   UNL A   1      46.027  25.856  35.962  1.00  0.00     0.040 A 
ATOM     79  F   UNL A   1      46.944  26.602  33.950  1.00  0.00    -0.206 F 
ATOM     80  C   UNL A   1      44.930  25.500  36.736  1.00  0.00     0.006 A 
ENDBRANCH  52  73
BRANCH  64  81
ATOM     81  C   UNL A   1      45.772  29.454  28.691  1.00  0.00     0.057 A 
ATOM     82  C   UNL A   1      46.347  28.258  28.242  1.00  0.00     0.134 A 
ATOM     83  C   UNL A   1      46.568  30.603  28.643  1.00  0.00     0.134 A 
ATOM     84  F   UNL A   1      45.637  27.123  28.183  1.00  0.00    -0.206 F 
ATOM     85  C   UNL A   1      47.673  28.204  27.803  1.00  0.00     0.040 A 
ATOM     86  C   UNL A   1      47.882  30.570  28.176  1.00  0.00     0.040 A 
ATOM     87  F   UNL A   1      46.066  31.789  29.023  1.00  0.00    -0.206 F 
ATOM     88  C   UNL A   1      48.443  29.365  27.765  1.00  0.00     0.006 A 
ENDBRANCH  64  81
ENDBRANCH  38  39
ENDBRANCH  30  33
ENDBRANCH  28  29
ENDBRANCH  27  28
ENDBRANCH   1  27
TORSDOF 14
ENDMDL
MODEL 2
REMARK VINA RESULT:     -11.7      1.758      5.497
REMARK SMILES Cc1nsc(NC(=O)C2([NH3+])CCCCC2)c1C(=O)NCCCCNC(=O)c1ccc(-c2c3nc(c(-c4c(F)cccc4F)c4ccc([nH]4)c(-c4c(F)cccc4F)c4nc(c(-c5c(F)cccc5F)c5ccc2[nH]5)C=C4)C=C3)cc1
REMARK SMILES IDX 21 1 20 2 19 3 17 4 18 5 16 7 1 8 2 9 3 10 4 11 5 12 6 13
REMARK SMILES IDX 7 14 8 16 9 17 11 18 15 19 12 20 14 21 13 22 10 23 22 27
REMARK SMILES IDX 23 28 24 29 25 30 26 32 27 33 28 34 80 35 29 36 79 37 30 38
REMARK SMILES IDX 31 39 32 40 73 41 33 42 78 43 72 44 74 45 34 46 77 47 71 48
REMARK SMILES IDX 70 49 35 51 61 52 44 53 60 54 45 55 48 56 59 57 75 58 46 59
REMARK SMILES IDX 47 60 58 62 76 63 49 64 36 65 37 66 42 67 38 68 39 69 41 70
REMARK SMILES IDX 43 71 40 72 62 73 63 74 68 75 64 76 65 77 67 78 69 79 66 80
REMARK SMILES IDX 50 81 51 82 56 83 52 84 53 85 55 86 57 87 54 88
REMARK H PARENT 19 6 6 15 10 24 10 25 10 26 24 31 74 50 48 61
REMARK Flexibility Score: inf
ROOT
ATOM      1  C   UNL A   1      39.692  22.361  26.371  1.00  0.00     0.023 C 
ENDROOT
BRANCH   1   2
ATOM      2  C   UNL A   1      38.237  22.765  26.155  1.00  0.00     0.116 C 
BRANCH   2   3
ATOM      3  N   UNL A   1      37.769  22.684  24.793  1.00  0.00    -0.352 N 
ATOM      4  C   UNL A   1      36.556  22.820  24.171  1.00  0.00     0.256 C 
ATOM      5  O   UNL A   1      36.637  22.878  22.937  1.00  0.00    -0.269 OA
ATOM      6  H   UNL A   1      38.494  22.482  24.159  1.00  0.00     0.163 HD
BRANCH   4   7
ATOM      7  C   UNL A   1      35.235  22.773  24.815  1.00  0.00     0.097 A 
ATOM      8  C   UNL A   1      33.799  24.951  24.207  1.00  0.00     0.069 C 
ATOM      9  C   UNL A   1      34.123  23.706  24.953  1.00  0.00     0.066 A 
ATOM     10  N   UNL A   1      33.192  23.367  25.849  1.00  0.00    -0.195 NA
ATOM     11  S   UNL A   1      33.505  21.861  26.401  1.00  0.00    -0.017 S 
ATOM     12  C   UNL A   1      34.777  21.546  25.336  1.00  0.00     0.129 A 
BRANCH  12  13
ATOM     13  N   UNL A   1      35.323  20.290  25.141  1.00  0.00    -0.310 N 
ATOM     14  C   UNL A   1      34.866  19.080  24.700  1.00  0.00     0.286 C 
ATOM     15  H   UNL A   1      36.277  20.261  25.379  1.00  0.00     0.171 HD
ATOM     16  O   UNL A   1      35.737  18.197  24.652  1.00  0.00    -0.267 OA
BRANCH  14  17
ATOM     17  C   UNL A   1      33.401  18.736  24.257  1.00  0.00     0.174 C 
ATOM     18  C   UNL A   1      33.382  17.618  23.177  1.00  0.00     0.079 C 
ATOM     19  C   UNL A   1      32.572  18.309  25.485  1.00  0.00     0.079 C 
ATOM     20  C   UNL A   1      33.632  16.200  23.689  1.00  0.00     0.007 C 
ATOM     21  C   UNL A   1      32.928  16.908  25.988  1.00  0.00     0.007 C 
ATOM     22  C   UNL A   1      32.764  15.867  24.891  1.00  0.00     0.001 C 
BRANCH  17  23
ATOM     23  N   UNL A   1      32.779  19.879  23.547  1.00  0.00    -0.345 N 
ATOM     24  H   UNL A   1      33.048  20.750  24.004  1.00  0.00     0.345 HD
ATOM     25  H   UNL A   1      31.764  19.782  23.572  1.00  0.00     0.345 HD
ATOM     26  H   UNL A   1      33.095  19.891  22.578  1.00  0.00     0.345 HD
ENDBRANCH  17  23
ENDBRANCH  14  17
ENDBRANCH  12  13
ENDBRANCH   4   7
ENDBRANCH   2   3
ENDBRANCH   1   2
BRANCH   1  27
ATOM     27  C   UNL A   1      40.001  20.876  26.129  1.00  0.00     0.023 C 
BRANCH  27  28
ATOM     28  C   UNL A   1      41.109  20.276  26.996  1.00  0.00     0.116 C 
BRANCH  28  29
ATOM     29  N   UNL A   1      42.227  19.735  26.232  1.00  0.00    -0.352 N 
ATOM     30  C   UNL A   1      43.174  20.450  25.516  1.00  0.00     0.251 C 
ATOM     31  H   UNL A   1      42.319  18.754  26.223  1.00  0.00     0.163 HD
ATOM     32  O   UNL A   1      43.810  19.947  24.612  1.00  0.00    -0.269 OA
BRANCH  30  33
ATOM     33  C   UNL A   1      43.401  21.857  25.896  1.00  0.00     0.039 A 
ATOM     34  C   UNL A   1      42.985  22.899  25.068  1.00  0.00     0.014 A 
ATOM     35  C   UNL A   1      43.968  22.107  27.144  1.00  0.00     0.014 A 
ATOM     36  C   UNL A   1      43.046  24.202  25.554  1.00  0.00     0.010 A 
ATOM     37  C   UNL A   1      43.937  23.384  27.661  1.00  0.00     0.010 A 
ATOM     38  C   UNL A   1      43.488  24.440  26.869  1.00  0.00    -0.014 A 
BRANCH  38  39
ATOM     39  C   UNL A   1      43.298  25.766  27.466  1.00  0.00     0.031 A 
ATOM     40  C   UNL A   1      44.313  26.775  27.047  1.00  0.00     0.074 A 
ATOM     41  C   UNL A   1      42.194  26.143  28.149  1.00  0.00     0.049 A 
ATOM     42  N   UNL A   1      45.209  27.344  27.783  1.00  0.00    -0.248 NA
ATOM     43  C   UNL A   1      44.430  27.106  25.615  1.00  0.00     0.031 C 
ATOM     44  C   UNL A   1      40.968  25.362  28.348  1.00  0.00     0.029 A 
ATOM     45  N   UNL A   1      41.879  27.348  28.715  1.00  0.00    -0.354 N 
ATOM     46  C   UNL A   1      45.839  28.279  26.964  1.00  0.00     0.074 A 
ATOM     47  C   UNL A   1      45.459  27.958  25.616  1.00  0.00     0.031 C 
ATOM     48  C   UNL A   1      39.973  26.177  28.757  1.00  0.00     0.029 A 
ATOM     49  C   UNL A   1      40.533  27.487  29.033  1.00  0.00     0.049 A 
ATOM     50  H   UNL A   1      42.546  28.053  28.882  1.00  0.00     0.167 HD
ATOM     51  C   UNL A   1      46.361  29.420  27.497  1.00  0.00     0.037 A 
ATOM     52  C   UNL A   1      39.899  28.587  29.503  1.00  0.00     0.037 A 
ATOM     53  C   UNL A   1      46.438  29.321  28.931  1.00  0.00     0.049 A 
ATOM     54  C   UNL A   1      40.906  29.467  30.126  1.00  0.00     0.074 A 
ATOM     55  C   UNL A   1      47.233  28.702  29.868  1.00  0.00     0.029 A 
ATOM     56  N   UNL A   1      45.283  29.698  29.557  1.00  0.00    -0.354 N 
ATOM     57  N   UNL A   1      41.551  29.162  31.216  1.00  0.00    -0.248 NA
ATOM     58  C   UNL A   1      41.457  30.585  29.366  1.00  0.00     0.031 C 
ATOM     59  C   UNL A   1      46.439  28.587  31.049  1.00  0.00     0.029 A 
ATOM     60  C   UNL A   1      45.196  29.168  30.813  1.00  0.00     0.049 A 
ATOM     61  H   UNL A   1      44.598  30.278  29.152  1.00  0.00     0.167 HD
ATOM     62  C   UNL A   1      42.796  29.726  31.039  1.00  0.00     0.074 A 
ATOM     63  C   UNL A   1      42.619  30.737  30.005  1.00  0.00     0.031 C 
ATOM     64  C   UNL A   1      43.917  29.090  31.482  1.00  0.00     0.037 A 
BRANCH  51  65
ATOM     65  C   UNL A   1      46.302  30.791  26.849  1.00  0.00     0.057 A 
ATOM     66  C   UNL A   1      47.467  31.586  26.835  1.00  0.00     0.134 A 
ATOM     67  C   UNL A   1      45.107  31.486  26.571  1.00  0.00     0.134 A 
ATOM     68  F   UNL A   1      48.668  31.048  27.099  1.00  0.00    -0.206 F 
ATOM     69  C   UNL A   1      47.433  32.973  26.642  1.00  0.00     0.040 A 
ATOM     70  C   UNL A   1      45.069  32.864  26.328  1.00  0.00     0.040 A 
ATOM     71  F   UNL A   1      43.906  30.900  26.626  1.00  0.00    -0.206 F 
ATOM     72  C   UNL A   1      46.228  33.619  26.397  1.00  0.00     0.006 A 
ENDBRANCH  51  65
BRANCH  52  73
ATOM     73  C   UNL A   1      38.492  29.004  29.326  1.00  0.00     0.057 A 
ATOM     74  C   UNL A   1      37.607  29.084  30.410  1.00  0.00     0.134 A 
ATOM     75  C   UNL A   1      38.062  29.598  28.127  1.00  0.00     0.134 A 
ATOM     76  F   UNL A   1      37.944  28.573  31.603  1.00  0.00    -0.206 F 
ATOM     77  C   UNL A   1      36.376  29.745  30.317  1.00  0.00     0.040 A 
ATOM     78  C   UNL A   1      36.834  30.258  28.019  1.00  0.00     0.040 A 
ATOM     79  F   UNL A   1      38.860  29.629  27.049  1.00  0.00    -0.206 F 
ATOM     80  C   UNL A   1      35.994  30.348  29.122  1.00  0.00     0.006 A 
ENDBRANCH  52  73
BRANCH  64  81
ATOM     81  C   UNL A   1      43.764  28.124  32.613  1.00  0.00     0.057 A 
ATOM     82  C   UNL A   1      43.716  26.731  32.474  1.00  0.00     0.134 A 
ATOM     83  C   UNL A   1      43.733  28.637  33.913  1.00  0.00     0.134 A 
ATOM     84  F   UNL A   1      43.813  26.147  31.272  1.00  0.00    -0.206 F 
ATOM     85  C   UNL A   1      43.599  25.889  33.584  1.00  0.00     0.040 A 
ATOM     86  C   UNL A   1      43.651  27.808  35.031  1.00  0.00     0.040 A 
ATOM     87  F   UNL A   1      43.814  29.962  34.119  1.00  0.00    -0.206 F 
ATOM     88  C   UNL A   1      43.572  26.428  34.868  1.00  0.00     0.006 A 
ENDBRANCH  64  81
ENDBRANCH  38  39
ENDBRANCH  30  33
ENDBRANCH  28  29
ENDBRANCH  27  28
ENDBRANCH   1  27
TORSDOF 14
ENDMDL
MODEL 3
REMARK VINA RESULT:     -11.6      2.204      6.063
REMARK SMILES Cc1nsc(NC(=O)C2([NH3+])CCCCC2)c1C(=O)NCCCCNC(=O)c1ccc(-c2c3nc(c(-c4c(F)cccc4F)c4ccc([nH]4)c(-c4c(F)cccc4F)c4nc(c(-c5c(F)cccc5F)c5ccc2[nH]5)C=C4)C=C3)cc1
REMARK SMILES IDX 21 1 20 2 19 3 17 4 18 5 16 7 1 8 2 9 3 10 4 11 5 12 6 13
REMARK SMILES IDX 7 14 8 16 9 17 11 18 15 19 12 20 14 21 13 22 10 23 22 27
REMARK SMILES IDX 23 28 24 29 25 30 26 32 27 33 28 34 80 35 29 36 79 37 30 38
REMARK SMILES IDX 31 39 32 40 73 41 33 42 78 43 72 44 74 45 34 46 77 47 71 48
REMARK SMILES IDX 70 49 35 51 61 52 44 53 60 54 45 55 48 56 59 57 75 58 46 59
REMARK SMILES IDX 47 60 58 62 76 63 49 64 36 65 37 66 42 67 38 68 39 69 41 70
REMARK SMILES IDX 43 71 40 72 62 73 63 74 68 75 64 76 65 77 67 78 69 79 66 80
REMARK SMILES IDX 50 81 51 82 56 83 52 84 53 85 55 86 57 87 54 88
REMARK H PARENT 19 6 6 15 10 24 10 25 10 26 24 31 74 50 48 61
REMARK Flexibility Score: inf
ROOT
ATOM      1  C   UNL A   1      39.121  21.302  25.849  1.00  0.00     0.023 C 
ENDROOT
BRANCH   1   2
ATOM      2  C   UNL A   1      37.740  21.045  25.255  1.00  0.00     0.116 C 
BRANCH   2   3
ATOM      3  N   UNL A   1      37.269  22.047  24.330  1.00  0.00    -0.352 N 
ATOM      4  C   UNL A   1      36.063  22.644  24.073  1.00  0.00     0.256 C 
ATOM      5  O   UNL A   1      36.147  23.622  23.320  1.00  0.00    -0.269 OA
ATOM      6  H   UNL A   1      37.985  22.383  23.745  1.00  0.00     0.163 HD
BRANCH   4   7
ATOM      7  C   UNL A   1      34.741  22.156  24.493  1.00  0.00     0.097 A 
ATOM      8  C   UNL A   1      34.643  21.840  27.152  1.00  0.00     0.069 C 
ATOM      9  C   UNL A   1      34.168  21.689  25.750  1.00  0.00     0.066 A 
ATOM     10  N   UNL A   1      32.984  21.079  25.654  1.00  0.00    -0.195 NA
ATOM     11  S   UNL A   1      32.436  21.216  24.121  1.00  0.00    -0.017 S 
ATOM     12  C   UNL A   1      33.665  22.241  23.587  1.00  0.00     0.129 A 
BRANCH  12  13
ATOM     13  N   UNL A   1      33.625  22.930  22.387  1.00  0.00    -0.310 N 
ATOM     14  C   UNL A   1      33.033  24.074  21.933  1.00  0.00     0.286 C 
ATOM     15  H   UNL A   1      34.155  22.485  21.688  1.00  0.00     0.171 HD
ATOM     16  O   UNL A   1      33.300  24.349  20.752  1.00  0.00    -0.267 OA
BRANCH  14  17
ATOM     17  C   UNL A   1      32.097  25.033  22.750  1.00  0.00     0.174 C 
ATOM     18  C   UNL A   1      32.563  25.157  24.228  1.00  0.00     0.079 C 
ATOM     19  C   UNL A   1      32.062  26.421  22.080  1.00  0.00     0.079 C 
ATOM     20  C   UNL A   1      33.786  26.042  24.463  1.00  0.00     0.007 C 
ATOM     21  C   UNL A   1      33.349  27.221  22.294  1.00  0.00     0.007 C 
ATOM     22  C   UNL A   1      33.654  27.391  23.775  1.00  0.00     0.001 C 
BRANCH  17  23
ATOM     23  N   UNL A   1      30.738  24.457  22.889  1.00  0.00    -0.345 N 
ATOM     24  H   UNL A   1      30.043  25.161  22.640  1.00  0.00     0.345 HD
ATOM     25  H   UNL A   1      30.591  24.161  23.853  1.00  0.00     0.345 HD
ATOM     26  H   UNL A   1      30.644  23.653  22.269  1.00  0.00     0.345 HD
ENDBRANCH  17  23
ENDBRANCH  14  17
ENDBRANCH  12  13
ENDBRANCH   4   7
ENDBRANCH   2   3
ENDBRANCH   1   2
BRANCH   1  27
ATOM     27  C   UNL A   1      40.069  20.093  25.848  1.00  0.00     0.023 C 
BRANCH  27  28
ATOM     28  C   UNL A   1      41.347  20.247  26.674  1.00  0.00     0.116 C 
BRANCH  28  29
ATOM     29  N   UNL A   1      42.540  19.726  26.017  1.00  0.00    -0.352 N 
ATOM     30  C   UNL A   1      43.513  20.453  25.351  1.00  0.00     0.251 C 
ATOM     31  H   UNL A   1      42.667  18.749  26.050  1.00  0.00     0.163 HD
ATOM     32  O   UNL A   1      44.235  19.946  24.516  1.00  0.00    -0.269 OA
BRANCH  30  33
ATOM     33  C   UNL A   1      43.659  21.879  25.698  1.00  0.00     0.039 A 
ATOM     34  C   UNL A   1      42.969  22.863  24.990  1.00  0.00     0.014 A 
ATOM     35  C   UNL A   1      44.441  22.199  26.806  1.00  0.00     0.014 A 
ATOM     36  C   UNL A   1      42.987  24.169  25.473  1.00  0.00     0.010 A 
ATOM     37  C   UNL A   1      44.379  23.469  27.338  1.00  0.00     0.010 A 
ATOM     38  C   UNL A   1      43.663  24.464  26.672  1.00  0.00    -0.014 A 
BRANCH  38  39
ATOM     39  C   UNL A   1      43.458  25.765  27.316  1.00  0.00     0.031 A 
ATOM     40  C   UNL A   1      44.440  26.810  26.908  1.00  0.00     0.074 A 
ATOM     41  C   UNL A   1      42.361  26.094  28.035  1.00  0.00     0.049 A 
ATOM     42  N   UNL A   1      45.340  27.375  27.642  1.00  0.00    -0.248 NA
ATOM     43  C   UNL A   1      44.517  27.189  25.485  1.00  0.00     0.031 C 
ATOM     44  C   UNL A   1      41.158  25.279  28.235  1.00  0.00     0.029 A 
ATOM     45  N   UNL A   1      42.033  27.273  28.647  1.00  0.00    -0.354 N 
ATOM     46  C   UNL A   1      45.930  28.350  26.840  1.00  0.00     0.074 A 
ATOM     47  C   UNL A   1      45.527  28.064  25.491  1.00  0.00     0.031 C 
ATOM     48  C   UNL A   1      40.155  26.057  28.693  1.00  0.00     0.029 A 
ATOM     49  C   UNL A   1      40.692  27.370  28.999  1.00  0.00     0.049 A 
ATOM     50  H   UNL A   1      42.687  27.987  28.822  1.00  0.00     0.167 HD
ATOM     51  C   UNL A   1      46.438  29.485  27.398  1.00  0.00     0.037 A 
ATOM     52  C   UNL A   1      40.044  28.440  29.518  1.00  0.00     0.037 A 
ATOM     53  C   UNL A   1      46.551  29.342  28.826  1.00  0.00     0.049 A 
ATOM     54  C   UNL A   1      41.046  29.323  30.147  1.00  0.00     0.074 A 
ATOM     55  C   UNL A   1      47.380  28.712  29.725  1.00  0.00     0.029 A 
ATOM     56  N   UNL A   1      45.402  29.672  29.489  1.00  0.00    -0.354 N 
ATOM     57  N   UNL A   1      41.721  28.998  31.212  1.00  0.00    -0.248 NA
ATOM     58  C   UNL A   1      41.554  30.477  29.412  1.00  0.00     0.031 C 
ATOM     59  C   UNL A   1      46.616  28.541  30.919  1.00  0.00     0.029 A 
ATOM     60  C   UNL A   1      45.355  29.101  30.729  1.00  0.00     0.049 A 
ATOM     61  H   UNL A   1      44.695  30.249  29.119  1.00  0.00     0.167 HD
ATOM     62  C   UNL A   1      42.949  29.596  31.026  1.00  0.00     0.074 A 
ATOM     63  C   UNL A   1      42.726  30.635  30.029  1.00  0.00     0.031 C 
ATOM     64  C   UNL A   1      44.094  28.972  31.423  1.00  0.00     0.037 A 
BRANCH  51  65
ATOM     65  C   UNL A   1      46.334  30.875  26.797  1.00  0.00     0.057 A 
ATOM     66  C   UNL A   1      47.477  31.700  26.795  1.00  0.00     0.134 A 
ATOM     67  C   UNL A   1      45.118  31.546  26.557  1.00  0.00     0.134 A 
ATOM     68  F   UNL A   1      48.696  31.187  27.025  1.00  0.00    -0.206 F 
ATOM     69  C   UNL A   1      47.404  33.092  26.648  1.00  0.00     0.040 A 
ATOM     70  C   UNL A   1      45.039  32.929  26.360  1.00  0.00     0.040 A 
ATOM     71  F   UNL A   1      43.934  30.926  26.606  1.00  0.00    -0.206 F 
ATOM     72  C   UNL A   1      46.178  33.713  26.439  1.00  0.00     0.006 A 
ENDBRANCH  51  65
BRANCH  52  73
ATOM     73  C   UNL A   1      38.625  28.830  29.386  1.00  0.00     0.057 A 
ATOM     74  C   UNL A   1      37.776  28.905  30.499  1.00  0.00     0.134 A 
ATOM     75  C   UNL A   1      38.143  29.404  28.197  1.00  0.00     0.134 A 
ATOM     76  F   UNL A   1      38.163  28.413  31.684  1.00  0.00    -0.206 F 
ATOM     77  C   UNL A   1      36.531  29.543  30.442  1.00  0.00     0.040 A 
ATOM     78  C   UNL A   1      36.900  30.041  28.126  1.00  0.00     0.040 A 
ATOM     79  F   UNL A   1      38.903  29.439  27.092  1.00  0.00    -0.206 F 
ATOM     80  C   UNL A   1      36.097  30.127  29.255  1.00  0.00     0.006 A 
ENDBRANCH  52  73
BRANCH  64  81
ATOM     81  C   UNL A   1      43.989  27.966  32.525  1.00  0.00     0.057 A 
ATOM     82  C   UNL A   1      43.918  26.580  32.339  1.00  0.00     0.134 A 
ATOM     83  C   UNL A   1      44.030  28.433  33.843  1.00  0.00     0.134 A 
ATOM     84  F   UNL A   1      43.947  26.040  31.113  1.00  0.00    -0.206 F 
ATOM     85  C   UNL A   1      43.849  25.700  33.423  1.00  0.00     0.040 A 
ATOM     86  C   UNL A   1      43.995  27.564  34.934  1.00  0.00     0.040 A 
ATOM     87  F   UNL A   1      44.136  29.748  34.092  1.00  0.00    -0.206 F 
ATOM     88  C   UNL A   1      43.893  26.192  34.725  1.00  0.00     0.006 A 
ENDBRANCH  64  81
ENDBRANCH  38  39
ENDBRANCH  30  33
ENDBRANCH  28  29
ENDBRANCH  27  28
ENDBRANCH   1  27
TORSDOF 14
ENDMDL
