MODEL 1
REMARK VINA RESULT:     -13.7      0.000      0.000
REMARK SMILES Cc1c(C(=O)Nc2ccc(C(=O)Nc3ccccc3C(=O)NCCCCNC(=O)c3ccc(-c4c5nc(c(-c6c(F)cccc6F)c6ccc([nH]6)c(-c6c(F)cccc6F)c6nc(c(-c7c(F)cccc7F)c7ccc4[nH]7)C=C6)C=C5)cc3)cc2)cccc1[N+](=O)[O-]
REMARK SMILES IDX 23 1 22 2 20 3 21 4 19 6 14 7 15 8 16 9 18 10 17 11 13 12
REMARK SMILES IDX 11 13 12 14 10 16 7 17 8 18 85 19 9 20 84 21 6 22 4 23 5 24
REMARK SMILES IDX 3 26 1 27 2 28 89 29 86 30 88 31 87 32 90 33 91 34 92 35
REMARK SMILES IDX 24 36 25 37 26 38 27 39 28 40 29 42 30 43 31 44 83 45 32 46
REMARK SMILES IDX 82 47 33 48 34 49 35 50 76 51 36 52 81 53 75 54 77 55 37 56
REMARK SMILES IDX 80 57 74 58 73 59 38 61 64 62 47 63 63 64 48 65 51 66 62 67
REMARK SMILES IDX 78 68 49 69 50 70 61 72 79 73 52 74 39 75 40 76 45 77 41 78
REMARK SMILES IDX 42 79 44 80 46 81 43 82 65 83 66 84 71 85 67 86 68 87 70 88
REMARK SMILES IDX 72 89 69 90 53 91 54 92 59 93 55 94 56 95 58 96 60 97 57 98
REMARK H PARENT 22 5 13 15 6 25 27 41 77 60 51 71
REMARK Flexibility Score: inf
ROOT
ATOM      1  C   UNL A   1      37.177  20.074  24.385  1.00  0.00     0.116 C 
ENDROOT
BRANCH   1   2
ATOM      2  N   UNL A   1      36.965  18.817  25.094  1.00  0.00    -0.352 N 
ATOM      3  C   UNL A   1      35.987  17.841  25.045  1.00  0.00     0.253 C 
ATOM      4  O   UNL A   1      36.214  16.784  25.632  1.00  0.00    -0.269 OA
ATOM      5  H   UNL A   1      37.672  18.621  25.750  1.00  0.00     0.163 HD
BRANCH   3   6
ATOM      6  C   UNL A   1      34.674  18.031  24.363  1.00  0.00     0.063 A 
ATOM      7  C   UNL A   1      33.719  18.984  24.802  1.00  0.00     0.054 A 
ATOM      8  C   UNL A   1      32.500  19.104  24.109  1.00  0.00     0.027 A 
ATOM      9  C   UNL A   1      32.239  18.341  22.972  1.00  0.00     0.002 A 
ATOM     10  C   UNL A   1      34.328  17.182  23.299  1.00  0.00     0.016 A 
ATOM     11  C   UNL A   1      33.147  17.367  22.577  1.00  0.00     0.001 A 
BRANCH   7  12
ATOM     12  N   UNL A   1      33.857  19.905  25.865  1.00  0.00    -0.321 N 
ATOM     13  C   UNL A   1      33.809  21.281  25.921  1.00  0.00     0.255 C 
ATOM     14  O   UNL A   1      34.170  21.848  26.954  1.00  0.00    -0.269 OA
ATOM     15  H   UNL A   1      34.018  19.479  26.737  1.00  0.00     0.170 HD
BRANCH  13  16
ATOM     16  C   UNL A   1      33.142  22.092  24.865  1.00  0.00     0.040 A 
ATOM     17  C   UNL A   1      31.984  23.921  23.064  1.00  0.00     0.041 A 
ATOM     18  C   UNL A   1      31.209  23.248  23.992  1.00  0.00     0.027 A 
ATOM     19  C   UNL A   1      33.329  23.562  22.932  1.00  0.00     0.027 A 
ATOM     20  C   UNL A   1      31.796  22.434  24.945  1.00  0.00     0.016 A 
ATOM     21  C   UNL A   1      33.905  22.645  23.827  1.00  0.00     0.016 A 
BRANCH  17  22
ATOM     22  N   UNL A   1      31.488  25.006  22.323  1.00  0.00    -0.322 N 
ATOM     23  C   UNL A   1      31.496  26.369  22.583  1.00  0.00     0.256 C 
ATOM     24  O   UNL A   1      30.868  27.124  21.842  1.00  0.00    -0.269 OA
ATOM     25  H   UNL A   1      31.062  24.757  21.470  1.00  0.00     0.170 HD
BRANCH  23  26
ATOM     26  C   UNL A   1      32.225  26.970  23.742  1.00  0.00     0.049 A 
ATOM     27  C   UNL A   1      30.399  26.468  25.448  1.00  0.00     0.053 C 
ATOM     28  C   UNL A   1      31.670  27.162  25.030  1.00  0.00     0.039 A 
ATOM     29  C   UNL A   1      32.356  28.046  25.897  1.00  0.00     0.273 A 
ATOM     30  C   UNL A   1      33.528  27.422  23.460  1.00  0.00     0.014 A 
ATOM     31  C   UNL A   1      33.646  28.518  25.598  1.00  0.00     0.086 A 
ATOM     32  C   UNL A   1      34.250  28.158  24.398  1.00  0.00     0.008 A 
BRANCH  29  33
ATOM     33  N   UNL A   1      31.702  28.622  27.080  1.00  0.00     0.063 N 
ATOM     34  O   UNL A   1      31.371  27.845  27.985  1.00  0.00    -0.258 OA
ATOM     35  O   UNL A   1      31.592  29.855  27.133  1.00  0.00    -0.258 OA
ENDBRANCH  29  33
ENDBRANCH  23  26
ENDBRANCH  17  22
ENDBRANCH  13  16
ENDBRANCH   7  12
ENDBRANCH   3   6
ENDBRANCH   1   2
BRANCH   1  36
ATOM     36  C   UNL A   1      37.442  21.329  25.231  1.00  0.00     0.023 C 
BRANCH  36  37
ATOM     37  C   UNL A   1      38.808  21.472  25.894  1.00  0.00     0.023 C 
BRANCH  37  38
ATOM     38  C   UNL A   1      39.078  22.853  26.467  1.00  0.00     0.116 C 
BRANCH  38  39
ATOM     39  N   UNL A   1      40.468  23.089  26.852  1.00  0.00    -0.352 N 
ATOM     40  C   UNL A   1      41.094  24.277  27.207  1.00  0.00     0.251 C 
ATOM     41  H   UNL A   1      41.043  22.291  26.861  1.00  0.00     0.163 HD
ATOM     42  O   UNL A   1      42.280  24.289  27.487  1.00  0.00    -0.269 OA
BRANCH  40  43
ATOM     43  C   UNL A   1      40.273  25.501  27.394  1.00  0.00     0.039 A 
ATOM     44  C   UNL A   1      40.585  26.616  26.607  1.00  0.00     0.014 A 
ATOM     45  C   UNL A   1      39.431  25.632  28.492  1.00  0.00     0.014 A 
ATOM     46  C   UNL A   1      40.312  27.887  27.099  1.00  0.00     0.010 A 
ATOM     47  C   UNL A   1      39.269  26.883  29.043  1.00  0.00     0.010 A 
ATOM     48  C   UNL A   1      39.786  28.001  28.383  1.00  0.00    -0.014 A 
BRANCH  48  49
ATOM     49  C   UNL A   1      39.837  29.231  29.161  1.00  0.00     0.031 A 
ATOM     50  C   UNL A   1      38.802  30.260  28.972  1.00  0.00     0.074 A 
ATOM     51  C   UNL A   1      40.784  29.366  30.116  1.00  0.00     0.049 A 
ATOM     52  N   UNL A   1      38.921  31.492  29.332  1.00  0.00    -0.248 NA
ATOM     53  C   UNL A   1      37.552  29.984  28.278  1.00  0.00     0.031 C 
ATOM     54  C   UNL A   1      40.849  30.371  31.173  1.00  0.00     0.029 A 
ATOM     55  N   UNL A   1      42.026  28.715  30.177  1.00  0.00    -0.354 N 
ATOM     56  C   UNL A   1      37.694  32.099  29.178  1.00  0.00     0.074 A 
ATOM     57  C   UNL A   1      36.915  31.148  28.426  1.00  0.00     0.031 C 
ATOM     58  C   UNL A   1      42.125  30.489  31.576  1.00  0.00     0.029 A 
ATOM     59  C   UNL A   1      42.932  29.671  30.687  1.00  0.00     0.049 A 
ATOM     60  H   UNL A   1      42.225  27.787  29.917  1.00  0.00     0.167 HD
ATOM     61  C   UNL A   1      37.467  33.280  29.824  1.00  0.00     0.037 A 
ATOM     62  C   UNL A   1      43.968  30.134  29.930  1.00  0.00     0.037 A 
ATOM     63  C   UNL A   1      38.720  33.805  30.378  1.00  0.00     0.049 A 
ATOM     64  C   UNL A   1      43.923  31.625  29.680  1.00  0.00     0.074 A 
ATOM     65  C   UNL A   1      39.272  33.797  31.650  1.00  0.00     0.029 A 
ATOM     66  N   UNL A   1      39.746  34.168  29.510  1.00  0.00    -0.354 N 
ATOM     67  N   UNL A   1      42.855  32.360  29.834  1.00  0.00    -0.248 NA
ATOM     68  C   UNL A   1      45.070  32.401  29.217  1.00  0.00     0.031 C 
ATOM     69  C   UNL A   1      40.659  34.077  31.527  1.00  0.00     0.029 A 
ATOM     70  C   UNL A   1      40.944  34.286  30.188  1.00  0.00     0.049 A 
ATOM     71  H   UNL A   1      39.633  34.321  28.544  1.00  0.00     0.167 HD
ATOM     72  C   UNL A   1      43.132  33.654  29.474  1.00  0.00     0.074 A 
ATOM     73  C   UNL A   1      44.540  33.633  29.125  1.00  0.00     0.031 C 
ATOM     74  C   UNL A   1      42.172  34.627  29.479  1.00  0.00     0.037 A 
BRANCH  61  75
ATOM     75  C   UNL A   1      36.093  33.823  30.196  1.00  0.00     0.057 A 
ATOM     76  C   UNL A   1      35.210  34.275  29.191  1.00  0.00     0.134 A 
ATOM     77  C   UNL A   1      35.600  34.023  31.500  1.00  0.00     0.134 A 
ATOM     78  F   UNL A   1      35.469  34.091  27.889  1.00  0.00    -0.206 F 
ATOM     79  C   UNL A   1      34.008  34.950  29.463  1.00  0.00     0.040 A 
ATOM     80  C   UNL A   1      34.416  34.719  31.788  1.00  0.00     0.040 A 
ATOM     81  F   UNL A   1      36.200  33.522  32.579  1.00  0.00    -0.206 F 
ATOM     82  C   UNL A   1      33.619  35.200  30.768  1.00  0.00     0.006 A 
ENDBRANCH  61  75
BRANCH  62  83
ATOM     83  C   UNL A   1      44.502  29.117  28.984  1.00  0.00     0.057 A 
ATOM     84  C   UNL A   1      45.359  28.119  29.487  1.00  0.00     0.134 A 
ATOM     85  C   UNL A   1      43.913  28.880  27.741  1.00  0.00     0.134 A 
ATOM     86  F   UNL A   1      45.959  28.283  30.677  1.00  0.00    -0.206 F 
ATOM     87  C   UNL A   1      45.526  26.892  28.841  1.00  0.00     0.040 A 
ATOM     88  C   UNL A   1      44.084  27.657  27.077  1.00  0.00     0.040 A 
ATOM     89  F   UNL A   1      43.068  29.770  27.204  1.00  0.00    -0.206 F 
ATOM     90  C   UNL A   1      44.857  26.645  27.647  1.00  0.00     0.006 A 
ENDBRANCH  62  83
BRANCH  74  91
ATOM     91  C   UNL A   1      42.306  36.010  28.883  1.00  0.00     0.057 A 
ATOM     92  C   UNL A   1      43.009  37.068  29.478  1.00  0.00     0.134 A 
ATOM     93  C   UNL A   1      41.835  36.273  27.575  1.00  0.00     0.134 A 
ATOM     94  F   UNL A   1      43.614  36.930  30.666  1.00  0.00    -0.206 F 
ATOM     95  C   UNL A   1      43.181  38.309  28.848  1.00  0.00     0.040 A 
ATOM     96  C   UNL A   1      42.050  37.487  26.915  1.00  0.00     0.040 A 
ATOM     97  F   UNL A   1      41.164  35.350  26.868  1.00  0.00    -0.206 F 
ATOM     98  C   UNL A   1      42.712  38.519  27.558  1.00  0.00     0.006 A 
ENDBRANCH  74  91
ENDBRANCH  48  49
ENDBRANCH  40  43
ENDBRANCH  38  39
ENDBRANCH  37  38
ENDBRANCH  36  37
ENDBRANCH   1  36
TORSDOF 16
ENDMDL
MODEL 2
REMARK VINA RESULT:     -13.2      3.423      9.598
REMARK SMILES Cc1c(C(=O)Nc2ccc(C(=O)Nc3ccccc3C(=O)NCCCCNC(=O)c3ccc(-c4c5nc(c(-c6c(F)cccc6F)c6ccc([nH]6)c(-c6c(F)cccc6F)c6nc(c(-c7c(F)cccc7F)c7ccc4[nH]7)C=C6)C=C5)cc3)cc2)cccc1[N+](=O)[O-]
REMARK SMILES IDX 23 1 22 2 20 3 21 4 19 6 14 7 15 8 16 9 18 10 17 11 13 12
REMARK SMILES IDX 11 13 12 14 10 16 7 17 8 18 85 19 9 20 84 21 6 22 4 23 5 24
REMARK SMILES IDX 3 26 1 27 2 28 89 29 86 30 88 31 87 32 90 33 91 34 92 35
REMARK SMILES IDX 24 36 25 37 26 38 27 39 28 40 29 42 30 43 31 44 83 45 32 46
REMARK SMILES IDX 82 47 33 48 34 49 35 50 76 51 36 52 81 53 75 54 77 55 37 56
REMARK SMILES IDX 80 57 74 58 73 59 38 61 64 62 47 63 63 64 48 65 51 66 62 67
REMARK SMILES IDX 78 68 49 69 50 70 61 72 79 73 52 74 39 75 40 76 45 77 41 78
REMARK SMILES IDX 42 79 44 80 46 81 43 82 65 83 66 84 71 85 67 86 68 87 70 88
REMARK SMILES IDX 72 89 69 90 53 91 54 92 59 93 55 94 56 95 58 96 60 97 57 98
REMARK H PARENT 22 5 13 15 6 25 27 41 77 60 51 71
REMARK Flexibility Score: inf
ROOT
ATOM      1  C   UNL A   1      33.382  33.041  28.010  1.00  0.00     0.116 C 
ENDROOT
BRANCH   1   2
ATOM      2  N   UNL A   1      32.236  32.770  27.150  1.00  0.00    -0.352 N 
ATOM      3  C   UNL A   1      31.768  31.642  26.501  1.00  0.00     0.253 C 
ATOM      4  O   UNL A   1      30.638  31.696  26.018  1.00  0.00    -0.269 OA
ATOM      5  H   UNL A   1      31.672  33.563  26.998  1.00  0.00     0.163 HD
BRANCH   3   6
ATOM      6  C   UNL A   1      32.579  30.403  26.326  1.00  0.00     0.063 A 
ATOM      7  C   UNL A   1      32.475  29.580  25.174  1.00  0.00     0.054 A 
ATOM      8  C   UNL A   1      33.272  28.424  25.082  1.00  0.00     0.027 A 
ATOM      9  C   UNL A   1      34.196  28.104  26.076  1.00  0.00     0.002 A 
ATOM     10  C   UNL A   1      33.418  29.982  27.371  1.00  0.00     0.016 A 
ATOM     11  C   UNL A   1      34.256  28.874  27.229  1.00  0.00     0.001 A 
BRANCH   7  12
ATOM     12  N   UNL A   1      31.673  29.805  24.033  1.00  0.00    -0.321 N 
ATOM     13  C   UNL A   1      31.052  28.955  23.144  1.00  0.00     0.255 C 
ATOM     14  O   UNL A   1      30.578  29.420  22.106  1.00  0.00    -0.269 OA
ATOM     15  H   UNL A   1      31.529  30.758  23.834  1.00  0.00     0.170 HD
BRANCH  13  16
ATOM     16  C   UNL A   1      30.746  27.539  23.489  1.00  0.00     0.040 A 
ATOM     17  C   UNL A   1      30.465  24.874  24.355  1.00  0.00     0.041 A 
ATOM     18  C   UNL A   1      31.015  25.167  23.118  1.00  0.00     0.027 A 
ATOM     19  C   UNL A   1      29.908  25.917  25.102  1.00  0.00     0.027 A 
ATOM     20  C   UNL A   1      31.250  26.479  22.744  1.00  0.00     0.016 A 
ATOM     21  C   UNL A   1      30.044  27.246  24.666  1.00  0.00     0.016 A 
BRANCH  17  22
ATOM     22  N   UNL A   1      30.532  23.588  24.917  1.00  0.00    -0.322 N 
ATOM     23  C   UNL A   1      31.619  22.786  25.233  1.00  0.00     0.256 C 
ATOM     24  O   UNL A   1      31.422  21.625  25.590  1.00  0.00    -0.269 OA
ATOM     25  H   UNL A   1      29.656  23.187  25.122  1.00  0.00     0.170 HD
BRANCH  23  26
ATOM     26  C   UNL A   1      33.033  23.263  25.145  1.00  0.00     0.049 A 
ATOM     27  C   UNL A   1      33.442  22.340  22.804  1.00  0.00     0.053 C 
ATOM     28  C   UNL A   1      33.931  22.932  24.102  1.00  0.00     0.039 A 
ATOM     29  C   UNL A   1      35.306  23.168  24.341  1.00  0.00     0.273 A 
ATOM     30  C   UNL A   1      33.473  24.037  26.236  1.00  0.00     0.014 A 
ATOM     31  C   UNL A   1      35.743  23.916  25.448  1.00  0.00     0.086 A 
ATOM     32  C   UNL A   1      34.814  24.395  26.365  1.00  0.00     0.008 A 
BRANCH  29  33
ATOM     33  N   UNL A   1      36.347  22.527  23.526  1.00  0.00     0.063 N 
ATOM     34  O   UNL A   1      36.515  22.953  22.376  1.00  0.00    -0.258 OA
ATOM     35  O   UNL A   1      37.045  21.656  24.065  1.00  0.00    -0.258 OA
ENDBRANCH  29  33
ENDBRANCH  23  26
ENDBRANCH  17  22
ENDBRANCH  13  16
ENDBRANCH   7  12
ENDBRANCH   3   6
ENDBRANCH   1   2
BRANCH   1  36
ATOM     36  C   UNL A   1      34.002  34.446  27.942  1.00  0.00     0.023 C 
BRANCH  36  37
ATOM     37  C   UNL A   1      33.493  35.503  28.916  1.00  0.00     0.023 C 
BRANCH  37  38
ATOM     38  C   UNL A   1      33.121  34.959  30.284  1.00  0.00     0.116 C 
BRANCH  38  39
ATOM     39  N   UNL A   1      33.946  35.459  31.382  1.00  0.00    -0.352 N 
ATOM     40  C   UNL A   1      35.084  34.906  31.953  1.00  0.00     0.251 C 
ATOM     41  H   UNL A   1      33.650  36.313  31.773  1.00  0.00     0.163 HD
ATOM     42  O   UNL A   1      35.639  35.463  32.884  1.00  0.00    -0.269 OA
BRANCH  40  43
ATOM     43  C   UNL A   1      35.707  33.716  31.319  1.00  0.00     0.039 A 
ATOM     44  C   UNL A   1      35.721  32.524  32.054  1.00  0.00     0.014 A 
ATOM     45  C   UNL A   1      36.492  33.846  30.179  1.00  0.00     0.014 A 
ATOM     46  C   UNL A   1      36.738  31.605  31.828  1.00  0.00     0.010 A 
ATOM     47  C   UNL A   1      37.571  33.004  30.033  1.00  0.00     0.010 A 
ATOM     48  C   UNL A   1      37.736  31.931  30.914  1.00  0.00    -0.014 A 
BRANCH  48  49
ATOM     49  C   UNL A   1      39.037  31.277  30.882  1.00  0.00     0.031 A 
ATOM     50  C   UNL A   1      39.202  30.011  30.150  1.00  0.00     0.074 A 
ATOM     51  C   UNL A   1      40.097  31.895  31.448  1.00  0.00     0.049 A 
ATOM     52  N   UNL A   1      40.175  29.186  30.327  1.00  0.00    -0.248 NA
ATOM     53  C   UNL A   1      38.213  29.535  29.192  1.00  0.00     0.031 C 
ATOM     54  C   UNL A   1      41.510  31.560  31.298  1.00  0.00     0.029 A 
ATOM     55  N   UNL A   1      40.073  32.852  32.475  1.00  0.00    -0.354 N 
ATOM     56  C   UNL A   1      40.103  28.227  29.340  1.00  0.00     0.074 A 
ATOM     57  C   UNL A   1      38.813  28.434  28.732  1.00  0.00     0.031 C 
ATOM     58  C   UNL A   1      42.181  32.042  32.356  1.00  0.00     0.029 A 
ATOM     59  C   UNL A   1      41.196  32.570  33.284  1.00  0.00     0.049 A 
ATOM     60  H   UNL A   1      39.412  33.569  32.604  1.00  0.00     0.167 HD
ATOM     61  C   UNL A   1      41.209  27.467  29.089  1.00  0.00     0.037 A 
ATOM     62  C   UNL A   1      41.047  32.160  34.577  1.00  0.00     0.037 A 
ATOM     63  C   UNL A   1      42.215  27.672  30.138  1.00  0.00     0.049 A 
ATOM     64  C   UNL A   1      41.622  30.790  34.854  1.00  0.00     0.074 A 
ATOM     65  C   UNL A   1      43.374  28.431  30.206  1.00  0.00     0.029 A 
ATOM     66  N   UNL A   1      41.920  27.292  31.445  1.00  0.00    -0.354 N 
ATOM     67  N   UNL A   1      41.905  29.915  33.927  1.00  0.00    -0.248 NA
ATOM     68  C   UNL A   1      41.905  30.289  36.196  1.00  0.00     0.031 C 
ATOM     69  C   UNL A   1      43.724  28.573  31.576  1.00  0.00     0.029 A 
ATOM     70  C   UNL A   1      42.800  27.876  32.335  1.00  0.00     0.049 A 
ATOM     71  H   UNL A   1      41.185  26.688  31.699  1.00  0.00     0.167 HD
ATOM     72  C   UNL A   1      42.357  28.759  34.508  1.00  0.00     0.074 A 
ATOM     73  C   UNL A   1      42.367  29.054  35.929  1.00  0.00     0.031 C 
ATOM     74  C   UNL A   1      42.667  27.650  33.770  1.00  0.00     0.037 A 
BRANCH  61  75
ATOM     75  C   UNL A   1      41.502  26.756  27.774  1.00  0.00     0.057 A 
ATOM     76  C   UNL A   1      41.743  25.365  27.755  1.00  0.00     0.134 A 
ATOM     77  C   UNL A   1      41.658  27.365  26.514  1.00  0.00     0.134 A 
ATOM     78  F   UNL A   1      41.560  24.602  28.841  1.00  0.00    -0.206 F 
ATOM     79  C   UNL A   1      42.193  24.673  26.617  1.00  0.00     0.040 A 
ATOM     80  C   UNL A   1      42.132  26.694  25.377  1.00  0.00     0.040 A 
ATOM     81  F   UNL A   1      41.319  28.632  26.282  1.00  0.00    -0.206 F 
ATOM     82  C   UNL A   1      42.417  25.343  25.427  1.00  0.00     0.006 A 
ENDBRANCH  61  75
BRANCH  62  83
ATOM     83  C   UNL A   1      39.850  32.743  35.241  1.00  0.00     0.057 A 
ATOM     84  C   UNL A   1      38.692  31.950  35.355  1.00  0.00     0.134 A 
ATOM     85  C   UNL A   1      39.936  33.863  36.072  1.00  0.00     0.134 A 
ATOM     86  F   UNL A   1      38.545  30.859  34.586  1.00  0.00    -0.206 F 
ATOM     87  C   UNL A   1      37.724  32.189  36.333  1.00  0.00     0.040 A 
ATOM     88  C   UNL A   1      38.963  34.120  37.048  1.00  0.00     0.040 A 
ATOM     89  F   UNL A   1      41.015  34.656  36.040  1.00  0.00    -0.206 F 
ATOM     90  C   UNL A   1      37.877  33.259  37.208  1.00  0.00     0.006 A 
ENDBRANCH  62  83
BRANCH  74  91
ATOM     91  C   UNL A   1      42.941  26.267  34.316  1.00  0.00     0.057 A 
ATOM     92  C   UNL A   1      42.010  25.493  35.024  1.00  0.00     0.134 A 
ATOM     93  C   UNL A   1      44.148  25.601  34.001  1.00  0.00     0.134 A 
ATOM     94  F   UNL A   1      40.778  25.946  35.294  1.00  0.00    -0.206 F 
ATOM     95  C   UNL A   1      42.279  24.180  35.437  1.00  0.00     0.040 A 
ATOM     96  C   UNL A   1      44.404  24.273  34.358  1.00  0.00     0.040 A 
ATOM     97  F   UNL A   1      45.126  26.204  33.307  1.00  0.00    -0.206 F 
ATOM     98  C   UNL A   1      43.473  23.561  35.094  1.00  0.00     0.006 A 
ENDBRANCH  74  91
ENDBRANCH  48  49
ENDBRANCH  40  43
ENDBRANCH  38  39
ENDBRANCH  37  38
ENDBRANCH  36  37
ENDBRANCH   1  36
TORSDOF 16
ENDMDL
MODEL 3
REMARK VINA RESULT:     -12.7      3.898      9.574
REMARK SMILES Cc1c(C(=O)Nc2ccc(C(=O)Nc3ccccc3C(=O)NCCCCNC(=O)c3ccc(-c4c5nc(c(-c6c(F)cccc6F)c6ccc([nH]6)c(-c6c(F)cccc6F)c6nc(c(-c7c(F)cccc7F)c7ccc4[nH]7)C=C6)C=C5)cc3)cc2)cccc1[N+](=O)[O-]
REMARK SMILES IDX 23 1 22 2 20 3 21 4 19 6 14 7 15 8 16 9 18 10 17 11 13 12
REMARK SMILES IDX 11 13 12 14 10 16 7 17 8 18 85 19 9 20 84 21 6 22 4 23 5 24
REMARK SMILES IDX 3 26 1 27 2 28 89 29 86 30 88 31 87 32 90 33 91 34 92 35
REMARK SMILES IDX 24 36 25 37 26 38 27 39 28 40 29 42 30 43 31 44 83 45 32 46
REMARK SMILES IDX 82 47 33 48 34 49 35 50 76 51 36 52 81 53 75 54 77 55 37 56
REMARK SMILES IDX 80 57 74 58 73 59 38 61 64 62 47 63 63 64 48 65 51 66 62 67
REMARK SMILES IDX 78 68 49 69 50 70 61 72 79 73 52 74 39 75 40 76 45 77 41 78
REMARK SMILES IDX 42 79 44 80 46 81 43 82 65 83 66 84 71 85 67 86 68 87 70 88
REMARK SMILES IDX 72 89 69 90 53 91 54 92 59 93 55 94 56 95 58 96 60 97 57 98
REMARK H PARENT 22 5 13 15 6 25 27 41 77 60 51 71
REMARK Flexibility Score: inf
ROOT
ATOM      1  C   UNL A   1      33.871  33.451  27.974  1.00  0.00     0.116 C 
ENDROOT
BRANCH   1   2
ATOM      2  N   UNL A   1      32.585  33.358  27.292  1.00  0.00    -0.352 N 
ATOM      3  C   UNL A   1      31.838  32.308  26.790  1.00  0.00     0.253 C 
ATOM      4  O   UNL A   1      30.679  32.550  26.455  1.00  0.00    -0.269 OA
ATOM      5  H   UNL A   1      32.156  34.235  27.158  1.00  0.00     0.163 HD
BRANCH   3   6
ATOM      6  C   UNL A   1      32.383  30.934  26.599  1.00  0.00     0.063 A 
ATOM      7  C   UNL A   1      31.811  30.007  25.689  1.00  0.00     0.054 A 
ATOM      8  C   UNL A   1      32.380  28.725  25.566  1.00  0.00     0.027 A 
ATOM      9  C   UNL A   1      33.523  28.372  26.282  1.00  0.00     0.002 A 
ATOM     10  C   UNL A   1      33.449  30.503  27.406  1.00  0.00     0.016 A 
ATOM     11  C   UNL A   1      34.047  29.256  27.215  1.00  0.00     0.001 A 
BRANCH   7  12
ATOM     12  N   UNL A   1      30.723  30.228  24.815  1.00  0.00    -0.321 N 
ATOM     13  C   UNL A   1      30.489  29.870  23.505  1.00  0.00     0.255 C 
ATOM     14  O   UNL A   1      29.534  30.373  22.911  1.00  0.00    -0.269 OA
ATOM     15  H   UNL A   1      29.987  30.738  25.223  1.00  0.00     0.170 HD
BRANCH  13  16
ATOM     16  C   UNL A   1      31.214  28.744  22.852  1.00  0.00     0.040 A 
ATOM     17  C   UNL A   1      32.611  26.470  21.955  1.00  0.00     0.041 A 
ATOM     18  C   UNL A   1      33.260  27.679  22.136  1.00  0.00     0.027 A 
ATOM     19  C   UNL A   1      31.218  26.435  22.076  1.00  0.00     0.027 A 
ATOM     20  C   UNL A   1      32.593  28.764  22.680  1.00  0.00     0.016 A 
ATOM     21  C   UNL A   1      30.522  27.572  22.519  1.00  0.00     0.016 A 
BRANCH  17  22
ATOM     22  N   UNL A   1      33.311  25.270  21.746  1.00  0.00    -0.322 N 
ATOM     23  C   UNL A   1      33.742  24.298  22.638  1.00  0.00     0.256 C 
ATOM     24  O   UNL A   1      34.470  23.393  22.231  1.00  0.00    -0.269 OA
ATOM     25  H   UNL A   1      33.534  25.086  20.805  1.00  0.00     0.170 HD
BRANCH  23  26
ATOM     26  C   UNL A   1      33.376  24.306  24.087  1.00  0.00     0.049 A 
ATOM     27  C   UNL A   1      31.063  23.293  23.747  1.00  0.00     0.053 C 
ATOM     28  C   UNL A   1      32.093  23.993  24.596  1.00  0.00     0.039 A 
ATOM     29  C   UNL A   1      31.821  24.380  25.929  1.00  0.00     0.273 A 
ATOM     30  C   UNL A   1      34.398  24.727  24.960  1.00  0.00     0.014 A 
ATOM     31  C   UNL A   1      32.838  24.828  26.789  1.00  0.00     0.086 A 
ATOM     32  C   UNL A   1      34.139  24.949  26.312  1.00  0.00     0.008 A 
BRANCH  29  33
ATOM     33  N   UNL A   1      30.445  24.467  26.437  1.00  0.00     0.063 N 
ATOM     34  O   UNL A   1      30.031  23.528  27.130  1.00  0.00    -0.258 OA
ATOM     35  O   UNL A   1      29.811  25.507  26.208  1.00  0.00    -0.258 OA
ENDBRANCH  29  33
ENDBRANCH  23  26
ENDBRANCH  17  22
ENDBRANCH  13  16
ENDBRANCH   7  12
ENDBRANCH   3   6
ENDBRANCH   1   2
BRANCH   1  36
ATOM     36  C   UNL A   1      34.465  34.853  28.180  1.00  0.00     0.023 C 
BRANCH  36  37
ATOM     37  C   UNL A   1      33.771  35.788  29.166  1.00  0.00     0.023 C 
BRANCH  37  38
ATOM     38  C   UNL A   1      33.400  35.133  30.486  1.00  0.00     0.116 C 
BRANCH  38  39
ATOM     39  N   UNL A   1      34.199  35.571  31.628  1.00  0.00    -0.352 N 
ATOM     40  C   UNL A   1      35.308  34.971  32.209  1.00  0.00     0.251 C 
ATOM     41  H   UNL A   1      33.908  36.413  32.046  1.00  0.00     0.163 HD
ATOM     42  O   UNL A   1      35.845  35.477  33.179  1.00  0.00    -0.269 OA
BRANCH  40  43
ATOM     43  C   UNL A   1      35.927  33.795  31.545  1.00  0.00     0.039 A 
ATOM     44  C   UNL A   1      35.940  32.585  32.250  1.00  0.00     0.014 A 
ATOM     45  C   UNL A   1      36.710  33.951  30.407  1.00  0.00     0.014 A 
ATOM     46  C   UNL A   1      36.955  31.670  31.999  1.00  0.00     0.010 A 
ATOM     47  C   UNL A   1      37.787  33.111  30.237  1.00  0.00     0.010 A 
ATOM     48  C   UNL A   1      37.951  32.016  31.091  1.00  0.00    -0.014 A 
BRANCH  48  49
ATOM     49  C   UNL A   1      39.250  31.361  31.041  1.00  0.00     0.031 A 
ATOM     50  C   UNL A   1      39.412  30.114  30.275  1.00  0.00     0.074 A 
ATOM     51  C   UNL A   1      40.313  31.961  31.622  1.00  0.00     0.049 A 
ATOM     52  N   UNL A   1      40.384  29.282  30.428  1.00  0.00    -0.248 NA
ATOM     53  C   UNL A   1      38.421  29.666  29.305  1.00  0.00     0.031 C 
ATOM     54  C   UNL A   1      41.725  31.627  31.462  1.00  0.00     0.029 A 
ATOM     55  N   UNL A   1      40.292  32.889  32.674  1.00  0.00    -0.354 N 
ATOM     56  C   UNL A   1      40.309  28.351  29.416  1.00  0.00     0.074 A 
ATOM     57  C   UNL A   1      39.018  28.578  28.815  1.00  0.00     0.031 C 
ATOM     58  C   UNL A   1      42.398  32.079  32.532  1.00  0.00     0.029 A 
ATOM     59  C   UNL A   1      41.415  32.583  33.474  1.00  0.00     0.049 A 
ATOM     60  H   UNL A   1      39.632  33.604  32.824  1.00  0.00     0.167 HD
ATOM     61  C   UNL A   1      41.412  27.595  29.144  1.00  0.00     0.037 A 
ATOM     62  C   UNL A   1      41.266  32.139  34.756  1.00  0.00     0.037 A 
ATOM     63  C   UNL A   1      42.420  27.770  30.196  1.00  0.00     0.049 A 
ATOM     64  C   UNL A   1      41.838  30.760  34.995  1.00  0.00     0.074 A 
ATOM     65  C   UNL A   1      43.580  28.524  30.284  1.00  0.00     0.029 A 
ATOM     66  N   UNL A   1      42.125  27.355  31.493  1.00  0.00    -0.354 N 
ATOM     67  N   UNL A   1      42.119  29.910  34.045  1.00  0.00    -0.248 NA
ATOM     68  C   UNL A   1      42.121  30.223  36.323  1.00  0.00     0.031 C 
ATOM     69  C   UNL A   1      43.932  28.628  31.657  1.00  0.00     0.029 A 
ATOM     70  C   UNL A   1      43.007  27.913  32.398  1.00  0.00     0.049 A 
ATOM     71  H   UNL A   1      41.389  26.747  31.731  1.00  0.00     0.167 HD
ATOM     72  C   UNL A   1      42.568  28.738  34.595  1.00  0.00     0.074 A 
ATOM     73  C   UNL A   1      42.580  28.995  36.023  1.00  0.00     0.031 C 
ATOM     74  C   UNL A   1      42.875  27.649  33.827  1.00  0.00     0.037 A 
BRANCH  61  75
ATOM     75  C   UNL A   1      41.703  26.920  27.809  1.00  0.00     0.057 A 
ATOM     76  C   UNL A   1      42.161  25.585  27.773  1.00  0.00     0.134 A 
ATOM     77  C   UNL A   1      41.652  27.525  26.539  1.00  0.00     0.134 A 
ATOM     78  F   UNL A   1      42.195  24.819  28.871  1.00  0.00    -0.206 F 
ATOM     79  C   UNL A   1      42.618  24.955  26.602  1.00  0.00     0.040 A 
ATOM     80  C   UNL A   1      42.129  26.921  25.367  1.00  0.00     0.040 A 
ATOM     81  F   UNL A   1      41.095  28.719  26.335  1.00  0.00    -0.206 F 
ATOM     82  C   UNL A   1      42.630  25.633  25.395  1.00  0.00     0.006 A 
ENDBRANCH  61  75
BRANCH  62  83
ATOM     83  C   UNL A   1      40.071  32.707  35.437  1.00  0.00     0.057 A 
ATOM     84  C   UNL A   1      38.908  31.917  35.521  1.00  0.00     0.134 A 
ATOM     85  C   UNL A   1      40.162  33.797  36.306  1.00  0.00     0.134 A 
ATOM     86  F   UNL A   1      38.756  30.854  34.715  1.00  0.00    -0.206 F 
ATOM     87  C   UNL A   1      37.939  32.129  36.505  1.00  0.00     0.040 A 
ATOM     88  C   UNL A   1      39.188  34.027  37.288  1.00  0.00     0.040 A 
ATOM     89  F   UNL A   1      41.246  34.584  36.304  1.00  0.00    -0.206 F 
ATOM     90  C   UNL A   1      38.096  33.167  37.416  1.00  0.00     0.006 A 
ENDBRANCH  62  83
BRANCH  74  91
ATOM     91  C   UNL A   1      43.146  26.251  34.335  1.00  0.00     0.057 A 
ATOM     92  C   UNL A   1      42.190  25.428  34.948  1.00  0.00     0.134 A 
ATOM     93  C   UNL A   1      44.388  25.625  34.075  1.00  0.00     0.134 A 
ATOM     94  F   UNL A   1      40.933  25.843  35.152  1.00  0.00    -0.206 F 
ATOM     95  C   UNL A   1      42.463  24.106  35.326  1.00  0.00     0.040 A 
ATOM     96  C   UNL A   1      44.652  24.290  34.395  1.00  0.00     0.040 A 
ATOM     97  F   UNL A   1      45.394  26.277  33.472  1.00  0.00    -0.206 F 
ATOM     98  C   UNL A   1      43.692  23.527  35.040  1.00  0.00     0.006 A 
ENDBRANCH  74  91
ENDBRANCH  48  49
ENDBRANCH  40  43
ENDBRANCH  38  39
ENDBRANCH  37  38
ENDBRANCH  36  37
ENDBRANCH   1  36
TORSDOF 16
ENDMDL
