MODEL 1
REMARK VINA RESULT:     -12.1      0.000      0.000
REMARK SMILES Cc1nc2scc(C)n2c1CNc1ccc(C(=O)NCCCCNC(=O)c2ccc(-c3c4nc(c(-c5c(F)cccc5F)c5ccc([nH]5)c(-c5c(F)cccc5F)c5nc(c(-c6c(F)cccc6F)c6ccc3[nH]6)C=C5)C=C4)cc2)cc1
REMARK SMILES IDX 21 1 20 2 19 3 17 4 18 5 16 7 13 8 14 9 82 10 15 11 81 12
REMARK SMILES IDX 12 13 11 15 10 16 1 17 2 18 3 19 4 20 9 21 5 22 7 23 6 24
REMARK SMILES IDX 8 25 22 26 23 27 24 28 25 29 26 31 27 32 28 33 80 34 29 35
REMARK SMILES IDX 79 36 30 37 31 38 32 39 73 40 33 41 78 42 72 43 74 44 34 45
REMARK SMILES IDX 77 46 71 47 70 48 35 50 61 51 44 52 60 53 45 54 48 55 59 56
REMARK SMILES IDX 75 57 46 58 47 59 58 61 76 62 49 63 36 64 37 65 42 66 38 67
REMARK SMILES IDX 39 68 41 69 43 70 40 71 62 72 63 73 68 74 64 75 65 76 67 77
REMARK SMILES IDX 69 78 66 79 50 80 51 81 56 82 52 83 53 84 55 85 57 86 54 87
REMARK H PARENT 19 6 12 14 24 30 74 49 48 60
REMARK Flexibility Score: inf
ROOT
ATOM      1  C   UNL A   1      32.793  29.619  26.408  1.00  0.00     0.023 C 
ENDROOT
BRANCH   1   2
ATOM      2  C   UNL A   1      32.865  29.465  24.884  1.00  0.00     0.116 C 
BRANCH   2   3
ATOM      3  N   UNL A   1      31.575  29.704  24.267  1.00  0.00    -0.352 N 
ATOM      4  C   UNL A   1      30.655  28.891  23.656  1.00  0.00     0.251 C 
ATOM      5  O   UNL A   1      29.624  29.433  23.250  1.00  0.00    -0.269 OA
ATOM      6  H   UNL A   1      31.302  30.650  24.292  1.00  0.00     0.163 HD
BRANCH   4   7
ATOM      7  C   UNL A   1      30.794  27.410  23.515  1.00  0.00     0.039 A 
ATOM      8  C   UNL A   1      31.230  24.604  23.547  1.00  0.00     0.034 A 
ATOM      9  C   UNL A   1      30.681  25.254  24.653  1.00  0.00     0.026 A 
ATOM     10  C   UNL A   1      31.455  25.358  22.395  1.00  0.00     0.026 A 
ATOM     11  C   UNL A   1      30.489  26.640  24.648  1.00  0.00     0.016 A 
ATOM     12  C   UNL A   1      31.204  26.737  22.366  1.00  0.00     0.016 A 
BRANCH   8  13
ATOM     13  N   UNL A   1      31.657  23.296  23.673  1.00  0.00    -0.379 N 
ATOM     14  H   UNL A   1      31.731  22.728  22.873  1.00  0.00     0.160 HD
BRANCH  13  15
ATOM     15  C   UNL A   1      31.998  22.754  24.976  1.00  0.00     0.169 C 
BRANCH  15  16
ATOM     16  C   UNL A   1      33.292  22.025  24.981  1.00  0.00     0.066 A 
ATOM     17  C   UNL A   1      32.629  19.553  24.505  1.00  0.00     0.069 C 
ATOM     18  C   UNL A   1      33.562  20.668  24.797  1.00  0.00     0.062 A 
ATOM     19  N   UNL A   1      34.907  20.397  24.928  1.00  0.00    -0.224 NA
ATOM     20  C   UNL A   1      35.430  21.565  25.162  1.00  0.00     0.194 A 
ATOM     21  N   UNL A   1      34.534  22.599  25.171  1.00  0.00    -0.290 N 
ATOM     22  S   UNL A   1      37.056  22.105  25.427  1.00  0.00    -0.105 S 
ATOM     23  C   UNL A   1      35.113  23.853  25.354  1.00  0.00     0.032 A 
ATOM     24  C   UNL A   1      36.451  23.755  25.505  1.00  0.00     0.090 A 
ATOM     25  C   UNL A   1      34.390  25.151  25.344  1.00  0.00     0.066 C 
ENDBRANCH  15  16
ENDBRANCH  13  15
ENDBRANCH   8  13
ENDBRANCH   4   7
ENDBRANCH   2   3
ENDBRANCH   1   2
BRANCH   1  26
ATOM     26  C   UNL A   1      33.687  28.656  27.203  1.00  0.00     0.023 C 
BRANCH  26  27
ATOM     27  C   UNL A   1      35.122  29.130  27.408  1.00  0.00     0.116 C 
BRANCH  27  28
ATOM     28  N   UNL A   1      35.284  29.948  28.608  1.00  0.00    -0.352 N 
ATOM     29  C   UNL A   1      36.296  29.898  29.552  1.00  0.00     0.251 C 
ATOM     30  H   UNL A   1      34.584  30.622  28.766  1.00  0.00     0.163 HD
ATOM     31  O   UNL A   1      36.139  30.346  30.674  1.00  0.00    -0.269 OA
BRANCH  29  32
ATOM     32  C   UNL A   1      37.584  29.302  29.160  1.00  0.00     0.039 A 
ATOM     33  C   UNL A   1      38.271  29.734  28.022  1.00  0.00     0.014 A 
ATOM     34  C   UNL A   1      38.119  28.324  29.992  1.00  0.00     0.014 A 
ATOM     35  C   UNL A   1      39.547  29.233  27.781  1.00  0.00     0.010 A 
ATOM     36  C   UNL A   1      39.427  27.943  29.835  1.00  0.00     0.010 A 
ATOM     37  C   UNL A   1      40.132  28.353  28.707  1.00  0.00    -0.014 A 
BRANCH  37  38
ATOM     38  C   UNL A   1      41.523  27.936  28.567  1.00  0.00     0.031 A 
ATOM     39  C   UNL A   1      41.732  26.678  27.798  1.00  0.00     0.074 A 
ATOM     40  C   UNL A   1      42.561  28.735  28.897  1.00  0.00     0.049 A 
ATOM     41  N   UNL A   1      42.190  25.550  28.230  1.00  0.00    -0.248 NA
ATOM     42  C   UNL A   1      41.269  26.633  26.400  1.00  0.00     0.031 C 
ATOM     43  C   UNL A   1      42.528  30.129  29.359  1.00  0.00     0.029 A 
ATOM     44  N   UNL A   1      43.896  28.490  28.788  1.00  0.00    -0.354 N 
ATOM     45  C   UNL A   1      42.268  24.712  27.119  1.00  0.00     0.074 A 
ATOM     46  C   UNL A   1      41.531  25.366  26.071  1.00  0.00     0.031 C 
ATOM     47  C   UNL A   1      43.762  30.668  29.270  1.00  0.00     0.029 A 
ATOM     48  C   UNL A   1      44.699  29.616  28.931  1.00  0.00     0.049 A 
ATOM     49  H   UNL A   1      44.262  27.591  28.623  1.00  0.00     0.167 HD
ATOM     50  C   UNL A   1      43.141  23.665  27.086  1.00  0.00     0.037 A 
ATOM     51  C   UNL A   1      46.042  29.685  28.780  1.00  0.00     0.037 A 
ATOM     52  C   UNL A   1      43.621  23.354  28.410  1.00  0.00     0.049 A 
ATOM     53  C   UNL A   1      46.574  28.309  28.898  1.00  0.00     0.074 A 
ATOM     54  C   UNL A   1      43.042  22.946  29.594  1.00  0.00     0.029 A 
ATOM     55  N   UNL A   1      44.873  23.810  28.741  1.00  0.00    -0.354 N 
ATOM     56  N   UNL A   1      46.562  27.619  30.003  1.00  0.00    -0.248 NA
ATOM     57  C   UNL A   1      46.726  27.532  27.679  1.00  0.00     0.031 C 
ATOM     58  C   UNL A   1      43.781  23.616  30.615  1.00  0.00     0.029 A 
ATOM     59  C   UNL A   1      44.805  24.341  30.002  1.00  0.00     0.049 A 
ATOM     60  H   UNL A   1      45.676  23.765  28.175  1.00  0.00     0.167 HD
ATOM     61  C   UNL A   1      46.261  26.325  29.606  1.00  0.00     0.074 A 
ATOM     62  C   UNL A   1      46.491  26.310  28.164  1.00  0.00     0.031 C 
ATOM     63  C   UNL A   1      45.583  25.478  30.437  1.00  0.00     0.037 A 
BRANCH  50  64
ATOM     64  C   UNL A   1      43.870  23.185  25.849  1.00  0.00     0.057 A 
ATOM     65  C   UNL A   1      43.867  21.809  25.545  1.00  0.00     0.134 A 
ATOM     66  C   UNL A   1      44.815  23.946  25.133  1.00  0.00     0.134 A 
ATOM     67  F   UNL A   1      43.017  20.969  26.157  1.00  0.00    -0.206 F 
ATOM     68  C   UNL A   1      44.796  21.226  24.675  1.00  0.00     0.040 A 
ATOM     69  C   UNL A   1      45.713  23.382  24.222  1.00  0.00     0.040 A 
ATOM     70  F   UNL A   1      44.998  25.255  25.345  1.00  0.00    -0.206 F 
ATOM     71  C   UNL A   1      45.733  22.012  24.018  1.00  0.00     0.006 A 
ENDBRANCH  50  64
BRANCH  51  72
ATOM     72  C   UNL A   1      46.862  30.816  28.302  1.00  0.00     0.057 A 
ATOM     73  C   UNL A   1      46.755  31.297  26.992  1.00  0.00     0.134 A 
ATOM     74  C   UNL A   1      47.570  31.626  29.207  1.00  0.00     0.134 A 
ATOM     75  F   UNL A   1      46.064  30.611  26.070  1.00  0.00    -0.206 F 
ATOM     76  C   UNL A   1      47.304  32.527  26.604  1.00  0.00     0.040 A 
ATOM     77  C   UNL A   1      48.125  32.854  28.834  1.00  0.00     0.040 A 
ATOM     78  F   UNL A   1      47.668  31.290  30.502  1.00  0.00    -0.206 F 
ATOM     79  C   UNL A   1      47.981  33.315  27.531  1.00  0.00     0.006 A 
ENDBRANCH  51  72
BRANCH  63  80
ATOM     80  C   UNL A   1      45.439  25.885  31.880  1.00  0.00     0.057 A 
ATOM     81  C   UNL A   1      46.441  25.732  32.851  1.00  0.00     0.134 A 
ATOM     82  C   UNL A   1      44.292  26.586  32.266  1.00  0.00     0.134 A 
ATOM     83  F   UNL A   1      47.614  25.159  32.554  1.00  0.00    -0.206 F 
ATOM     84  C   UNL A   1      46.289  26.217  34.153  1.00  0.00     0.040 A 
ATOM     85  C   UNL A   1      44.142  27.105  33.554  1.00  0.00     0.040 A 
ATOM     86  F   UNL A   1      43.314  26.821  31.377  1.00  0.00    -0.206 F 
ATOM     87  C   UNL A   1      45.138  26.913  34.507  1.00  0.00     0.006 A 
ENDBRANCH  63  80
ENDBRANCH  37  38
ENDBRANCH  29  32
ENDBRANCH  27  28
ENDBRANCH  26  27
ENDBRANCH   1  26
TORSDOF 14
ENDMDL
MODEL 2
REMARK VINA RESULT:     -12.1      2.952      7.567
REMARK SMILES Cc1nc2scc(C)n2c1CNc1ccc(C(=O)NCCCCNC(=O)c2ccc(-c3c4nc(c(-c5c(F)cccc5F)c5ccc([nH]5)c(-c5c(F)cccc5F)c5nc(c(-c6c(F)cccc6F)c6ccc3[nH]6)C=C5)C=C4)cc2)cc1
REMARK SMILES IDX 21 1 20 2 19 3 17 4 18 5 16 7 13 8 14 9 82 10 15 11 81 12
REMARK SMILES IDX 12 13 11 15 10 16 1 17 2 18 3 19 4 20 9 21 5 22 7 23 6 24
REMARK SMILES IDX 8 25 22 26 23 27 24 28 25 29 26 31 27 32 28 33 80 34 29 35
REMARK SMILES IDX 79 36 30 37 31 38 32 39 73 40 33 41 78 42 72 43 74 44 34 45
REMARK SMILES IDX 77 46 71 47 70 48 35 50 61 51 44 52 60 53 45 54 48 55 59 56
REMARK SMILES IDX 75 57 46 58 47 59 58 61 76 62 49 63 36 64 37 65 42 66 38 67
REMARK SMILES IDX 39 68 41 69 43 70 40 71 62 72 63 73 68 74 64 75 65 76 67 77
REMARK SMILES IDX 69 78 66 79 50 80 51 81 56 82 52 83 53 84 55 85 57 86 54 87
REMARK H PARENT 19 6 12 14 24 30 74 49 48 60
REMARK Flexibility Score: inf
ROOT
ATOM      1  C   UNL A   1      36.241  21.276  24.757  1.00  0.00     0.023 C 
ENDROOT
BRANCH   1   2
ATOM      2  C   UNL A   1      35.190  21.350  25.870  1.00  0.00     0.116 C 
BRANCH   2   3
ATOM      3  N   UNL A   1      34.212  20.287  25.746  1.00  0.00    -0.352 N 
ATOM      4  C   UNL A   1      32.892  20.257  25.374  1.00  0.00     0.251 C 
ATOM      5  O   UNL A   1      32.350  19.149  25.357  1.00  0.00    -0.269 OA
ATOM      6  H   UNL A   1      34.571  19.400  25.978  1.00  0.00     0.163 HD
BRANCH   4   7
ATOM      7  C   UNL A   1      32.108  21.450  24.934  1.00  0.00     0.039 A 
ATOM      8  C   UNL A   1      30.906  23.822  23.938  1.00  0.00     0.034 A 
ATOM      9  C   UNL A   1      31.588  22.955  23.084  1.00  0.00     0.026 A 
ATOM     10  C   UNL A   1      30.744  23.433  25.268  1.00  0.00     0.026 A 
ATOM     11  C   UNL A   1      32.202  21.799  23.578  1.00  0.00     0.016 A 
ATOM     12  C   UNL A   1      31.304  22.243  25.752  1.00  0.00     0.016 A 
BRANCH   8  13
ATOM     13  N   UNL A   1      30.546  25.076  23.483  1.00  0.00    -0.379 N 
ATOM     14  H   UNL A   1      29.598  25.342  23.484  1.00  0.00     0.160 HD
BRANCH  13  15
ATOM     15  C   UNL A   1      31.554  26.005  23.006  1.00  0.00     0.169 C 
BRANCH  15  16
ATOM     16  C   UNL A   1      31.553  27.295  23.742  1.00  0.00     0.066 A 
ATOM     17  C   UNL A   1      29.586  28.629  22.679  1.00  0.00     0.069 C 
ATOM     18  C   UNL A   1      30.730  28.413  23.597  1.00  0.00     0.062 A 
ATOM     19  N   UNL A   1      31.098  29.427  24.456  1.00  0.00    -0.224 NA
ATOM     20  C   UNL A   1      32.100  28.920  25.112  1.00  0.00     0.194 A 
ATOM     21  N   UNL A   1      32.410  27.630  24.772  1.00  0.00    -0.290 N 
ATOM     22  S   UNL A   1      33.116  29.524  26.380  1.00  0.00    -0.105 S 
ATOM     23  C   UNL A   1      33.439  27.073  25.528  1.00  0.00     0.032 A 
ATOM     24  C   UNL A   1      33.918  27.959  26.427  1.00  0.00     0.090 A 
ATOM     25  C   UNL A   1      33.938  25.678  25.418  1.00  0.00     0.066 C 
ENDBRANCH  15  16
ENDBRANCH  13  15
ENDBRANCH   8  13
ENDBRANCH   4   7
ENDBRANCH   2   3
ENDBRANCH   1   2
BRANCH   1  26
ATOM     26  C   UNL A   1      37.270  20.145  24.907  1.00  0.00     0.023 C 
BRANCH  26  27
ATOM     27  C   UNL A   1      38.675  20.598  25.288  1.00  0.00     0.116 C 
BRANCH  27  28
ATOM     28  N   UNL A   1      39.591  19.482  25.516  1.00  0.00    -0.352 N 
ATOM     29  C   UNL A   1      40.927  19.527  25.877  1.00  0.00     0.251 C 
ATOM     30  H   UNL A   1      39.209  18.582  25.398  1.00  0.00     0.163 HD
ATOM     31  O   UNL A   1      41.671  18.584  25.674  1.00  0.00    -0.269 OA
BRANCH  29  32
ATOM     32  C   UNL A   1      41.429  20.745  26.535  1.00  0.00     0.039 A 
ATOM     33  C   UNL A   1      42.060  21.758  25.809  1.00  0.00     0.014 A 
ATOM     34  C   UNL A   1      41.210  20.872  27.903  1.00  0.00     0.014 A 
ATOM     35  C   UNL A   1      42.386  22.944  26.462  1.00  0.00     0.010 A 
ATOM     36  C   UNL A   1      41.398  22.088  28.509  1.00  0.00     0.010 A 
ATOM     37  C   UNL A   1      42.030  23.112  27.810  1.00  0.00    -0.014 A 
BRANCH  37  38
ATOM     38  C   UNL A   1      42.214  24.397  28.477  1.00  0.00     0.031 A 
ATOM     39  C   UNL A   1      41.111  25.378  28.277  1.00  0.00     0.074 A 
ATOM     40  C   UNL A   1      43.184  24.613  29.393  1.00  0.00     0.049 A 
ATOM     41  N   UNL A   1      41.157  26.509  27.654  1.00  0.00    -0.248 NA
ATOM     42  C   UNL A   1      39.759  25.004  28.727  1.00  0.00     0.031 C 
ATOM     43  C   UNL A   1      44.146  23.650  29.944  1.00  0.00     0.029 A 
ATOM     44  N   UNL A   1      43.447  25.740  30.109  1.00  0.00    -0.354 N 
ATOM     45  C   UNL A   1      39.898  27.088  27.807  1.00  0.00     0.074 A 
ATOM     46  C   UNL A   1      39.040  26.051  28.316  1.00  0.00     0.031 C 
ATOM     47  C   UNL A   1      44.722  24.165  31.052  1.00  0.00     0.029 A 
ATOM     48  C   UNL A   1      44.316  25.550  31.177  1.00  0.00     0.049 A 
ATOM     49  H   UNL A   1      43.056  26.616  29.889  1.00  0.00     0.167 HD
ATOM     50  C   UNL A   1      39.730  28.438  27.732  1.00  0.00     0.037 A 
ATOM     51  C   UNL A   1      44.679  26.465  32.107  1.00  0.00     0.037 A 
ATOM     52  C   UNL A   1      40.875  29.067  27.123  1.00  0.00     0.049 A 
ATOM     53  C   UNL A   1      44.382  27.804  31.552  1.00  0.00     0.074 A 
ATOM     54  C   UNL A   1      41.500  28.990  25.894  1.00  0.00     0.029 A 
ATOM     55  N   UNL A   1      41.775  29.672  27.964  1.00  0.00    -0.354 N 
ATOM     56  N   UNL A   1      45.016  28.327  30.541  1.00  0.00    -0.248 NA
ATOM     57  C   UNL A   1      43.084  28.389  31.845  1.00  0.00     0.031 C 
ATOM     58  C   UNL A   1      42.893  29.113  26.181  1.00  0.00     0.029 A 
ATOM     59  C   UNL A   1      43.034  29.321  27.554  1.00  0.00     0.049 A 
ATOM     60  H   UNL A   1      41.556  30.255  28.726  1.00  0.00     0.167 HD
ATOM     61  C   UNL A   1      44.036  28.983  29.812  1.00  0.00     0.074 A 
ATOM     62  C   UNL A   1      42.897  29.086  30.721  1.00  0.00     0.031 C 
ATOM     63  C   UNL A   1      44.145  29.119  28.457  1.00  0.00     0.037 A 
BRANCH  50  64
ATOM     64  C   UNL A   1      38.739  29.233  28.557  1.00  0.00     0.057 A 
ATOM     65  C   UNL A   1      38.766  29.112  29.960  1.00  0.00     0.134 A 
ATOM     66  C   UNL A   1      37.584  29.852  28.039  1.00  0.00     0.134 A 
ATOM     67  F   UNL A   1      39.807  28.540  30.584  1.00  0.00    -0.206 F 
ATOM     68  C   UNL A   1      37.687  29.487  30.771  1.00  0.00     0.040 A 
ATOM     69  C   UNL A   1      36.523  30.277  28.844  1.00  0.00     0.040 A 
ATOM     70  F   UNL A   1      37.366  29.988  26.726  1.00  0.00    -0.206 F 
ATOM     71  C   UNL A   1      36.554  30.061  30.212  1.00  0.00     0.006 A 
ENDBRANCH  50  64
BRANCH  51  72
ATOM     72  C   UNL A   1      45.035  26.252  33.524  1.00  0.00     0.057 A 
ATOM     73  C   UNL A   1      44.062  25.965  34.489  1.00  0.00     0.134 A 
ATOM     74  C   UNL A   1      46.372  26.053  33.910  1.00  0.00     0.134 A 
ATOM     75  F   UNL A   1      42.759  26.087  34.198  1.00  0.00    -0.206 F 
ATOM     76  C   UNL A   1      44.397  25.488  35.763  1.00  0.00     0.040 A 
ATOM     77  C   UNL A   1      46.721  25.580  35.178  1.00  0.00     0.040 A 
ATOM     78  F   UNL A   1      47.374  26.231  33.036  1.00  0.00    -0.206 F 
ATOM     79  C   UNL A   1      45.731  25.282  36.106  1.00  0.00     0.006 A 
ENDBRANCH  51  72
BRANCH  63  80
ATOM     80  C   UNL A   1      45.478  28.808  27.830  1.00  0.00     0.057 A 
ATOM     81  C   UNL A   1      45.857  27.541  27.360  1.00  0.00     0.134 A 
ATOM     82  C   UNL A   1      46.356  29.865  27.566  1.00  0.00     0.134 A 
ATOM     83  F   UNL A   1      45.043  26.485  27.479  1.00  0.00    -0.206 F 
ATOM     84  C   UNL A   1      47.070  27.330  26.697  1.00  0.00     0.040 A 
ATOM     85  C   UNL A   1      47.555  29.674  26.876  1.00  0.00     0.040 A 
ATOM     86  F   UNL A   1      46.037  31.115  27.936  1.00  0.00    -0.206 F 
ATOM     87  C   UNL A   1      47.921  28.401  26.448  1.00  0.00     0.006 A 
ENDBRANCH  63  80
ENDBRANCH  37  38
ENDBRANCH  29  32
ENDBRANCH  27  28
ENDBRANCH  26  27
ENDBRANCH   1  26
TORSDOF 14
ENDMDL
MODEL 3
REMARK VINA RESULT:     -12.0      1.897      6.178
REMARK SMILES Cc1nc2scc(C)n2c1CNc1ccc(C(=O)NCCCCNC(=O)c2ccc(-c3c4nc(c(-c5c(F)cccc5F)c5ccc([nH]5)c(-c5c(F)cccc5F)c5nc(c(-c6c(F)cccc6F)c6ccc3[nH]6)C=C5)C=C4)cc2)cc1
REMARK SMILES IDX 21 1 20 2 19 3 17 4 18 5 16 7 13 8 14 9 82 10 15 11 81 12
REMARK SMILES IDX 12 13 11 15 10 16 1 17 2 18 3 19 4 20 9 21 5 22 7 23 6 24
REMARK SMILES IDX 8 25 22 26 23 27 24 28 25 29 26 31 27 32 28 33 80 34 29 35
REMARK SMILES IDX 79 36 30 37 31 38 32 39 73 40 33 41 78 42 72 43 74 44 34 45
REMARK SMILES IDX 77 46 71 47 70 48 35 50 61 51 44 52 60 53 45 54 48 55 59 56
REMARK SMILES IDX 75 57 46 58 47 59 58 61 76 62 49 63 36 64 37 65 42 66 38 67
REMARK SMILES IDX 39 68 41 69 43 70 40 71 62 72 63 73 68 74 64 75 65 76 67 77
REMARK SMILES IDX 69 78 66 79 50 80 51 81 56 82 52 83 53 84 55 85 57 86 54 87
REMARK H PARENT 19 6 12 14 24 30 74 49 48 60
REMARK Flexibility Score: inf
ROOT
ATOM      1  C   UNL A   1      31.962  29.029  26.004  1.00  0.00     0.023 C 
ENDROOT
BRANCH   1   2
ATOM      2  C   UNL A   1      32.593  29.337  24.641  1.00  0.00     0.116 C 
BRANCH   2   3
ATOM      3  N   UNL A   1      31.584  29.478  23.610  1.00  0.00    -0.352 N 
ATOM      4  C   UNL A   1      30.956  28.589  22.776  1.00  0.00     0.251 C 
ATOM      5  O   UNL A   1      30.107  29.057  22.012  1.00  0.00    -0.269 OA
ATOM      6  H   UNL A   1      31.285  30.409  23.484  1.00  0.00     0.163 HD
BRANCH   4   7
ATOM      7  C   UNL A   1      31.185  27.114  22.781  1.00  0.00     0.039 A 
ATOM      8  C   UNL A   1      31.641  24.333  23.136  1.00  0.00     0.034 A 
ATOM      9  C   UNL A   1      30.637  24.988  23.849  1.00  0.00     0.026 A 
ATOM     10  C   UNL A   1      32.337  25.063  22.171  1.00  0.00     0.026 A 
ATOM     11  C   UNL A   1      30.428  26.363  23.694  1.00  0.00     0.016 A 
ATOM     12  C   UNL A   1      32.085  26.427  21.968  1.00  0.00     0.016 A 
BRANCH   8  13
ATOM     13  N   UNL A   1      32.004  23.051  23.501  1.00  0.00    -0.379 N 
ATOM     14  H   UNL A   1      31.996  22.332  22.829  1.00  0.00     0.160 HD
BRANCH  13  15
ATOM     15  C   UNL A   1      32.397  22.755  24.867  1.00  0.00     0.169 C 
BRANCH  15  16
ATOM     16  C   UNL A   1      33.824  23.062  25.140  1.00  0.00     0.066 A 
ATOM     17  C   UNL A   1      33.833  25.611  25.672  1.00  0.00     0.069 C 
ATOM     18  C   UNL A   1      34.438  24.272  25.467  1.00  0.00     0.062 A 
ATOM     19  N   UNL A   1      35.804  24.129  25.593  1.00  0.00    -0.224 NA
ATOM     20  C   UNL A   1      35.997  22.863  25.369  1.00  0.00     0.194 A 
ATOM     21  N   UNL A   1      34.857  22.145  25.129  1.00  0.00    -0.290 N 
ATOM     22  S   UNL A   1      37.414  21.863  25.354  1.00  0.00    -0.105 S 
ATOM     23  C   UNL A   1      35.068  20.778  24.959  1.00  0.00     0.032 A 
ATOM     24  C   UNL A   1      36.380  20.473  25.052  1.00  0.00     0.090 A 
ATOM     25  C   UNL A   1      34.010  19.757  24.749  1.00  0.00     0.066 C 
ENDBRANCH  15  16
ENDBRANCH  13  15
ENDBRANCH   8  13
ENDBRANCH   4   7
ENDBRANCH   2   3
ENDBRANCH   1   2
BRANCH   1  26
ATOM     26  C   UNL A   1      32.945  28.992  27.184  1.00  0.00     0.023 C 
BRANCH  26  27
ATOM     27  C   UNL A   1      34.253  29.742  26.956  1.00  0.00     0.116 C 
BRANCH  27  28
ATOM     28  N   UNL A   1      34.210  31.120  27.443  1.00  0.00    -0.352 N 
ATOM     29  C   UNL A   1      34.905  31.678  28.503  1.00  0.00     0.251 C 
ATOM     30  H   UNL A   1      33.610  31.729  26.956  1.00  0.00     0.163 HD
ATOM     31  O   UNL A   1      34.522  32.700  29.045  1.00  0.00    -0.269 OA
BRANCH  29  32
ATOM     32  C   UNL A   1      36.140  31.014  28.952  1.00  0.00     0.039 A 
ATOM     33  C   UNL A   1      36.138  29.683  29.377  1.00  0.00     0.014 A 
ATOM     34  C   UNL A   1      37.321  31.747  28.894  1.00  0.00     0.014 A 
ATOM     35  C   UNL A   1      37.356  29.069  29.655  1.00  0.00     0.010 A 
ATOM     36  C   UNL A   1      38.524  31.103  29.027  1.00  0.00     0.010 A 
ATOM     37  C   UNL A   1      38.552  29.779  29.455  1.00  0.00    -0.014 A 
BRANCH  37  38
ATOM     38  C   UNL A   1      39.845  29.116  29.584  1.00  0.00     0.031 A 
ATOM     39  C   UNL A   1      40.347  28.975  30.979  1.00  0.00     0.074 A 
ATOM     40  C   UNL A   1      40.441  28.470  28.558  1.00  0.00     0.049 A 
ATOM     41  N   UNL A   1      41.387  29.529  31.508  1.00  0.00    -0.248 NA
ATOM     42  C   UNL A   1      39.529  28.213  31.937  1.00  0.00     0.031 C 
ATOM     43  C   UNL A   1      39.920  28.236  27.204  1.00  0.00     0.029 A 
ATOM     44  N   UNL A   1      41.619  27.788  28.546  1.00  0.00    -0.354 N 
ATOM     45  C   UNL A   1      41.475  29.027  32.806  1.00  0.00     0.074 A 
ATOM     46  C   UNL A   1      40.222  28.370  33.068  1.00  0.00     0.031 C 
ATOM     47  C   UNL A   1      40.660  27.288  26.590  1.00  0.00     0.029 A 
ATOM     48  C   UNL A   1      41.807  26.990  27.424  1.00  0.00     0.049 A 
ATOM     49  H   UNL A   1      42.282  27.854  29.270  1.00  0.00     0.167 HD
ATOM     50  C   UNL A   1      42.667  28.986  33.466  1.00  0.00     0.037 A 
ATOM     51  C   UNL A   1      42.834  26.139  27.190  1.00  0.00     0.037 A 
ATOM     52  C   UNL A   1      43.640  29.836  32.826  1.00  0.00     0.049 A 
ATOM     53  C   UNL A   1      43.946  26.528  28.086  1.00  0.00     0.074 A 
ATOM     54  C   UNL A   1      43.738  31.186  32.556  1.00  0.00     0.029 A 
ATOM     55  N   UNL A   1      44.570  29.224  32.023  1.00  0.00    -0.354 N 
ATOM     56  N   UNL A   1      44.617  27.640  27.968  1.00  0.00    -0.248 NA
ATOM     57  C   UNL A   1      44.032  25.882  29.385  1.00  0.00     0.031 C 
ATOM     58  C   UNL A   1      44.372  31.260  31.279  1.00  0.00     0.029 A 
ATOM     59  C   UNL A   1      44.681  29.961  30.874  1.00  0.00     0.049 A 
ATOM     60  H   UNL A   1      45.067  28.402  32.234  1.00  0.00     0.167 HD
ATOM     61  C   UNL A   1      44.836  28.057  29.272  1.00  0.00     0.074 A 
ATOM     62  C   UNL A   1      44.560  26.882  30.095  1.00  0.00     0.031 C 
ATOM     63  C   UNL A   1      44.940  29.386  29.573  1.00  0.00     0.037 A 
BRANCH  50  64
ATOM     64  C   UNL A   1      43.085  27.895  34.430  1.00  0.00     0.057 A 
ATOM     65  C   UNL A   1      43.291  26.591  33.936  1.00  0.00     0.134 A 
ATOM     66  C   UNL A   1      42.990  27.988  35.832  1.00  0.00     0.134 A 
ATOM     67  F   UNL A   1      43.397  26.360  32.618  1.00  0.00    -0.206 F 
ATOM     68  C   UNL A   1      43.302  25.463  34.766  1.00  0.00     0.040 A 
ATOM     69  C   UNL A   1      43.052  26.874  36.674  1.00  0.00     0.040 A 
ATOM     70  F   UNL A   1      42.730  29.139  36.463  1.00  0.00    -0.206 F 
ATOM     71  C   UNL A   1      43.170  25.601  36.141  1.00  0.00     0.006 A 
ENDBRANCH  50  64
BRANCH  51  72
ATOM     72  C   UNL A   1      42.832  24.874  26.429  1.00  0.00     0.057 A 
ATOM     73  C   UNL A   1      43.691  24.670  25.343  1.00  0.00     0.134 A 
ATOM     74  C   UNL A   1      42.177  23.734  26.927  1.00  0.00     0.134 A 
ATOM     75  F   UNL A   1      44.388  25.692  24.826  1.00  0.00    -0.206 F 
ATOM     76  C   UNL A   1      43.904  23.399  24.792  1.00  0.00     0.040 A 
ATOM     77  C   UNL A   1      42.378  22.460  26.387  1.00  0.00     0.040 A 
ATOM     78  F   UNL A   1      41.389  23.810  28.010  1.00  0.00    -0.206 F 
ATOM     79  C   UNL A   1      43.256  22.288  25.323  1.00  0.00     0.006 A 
ENDBRANCH  51  72
BRANCH  63  80
ATOM     80  C   UNL A   1      45.105  30.349  28.428  1.00  0.00     0.057 A 
ATOM     81  C   UNL A   1      44.043  30.975  27.759  1.00  0.00     0.134 A 
ATOM     82  C   UNL A   1      46.397  30.764  28.085  1.00  0.00     0.134 A 
ATOM     83  F   UNL A   1      42.770  30.717  28.081  1.00  0.00    -0.206 F 
ATOM     84  C   UNL A   1      44.258  31.937  26.766  1.00  0.00     0.040 A 
ATOM     85  C   UNL A   1      46.624  31.748  27.120  1.00  0.00     0.040 A 
ATOM     86  F   UNL A   1      47.462  30.251  28.721  1.00  0.00    -0.206 F 
ATOM     87  C   UNL A   1      45.553  32.331  26.449  1.00  0.00     0.006 A 
ENDBRANCH  63  80
ENDBRANCH  37  38
ENDBRANCH  29  32
ENDBRANCH  27  28
ENDBRANCH  26  27
ENDBRANCH   1  26
TORSDOF 14
ENDMDL
