MODEL 1
REMARK VINA RESULT:     -13.0      0.000      0.000
REMARK SMILES O=C(Cn1c(O)c(/N=N/C(=O)c2ccc(Cl)cc2Cl)c2ccccc21)NCCCCNC(=O)c1ccc(-c2c3nc(c(-c4c(F)cccc4F)c4ccc([nH]4)c(-c4c(F)cccc4F)c4nc(c(-c5c(F)cccc5F)c5ccc2[nH]5)C=C4)C=C3)cc1
REMARK SMILES IDX 27 1 26 2 1 3 2 4 3 6 4 7 5 8 25 9 7 10 20 11 24 12 21 13
REMARK SMILES IDX 23 14 22 15 6 16 8 18 9 19 10 20 11 21 12 22 13 23 18 24
REMARK SMILES IDX 14 25 17 26 19 27 15 28 16 29 28 30 29 31 30 32 31 33 32 34
REMARK SMILES IDX 33 36 34 37 35 38 87 39 36 40 86 41 37 42 38 43 39 44 80 45
REMARK SMILES IDX 40 46 85 47 79 48 81 49 41 50 84 51 78 52 77 53 42 55 68 56
REMARK SMILES IDX 51 57 67 58 52 59 55 60 66 61 82 62 53 63 54 64 65 66 83 67
REMARK SMILES IDX 56 68 43 69 44 70 49 71 45 72 46 73 48 74 50 75 47 76 69 77
REMARK SMILES IDX 70 78 75 79 71 80 72 81 74 82 76 83 73 84 57 85 58 86 63 87
REMARK SMILES IDX 59 88 60 89 62 90 64 91 61 92
REMARK H PARENT 26 5 6 17 31 35 81 54 55 65
REMARK Flexibility Score: inf
ROOT
ATOM      1  C   UNL A   1      40.471  21.422  27.124  1.00  0.00     0.116 C 
ENDROOT
BRANCH   1   2
ATOM      2  N   UNL A   1      39.436  21.032  26.188  1.00  0.00    -0.355 N 
ATOM      3  O   UNL A   1      38.340  23.059  26.155  1.00  0.00    -0.273 OA
ATOM      4  C   UNL A   1      38.436  21.891  25.788  1.00  0.00     0.240 C 
ATOM      5  H   UNL A   1      39.447  20.119  25.823  1.00  0.00     0.163 HD
BRANCH   4   6
ATOM      6  C   UNL A   1      37.438  21.296  24.821  1.00  0.00     0.225 C 
BRANCH   6   7
ATOM      7  N   UNL A   1      36.321  22.201  24.612  1.00  0.00    -0.301 N 
ATOM      8  C   UNL A   1      36.194  23.067  23.542  1.00  0.00     0.221 A 
ATOM      9  C   UNL A   1      35.226  22.297  25.455  1.00  0.00     0.054 A 
ATOM     10  C   UNL A   1      35.012  23.759  23.738  1.00  0.00     0.155 A 
ATOM     11  C   UNL A   1      34.388  23.280  24.920  1.00  0.00     0.031 A 
ATOM     12  C   UNL A   1      34.895  21.611  26.638  1.00  0.00     0.027 A 
ATOM     13  C   UNL A   1      33.183  23.588  25.586  1.00  0.00     0.013 A 
ATOM     14  C   UNL A   1      33.693  21.934  27.277  1.00  0.00     0.002 A 
ATOM     15  C   UNL A   1      32.847  22.908  26.761  1.00  0.00     0.001 A 
BRANCH   8  16
ATOM     16  O   UNL A   1      37.087  23.152  22.554  1.00  0.00    -0.493 OA
ATOM     17  H   UNL A   1      37.759  22.503  22.472  1.00  0.00     0.295 HD
ENDBRANCH   8  16
BRANCH  10  18
ATOM     18  N   UNL A   1      34.421  24.753  22.940  1.00  0.00    -0.141 NA
ATOM     19  N   UNL A   1      33.527  24.331  22.181  1.00  0.00    -0.106 NA
BRANCH  19  20
ATOM     20  C   UNL A   1      32.953  25.326  21.428  1.00  0.00     0.296 C 
ATOM     21  O   UNL A   1      32.902  25.392  20.193  1.00  0.00    -0.265 OA
BRANCH  20  22
ATOM     22  C   UNL A   1      32.396  26.440  22.234  1.00  0.00     0.062 A 
ATOM     23  C   UNL A   1      33.037  27.691  22.170  1.00  0.00     0.017 A 
ATOM     24  C   UNL A   1      31.266  26.283  23.047  1.00  0.00     0.055 A 
ATOM     25  C   UNL A   1      32.546  28.772  22.905  1.00  0.00     0.021 A 
ATOM     26  C   UNL A   1      30.780  27.370  23.783  1.00  0.00     0.041 A 
ATOM     27  Cl  UNL A   1      30.457  24.771  23.255  1.00  0.00    -0.083 Cl
ATOM     28  C   UNL A   1      31.420  28.606  23.707  1.00  0.00     0.042 A 
ATOM     29  Cl  UNL A   1      30.821  29.934  24.621  1.00  0.00    -0.084 Cl
ENDBRANCH  20  22
ENDBRANCH  19  20
ENDBRANCH  10  18
ENDBRANCH   6   7
ENDBRANCH   4   6
ENDBRANCH   1   2
BRANCH   1  30
ATOM     30  C   UNL A   1      41.830  20.842  26.740  1.00  0.00     0.023 C 
BRANCH  30  31
ATOM     31  C   UNL A   1      41.787  19.464  26.064  1.00  0.00     0.023 C 
BRANCH  31  32
ATOM     32  C   UNL A   1      43.149  18.790  25.887  1.00  0.00     0.116 C 
BRANCH  32  33
ATOM     33  N   UNL A   1      43.733  18.970  24.574  1.00  0.00    -0.352 N 
ATOM     34  C   UNL A   1      44.533  19.925  24.010  1.00  0.00     0.251 C 
ATOM     35  H   UNL A   1      43.503  18.246  23.950  1.00  0.00     0.163 HD
ATOM     36  O   UNL A   1      45.012  19.657  22.905  1.00  0.00    -0.269 OA
BRANCH  34  37
ATOM     37  C   UNL A   1      44.768  21.279  24.580  1.00  0.00     0.039 A 
ATOM     38  C   UNL A   1      45.609  21.567  25.654  1.00  0.00     0.014 A 
ATOM     39  C   UNL A   1      43.972  22.312  24.048  1.00  0.00     0.014 A 
ATOM     40  C   UNL A   1      45.519  22.787  26.303  1.00  0.00     0.010 A 
ATOM     41  C   UNL A   1      43.902  23.548  24.672  1.00  0.00     0.010 A 
ATOM     42  C   UNL A   1      44.612  23.744  25.850  1.00  0.00    -0.014 A 
BRANCH  42  43
ATOM     43  C   UNL A   1      44.460  24.949  26.651  1.00  0.00     0.031 A 
ATOM     44  C   UNL A   1      45.603  25.903  26.572  1.00  0.00     0.074 A 
ATOM     45  C   UNL A   1      43.338  25.190  27.357  1.00  0.00     0.049 A 
ATOM     46  N   UNL A   1      46.377  26.325  27.519  1.00  0.00    -0.248 NA
ATOM     47  C   UNL A   1      46.008  26.344  25.227  1.00  0.00     0.031 C 
ATOM     48  C   UNL A   1      42.064  24.464  27.309  1.00  0.00     0.029 A 
ATOM     49  N   UNL A   1      43.071  26.211  28.216  1.00  0.00    -0.354 N 
ATOM     50  C   UNL A   1      47.261  27.225  26.920  1.00  0.00     0.074 A 
ATOM     51  C   UNL A   1      47.083  27.083  25.500  1.00  0.00     0.031 C 
ATOM     52  C   UNL A   1      41.106  25.200  27.914  1.00  0.00     0.029 A 
ATOM     53  C   UNL A   1      41.724  26.370  28.511  1.00  0.00     0.049 A 
ATOM     54  H   UNL A   1      43.773  26.789  28.595  1.00  0.00     0.167 HD
ATOM     55  C   UNL A   1      47.920  28.172  27.642  1.00  0.00     0.037 A 
ATOM     56  C   UNL A   1      41.158  27.428  29.141  1.00  0.00     0.037 A 
ATOM     57  C   UNL A   1      47.970  27.823  29.037  1.00  0.00     0.049 A 
ATOM     58  C   UNL A   1      42.238  28.168  29.836  1.00  0.00     0.074 A 
ATOM     59  C   UNL A   1      48.566  26.828  29.783  1.00  0.00     0.029 A 
ATOM     60  N   UNL A   1      47.059  28.420  29.869  1.00  0.00    -0.354 N 
ATOM     61  N   UNL A   1      42.882  27.712  30.873  1.00  0.00    -0.248 NA
ATOM     62  C   UNL A   1      42.905  29.238  29.109  1.00  0.00     0.031 C 
ATOM     63  C   UNL A   1      47.665  26.581  30.860  1.00  0.00     0.029 A 
ATOM     64  C   UNL A   1      46.592  27.463  30.728  1.00  0.00     0.049 A 
ATOM     65  H   UNL A   1      46.790  29.367  29.853  1.00  0.00     0.167 HD
ATOM     66  C   UNL A   1      44.192  28.131  30.691  1.00  0.00     0.074 A 
ATOM     67  C   UNL A   1      44.125  29.146  29.643  1.00  0.00     0.031 C 
ATOM     68  C   UNL A   1      45.233  27.419  31.212  1.00  0.00     0.037 A 
BRANCH  55  69
ATOM     69  C   UNL A   1      48.163  29.590  27.167  1.00  0.00     0.057 A 
ATOM     70  C   UNL A   1      47.147  30.544  26.948  1.00  0.00     0.134 A 
ATOM     71  C   UNL A   1      49.465  30.124  27.251  1.00  0.00     0.134 A 
ATOM     72  F   UNL A   1      45.853  30.219  26.869  1.00  0.00    -0.206 F 
ATOM     73  C   UNL A   1      47.396  31.919  26.894  1.00  0.00     0.040 A 
ATOM     74  C   UNL A   1      49.718  31.502  27.245  1.00  0.00     0.040 A 
ATOM     75  F   UNL A   1      50.527  29.326  27.435  1.00  0.00    -0.206 F 
ATOM     76  C   UNL A   1      48.677  32.405  27.086  1.00  0.00     0.006 A 
ENDBRANCH  55  69
BRANCH  56  77
ATOM     77  C   UNL A   1      39.819  28.013  28.917  1.00  0.00     0.057 A 
ATOM     78  C   UNL A   1      39.549  28.796  27.781  1.00  0.00     0.134 A 
ATOM     79  C   UNL A   1      38.853  28.041  29.931  1.00  0.00     0.134 A 
ATOM     80  F   UNL A   1      40.443  28.907  26.789  1.00  0.00    -0.206 F 
ATOM     81  C   UNL A   1      38.389  29.567  27.661  1.00  0.00     0.040 A 
ATOM     82  C   UNL A   1      37.689  28.814  29.828  1.00  0.00     0.040 A 
ATOM     83  F   UNL A   1      39.046  27.363  31.071  1.00  0.00    -0.206 F 
ATOM     84  C   UNL A   1      37.459  29.588  28.693  1.00  0.00     0.006 A 
ENDBRANCH  56  77
BRANCH  68  85
ATOM     85  C   UNL A   1      44.899  26.324  32.184  1.00  0.00     0.057 A 
ATOM     86  C   UNL A   1      44.993  26.583  33.554  1.00  0.00     0.134 A 
ATOM     87  C   UNL A   1      44.632  25.002  31.802  1.00  0.00     0.134 A 
ATOM     88  F   UNL A   1      45.309  27.814  33.990  1.00  0.00    -0.206 F 
ATOM     89  C   UNL A   1      44.818  25.577  34.506  1.00  0.00     0.040 A 
ATOM     90  C   UNL A   1      44.420  23.992  32.744  1.00  0.00     0.040 A 
ATOM     91  F   UNL A   1      44.623  24.643  30.512  1.00  0.00    -0.206 F 
ATOM     92  C   UNL A   1      44.520  24.278  34.102  1.00  0.00     0.006 A 
ENDBRANCH  68  85
ENDBRANCH  42  43
ENDBRANCH  34  37
ENDBRANCH  32  33
ENDBRANCH  31  32
ENDBRANCH  30  31
ENDBRANCH   1  30
TORSDOF 16
ENDMDL
MODEL 2
REMARK VINA RESULT:     -12.9      1.600      1.862
REMARK SMILES O=C(Cn1c(O)c(/N=N/C(=O)c2ccc(Cl)cc2Cl)c2ccccc21)NCCCCNC(=O)c1ccc(-c2c3nc(c(-c4c(F)cccc4F)c4ccc([nH]4)c(-c4c(F)cccc4F)c4nc(c(-c5c(F)cccc5F)c5ccc2[nH]5)C=C4)C=C3)cc1
REMARK SMILES IDX 27 1 26 2 1 3 2 4 3 6 4 7 5 8 25 9 7 10 20 11 24 12 21 13
REMARK SMILES IDX 23 14 22 15 6 16 8 18 9 19 10 20 11 21 12 22 13 23 18 24
REMARK SMILES IDX 14 25 17 26 19 27 15 28 16 29 28 30 29 31 30 32 31 33 32 34
REMARK SMILES IDX 33 36 34 37 35 38 87 39 36 40 86 41 37 42 38 43 39 44 80 45
REMARK SMILES IDX 40 46 85 47 79 48 81 49 41 50 84 51 78 52 77 53 42 55 68 56
REMARK SMILES IDX 51 57 67 58 52 59 55 60 66 61 82 62 53 63 54 64 65 66 83 67
REMARK SMILES IDX 56 68 43 69 44 70 49 71 45 72 46 73 48 74 50 75 47 76 69 77
REMARK SMILES IDX 70 78 75 79 71 80 72 81 74 82 76 83 73 84 57 85 58 86 63 87
REMARK SMILES IDX 59 88 60 89 62 90 64 91 61 92
REMARK H PARENT 26 5 6 17 31 35 81 54 55 65
REMARK Flexibility Score: inf
ROOT
ATOM      1  C   UNL A   1      39.651  22.252  26.138  1.00  0.00     0.116 C 
ENDROOT
BRANCH   1   2
ATOM      2  N   UNL A   1      38.236  22.152  26.436  1.00  0.00    -0.355 N 
ATOM      3  O   UNL A   1      37.701  20.757  24.681  1.00  0.00    -0.273 OA
ATOM      4  C   UNL A   1      37.366  21.414  25.663  1.00  0.00     0.240 C 
ATOM      5  H   UNL A   1      37.882  22.629  27.220  1.00  0.00     0.163 HD
BRANCH   4   6
ATOM      6  C   UNL A   1      35.925  21.447  26.123  1.00  0.00     0.225 C 
BRANCH   6   7
ATOM      7  N   UNL A   1      35.080  22.076  25.123  1.00  0.00    -0.301 N 
ATOM      8  C   UNL A   1      35.172  23.398  24.730  1.00  0.00     0.221 A 
ATOM      9  C   UNL A   1      34.082  21.421  24.420  1.00  0.00     0.054 A 
ATOM     10  C   UNL A   1      34.178  23.594  23.788  1.00  0.00     0.155 A 
ATOM     11  C   UNL A   1      33.498  22.366  23.572  1.00  0.00     0.031 A 
ATOM     12  C   UNL A   1      33.640  20.086  24.452  1.00  0.00     0.027 A 
ATOM     13  C   UNL A   1      32.439  21.967  22.729  1.00  0.00     0.013 A 
ATOM     14  C   UNL A   1      32.590  19.715  23.605  1.00  0.00     0.002 A 
ATOM     15  C   UNL A   1      31.996  20.641  22.754  1.00  0.00     0.001 A 
BRANCH   8  16
ATOM     16  O   UNL A   1      36.077  24.250  25.216  1.00  0.00    -0.493 OA
ATOM     17  H   UNL A   1      35.887  24.744  25.990  1.00  0.00     0.295 HD
ENDBRANCH   8  16
BRANCH  10  18
ATOM     18  N   UNL A   1      33.845  24.759  23.076  1.00  0.00    -0.141 NA
ATOM     19  N   UNL A   1      33.735  25.777  23.787  1.00  0.00    -0.106 NA
BRANCH  19  20
ATOM     20  C   UNL A   1      33.430  26.903  23.063  1.00  0.00     0.296 C 
ATOM     21  O   UNL A   1      33.609  27.084  21.852  1.00  0.00    -0.265 OA
BRANCH  20  22
ATOM     22  C   UNL A   1      32.879  28.009  23.884  1.00  0.00     0.062 A 
ATOM     23  C   UNL A   1      33.681  28.535  24.914  1.00  0.00     0.017 A 
ATOM     24  C   UNL A   1      31.600  28.536  23.667  1.00  0.00     0.055 A 
ATOM     25  C   UNL A   1      33.209  29.581  25.710  1.00  0.00     0.021 A 
ATOM     26  C   UNL A   1      31.131  29.584  24.468  1.00  0.00     0.041 A 
ATOM     27  Cl  UNL A   1      30.510  27.909  22.482  1.00  0.00    -0.083 Cl
ATOM     28  C   UNL A   1      31.937  30.101  25.482  1.00  0.00     0.042 A 
ATOM     29  Cl  UNL A   1      31.351  31.382  26.468  1.00  0.00    -0.084 Cl
ENDBRANCH  20  22
ENDBRANCH  19  20
ENDBRANCH  10  18
ENDBRANCH   6   7
ENDBRANCH   4   6
ENDBRANCH   1   2
BRANCH   1  30
ATOM     30  C   UNL A   1      40.485  21.344  27.039  1.00  0.00     0.023 C 
BRANCH  30  31
ATOM     31  C   UNL A   1      40.817  19.965  26.452  1.00  0.00     0.023 C 
BRANCH  31  32
ATOM     32  C   UNL A   1      42.278  19.535  26.603  1.00  0.00     0.116 C 
BRANCH  32  33
ATOM     33  N   UNL A   1      43.044  19.598  25.376  1.00  0.00    -0.352 N 
ATOM     34  C   UNL A   1      43.936  20.494  24.854  1.00  0.00     0.251 C 
ATOM     35  H   UNL A   1      42.888  18.826  24.787  1.00  0.00     0.163 HD
ATOM     36  O   UNL A   1      44.559  20.129  23.853  1.00  0.00    -0.269 OA
BRANCH  34  37
ATOM     37  C   UNL A   1      44.117  21.889  25.337  1.00  0.00     0.039 A 
ATOM     38  C   UNL A   1      44.829  22.261  26.477  1.00  0.00     0.014 A 
ATOM     39  C   UNL A   1      43.400  22.877  24.635  1.00  0.00     0.014 A 
ATOM     40  C   UNL A   1      44.677  23.530  27.011  1.00  0.00     0.010 A 
ATOM     41  C   UNL A   1      43.271  24.160  25.145  1.00  0.00     0.010 A 
ATOM     42  C   UNL A   1      43.840  24.449  26.379  1.00  0.00    -0.014 A 
BRANCH  42  43
ATOM     43  C   UNL A   1      43.609  25.715  27.058  1.00  0.00     0.031 A 
ATOM     44  C   UNL A   1      44.656  26.751  26.827  1.00  0.00     0.074 A 
ATOM     45  C   UNL A   1      42.496  25.932  27.787  1.00  0.00     0.049 A 
ATOM     46  N   UNL A   1      45.423  27.337  27.689  1.00  0.00    -0.248 NA
ATOM     47  C   UNL A   1      44.969  27.079  25.427  1.00  0.00     0.031 C 
ATOM     48  C   UNL A   1      41.293  25.096  27.873  1.00  0.00     0.029 A 
ATOM     49  N   UNL A   1      42.169  27.011  28.547  1.00  0.00    -0.354 N 
ATOM     50  C   UNL A   1      46.198  28.241  26.960  1.00  0.00     0.074 A 
ATOM     51  C   UNL A   1      45.981  27.934  25.571  1.00  0.00     0.031 C 
ATOM     52  C   UNL A   1      40.295  25.807  28.444  1.00  0.00     0.029 A 
ATOM     53  C   UNL A   1      40.826  27.083  28.887  1.00  0.00     0.049 A 
ATOM     54  H   UNL A   1      42.829  27.685  28.832  1.00  0.00     0.167 HD
ATOM     55  C   UNL A   1      46.795  29.314  27.548  1.00  0.00     0.037 A 
ATOM     56  C   UNL A   1      40.189  28.150  29.430  1.00  0.00     0.037 A 
ATOM     57  C   UNL A   1      46.928  29.122  28.968  1.00  0.00     0.049 A 
ATOM     58  C   UNL A   1      41.222  29.050  29.994  1.00  0.00     0.074 A 
ATOM     59  C   UNL A   1      47.640  28.267  29.785  1.00  0.00     0.029 A 
ATOM     60  N   UNL A   1      45.998  29.723  29.777  1.00  0.00    -0.354 N 
ATOM     61  N   UNL A   1      41.944  28.765  31.042  1.00  0.00    -0.248 NA
ATOM     62  C   UNL A   1      41.761  30.090  29.131  1.00  0.00     0.031 C 
ATOM     63  C   UNL A   1      46.806  28.060  30.922  1.00  0.00     0.029 A 
ATOM     64  C   UNL A   1      45.652  28.826  30.750  1.00  0.00     0.049 A 
ATOM     65  H   UNL A   1      45.643  30.636  29.676  1.00  0.00     0.167 HD
ATOM     66  C   UNL A   1      43.202  29.275  30.757  1.00  0.00     0.074 A 
ATOM     67  C   UNL A   1      43.004  30.162  29.614  1.00  0.00     0.031 C 
ATOM     68  C   UNL A   1      44.322  28.716  31.299  1.00  0.00     0.037 A 
BRANCH  55  69
ATOM     69  C   UNL A   1      46.889  30.689  26.920  1.00  0.00     0.057 A 
ATOM     70  C   UNL A   1      45.778  31.492  26.585  1.00  0.00     0.134 A 
ATOM     71  C   UNL A   1      48.121  31.372  26.955  1.00  0.00     0.134 A 
ATOM     72  F   UNL A   1      44.530  31.016  26.530  1.00  0.00    -0.206 F 
ATOM     73  C   UNL A   1      45.874  32.871  26.379  1.00  0.00     0.040 A 
ATOM     74  C   UNL A   1      48.220  32.760  26.797  1.00  0.00     0.040 A 
ATOM     75  F   UNL A   1      49.261  30.724  27.239  1.00  0.00    -0.206 F 
ATOM     76  C   UNL A   1      47.089  33.518  26.527  1.00  0.00     0.006 A 
ENDBRANCH  55  69
BRANCH  56  77
ATOM     77  C   UNL A   1      38.795  28.588  29.210  1.00  0.00     0.057 A 
ATOM     78  C   UNL A   1      38.406  29.193  28.002  1.00  0.00     0.134 A 
ATOM     79  C   UNL A   1      37.877  28.667  30.265  1.00  0.00     0.134 A 
ATOM     80  F   UNL A   1      39.241  29.247  26.955  1.00  0.00    -0.206 F 
ATOM     81  C   UNL A   1      37.178  29.845  27.852  1.00  0.00     0.040 A 
ATOM     82  C   UNL A   1      36.646  29.323  30.131  1.00  0.00     0.040 A 
ATOM     83  F   UNL A   1      38.180  28.161  31.469  1.00  0.00    -0.206 F 
ATOM     84  C   UNL A   1      36.297  29.922  28.923  1.00  0.00     0.006 A 
ENDBRANCH  56  77
BRANCH  68  85
ATOM     85  C   UNL A   1      44.127  27.706  32.393  1.00  0.00     0.057 A 
ATOM     86  C   UNL A   1      44.162  28.134  33.723  1.00  0.00     0.134 A 
ATOM     87  C   UNL A   1      44.049  26.324  32.169  1.00  0.00     0.134 A 
ATOM     88  F   UNL A   1      44.298  29.438  34.011  1.00  0.00    -0.206 F 
ATOM     89  C   UNL A   1      44.111  27.231  34.787  1.00  0.00     0.040 A 
ATOM     90  C   UNL A   1      43.964  25.411  33.224  1.00  0.00     0.040 A 
ATOM     91  F   UNL A   1      44.111  25.820  30.931  1.00  0.00    -0.206 F 
ATOM     92  C   UNL A   1      44.001  25.864  34.539  1.00  0.00     0.006 A 
ENDBRANCH  68  85
ENDBRANCH  42  43
ENDBRANCH  34  37
ENDBRANCH  32  33
ENDBRANCH  31  32
ENDBRANCH  30  31
ENDBRANCH   1  30
TORSDOF 16
ENDMDL
MODEL 3
REMARK VINA RESULT:     -12.1      1.481      2.181
REMARK SMILES O=C(Cn1c(O)c(/N=N/C(=O)c2ccc(Cl)cc2Cl)c2ccccc21)NCCCCNC(=O)c1ccc(-c2c3nc(c(-c4c(F)cccc4F)c4ccc([nH]4)c(-c4c(F)cccc4F)c4nc(c(-c5c(F)cccc5F)c5ccc2[nH]5)C=C4)C=C3)cc1
REMARK SMILES IDX 27 1 26 2 1 3 2 4 3 6 4 7 5 8 25 9 7 10 20 11 24 12 21 13
REMARK SMILES IDX 23 14 22 15 6 16 8 18 9 19 10 20 11 21 12 22 13 23 18 24
REMARK SMILES IDX 14 25 17 26 19 27 15 28 16 29 28 30 29 31 30 32 31 33 32 34
REMARK SMILES IDX 33 36 34 37 35 38 87 39 36 40 86 41 37 42 38 43 39 44 80 45
REMARK SMILES IDX 40 46 85 47 79 48 81 49 41 50 84 51 78 52 77 53 42 55 68 56
REMARK SMILES IDX 51 57 67 58 52 59 55 60 66 61 82 62 53 63 54 64 65 66 83 67
REMARK SMILES IDX 56 68 43 69 44 70 49 71 45 72 46 73 48 74 50 75 47 76 69 77
REMARK SMILES IDX 70 78 75 79 71 80 72 81 74 82 76 83 73 84 57 85 58 86 63 87
REMARK SMILES IDX 59 88 60 89 62 90 64 91 61 92
REMARK H PARENT 26 5 6 17 31 35 81 54 55 65
REMARK Flexibility Score: inf
ROOT
ATOM      1  C   UNL A   1      39.818  22.237  26.814  1.00  0.00     0.116 C 
ENDROOT
BRANCH   1   2
ATOM      2  N   UNL A   1      38.956  21.928  25.690  1.00  0.00    -0.355 N 
ATOM      3  O   UNL A   1      37.264  23.389  26.253  1.00  0.00    -0.273 OA
ATOM      4  C   UNL A   1      37.729  22.528  25.510  1.00  0.00     0.240 C 
ATOM      5  H   UNL A   1      39.258  21.265  25.030  1.00  0.00     0.163 HD
BRANCH   4   6
ATOM      6  C   UNL A   1      36.968  22.062  24.289  1.00  0.00     0.225 C 
BRANCH   6   7
ATOM      7  N   UNL A   1      35.543  21.998  24.564  1.00  0.00    -0.301 N 
ATOM      8  C   UNL A   1      34.710  23.095  24.676  1.00  0.00     0.221 A 
ATOM      9  C   UNL A   1      34.832  20.821  24.731  1.00  0.00     0.054 A 
ATOM     10  C   UNL A   1      33.450  22.600  24.966  1.00  0.00     0.155 A 
ATOM     11  C   UNL A   1      33.506  21.181  24.989  1.00  0.00     0.031 A 
ATOM     12  C   UNL A   1      35.233  19.473  24.679  1.00  0.00     0.027 A 
ATOM     13  C   UNL A   1      32.550  20.166  25.201  1.00  0.00     0.013 A 
ATOM     14  C   UNL A   1      34.265  18.486  24.891  1.00  0.00     0.002 A 
ATOM     15  C   UNL A   1      32.941  18.824  25.148  1.00  0.00     0.001 A 
BRANCH   8  16
ATOM     16  O   UNL A   1      35.124  24.354  24.519  1.00  0.00    -0.493 OA
ATOM     17  H   UNL A   1      36.023  24.573  24.669  1.00  0.00     0.295 HD
ENDBRANCH   8  16
BRANCH  10  18
ATOM     18  N   UNL A   1      32.248  23.297  25.175  1.00  0.00    -0.141 NA
ATOM     19  N   UNL A   1      32.393  24.413  25.709  1.00  0.00    -0.106 NA
BRANCH  19  20
ATOM     20  C   UNL A   1      31.205  25.080  25.883  1.00  0.00     0.296 C 
ATOM     21  O   UNL A   1      30.294  24.789  26.668  1.00  0.00    -0.265 OA
BRANCH  20  22
ATOM     22  C   UNL A   1      31.028  26.234  24.967  1.00  0.00     0.062 A 
ATOM     23  C   UNL A   1      30.655  25.974  23.636  1.00  0.00     0.017 A 
ATOM     24  C   UNL A   1      31.219  27.557  25.386  1.00  0.00     0.055 A 
ATOM     25  C   UNL A   1      30.470  27.027  22.737  1.00  0.00     0.021 A 
ATOM     26  C   UNL A   1      31.033  28.609  24.480  1.00  0.00     0.041 A 
ATOM     27  Cl  UNL A   1      31.752  27.976  26.974  1.00  0.00    -0.083 Cl
ATOM     28  C   UNL A   1      30.659  28.339  23.165  1.00  0.00     0.042 A 
ATOM     29  Cl  UNL A   1      30.441  29.635  22.057  1.00  0.00    -0.084 Cl
ENDBRANCH  20  22
ENDBRANCH  19  20
ENDBRANCH  10  18
ENDBRANCH   6   7
ENDBRANCH   4   6
ENDBRANCH   1   2
BRANCH   1  30
ATOM     30  C   UNL A   1      40.633  21.023  27.252  1.00  0.00     0.023 C 
BRANCH  30  31
ATOM     31  C   UNL A   1      40.980  20.029  26.136  1.00  0.00     0.023 C 
BRANCH  31  32
ATOM     32  C   UNL A   1      42.336  19.336  26.288  1.00  0.00     0.116 C 
BRANCH  32  33
ATOM     33  N   UNL A   1      43.132  19.320  25.079  1.00  0.00    -0.352 N 
ATOM     34  C   UNL A   1      44.098  20.139  24.563  1.00  0.00     0.251 C 
ATOM     35  H   UNL A   1      42.934  18.550  24.500  1.00  0.00     0.163 HD
ATOM     36  O   UNL A   1      44.716  19.710  23.585  1.00  0.00    -0.269 OA
BRANCH  34  37
ATOM     37  C   UNL A   1      44.369  21.526  25.026  1.00  0.00     0.039 A 
ATOM     38  C   UNL A   1      45.389  21.899  25.901  1.00  0.00     0.014 A 
ATOM     39  C   UNL A   1      43.431  22.498  24.628  1.00  0.00     0.014 A 
ATOM     40  C   UNL A   1      45.365  23.142  26.511  1.00  0.00     0.010 A 
ATOM     41  C   UNL A   1      43.420  23.757  25.209  1.00  0.00     0.010 A 
ATOM     42  C   UNL A   1      44.337  24.037  26.214  1.00  0.00    -0.014 A 
BRANCH  42  43
ATOM     43  C   UNL A   1      44.284  25.269  26.986  1.00  0.00     0.031 A 
ATOM     44  C   UNL A   1      45.455  26.173  26.807  1.00  0.00     0.074 A 
ATOM     45  C   UNL A   1      43.218  25.574  27.753  1.00  0.00     0.049 A 
ATOM     46  N   UNL A   1      46.303  26.589  27.691  1.00  0.00    -0.248 NA
ATOM     47  C   UNL A   1      45.791  26.560  25.427  1.00  0.00     0.031 C 
ATOM     48  C   UNL A   1      41.916  24.899  27.806  1.00  0.00     0.029 A 
ATOM     49  N   UNL A   1      43.045  26.629  28.595  1.00  0.00    -0.354 N 
ATOM     50  C   UNL A   1      47.181  27.435  27.012  1.00  0.00     0.074 A 
ATOM     51  C   UNL A   1      46.909  27.262  25.610  1.00  0.00     0.031 C 
ATOM     52  C   UNL A   1      41.028  25.691  28.447  1.00  0.00     0.029 A 
ATOM     53  C   UNL A   1      41.728  26.850  28.969  1.00  0.00     0.049 A 
ATOM     54  H   UNL A   1      43.792  27.188  28.913  1.00  0.00     0.167 HD
ATOM     55  C   UNL A   1      47.922  28.375  27.662  1.00  0.00     0.037 A 
ATOM     56  C   UNL A   1      41.244  27.948  29.600  1.00  0.00     0.037 A 
ATOM     57  C   UNL A   1      48.046  28.063  29.061  1.00  0.00     0.049 A 
ATOM     58  C   UNL A   1      42.394  28.662  30.204  1.00  0.00     0.074 A 
ATOM     59  C   UNL A   1      48.649  27.065  29.799  1.00  0.00     0.029 A 
ATOM     60  N   UNL A   1      47.213  28.720  29.931  1.00  0.00    -0.354 N 
ATOM     61  N   UNL A   1      43.084  28.209  31.212  1.00  0.00    -0.248 NA
ATOM     62  C   UNL A   1      43.054  29.683  29.405  1.00  0.00     0.031 C 
ATOM     63  C   UNL A   1      47.809  26.886  30.937  1.00  0.00     0.029 A 
ATOM     64  C   UNL A   1      46.764  27.806  30.845  1.00  0.00     0.049 A 
ATOM     65  H   UNL A   1      46.980  29.676  29.903  1.00  0.00     0.167 HD
ATOM     66  C   UNL A   1      44.395  28.570  30.938  1.00  0.00     0.074 A 
ATOM     67  C   UNL A   1      44.301  29.557  29.865  1.00  0.00     0.031 C 
ATOM     68  C   UNL A   1      45.438  27.831  31.414  1.00  0.00     0.037 A 
BRANCH  55  69
ATOM     69  C   UNL A   1      48.188  29.768  27.131  1.00  0.00     0.057 A 
ATOM     70  C   UNL A   1      47.193  30.745  26.916  1.00  0.00     0.134 A 
ATOM     71  C   UNL A   1      49.508  30.264  27.149  1.00  0.00     0.134 A 
ATOM     72  F   UNL A   1      45.888  30.458  26.894  1.00  0.00    -0.206 F 
ATOM     73  C   UNL A   1      47.481  32.109  26.805  1.00  0.00     0.040 A 
ATOM     74  C   UNL A   1      49.801  31.633  27.087  1.00  0.00     0.040 A 
ATOM     75  F   UNL A   1      50.552  29.440  27.323  1.00  0.00    -0.206 F 
ATOM     76  C   UNL A   1      48.783  32.562  26.935  1.00  0.00     0.006 A 
ENDBRANCH  55  69
BRANCH  56  77
ATOM     77  C   UNL A   1      39.917  28.580  29.442  1.00  0.00     0.057 A 
ATOM     78  C   UNL A   1      38.938  28.475  30.446  1.00  0.00     0.134 A 
ATOM     79  C   UNL A   1      39.483  29.073  28.204  1.00  0.00     0.134 A 
ATOM     80  F   UNL A   1      39.227  27.938  31.640  1.00  0.00    -0.206 F 
ATOM     81  C   UNL A   1      37.604  28.833  30.231  1.00  0.00     0.040 A 
ATOM     82  C   UNL A   1      38.148  29.429  27.974  1.00  0.00     0.040 A 
ATOM     83  F   UNL A   1      40.335  29.164  27.173  1.00  0.00    -0.206 F 
ATOM     84  C   UNL A   1      37.201  29.301  28.987  1.00  0.00     0.006 A 
ENDBRANCH  56  77
BRANCH  68  85
ATOM     85  C   UNL A   1      45.125  26.778  32.437  1.00  0.00     0.057 A 
ATOM     86  C   UNL A   1      44.803  25.488  32.005  1.00  0.00     0.134 A 
ATOM     87  C   UNL A   1      44.995  27.042  33.809  1.00  0.00     0.134 A 
ATOM     88  F   UNL A   1      44.845  25.183  30.698  1.00  0.00    -0.206 F 
ATOM     89  C   UNL A   1      44.382  24.499  32.896  1.00  0.00     0.040 A 
ATOM     90  C   UNL A   1      44.607  26.053  34.716  1.00  0.00     0.040 A 
ATOM     91  F   UNL A   1      45.184  28.275  34.296  1.00  0.00    -0.206 F 
ATOM     92  C   UNL A   1      44.293  24.777  34.258  1.00  0.00     0.006 A 
ENDBRANCH  68  85
ENDBRANCH  42  43
ENDBRANCH  34  37
ENDBRANCH  32  33
ENDBRANCH  31  32
ENDBRANCH  30  31
ENDBRANCH   1  30
TORSDOF 16
ENDMDL
