MODEL 1
REMARK VINA RESULT:     -12.8      0.000      0.000
REMARK SMILES COc1ccc(-c2cc(=O)oc3cc(OCC(=O)N[C@@H](C)C(=O)NCCCCNC(=O)c4ccc(-c5c6nc(c(-c7c(F)cccc7F)c7ccc([nH]7)c(-c7c(F)cccc7F)c7nc(c(-c8c(F)cccc8F)c8ccc5[nH]8)C=C7)C=C6)cc4)ccc23)cc1
REMARK SMILES IDX 22 1 23 2 24 3 20 5 21 6 19 7 17 8 18 9 16 11 15 12 14 13
REMARK SMILES IDX 7 14 8 15 88 16 9 17 12 18 87 19 10 20 11 21 13 22 86 23
REMARK SMILES IDX 6 24 3 25 4 26 90 27 5 28 89 29 2 30 1 31 25 32 26 33 27 34
REMARK SMILES IDX 28 35 29 36 30 37 31 39 32 40 33 41 85 42 34 43 84 44 35 45
REMARK SMILES IDX 36 46 37 47 78 48 38 49 83 50 77 51 79 52 39 53 82 54 76 55
REMARK SMILES IDX 75 56 40 58 66 59 49 60 65 61 50 62 53 63 64 64 80 65 51 66
REMARK SMILES IDX 52 67 63 69 81 70 54 71 41 72 42 73 47 74 43 75 44 76 46 77
REMARK SMILES IDX 48 78 45 79 67 80 68 81 73 82 69 83 70 84 72 85 74 86 71 87
REMARK SMILES IDX 55 88 56 89 61 90 57 91 58 92 60 93 62 94 59 95
REMARK H PARENT 24 4 19 10 29 38 79 57 53 68
REMARK Flexibility Score: inf
ROOT
ATOM      1  C   UNL A   1      31.556  28.824  22.955  1.00  0.00     0.242 C 
ATOM      2  O   UNL A   1      30.656  28.916  22.118  1.00  0.00    -0.273 OA
ATOM      3  N   UNL A   1      31.499  29.645  24.049  1.00  0.00    -0.354 N 
ATOM      4  H   UNL A   1      30.801  30.338  24.006  1.00  0.00     0.163 HD
ENDROOT
BRANCH   1   5
ATOM      5  C   UNL A   1      32.646  27.746  22.834  1.00  0.00     0.168 C 
ATOM      6  C   UNL A   1      33.989  28.355  23.244  1.00  0.00     0.041 C 
BRANCH   5   7
ATOM      7  N   UNL A   1      32.593  27.180  21.481  1.00  0.00    -0.342 N 
ATOM      8  C   UNL A   1      32.454  25.883  21.080  1.00  0.00     0.258 C 
ATOM      9  O   UNL A   1      32.242  25.656  19.887  1.00  0.00    -0.271 OA
ATOM     10  H   UNL A   1      32.670  27.837  20.751  1.00  0.00     0.164 HD
BRANCH   8  11
ATOM     11  C   UNL A   1      32.562  24.765  22.095  1.00  0.00     0.329 C 
BRANCH  11  12
ATOM     12  O   UNL A   1      33.938  24.431  22.064  1.00  0.00    -0.484 OA
BRANCH  12  13
ATOM     13  C   UNL A   1      34.526  23.904  23.167  1.00  0.00     0.123 A 
ATOM     14  C   UNL A   1      34.362  21.059  25.963  1.00  0.00    -0.000 A 
ATOM     15  C   UNL A   1      33.653  21.210  27.090  1.00  0.00     0.103 A 
ATOM     16  C   UNL A   1      34.911  22.281  25.334  1.00  0.00     0.026 A 
ATOM     17  C   UNL A   1      33.358  22.568  27.604  1.00  0.00     0.336 A 
ATOM     18  C   UNL A   1      34.089  23.388  25.464  1.00  0.00     0.142 A 
ATOM     19  C   UNL A   1      35.774  22.164  24.238  1.00  0.00     0.016 A 
ATOM     20  O   UNL A   1      32.983  22.747  28.750  1.00  0.00    -0.246 OA
ATOM     21  O   UNL A   1      33.351  23.580  26.641  1.00  0.00    -0.423 OA
ATOM     22  C   UNL A   1      33.860  24.192  24.365  1.00  0.00     0.094 A 
ATOM     23  C   UNL A   1      35.559  22.972  23.126  1.00  0.00     0.047 A 
BRANCH  14  24
ATOM     24  C   UNL A   1      34.061  19.888  25.099  1.00  0.00    -0.017 A 
ATOM     25  C   UNL A   1      33.653  17.303  24.166  1.00  0.00     0.118 A 
ATOM     26  C   UNL A   1      32.574  18.185  24.276  1.00  0.00     0.047 A 
ATOM     27  C   UNL A   1      34.953  17.734  24.389  1.00  0.00     0.047 A 
ATOM     28  C   UNL A   1      32.772  19.485  24.760  1.00  0.00     0.012 A 
ATOM     29  C   UNL A   1      35.154  19.026  24.847  1.00  0.00     0.012 A 
BRANCH  25  30
ATOM     30  O   UNL A   1      33.418  15.992  23.850  1.00  0.00    -0.497 OA
ATOM     31  C   UNL A   1      32.903  15.311  25.001  1.00  0.00     0.278 C 
ENDBRANCH  25  30
ENDBRANCH  14  24
ENDBRANCH  12  13
ENDBRANCH  11  12
ENDBRANCH   8  11
ENDBRANCH   5   7
ENDBRANCH   1   5
BRANCH   3  32
ATOM     32  C   UNL A   1      32.296  29.662  25.266  1.00  0.00     0.116 C 
BRANCH  32  33
ATOM     33  C   UNL A   1      31.519  30.224  26.455  1.00  0.00     0.023 C 
BRANCH  33  34
ATOM     34  C   UNL A   1      31.399  31.747  26.474  1.00  0.00     0.023 C 
BRANCH  34  35
ATOM     35  C   UNL A   1      32.630  32.489  26.978  1.00  0.00     0.116 C 
BRANCH  35  36
ATOM     36  N   UNL A   1      32.336  33.832  27.449  1.00  0.00    -0.352 N 
ATOM     37  C   UNL A   1      32.983  34.577  28.402  1.00  0.00     0.251 C 
ATOM     38  H   UNL A   1      31.563  34.270  27.023  1.00  0.00     0.163 HD
ATOM     39  O   UNL A   1      32.528  35.664  28.746  1.00  0.00    -0.269 OA
BRANCH  37  40
ATOM     40  C   UNL A   1      34.205  34.052  29.045  1.00  0.00     0.039 A 
ATOM     41  C   UNL A   1      34.064  33.153  30.105  1.00  0.00     0.014 A 
ATOM     42  C   UNL A   1      35.478  34.431  28.608  1.00  0.00     0.014 A 
ATOM     43  C   UNL A   1      35.198  32.588  30.688  1.00  0.00     0.010 A 
ATOM     44  C   UNL A   1      36.606  33.817  29.146  1.00  0.00     0.010 A 
ATOM     45  C   UNL A   1      36.477  32.893  30.192  1.00  0.00    -0.014 A 
BRANCH  45  46
ATOM     46  C   UNL A   1      37.680  32.238  30.761  1.00  0.00     0.031 A 
ATOM     47  C   UNL A   1      38.272  32.721  32.054  1.00  0.00     0.074 A 
ATOM     48  C   UNL A   1      38.266  31.233  30.083  1.00  0.00     0.049 A 
ATOM     49  N   UNL A   1      39.312  32.265  32.705  1.00  0.00    -0.248 NA
ATOM     50  C   UNL A   1      37.633  33.886  32.686  1.00  0.00     0.031 C 
ATOM     51  C   UNL A   1      37.832  30.724  28.780  1.00  0.00     0.029 A 
ATOM     52  N   UNL A   1      39.356  30.461  30.395  1.00  0.00    -0.354 N 
ATOM     53  C   UNL A   1      39.461  33.094  33.809  1.00  0.00     0.074 A 
ATOM     54  C   UNL A   1      38.434  34.109  33.718  1.00  0.00     0.031 C 
ATOM     55  C   UNL A   1      38.633  29.710  28.416  1.00  0.00     0.029 A 
ATOM     56  C   UNL A   1      39.644  29.507  29.449  1.00  0.00     0.049 A 
ATOM     57  H   UNL A   1      39.883  30.580  31.218  1.00  0.00     0.167 HD
ATOM     58  C   UNL A   1      40.360  33.006  34.817  1.00  0.00     0.037 A 
ATOM     59  C   UNL A   1      40.607  28.568  29.424  1.00  0.00     0.037 A 
ATOM     60  C   UNL A   1      41.354  31.971  34.931  1.00  0.00     0.049 A 
ATOM     61  C   UNL A   1      41.551  28.453  30.587  1.00  0.00     0.074 A 
ATOM     62  C   UNL A   1      42.245  31.740  35.964  1.00  0.00     0.029 A 
ATOM     63  N   UNL A   1      41.583  30.992  33.976  1.00  0.00    -0.354 N 
ATOM     64  N   UNL A   1      41.616  29.183  31.674  1.00  0.00    -0.248 NA
ATOM     65  C   UNL A   1      42.546  27.373  30.527  1.00  0.00     0.031 C 
ATOM     66  C   UNL A   1      43.038  30.639  35.619  1.00  0.00     0.029 A 
ATOM     67  C   UNL A   1      42.615  30.165  34.388  1.00  0.00     0.049 A 
ATOM     68  H   UNL A   1      41.087  30.898  33.132  1.00  0.00     0.167 HD
ATOM     69  C   UNL A   1      42.641  28.638  32.435  1.00  0.00     0.074 A 
ATOM     70  C   UNL A   1      43.158  27.505  31.695  1.00  0.00     0.031 C 
ATOM     71  C   UNL A   1      43.115  29.041  33.639  1.00  0.00     0.037 A 
BRANCH  58  72
ATOM     72  C   UNL A   1      40.303  34.051  35.891  1.00  0.00     0.057 A 
ATOM     73  C   UNL A   1      41.034  35.242  35.799  1.00  0.00     0.134 A 
ATOM     74  C   UNL A   1      39.476  33.883  37.008  1.00  0.00     0.134 A 
ATOM     75  F   UNL A   1      41.856  35.457  34.760  1.00  0.00    -0.206 F 
ATOM     76  C   UNL A   1      40.959  36.221  36.791  1.00  0.00     0.040 A 
ATOM     77  C   UNL A   1      39.375  34.865  37.995  1.00  0.00     0.040 A 
ATOM     78  F   UNL A   1      38.747  32.766  37.154  1.00  0.00    -0.206 F 
ATOM     79  C   UNL A   1      40.122  36.038  37.889  1.00  0.00     0.006 A 
ENDBRANCH  58  72
BRANCH  59  80
ATOM     80  C   UNL A   1      40.704  27.632  28.278  1.00  0.00     0.057 A 
ATOM     81  C   UNL A   1      40.028  26.407  28.289  1.00  0.00     0.134 A 
ATOM     82  C   UNL A   1      41.482  27.932  27.155  1.00  0.00     0.134 A 
ATOM     83  F   UNL A   1      39.280  26.058  29.346  1.00  0.00    -0.206 F 
ATOM     84  C   UNL A   1      40.140  25.502  27.233  1.00  0.00     0.040 A 
ATOM     85  C   UNL A   1      41.587  27.046  26.083  1.00  0.00     0.040 A 
ATOM     86  F   UNL A   1      42.147  29.095  27.084  1.00  0.00    -0.206 F 
ATOM     87  C   UNL A   1      40.920  25.822  26.124  1.00  0.00     0.006 A 
ENDBRANCH  59  80
BRANCH  71  88
ATOM     88  C   UNL A   1      44.232  28.238  34.234  1.00  0.00     0.057 A 
ATOM     89  C   UNL A   1      45.574  28.582  34.032  1.00  0.00     0.134 A 
ATOM     90  C   UNL A   1      43.961  27.119  35.031  1.00  0.00     0.134 A 
ATOM     91  F   UNL A   1      45.897  29.636  33.266  1.00  0.00    -0.206 F 
ATOM     92  C   UNL A   1      46.610  27.826  34.581  1.00  0.00     0.040 A 
ATOM     93  C   UNL A   1      44.987  26.368  35.604  1.00  0.00     0.040 A 
ATOM     94  F   UNL A   1      42.696  26.741  35.269  1.00  0.00    -0.206 F 
ATOM     95  C   UNL A   1      46.317  26.717  35.374  1.00  0.00     0.006 A 
ENDBRANCH  71  88
ENDBRANCH  45  46
ENDBRANCH  37  40
ENDBRANCH  35  36
ENDBRANCH  34  35
ENDBRANCH  33  34
ENDBRANCH  32  33
ENDBRANCH   3  32
TORSDOF 17
ENDMDL
MODEL 2
REMARK VINA RESULT:     -12.7      3.217      7.106
REMARK SMILES COc1ccc(-c2cc(=O)oc3cc(OCC(=O)N[C@@H](C)C(=O)NCCCCNC(=O)c4ccc(-c5c6nc(c(-c7c(F)cccc7F)c7ccc([nH]7)c(-c7c(F)cccc7F)c7nc(c(-c8c(F)cccc8F)c8ccc5[nH]8)C=C7)C=C6)cc4)ccc23)cc1
REMARK SMILES IDX 22 1 23 2 24 3 20 5 21 6 19 7 17 8 18 9 16 11 15 12 14 13
REMARK SMILES IDX 7 14 8 15 88 16 9 17 12 18 87 19 10 20 11 21 13 22 86 23
REMARK SMILES IDX 6 24 3 25 4 26 90 27 5 28 89 29 2 30 1 31 25 32 26 33 27 34
REMARK SMILES IDX 28 35 29 36 30 37 31 39 32 40 33 41 85 42 34 43 84 44 35 45
REMARK SMILES IDX 36 46 37 47 78 48 38 49 83 50 77 51 79 52 39 53 82 54 76 55
REMARK SMILES IDX 75 56 40 58 66 59 49 60 65 61 50 62 53 63 64 64 80 65 51 66
REMARK SMILES IDX 52 67 63 69 81 70 54 71 41 72 42 73 47 74 43 75 44 76 46 77
REMARK SMILES IDX 48 78 45 79 67 80 68 81 73 82 69 83 70 84 72 85 74 86 71 87
REMARK SMILES IDX 55 88 56 89 61 90 57 91 58 92 60 93 62 94 59 95
REMARK H PARENT 24 4 19 10 29 38 79 57 53 68
REMARK Flexibility Score: inf
ROOT
ATOM      1  C   UNL A   1      31.579  28.250  23.500  1.00  0.00     0.242 C 
ATOM      2  O   UNL A   1      31.070  29.192  22.889  1.00  0.00    -0.273 OA
ATOM      3  N   UNL A   1      30.907  27.750  24.582  1.00  0.00    -0.354 N 
ATOM      4  H   UNL A   1      30.125  28.280  24.860  1.00  0.00     0.163 HD
ENDROOT
BRANCH   1   5
ATOM      5  C   UNL A   1      32.870  27.582  22.997  1.00  0.00     0.168 C 
ATOM      6  C   UNL A   1      34.041  28.545  23.214  1.00  0.00     0.041 C 
BRANCH   5   7
ATOM      7  N   UNL A   1      32.658  27.145  21.611  1.00  0.00    -0.342 N 
ATOM      8  C   UNL A   1      32.403  25.899  21.117  1.00  0.00     0.258 C 
ATOM      9  O   UNL A   1      32.069  25.793  19.936  1.00  0.00    -0.271 OA
ATOM     10  H   UNL A   1      32.708  27.860  20.936  1.00  0.00     0.164 HD
BRANCH   8  11
ATOM     11  C   UNL A   1      32.535  24.689  22.018  1.00  0.00     0.329 C 
BRANCH  11  12
ATOM     12  O   UNL A   1      33.924  24.414  21.990  1.00  0.00    -0.484 OA
BRANCH  12  13
ATOM     13  C   UNL A   1      34.529  23.901  23.091  1.00  0.00     0.123 A 
ATOM     14  C   UNL A   1      34.467  21.034  25.867  1.00  0.00    -0.000 A 
ATOM     15  C   UNL A   1      33.751  21.151  26.994  1.00  0.00     0.103 A 
ATOM     16  C   UNL A   1      34.971  22.280  25.248  1.00  0.00     0.026 A 
ATOM     17  C   UNL A   1      33.405  22.493  27.516  1.00  0.00     0.336 A 
ATOM     18  C   UNL A   1      34.108  23.354  25.384  1.00  0.00     0.142 A 
ATOM     19  C   UNL A   1      35.840  22.203  24.153  1.00  0.00     0.016 A 
ATOM     20  O   UNL A   1      33.021  22.650  28.663  1.00  0.00    -0.246 OA
ATOM     21  O   UNL A   1      33.361  23.511  26.560  1.00  0.00    -0.423 OA
ATOM     22  C   UNL A   1      33.851  24.157  24.290  1.00  0.00     0.094 A 
ATOM     23  C   UNL A   1      35.596  23.009  23.046  1.00  0.00     0.047 A 
BRANCH  14  24
ATOM     24  C   UNL A   1      34.211  19.858  24.995  1.00  0.00    -0.017 A 
ATOM     25  C   UNL A   1      33.784  17.275  24.067  1.00  0.00     0.118 A 
ATOM     26  C   UNL A   1      32.748  18.212  24.029  1.00  0.00     0.047 A 
ATOM     27  C   UNL A   1      35.069  17.645  24.439  1.00  0.00     0.047 A 
ATOM     28  C   UNL A   1      32.954  19.511  24.509  1.00  0.00     0.012 A 
ATOM     29  C   UNL A   1      35.280  18.937  24.895  1.00  0.00     0.012 A 
BRANCH  25  30
ATOM     30  O   UNL A   1      33.521  15.969  23.750  1.00  0.00    -0.497 OA
ATOM     31  C   UNL A   1      33.151  15.256  24.936  1.00  0.00     0.278 C 
ENDBRANCH  25  30
ENDBRANCH  14  24
ENDBRANCH  12  13
ENDBRANCH  11  12
ENDBRANCH   8  11
ENDBRANCH   5   7
ENDBRANCH   1   5
BRANCH   3  32
ATOM     32  C   UNL A   1      31.154  26.565  25.389  1.00  0.00     0.116 C 
BRANCH  32  33
ATOM     33  C   UNL A   1      32.388  26.719  26.275  1.00  0.00     0.023 C 
BRANCH  33  34
ATOM     34  C   UNL A   1      32.411  27.991  27.121  1.00  0.00     0.023 C 
BRANCH  34  35
ATOM     35  C   UNL A   1      33.795  28.574  27.379  1.00  0.00     0.116 C 
BRANCH  35  36
ATOM     36  N   UNL A   1      33.761  29.971  27.778  1.00  0.00    -0.352 N 
ATOM     37  C   UNL A   1      34.759  30.742  28.319  1.00  0.00     0.251 C 
ATOM     38  H   UNL A   1      32.900  30.430  27.640  1.00  0.00     0.163 HD
ATOM     39  O   UNL A   1      34.517  31.886  28.691  1.00  0.00    -0.269 OA
BRANCH  37  40
ATOM     40  C   UNL A   1      36.114  30.180  28.491  1.00  0.00     0.039 A 
ATOM     41  C   UNL A   1      37.051  30.381  27.475  1.00  0.00     0.014 A 
ATOM     42  C   UNL A   1      36.465  29.467  29.642  1.00  0.00     0.014 A 
ATOM     43  C   UNL A   1      38.357  29.920  27.638  1.00  0.00     0.010 A 
ATOM     44  C   UNL A   1      37.785  29.065  29.832  1.00  0.00     0.010 A 
ATOM     45  C   UNL A   1      38.742  29.286  28.831  1.00  0.00    -0.014 A 
BRANCH  45  46
ATOM     46  C   UNL A   1      40.148  28.861  29.038  1.00  0.00     0.031 A 
ATOM     47  C   UNL A   1      40.602  27.493  28.612  1.00  0.00     0.074 A 
ATOM     48  C   UNL A   1      41.005  29.697  29.654  1.00  0.00     0.049 A 
ATOM     49  N   UNL A   1      41.792  26.955  28.703  1.00  0.00    -0.248 NA
ATOM     50  C   UNL A   1      39.583  26.603  28.035  1.00  0.00     0.031 C 
ATOM     51  C   UNL A   1      40.666  31.019  30.184  1.00  0.00     0.029 A 
ATOM     52  N   UNL A   1      42.339  29.555  29.943  1.00  0.00    -0.354 N 
ATOM     53  C   UNL A   1      41.660  25.662  28.213  1.00  0.00     0.074 A 
ATOM     54  C   UNL A   1      40.268  25.480  27.867  1.00  0.00     0.031 C 
ATOM     55  C   UNL A   1      41.768  31.577  30.711  1.00  0.00     0.029 A 
ATOM     56  C   UNL A   1      42.885  30.648  30.572  1.00  0.00     0.049 A 
ATOM     57  H   UNL A   1      42.855  28.746  29.722  1.00  0.00     0.167 HD
ATOM     58  C   UNL A   1      42.618  24.720  28.048  1.00  0.00     0.037 A 
ATOM     59  C   UNL A   1      44.146  30.878  30.979  1.00  0.00     0.037 A 
ATOM     60  C   UNL A   1      44.011  24.917  28.351  1.00  0.00     0.049 A 
ATOM     61  C   UNL A   1      45.202  29.839  30.725  1.00  0.00     0.074 A 
ATOM     62  C   UNL A   1      45.072  24.056  28.128  1.00  0.00     0.029 A 
ATOM     63  N   UNL A   1      44.535  26.056  28.942  1.00  0.00    -0.354 N 
ATOM     64  N   UNL A   1      45.082  28.659  30.167  1.00  0.00    -0.248 NA
ATOM     65  C   UNL A   1      46.571  30.171  31.143  1.00  0.00     0.031 C 
ATOM     66  C   UNL A   1      46.236  24.663  28.615  1.00  0.00     0.029 A 
ATOM     67  C   UNL A   1      45.903  25.914  29.108  1.00  0.00     0.049 A 
ATOM     68  H   UNL A   1      44.014  26.847  29.205  1.00  0.00     0.167 HD
ATOM     69  C   UNL A   1      46.360  28.117  30.148  1.00  0.00     0.074 A 
ATOM     70  C   UNL A   1      47.243  29.106  30.732  1.00  0.00     0.031 C 
ATOM     71  C   UNL A   1      46.766  26.909  29.689  1.00  0.00     0.037 A 
BRANCH  58  72
ATOM     72  C   UNL A   1      42.195  23.390  27.500  1.00  0.00     0.057 A 
ATOM     73  C   UNL A   1      41.823  22.332  28.339  1.00  0.00     0.134 A 
ATOM     74  C   UNL A   1      42.119  23.178  26.118  1.00  0.00     0.134 A 
ATOM     75  F   UNL A   1      41.887  22.467  29.672  1.00  0.00    -0.206 F 
ATOM     76  C   UNL A   1      41.408  21.104  27.823  1.00  0.00     0.040 A 
ATOM     77  C   UNL A   1      41.683  21.962  25.590  1.00  0.00     0.040 A 
ATOM     78  F   UNL A   1      42.457  24.153  25.260  1.00  0.00    -0.206 F 
ATOM     79  C   UNL A   1      41.330  20.918  26.444  1.00  0.00     0.006 A 
ENDBRANCH  58  72
BRANCH  59  80
ATOM     80  C   UNL A   1      44.494  32.163  31.632  1.00  0.00     0.057 A 
ATOM     81  C   UNL A   1      44.932  33.258  30.880  1.00  0.00     0.134 A 
ATOM     82  C   UNL A   1      44.411  32.321  33.020  1.00  0.00     0.134 A 
ATOM     83  F   UNL A   1      45.048  33.159  29.548  1.00  0.00    -0.206 F 
ATOM     84  C   UNL A   1      45.297  34.461  31.487  1.00  0.00     0.040 A 
ATOM     85  C   UNL A   1      44.752  33.524  33.637  1.00  0.00     0.040 A 
ATOM     86  F   UNL A   1      43.990  31.309  33.793  1.00  0.00    -0.206 F 
ATOM     87  C   UNL A   1      45.205  34.597  32.870  1.00  0.00     0.006 A 
ENDBRANCH  59  80
BRANCH  71  88
ATOM     88  C   UNL A   1      48.231  26.603  29.784  1.00  0.00     0.057 A 
ATOM     89  C   UNL A   1      49.122  26.951  28.762  1.00  0.00     0.134 A 
ATOM     90  C   UNL A   1      48.757  25.972  30.917  1.00  0.00     0.134 A 
ATOM     91  F   UNL A   1      48.676  27.547  27.645  1.00  0.00    -0.206 F 
ATOM     92  C   UNL A   1      50.483  26.657  28.851  1.00  0.00     0.040 A 
ATOM     93  C   UNL A   1      50.119  25.693  31.029  1.00  0.00     0.040 A 
ATOM     94  F   UNL A   1      47.957  25.620  31.934  1.00  0.00    -0.206 F 
ATOM     95  C   UNL A   1      50.985  26.031  29.991  1.00  0.00     0.006 A 
ENDBRANCH  71  88
ENDBRANCH  45  46
ENDBRANCH  37  40
ENDBRANCH  35  36
ENDBRANCH  34  35
ENDBRANCH  33  34
ENDBRANCH  32  33
ENDBRANCH   3  32
TORSDOF 17
ENDMDL
MODEL 3
REMARK VINA RESULT:     -12.5      4.390      7.975
REMARK SMILES COc1ccc(-c2cc(=O)oc3cc(OCC(=O)N[C@@H](C)C(=O)NCCCCNC(=O)c4ccc(-c5c6nc(c(-c7c(F)cccc7F)c7ccc([nH]7)c(-c7c(F)cccc7F)c7nc(c(-c8c(F)cccc8F)c8ccc5[nH]8)C=C7)C=C6)cc4)ccc23)cc1
REMARK SMILES IDX 22 1 23 2 24 3 20 5 21 6 19 7 17 8 18 9 16 11 15 12 14 13
REMARK SMILES IDX 7 14 8 15 88 16 9 17 12 18 87 19 10 20 11 21 13 22 86 23
REMARK SMILES IDX 6 24 3 25 4 26 90 27 5 28 89 29 2 30 1 31 25 32 26 33 27 34
REMARK SMILES IDX 28 35 29 36 30 37 31 39 32 40 33 41 85 42 34 43 84 44 35 45
REMARK SMILES IDX 36 46 37 47 78 48 38 49 83 50 77 51 79 52 39 53 82 54 76 55
REMARK SMILES IDX 75 56 40 58 66 59 49 60 65 61 50 62 53 63 64 64 80 65 51 66
REMARK SMILES IDX 52 67 63 69 81 70 54 71 41 72 42 73 47 74 43 75 44 76 46 77
REMARK SMILES IDX 48 78 45 79 67 80 68 81 73 82 69 83 70 84 72 85 74 86 71 87
REMARK SMILES IDX 55 88 56 89 61 90 57 91 58 92 60 93 62 94 59 95
REMARK H PARENT 24 4 19 10 29 38 79 57 53 68
REMARK Flexibility Score: inf
ROOT
ATOM      1  C   UNL A   1      32.205  28.594  23.374  1.00  0.00     0.242 C 
ATOM      2  O   UNL A   1      33.044  28.344  22.506  1.00  0.00    -0.273 OA
ATOM      3  N   UNL A   1      32.564  29.443  24.385  1.00  0.00    -0.354 N 
ATOM      4  H   UNL A   1      33.519  29.683  24.401  1.00  0.00     0.163 HD
ENDROOT
BRANCH   1   5
ATOM      5  C   UNL A   1      30.766  28.061  23.265  1.00  0.00     0.168 C 
ATOM      6  C   UNL A   1      29.875  29.162  22.686  1.00  0.00     0.041 C 
BRANCH   5   7
ATOM      7  N   UNL A   1      30.361  27.543  24.577  1.00  0.00    -0.342 N 
ATOM      8  C   UNL A   1      30.719  26.387  25.210  1.00  0.00     0.258 C 
ATOM      9  O   UNL A   1      30.406  26.244  26.393  1.00  0.00    -0.271 OA
ATOM     10  H   UNL A   1      29.736  28.116  25.077  1.00  0.00     0.164 HD
BRANCH   8  11
ATOM     11  C   UNL A   1      31.481  25.319  24.454  1.00  0.00     0.329 C 
BRANCH  11  12
ATOM     12  O   UNL A   1      32.686  25.200  25.189  1.00  0.00    -0.484 OA
BRANCH  12  13
ATOM     13  C   UNL A   1      33.761  24.596  24.624  1.00  0.00     0.123 A 
ATOM     14  C   UNL A   1      36.327  21.545  24.826  1.00  0.00    -0.000 A 
ATOM     15  C   UNL A   1      37.443  21.603  25.565  1.00  0.00     0.103 A 
ATOM     16  C   UNL A   1      35.808  22.816  24.275  1.00  0.00     0.026 A 
ATOM     17  C   UNL A   1      38.051  22.915  25.889  1.00  0.00     0.336 A 
ATOM     18  C   UNL A   1      36.000  23.903  25.113  1.00  0.00     0.142 A 
ATOM     19  C   UNL A   1      34.729  22.792  23.383  1.00  0.00     0.016 A 
ATOM     20  O   UNL A   1      39.198  23.003  26.295  1.00  0.00    -0.246 OA
ATOM     21  O   UNL A   1      37.168  23.997  25.882  1.00  0.00    -0.423 OA
ATOM     22  C   UNL A   1      34.960  24.786  25.323  1.00  0.00     0.094 A 
ATOM     23  C   UNL A   1      33.676  23.680  23.579  1.00  0.00     0.047 A 
BRANCH  14  24
ATOM     24  C   UNL A   1      35.369  20.440  25.092  1.00  0.00    -0.017 A 
ATOM     25  C   UNL A   1      33.164  18.752  25.016  1.00  0.00     0.118 A 
ATOM     26  C   UNL A   1      34.411  18.294  24.581  1.00  0.00     0.047 A 
ATOM     27  C   UNL A   1      33.029  19.998  25.611  1.00  0.00     0.047 A 
ATOM     28  C   UNL A   1      35.523  19.146  24.605  1.00  0.00     0.012 A 
ATOM     29  C   UNL A   1      34.133  20.835  25.655  1.00  0.00     0.012 A 
BRANCH  25  30
ATOM     30  O   UNL A   1      32.059  17.966  24.833  1.00  0.00    -0.497 OA
ATOM     31  C   UNL A   1      32.455  16.715  24.257  1.00  0.00     0.278 C 
ENDBRANCH  25  30
ENDBRANCH  14  24
ENDBRANCH  12  13
ENDBRANCH  11  12
ENDBRANCH   8  11
ENDBRANCH   5   7
ENDBRANCH   1   5
BRANCH   3  32
ATOM     32  C   UNL A   1      31.768  30.054  25.440  1.00  0.00     0.116 C 
BRANCH  32  33
ATOM     33  C   UNL A   1      32.268  29.670  26.831  1.00  0.00     0.023 C 
BRANCH  33  34
ATOM     34  C   UNL A   1      33.324  28.567  26.848  1.00  0.00     0.023 C 
BRANCH  34  35
ATOM     35  C   UNL A   1      34.721  29.013  27.262  1.00  0.00     0.116 C 
BRANCH  35  36
ATOM     36  N   UNL A   1      34.712  30.065  28.265  1.00  0.00    -0.352 N 
ATOM     37  C   UNL A   1      35.732  30.502  29.072  1.00  0.00     0.251 C 
ATOM     38  H   UNL A   1      33.852  30.532  28.381  1.00  0.00     0.163 HD
ATOM     39  O   UNL A   1      35.512  31.341  29.939  1.00  0.00    -0.269 OA
BRANCH  37  40
ATOM     40  C   UNL A   1      37.086  29.930  28.923  1.00  0.00     0.039 A 
ATOM     41  C   UNL A   1      37.705  30.006  27.674  1.00  0.00     0.014 A 
ATOM     42  C   UNL A   1      37.746  29.332  30.001  1.00  0.00     0.014 A 
ATOM     43  C   UNL A   1      39.010  29.535  27.519  1.00  0.00     0.010 A 
ATOM     44  C   UNL A   1      39.070  28.923  29.862  1.00  0.00     0.010 A 
ATOM     45  C   UNL A   1      39.712  29.019  28.620  1.00  0.00    -0.014 A 
BRANCH  45  46
ATOM     46  C   UNL A   1      41.124  28.586  28.475  1.00  0.00     0.031 A 
ATOM     47  C   UNL A   1      41.454  27.167  28.109  1.00  0.00     0.074 A 
ATOM     48  C   UNL A   1      42.112  29.468  28.722  1.00  0.00     0.049 A 
ATOM     49  N   UNL A   1      42.626  26.614  27.928  1.00  0.00    -0.248 NA
ATOM     50  C   UNL A   1      40.322  26.240  27.951  1.00  0.00     0.031 C 
ATOM     51  C   UNL A   1      41.922  30.852  29.161  1.00  0.00     0.029 A 
ATOM     52  N   UNL A   1      43.474  29.328  28.643  1.00  0.00    -0.354 N 
ATOM     53  C   UNL A   1      42.375  25.276  27.654  1.00  0.00     0.074 A 
ATOM     54  C   UNL A   1      40.943  25.089  27.735  1.00  0.00     0.031 C 
ATOM     55  C   UNL A   1      43.122  31.441  29.289  1.00  0.00     0.029 A 
ATOM     56  C   UNL A   1      44.164  30.474  28.957  1.00  0.00     0.049 A 
ATOM     57  H   UNL A   1      43.915  28.486  28.386  1.00  0.00     0.167 HD
ATOM     58  C   UNL A   1      43.257  24.297  27.344  1.00  0.00     0.037 A 
ATOM     59  C   UNL A   1      45.487  30.719  28.964  1.00  0.00     0.037 A 
ATOM     60  C   UNL A   1      44.678  24.494  27.220  1.00  0.00     0.049 A 
ATOM     61  C   UNL A   1      46.439  29.632  28.554  1.00  0.00     0.074 A 
ATOM     62  C   UNL A   1      45.641  23.587  26.816  1.00  0.00     0.029 A 
ATOM     63  N   UNL A   1      45.335  25.682  27.499  1.00  0.00    -0.354 N 
ATOM     64  N   UNL A   1      46.179  28.397  28.199  1.00  0.00    -0.248 NA
ATOM     65  C   UNL A   1      47.867  29.977  28.529  1.00  0.00     0.031 C 
ATOM     66  C   UNL A   1      46.890  24.218  26.881  1.00  0.00     0.029 A 
ATOM     67  C   UNL A   1      46.696  25.526  27.292  1.00  0.00     0.049 A 
ATOM     68  H   UNL A   1      44.901  26.512  27.799  1.00  0.00     0.167 HD
ATOM     69  C   UNL A   1      47.405  27.826  27.889  1.00  0.00     0.074 A 
ATOM     70  C   UNL A   1      48.407  28.854  28.079  1.00  0.00     0.031 C 
ATOM     71  C   UNL A   1      47.678  26.561  27.485  1.00  0.00     0.037 A 
BRANCH  58  72
ATOM     72  C   UNL A   1      42.710  22.922  27.100  1.00  0.00     0.057 A 
ATOM     73  C   UNL A   1      42.607  22.389  25.810  1.00  0.00     0.134 A 
ATOM     74  C   UNL A   1      42.322  22.108  28.171  1.00  0.00     0.134 A 
ATOM     75  F   UNL A   1      42.950  23.123  24.740  1.00  0.00    -0.206 F 
ATOM     76  C   UNL A   1      42.120  21.099  25.591  1.00  0.00     0.040 A 
ATOM     77  C   UNL A   1      41.855  20.809  27.967  1.00  0.00     0.040 A 
ATOM     78  F   UNL A   1      42.400  22.559  29.432  1.00  0.00    -0.206 F 
ATOM     79  C   UNL A   1      41.749  20.302  26.672  1.00  0.00     0.006 A 
ENDBRANCH  58  72
BRANCH  59  80
ATOM     80  C   UNL A   1      45.991  32.064  29.335  1.00  0.00     0.057 A 
ATOM     81  C   UNL A   1      46.313  32.372  30.661  1.00  0.00     0.134 A 
ATOM     82  C   UNL A   1      46.150  33.073  28.379  1.00  0.00     0.134 A 
ATOM     83  F   UNL A   1      46.165  31.450  31.623  1.00  0.00    -0.206 F 
ATOM     84  C   UNL A   1      46.753  33.644  31.029  1.00  0.00     0.040 A 
ATOM     85  C   UNL A   1      46.609  34.342  28.729  1.00  0.00     0.040 A 
ATOM     86  F   UNL A   1      45.865  32.835  27.090  1.00  0.00    -0.206 F 
ATOM     87  C   UNL A   1      46.905  34.633  30.060  1.00  0.00     0.006 A 
ENDBRANCH  59  80
BRANCH  71  88
ATOM     88  C   UNL A   1      49.113  26.233  27.203  1.00  0.00     0.057 A 
ATOM     89  C   UNL A   1      49.986  25.820  28.218  1.00  0.00     0.134 A 
ATOM     90  C   UNL A   1      49.623  26.314  25.902  1.00  0.00     0.134 A 
ATOM     91  F   UNL A   1      49.560  25.736  29.488  1.00  0.00    -0.206 F 
ATOM     92  C   UNL A   1      51.323  25.524  27.952  1.00  0.00     0.040 A 
ATOM     93  C   UNL A   1      50.952  25.998  25.619  1.00  0.00     0.040 A 
ATOM     94  F   UNL A   1      48.837  26.696  24.885  1.00  0.00    -0.206 F 
ATOM     95  C   UNL A   1      51.808  25.608  26.648  1.00  0.00     0.006 A 
ENDBRANCH  71  88
ENDBRANCH  45  46
ENDBRANCH  37  40
ENDBRANCH  35  36
ENDBRANCH  34  35
ENDBRANCH  33  34
ENDBRANCH  32  33
ENDBRANCH   3  32
TORSDOF 17
ENDMDL
