MODEL 1
REMARK VINA RESULT:      -9.8      0.000      0.000
REMARK SMILES Cc1cc(O[C@@H](C)C(=O)NCCCCNC(=O)c2ccc(-c3c4nc(c(-c5c(F)cccc5F)c5ccc([nH]5)c(-c5c(F)cccc5F)c5nc(c(-c6c(F)cccc6F)c6ccc3[nH]6)C=C5)C=C4)cc2)n(C)n1
REMARK SMILES IDX 12 1 11 2 10 3 8 4 9 5 6 7 7 8 5 9 4 10 1 11 2 12 3 13 74 14
REMARK SMILES IDX 72 15 73 16 13 17 14 18 15 19 16 20 17 22 18 23 19 24 71 25
REMARK SMILES IDX 20 26 70 27 21 28 22 29 23 30 64 31 24 32 69 33 63 34 65 35
REMARK SMILES IDX 25 36 68 37 62 38 61 39 26 41 52 42 35 43 51 44 36 45 39 46
REMARK SMILES IDX 50 47 66 48 37 49 38 50 49 52 67 53 40 54 27 55 28 56 33 57
REMARK SMILES IDX 29 58 30 59 32 60 34 61 31 62 53 63 54 64 59 65 55 66 56 67
REMARK SMILES IDX 58 68 60 69 57 70 41 71 42 72 47 73 43 74 44 75 46 76 48 77
REMARK SMILES IDX 45 78
REMARK H PARENT 10 6 15 21 65 40 39 51
REMARK Flexibility Score: inf
ROOT
ATOM      1  C   UNL A   1      33.988  34.886  28.809  1.00  0.00     0.023 C 
ENDROOT
BRANCH   1   2
ATOM      2  C   UNL A   1      33.024  35.574  29.775  1.00  0.00     0.116 C 
BRANCH   2   3
ATOM      3  N   UNL A   1      33.722  36.137  30.907  1.00  0.00    -0.353 N 
ATOM      4  C   UNL A   1      34.327  35.544  31.970  1.00  0.00     0.260 C 
ATOM      5  O   UNL A   1      34.759  36.309  32.842  1.00  0.00    -0.271 OA
ATOM      6  H   UNL A   1      33.767  37.120  30.909  1.00  0.00     0.163 HD
BRANCH   4   7
ATOM      7  C   UNL A   1      34.534  34.010  32.112  1.00  0.00     0.260 C 
ATOM      8  C   UNL A   1      34.083  33.442  33.454  1.00  0.00     0.064 C 
BRANCH   7   9
ATOM      9  O   UNL A   1      35.676  33.418  31.506  1.00  0.00    -0.465 OA
BRANCH   9  10
ATOM     10  C   UNL A   1      36.900  33.532  32.019  1.00  0.00     0.212 A 
ATOM     11  C   UNL A   1      40.320  34.531  32.925  1.00  0.00     0.069 C 
ATOM     12  C   UNL A   1      38.977  33.935  32.722  1.00  0.00     0.063 A 
ATOM     13  C   UNL A   1      37.817  34.549  32.187  1.00  0.00     0.093 A 
ATOM     14  N   UNL A   1      38.763  32.645  32.994  1.00  0.00    -0.175 NA
ATOM     15  N   UNL A   1      37.479  32.447  32.640  1.00  0.00    -0.237 N 
ATOM     16  C   UNL A   1      36.878  31.160  32.897  1.00  0.00     0.178 C 
ENDBRANCH   9  10
ENDBRANCH   7   9
ENDBRANCH   4   7
ENDBRANCH   2   3
ENDBRANCH   1   2
BRANCH   1  17
ATOM     17  C   UNL A   1      33.494  33.552  28.259  1.00  0.00     0.023 C 
BRANCH  17  18
ATOM     18  C   UNL A   1      34.465  32.386  28.422  1.00  0.00     0.116 C 
BRANCH  18  19
ATOM     19  N   UNL A   1      33.943  31.096  27.988  1.00  0.00    -0.352 N 
ATOM     20  C   UNL A   1      34.604  29.890  27.921  1.00  0.00     0.251 C 
ATOM     21  H   UNL A   1      33.000  31.085  27.708  1.00  0.00     0.163 HD
ATOM     22  O   UNL A   1      34.042  28.885  27.495  1.00  0.00    -0.269 OA
BRANCH  20  23
ATOM     23  C   UNL A   1      36.025  29.841  28.317  1.00  0.00     0.039 A 
ATOM     24  C   UNL A   1      36.354  29.416  29.606  1.00  0.00     0.014 A 
ATOM     25  C   UNL A   1      37.024  30.097  27.376  1.00  0.00     0.014 A 
ATOM     26  C   UNL A   1      37.687  29.146  29.920  1.00  0.00     0.010 A 
ATOM     27  C   UNL A   1      38.337  29.750  27.664  1.00  0.00     0.010 A 
ATOM     28  C   UNL A   1      38.679  29.255  28.932  1.00  0.00    -0.014 A 
BRANCH  28  29
ATOM     29  C   UNL A   1      40.080  28.831  29.181  1.00  0.00     0.031 A 
ATOM     30  C   UNL A   1      41.058  29.796  29.788  1.00  0.00     0.074 A 
ATOM     31  C   UNL A   1      40.500  27.624  28.750  1.00  0.00     0.049 A 
ATOM     32  N   UNL A   1      42.351  29.676  29.943  1.00  0.00    -0.248 NA
ATOM     33  C   UNL A   1      40.514  31.087  30.236  1.00  0.00     0.031 C 
ATOM     34  C   UNL A   1      39.667  26.624  28.079  1.00  0.00     0.029 A 
ATOM     35  N   UNL A   1      41.743  27.044  28.793  1.00  0.00    -0.354 N 
ATOM     36  C   UNL A   1      42.780  30.889  30.467  1.00  0.00     0.074 A 
ATOM     37  C   UNL A   1      41.617  31.743  30.564  1.00  0.00     0.031 C 
ATOM     38  C   UNL A   1      40.416  25.549  27.789  1.00  0.00     0.029 A 
ATOM     39  C   UNL A   1      41.789  25.796  28.221  1.00  0.00     0.049 A 
ATOM     40  H   UNL A   1      42.528  27.482  29.194  1.00  0.00     0.167 HD
ATOM     41  C   UNL A   1      44.027  31.250  30.852  1.00  0.00     0.037 A 
ATOM     42  C   UNL A   1      42.822  24.948  28.058  1.00  0.00     0.037 A 
ATOM     43  C   UNL A   1      45.169  30.377  30.808  1.00  0.00     0.049 A 
ATOM     44  C   UNL A   1      44.183  25.344  28.554  1.00  0.00     0.074 A 
ATOM     45  C   UNL A   1      46.454  30.616  31.262  1.00  0.00     0.029 A 
ATOM     46  N   UNL A   1      45.159  29.092  30.288  1.00  0.00    -0.354 N 
ATOM     47  N   UNL A   1      44.561  26.468  29.112  1.00  0.00    -0.248 NA
ATOM     48  C   UNL A   1      45.259  24.355  28.403  1.00  0.00     0.031 C 
ATOM     49  C   UNL A   1      47.229  29.482  30.993  1.00  0.00     0.029 A 
ATOM     50  C   UNL A   1      46.418  28.527  30.400  1.00  0.00     0.049 A 
ATOM     51  H   UNL A   1      44.373  28.647  29.897  1.00  0.00     0.167 HD
ATOM     52  C   UNL A   1      45.911  26.316  29.397  1.00  0.00     0.074 A 
ATOM     53  C   UNL A   1      46.283  24.985  28.962  1.00  0.00     0.031 C 
ATOM     54  C   UNL A   1      46.766  27.198  29.968  1.00  0.00     0.037 A 
BRANCH  41  55
ATOM     55  C   UNL A   1      44.210  32.650  31.357  1.00  0.00     0.057 A 
ATOM     56  C   UNL A   1      44.563  33.703  30.503  1.00  0.00     0.134 A 
ATOM     57  C   UNL A   1      44.026  32.950  32.712  1.00  0.00     0.134 A 
ATOM     58  F   UNL A   1      44.769  33.479  29.197  1.00  0.00    -0.206 F 
ATOM     59  C   UNL A   1      44.759  34.998  30.985  1.00  0.00     0.040 A 
ATOM     60  C   UNL A   1      44.193  34.247  33.200  1.00  0.00     0.040 A 
ATOM     61  F   UNL A   1      43.683  31.989  33.583  1.00  0.00    -0.206 F 
ATOM     62  C   UNL A   1      44.569  35.273  32.337  1.00  0.00     0.006 A 
ENDBRANCH  41  55
BRANCH  42  63
ATOM     63  C   UNL A   1      42.598  23.625  27.426  1.00  0.00     0.057 A 
ATOM     64  C   UNL A   1      42.269  22.507  28.202  1.00  0.00     0.134 A 
ATOM     65  C   UNL A   1      42.695  23.446  26.041  1.00  0.00     0.134 A 
ATOM     66  F   UNL A   1      42.179  22.615  29.535  1.00  0.00    -0.206 F 
ATOM     67  C   UNL A   1      42.054  21.254  27.625  1.00  0.00     0.040 A 
ATOM     68  C   UNL A   1      42.464  22.203  25.449  1.00  0.00     0.040 A 
ATOM     69  F   UNL A   1      42.999  24.481  25.246  1.00  0.00    -0.206 F 
ATOM     70  C   UNL A   1      42.147  21.102  26.242  1.00  0.00     0.006 A 
ENDBRANCH  42  63
BRANCH  54  71
ATOM     71  C   UNL A   1      48.178  26.745  30.178  1.00  0.00     0.057 A 
ATOM     72  C   UNL A   1      49.192  27.051  29.263  1.00  0.00     0.134 A 
ATOM     73  C   UNL A   1      48.534  26.036  31.332  1.00  0.00     0.134 A 
ATOM     74  F   UNL A   1      48.910  27.718  28.133  1.00  0.00    -0.206 F 
ATOM     75  C   UNL A   1      50.512  26.655  29.482  1.00  0.00     0.040 A 
ATOM     76  C   UNL A   1      49.853  25.651  31.572  1.00  0.00     0.040 A 
ATOM     77  F   UNL A   1      47.609  25.718  32.249  1.00  0.00    -0.206 F 
ATOM     78  C   UNL A   1      50.847  25.959  30.642  1.00  0.00     0.006 A 
ENDBRANCH  54  71
ENDBRANCH  28  29
ENDBRANCH  20  23
ENDBRANCH  18  19
ENDBRANCH  17  18
ENDBRANCH   1  17
TORSDOF 13
ENDMDL
MODEL 2
REMARK VINA RESULT:      -9.8      4.253      7.783
REMARK SMILES Cc1cc(O[C@@H](C)C(=O)NCCCCNC(=O)c2ccc(-c3c4nc(c(-c5c(F)cccc5F)c5ccc([nH]5)c(-c5c(F)cccc5F)c5nc(c(-c6c(F)cccc6F)c6ccc3[nH]6)C=C5)C=C4)cc2)n(C)n1
REMARK SMILES IDX 12 1 11 2 10 3 8 4 9 5 6 7 7 8 5 9 4 10 1 11 2 12 3 13 74 14
REMARK SMILES IDX 72 15 73 16 13 17 14 18 15 19 16 20 17 22 18 23 19 24 71 25
REMARK SMILES IDX 20 26 70 27 21 28 22 29 23 30 64 31 24 32 69 33 63 34 65 35
REMARK SMILES IDX 25 36 68 37 62 38 61 39 26 41 52 42 35 43 51 44 36 45 39 46
REMARK SMILES IDX 50 47 66 48 37 49 38 50 49 52 67 53 40 54 27 55 28 56 33 57
REMARK SMILES IDX 29 58 30 59 32 60 34 61 31 62 53 63 54 64 59 65 55 66 56 67
REMARK SMILES IDX 58 68 60 69 57 70 41 71 42 72 47 73 43 74 44 75 46 76 48 77
REMARK SMILES IDX 45 78
REMARK H PARENT 10 6 15 21 65 40 39 51
REMARK Flexibility Score: inf
ROOT
ATOM      1  C   UNL A   1      32.178  30.432  26.830  1.00  0.00     0.023 C 
ENDROOT
BRANCH   1   2
ATOM      2  C   UNL A   1      31.733  29.700  25.564  1.00  0.00     0.116 C 
BRANCH   2   3
ATOM      3  N   UNL A   1      32.776  29.689  24.566  1.00  0.00    -0.353 N 
ATOM      4  C   UNL A   1      33.105  28.764  23.625  1.00  0.00     0.260 C 
ATOM      5  O   UNL A   1      34.129  28.999  22.971  1.00  0.00    -0.271 OA
ATOM      6  H   UNL A   1      33.349  30.489  24.567  1.00  0.00     0.163 HD
BRANCH   4   7
ATOM      7  C   UNL A   1      32.258  27.498  23.314  1.00  0.00     0.260 C 
ATOM      8  C   UNL A   1      33.046  26.193  23.370  1.00  0.00     0.064 C 
BRANCH   7   9
ATOM      9  O   UNL A   1      31.225  27.592  22.342  1.00  0.00    -0.465 OA
BRANCH   9  10
ATOM     10  C   UNL A   1      30.202  28.437  22.461  1.00  0.00     0.212 A 
ATOM     11  C   UNL A   1      27.973  31.358  22.602  1.00  0.00     0.069 C 
ATOM     12  C   UNL A   1      28.665  30.046  22.607  1.00  0.00     0.063 A 
ATOM     13  C   UNL A   1      29.899  29.703  22.001  1.00  0.00     0.093 A 
ATOM     14  N   UNL A   1      28.161  29.021  23.299  1.00  0.00    -0.175 NA
ATOM     15  N   UNL A   1      29.064  28.036  23.127  1.00  0.00    -0.237 N 
ATOM     16  C   UNL A   1      28.781  26.730  23.668  1.00  0.00     0.178 C 
ENDBRANCH   9  10
ENDBRANCH   7   9
ENDBRANCH   4   7
ENDBRANCH   2   3
ENDBRANCH   1   2
BRANCH   1  17
ATOM     17  C   UNL A   1      31.796  31.909  26.877  1.00  0.00     0.023 C 
BRANCH  17  18
ATOM     18  C   UNL A   1      32.906  32.849  27.338  1.00  0.00     0.116 C 
BRANCH  18  19
ATOM     19  N   UNL A   1      32.465  34.203  27.647  1.00  0.00    -0.352 N 
ATOM     20  C   UNL A   1      32.988  35.079  28.572  1.00  0.00     0.251 C 
ATOM     21  H   UNL A   1      31.697  34.534  27.129  1.00  0.00     0.163 HD
ATOM     22  O   UNL A   1      32.484  36.184  28.751  1.00  0.00    -0.269 OA
BRANCH  20  23
ATOM     23  C   UNL A   1      34.136  34.639  29.389  1.00  0.00     0.039 A 
ATOM     24  C   UNL A   1      33.902  34.135  30.670  1.00  0.00     0.014 A 
ATOM     25  C   UNL A   1      35.419  34.613  28.837  1.00  0.00     0.014 A 
ATOM     26  C   UNL A   1      34.940  33.507  31.360  1.00  0.00     0.010 A 
ATOM     27  C   UNL A   1      36.427  33.917  29.489  1.00  0.00     0.010 A 
ATOM     28  C   UNL A   1      36.193  33.342  30.749  1.00  0.00    -0.014 A 
BRANCH  28  29
ATOM     29  C   UNL A   1      37.274  32.547  31.385  1.00  0.00     0.031 A 
ATOM     30  C   UNL A   1      37.820  32.959  32.722  1.00  0.00     0.074 A 
ATOM     31  C   UNL A   1      37.845  31.532  30.705  1.00  0.00     0.049 A 
ATOM     32  N   UNL A   1      38.856  32.497  33.372  1.00  0.00    -0.248 NA
ATOM     33  C   UNL A   1      37.133  34.072  33.396  1.00  0.00     0.031 C 
ATOM     34  C   UNL A   1      37.458  31.080  29.368  1.00  0.00     0.029 A 
ATOM     35  N   UNL A   1      38.893  30.711  31.041  1.00  0.00    -0.354 N 
ATOM     36  C   UNL A   1      38.970  33.288  34.507  1.00  0.00     0.074 A 
ATOM     37  C   UNL A   1      37.924  34.284  34.437  1.00  0.00     0.031 C 
ATOM     38  C   UNL A   1      38.244  30.053  29.005  1.00  0.00     0.029 A 
ATOM     39  C   UNL A   1      39.212  29.797  30.067  1.00  0.00     0.049 A 
ATOM     40  H   UNL A   1      39.372  30.773  31.899  1.00  0.00     0.167 HD
ATOM     41  C   UNL A   1      39.856  33.182  35.526  1.00  0.00     0.037 A 
ATOM     42  C   UNL A   1      40.181  28.863  30.030  1.00  0.00     0.037 A 
ATOM     43  C   UNL A   1      40.858  32.155  35.621  1.00  0.00     0.049 A 
ATOM     44  C   UNL A   1      41.108  28.719  31.203  1.00  0.00     0.074 A 
ATOM     45  C   UNL A   1      41.740  31.903  36.657  1.00  0.00     0.029 A 
ATOM     46  N   UNL A   1      41.103  31.201  34.645  1.00  0.00    -0.354 N 
ATOM     47  N   UNL A   1      41.161  29.430  32.302  1.00  0.00    -0.248 NA
ATOM     48  C   UNL A   1      42.106  27.643  31.132  1.00  0.00     0.031 C 
ATOM     49  C   UNL A   1      42.537  30.810  36.295  1.00  0.00     0.029 A 
ATOM     50  C   UNL A   1      42.129  30.364  35.048  1.00  0.00     0.049 A 
ATOM     51  H   UNL A   1      40.618  31.130  33.790  1.00  0.00     0.167 HD
ATOM     52  C   UNL A   1      42.181  28.876  33.064  1.00  0.00     0.074 A 
ATOM     53  C   UNL A   1      42.713  27.762  32.305  1.00  0.00     0.031 C 
ATOM     54  C   UNL A   1      42.638  29.256  34.281  1.00  0.00     0.037 A 
BRANCH  41  55
ATOM     55  C   UNL A   1      39.769  34.204  36.620  1.00  0.00     0.057 A 
ATOM     56  C   UNL A   1      39.003  33.988  37.774  1.00  0.00     0.134 A 
ATOM     57  C   UNL A   1      40.463  35.415  36.523  1.00  0.00     0.134 A 
ATOM     58  F   UNL A   1      38.301  32.854  37.921  1.00  0.00    -0.206 F 
ATOM     59  C   UNL A   1      38.904  34.955  38.775  1.00  0.00     0.040 A 
ATOM     60  C   UNL A   1      40.393  36.379  37.530  1.00  0.00     0.040 A 
ATOM     61  F   UNL A   1      41.218  35.684  35.447  1.00  0.00    -0.206 F 
ATOM     62  C   UNL A   1      39.605  36.153  38.656  1.00  0.00     0.006 A 
ENDBRANCH  41  55
BRANCH  42  63
ATOM     63  C   UNL A   1      40.297  27.966  28.854  1.00  0.00     0.057 A 
ATOM     64  C   UNL A   1      39.633  26.734  28.824  1.00  0.00     0.134 A 
ATOM     65  C   UNL A   1      41.058  28.319  27.734  1.00  0.00     0.134 A 
ATOM     66  F   UNL A   1      38.903  26.336  29.875  1.00  0.00    -0.206 F 
ATOM     67  C   UNL A   1      39.730  25.878  27.726  1.00  0.00     0.040 A 
ATOM     68  C   UNL A   1      41.149  27.481  26.621  1.00  0.00     0.040 A 
ATOM     69  F   UNL A   1      41.711  29.490  27.701  1.00  0.00    -0.206 F 
ATOM     70  C   UNL A   1      40.488  26.254  26.617  1.00  0.00     0.006 A 
ENDBRANCH  42  63
BRANCH  54  71
ATOM     71  C   UNL A   1      43.747  28.447  34.879  1.00  0.00     0.057 A 
ATOM     72  C   UNL A   1      45.092  28.786  34.685  1.00  0.00     0.134 A 
ATOM     73  C   UNL A   1      43.466  27.346  35.697  1.00  0.00     0.134 A 
ATOM     74  F   UNL A   1      45.425  29.823  33.901  1.00  0.00    -0.206 F 
ATOM     75  C   UNL A   1      46.120  28.049  35.272  1.00  0.00     0.040 A 
ATOM     76  C   UNL A   1      44.484  26.612  36.306  1.00  0.00     0.040 A 
ATOM     77  F   UNL A   1      42.197  26.975  35.927  1.00  0.00    -0.206 F 
ATOM     78  C   UNL A   1      45.817  26.962  36.091  1.00  0.00     0.006 A 
ENDBRANCH  54  71
ENDBRANCH  28  29
ENDBRANCH  20  23
ENDBRANCH  18  19
ENDBRANCH  17  18
ENDBRANCH   1  17
TORSDOF 13
ENDMDL
MODEL 3
REMARK VINA RESULT:      -9.8      4.630     10.192
REMARK SMILES Cc1cc(O[C@@H](C)C(=O)NCCCCNC(=O)c2ccc(-c3c4nc(c(-c5c(F)cccc5F)c5ccc([nH]5)c(-c5c(F)cccc5F)c5nc(c(-c6c(F)cccc6F)c6ccc3[nH]6)C=C5)C=C4)cc2)n(C)n1
REMARK SMILES IDX 12 1 11 2 10 3 8 4 9 5 6 7 7 8 5 9 4 10 1 11 2 12 3 13 74 14
REMARK SMILES IDX 72 15 73 16 13 17 14 18 15 19 16 20 17 22 18 23 19 24 71 25
REMARK SMILES IDX 20 26 70 27 21 28 22 29 23 30 64 31 24 32 69 33 63 34 65 35
REMARK SMILES IDX 25 36 68 37 62 38 61 39 26 41 52 42 35 43 51 44 36 45 39 46
REMARK SMILES IDX 50 47 66 48 37 49 38 50 49 52 67 53 40 54 27 55 28 56 33 57
REMARK SMILES IDX 29 58 30 59 32 60 34 61 31 62 53 63 54 64 59 65 55 66 56 67
REMARK SMILES IDX 58 68 60 69 57 70 41 71 42 72 47 73 43 74 44 75 46 76 48 77
REMARK SMILES IDX 45 78
REMARK H PARENT 10 6 15 21 65 40 39 51
REMARK Flexibility Score: inf
ROOT
ATOM      1  C   UNL A   1      37.098  21.906  24.465  1.00  0.00     0.023 C 
ENDROOT
BRANCH   1   2
ATOM      2  C   UNL A   1      36.694  22.909  25.545  1.00  0.00     0.116 C 
BRANCH   2   3
ATOM      3  N   UNL A   1      35.883  22.288  26.565  1.00  0.00    -0.353 N 
ATOM      4  C   UNL A   1      34.543  22.064  26.630  1.00  0.00     0.260 C 
ATOM      5  O   UNL A   1      34.125  21.592  27.696  1.00  0.00    -0.271 OA
ATOM      6  H   UNL A   1      36.386  21.972  27.350  1.00  0.00     0.163 HD
BRANCH   4   7
ATOM      7  C   UNL A   1      33.559  22.319  25.454  1.00  0.00     0.260 C 
ATOM      8  C   UNL A   1      33.353  23.794  25.123  1.00  0.00     0.064 C 
BRANCH   7   9
ATOM      9  O   UNL A   1      32.438  21.457  25.305  1.00  0.00    -0.465 OA
BRANCH   9  10
ATOM     10  C   UNL A   1      32.534  20.242  24.769  1.00  0.00     0.212 A 
ATOM     11  C   UNL A   1      33.230  16.714  24.004  1.00  0.00     0.069 C 
ATOM     12  C   UNL A   1      32.833  18.140  24.086  1.00  0.00     0.063 A 
ATOM     13  C   UNL A   1      32.742  18.960  25.238  1.00  0.00     0.093 A 
ATOM     14  N   UNL A   1      32.571  18.832  22.974  1.00  0.00    -0.175 NA
ATOM     15  N   UNL A   1      32.311  20.077  23.419  1.00  0.00    -0.237 N 
ATOM     16  C   UNL A   1      31.885  21.079  22.472  1.00  0.00     0.178 C 
ENDBRANCH   9  10
ENDBRANCH   7   9
ENDBRANCH   4   7
ENDBRANCH   2   3
ENDBRANCH   1   2
BRANCH   1  17
ATOM     17  C   UNL A   1      37.758  20.635  24.993  1.00  0.00     0.023 C 
BRANCH  17  18
ATOM     18  C   UNL A   1      39.070  20.852  25.741  1.00  0.00     0.116 C 
BRANCH  18  19
ATOM     19  N   UNL A   1      39.980  19.713  25.712  1.00  0.00    -0.352 N 
ATOM     20  C   UNL A   1      41.307  19.674  26.081  1.00  0.00     0.251 C 
ATOM     21  H   UNL A   1      39.599  18.866  25.388  1.00  0.00     0.163 HD
ATOM     22  O   UNL A   1      41.964  18.644  25.965  1.00  0.00    -0.269 OA
BRANCH  20  23
ATOM     23  C   UNL A   1      41.940  20.916  26.566  1.00  0.00     0.039 A 
ATOM     24  C   UNL A   1      42.344  21.877  25.637  1.00  0.00     0.014 A 
ATOM     25  C   UNL A   1      42.018  21.173  27.936  1.00  0.00     0.014 A 
ATOM     26  C   UNL A   1      42.730  23.142  26.083  1.00  0.00     0.010 A 
ATOM     27  C   UNL A   1      42.322  22.455  28.372  1.00  0.00     0.010 A 
ATOM     28  C   UNL A   1      42.665  23.457  27.450  1.00  0.00    -0.014 A 
BRANCH  28  29
ATOM     29  C   UNL A   1      42.918  24.833  27.948  1.00  0.00     0.031 A 
ATOM     30  C   UNL A   1      44.295  25.224  28.401  1.00  0.00     0.074 A 
ATOM     31  C   UNL A   1      41.886  25.686  28.108  1.00  0.00     0.049 A 
ATOM     32  N   UNL A   1      44.690  26.314  29.007  1.00  0.00    -0.248 NA
ATOM     33  C   UNL A   1      45.363  24.234  28.185  1.00  0.00     0.031 C 
ATOM     34  C   UNL A   1      40.488  25.402  27.776  1.00  0.00     0.029 A 
ATOM     35  N   UNL A   1      41.853  26.962  28.613  1.00  0.00    -0.354 N 
ATOM     36  C   UNL A   1      46.038  26.124  29.280  1.00  0.00     0.074 A 
ATOM     37  C   UNL A   1      46.383  24.800  28.812  1.00  0.00     0.031 C 
ATOM     38  C   UNL A   1      39.739  26.476  28.069  1.00  0.00     0.029 A 
ATOM     39  C   UNL A   1      40.595  27.511  28.641  1.00  0.00     0.049 A 
ATOM     40  H   UNL A   1      42.656  27.438  28.926  1.00  0.00     0.167 HD
ATOM     41  C   UNL A   1      46.913  26.984  29.852  1.00  0.00     0.037 A 
ATOM     42  C   UNL A   1      40.176  28.711  29.085  1.00  0.00     0.037 A 
ATOM     43  C   UNL A   1      46.580  28.321  30.263  1.00  0.00     0.049 A 
ATOM     44  C   UNL A   1      41.178  29.675  29.653  1.00  0.00     0.074 A 
ATOM     45  C   UNL A   1      47.416  29.303  30.765  1.00  0.00     0.029 A 
ATOM     46  N   UNL A   1      45.307  28.867  30.209  1.00  0.00    -0.354 N 
ATOM     47  N   UNL A   1      42.464  29.510  29.842  1.00  0.00    -0.248 NA
ATOM     48  C   UNL A   1      40.673  30.992  30.065  1.00  0.00     0.031 C 
ATOM     49  C   UNL A   1      46.641  30.437  31.038  1.00  0.00     0.029 A 
ATOM     50  C   UNL A   1      45.330  30.170  30.677  1.00  0.00     0.049 A 
ATOM     51  H   UNL A   1      44.504  28.398  29.885  1.00  0.00     0.167 HD
ATOM     52  C   UNL A   1      42.927  30.705  30.375  1.00  0.00     0.074 A 
ATOM     53  C   UNL A   1      41.785  31.592  30.467  1.00  0.00     0.031 C 
ATOM     54  C   UNL A   1      44.184  31.038  30.754  1.00  0.00     0.037 A 
BRANCH  41  55
ATOM     55  C   UNL A   1      48.317  26.498  30.057  1.00  0.00     0.057 A 
ATOM     56  C   UNL A   1      49.311  26.680  29.087  1.00  0.00     0.134 A 
ATOM     57  C   UNL A   1      48.682  25.847  31.241  1.00  0.00     0.134 A 
ATOM     58  F   UNL A   1      49.023  27.284  27.924  1.00  0.00    -0.206 F 
ATOM     59  C   UNL A   1      50.609  26.201  29.273  1.00  0.00     0.040 A 
ATOM     60  C   UNL A   1      49.983  25.387  31.450  1.00  0.00     0.040 A 
ATOM     61  F   UNL A   1      47.780  25.644  32.214  1.00  0.00    -0.206 F 
ATOM     62  C   UNL A   1      50.948  25.556  30.460  1.00  0.00     0.006 A 
ENDBRANCH  41  55
BRANCH  42  63
ATOM     63  C   UNL A   1      38.744  29.081  28.974  1.00  0.00     0.057 A 
ATOM     64  C   UNL A   1      38.212  29.537  27.761  1.00  0.00     0.134 A 
ATOM     65  C   UNL A   1      37.872  28.977  30.064  1.00  0.00     0.134 A 
ATOM     66  F   UNL A   1      39.004  29.672  26.688  1.00  0.00    -0.206 F 
ATOM     67  C   UNL A   1      36.867  29.888  27.639  1.00  0.00     0.040 A 
ATOM     68  C   UNL A   1      36.520  29.308  29.950  1.00  0.00     0.040 A 
ATOM     69  F   UNL A   1      38.320  28.539  31.249  1.00  0.00    -0.206 F 
ATOM     70  C   UNL A   1      36.015  29.769  28.736  1.00  0.00     0.006 A 
ENDBRANCH  42  63
BRANCH  54  71
ATOM     71  C   UNL A   1      44.396  32.426  31.277  1.00  0.00     0.057 A 
ATOM     72  C   UNL A   1      44.691  33.496  30.424  1.00  0.00     0.134 A 
ATOM     73  C   UNL A   1      44.256  32.701  32.643  1.00  0.00     0.134 A 
ATOM     74  F   UNL A   1      44.849  33.293  29.108  1.00  0.00    -0.206 F 
ATOM     75  C   UNL A   1      44.854  34.792  30.914  1.00  0.00     0.040 A 
ATOM     76  C   UNL A   1      44.397  33.996  33.143  1.00  0.00     0.040 A 
ATOM     77  F   UNL A   1      43.968  31.719  33.510  1.00  0.00    -0.206 F 
ATOM     78  C   UNL A   1      44.701  35.046  32.277  1.00  0.00     0.006 A 
ENDBRANCH  54  71
ENDBRANCH  28  29
ENDBRANCH  20  23
ENDBRANCH  18  19
ENDBRANCH  17  18
ENDBRANCH   1  17
TORSDOF 13
ENDMDL
