MODEL 1
REMARK VINA RESULT:     -11.9      0.000      0.000
REMARK SMILES C[C@@H]1[C@@H](C(=O)NCCCCNC(=O)c2ccc(-c3c4nc(c(-c5c(F)cccc5F)c5ccc([nH]5)c(-c5c(F)cccc5F)c5nc(c(-c6c(F)cccc6F)c6ccc3[nH]6)C=C5)C=C4)cc2)CCN1C(=O)N[C@@H](C)Cc1ccco1
REMARK SMILES IDX 7 1 6 2 4 3 5 4 3 6 1 7 2 8 70 9 68 10 69 11 71 12 72 13
REMARK SMILES IDX 73 14 74 16 75 17 76 18 77 19 78 20 81 21 79 22 80 23 8 24
REMARK SMILES IDX 9 25 10 26 11 27 12 28 13 30 14 31 15 32 67 33 16 34 66 35
REMARK SMILES IDX 17 36 18 37 19 38 60 39 20 40 65 41 59 42 61 43 21 44 64 45
REMARK SMILES IDX 58 46 57 47 22 49 48 50 31 51 47 52 32 53 35 54 46 55 62 56
REMARK SMILES IDX 33 57 34 58 45 60 63 61 36 62 23 63 24 64 29 65 25 66 26 67
REMARK SMILES IDX 28 68 30 69 27 70 49 71 50 72 55 73 51 74 52 75 54 76 56 77
REMARK SMILES IDX 53 78 37 79 38 80 43 81 39 82 40 83 42 84 44 85 41 86
REMARK H PARENT 6 5 73 15 11 29 61 48 35 59
REMARK Flexibility Score: inf
ROOT
ATOM      1  C   UNL A   1      32.451  29.860  27.138  1.00  0.00     0.116 C 
ENDROOT
BRANCH   1   2
ATOM      2  N   UNL A   1      31.908  28.529  27.297  1.00  0.00    -0.356 N 
ATOM      3  C   UNL A   1      32.270  27.367  26.692  1.00  0.00     0.225 C 
ATOM      4  O   UNL A   1      31.542  26.399  26.897  1.00  0.00    -0.275 OA
ATOM      5  H   UNL A   1      31.166  28.454  27.939  1.00  0.00     0.163 HD
BRANCH   3   6
ATOM      6  C   UNL A   1      33.463  27.342  25.742  1.00  0.00     0.102 C 
ATOM      7  C   UNL A   1      34.292  28.598  23.718  1.00  0.00     0.032 C 
ATOM      8  C   UNL A   1      33.085  27.892  24.349  1.00  0.00     0.096 C 
ATOM      9  N   UNL A   1      32.696  26.710  23.567  1.00  0.00    -0.321 N 
ATOM     10  C   UNL A   1      33.964  25.936  25.409  1.00  0.00     0.037 C 
ATOM     11  C   UNL A   1      33.054  25.497  24.281  1.00  0.00     0.122 C 
BRANCH   9  12
ATOM     12  C   UNL A   1      31.999  26.562  22.410  1.00  0.00     0.317 C 
ATOM     13  O   UNL A   1      32.537  26.098  21.398  1.00  0.00    -0.249 OA
ATOM     14  N   UNL A   1      30.712  26.907  22.259  1.00  0.00    -0.335 N 
ATOM     15  H   UNL A   1      30.420  26.824  21.323  1.00  0.00     0.165 HD
BRANCH  14  16
ATOM     16  C   UNL A   1      29.628  27.376  23.124  1.00  0.00     0.088 C 
ATOM     17  C   UNL A   1      29.445  26.367  24.258  1.00  0.00     0.031 C 
BRANCH  16  18
ATOM     18  C   UNL A   1      29.908  28.779  23.699  1.00  0.00     0.100 C 
BRANCH  18  19
ATOM     19  C   UNL A   1      29.201  29.863  22.966  1.00  0.00     0.105 A 
ATOM     20  C   UNL A   1      28.869  31.160  23.296  1.00  0.00     0.045 A 
ATOM     21  O   UNL A   1      28.782  29.577  21.704  1.00  0.00    -0.469 OA
ATOM     22  C   UNL A   1      28.234  31.709  22.159  1.00  0.00     0.042 A 
ATOM     23  C   UNL A   1      28.211  30.710  21.215  1.00  0.00     0.195 A 
ENDBRANCH  18  19
ENDBRANCH  16  18
ENDBRANCH  14  16
ENDBRANCH   9  12
ENDBRANCH   3   6
ENDBRANCH   1   2
BRANCH   1  24
ATOM     24  C   UNL A   1      31.627  30.696  26.168  1.00  0.00     0.023 C 
BRANCH  24  25
ATOM     25  C   UNL A   1      31.395  32.145  26.600  1.00  0.00     0.023 C 
BRANCH  25  26
ATOM     26  C   UNL A   1      32.570  32.803  27.313  1.00  0.00     0.116 C 
BRANCH  26  27
ATOM     27  N   UNL A   1      32.329  34.208  27.609  1.00  0.00    -0.352 N 
ATOM     28  C   UNL A   1      32.934  35.024  28.535  1.00  0.00     0.251 C 
ATOM     29  H   UNL A   1      31.631  34.636  27.065  1.00  0.00     0.163 HD
ATOM     30  O   UNL A   1      32.485  36.139  28.761  1.00  0.00    -0.269 OA
BRANCH  28  31
ATOM     31  C   UNL A   1      34.113  34.533  29.278  1.00  0.00     0.039 A 
ATOM     32  C   UNL A   1      33.930  33.977  30.546  1.00  0.00     0.014 A 
ATOM     33  C   UNL A   1      35.390  34.604  28.717  1.00  0.00     0.014 A 
ATOM     34  C   UNL A   1      35.022  33.429  31.222  1.00  0.00     0.010 A 
ATOM     35  C   UNL A   1      36.456  33.974  29.348  1.00  0.00     0.010 A 
ATOM     36  C   UNL A   1      36.286  33.388  30.611  1.00  0.00    -0.014 A 
BRANCH  36  37
ATOM     37  C   UNL A   1      37.450  32.758  31.284  1.00  0.00     0.031 A 
ATOM     38  C   UNL A   1      38.119  31.564  30.662  1.00  0.00     0.074 A 
ATOM     39  C   UNL A   1      37.865  33.219  32.480  1.00  0.00     0.049 A 
ATOM     40  N   UNL A   1      39.100  30.829  31.125  1.00  0.00    -0.248 NA
ATOM     41  C   UNL A   1      37.596  31.114  29.362  1.00  0.00     0.031 C 
ATOM     42  C   UNL A   1      37.271  34.340  33.210  1.00  0.00     0.029 A 
ATOM     43  N   UNL A   1      38.881  32.792  33.298  1.00  0.00    -0.354 N 
ATOM     44  C   UNL A   1      39.298  29.828  30.182  1.00  0.00     0.074 A 
ATOM     45  C   UNL A   1      38.295  30.008  29.156  1.00  0.00     0.031 C 
ATOM     46  C   UNL A   1      37.950  34.531  34.352  1.00  0.00     0.029 A 
ATOM     47  C   UNL A   1      38.999  33.522  34.458  1.00  0.00     0.049 A 
ATOM     48  H   UNL A   1      39.469  32.035  33.076  1.00  0.00     0.167 HD
ATOM     49  C   UNL A   1      40.247  28.862  30.157  1.00  0.00     0.037 A 
ATOM     50  C   UNL A   1      39.853  33.386  35.489  1.00  0.00     0.037 A 
ATOM     51  C   UNL A   1      41.256  28.698  31.170  1.00  0.00     0.049 A 
ATOM     52  C   UNL A   1      40.889  32.296  35.446  1.00  0.00     0.074 A 
ATOM     53  C   UNL A   1      42.292  27.783  31.213  1.00  0.00     0.029 A 
ATOM     54  N   UNL A   1      41.351  29.467  32.322  1.00  0.00    -0.354 N 
ATOM     55  N   UNL A   1      41.106  31.396  34.518  1.00  0.00    -0.248 NA
ATOM     56  C   UNL A   1      41.804  32.209  36.593  1.00  0.00     0.031 C 
ATOM     57  C   UNL A   1      42.985  27.964  32.416  1.00  0.00     0.029 A 
ATOM     58  C   UNL A   1      42.417  29.033  33.091  1.00  0.00     0.049 A 
ATOM     59  H   UNL A   1      40.750  30.211  32.555  1.00  0.00     0.167 HD
ATOM     60  C   UNL A   1      42.204  30.662  34.948  1.00  0.00     0.074 A 
ATOM     61  C   UNL A   1      42.612  31.228  36.218  1.00  0.00     0.031 C 
ATOM     62  C   UNL A   1      42.821  29.615  34.347  1.00  0.00     0.037 A 
BRANCH  49  63
ATOM     63  C   UNL A   1      40.232  27.911  28.995  1.00  0.00     0.057 A 
ATOM     64  C   UNL A   1      39.508  26.711  29.028  1.00  0.00     0.134 A 
ATOM     65  C   UNL A   1      40.936  28.204  27.820  1.00  0.00     0.134 A 
ATOM     66  F   UNL A   1      38.822  26.361  30.127  1.00  0.00    -0.206 F 
ATOM     67  C   UNL A   1      39.513  25.822  27.951  1.00  0.00     0.040 A 
ATOM     68  C   UNL A   1      40.922  27.340  26.725  1.00  0.00     0.040 A 
ATOM     69  F   UNL A   1      41.645  29.337  27.716  1.00  0.00    -0.206 F 
ATOM     70  C   UNL A   1      40.217  26.140  26.792  1.00  0.00     0.006 A 
ENDBRANCH  49  63
BRANCH  50  71
ATOM     71  C   UNL A   1      39.787  34.325  36.639  1.00  0.00     0.057 A 
ATOM     72  C   UNL A   1      39.063  34.002  37.793  1.00  0.00     0.134 A 
ATOM     73  C   UNL A   1      40.432  35.567  36.610  1.00  0.00     0.134 A 
ATOM     74  F   UNL A   1      38.408  32.834  37.875  1.00  0.00    -0.206 F 
ATOM     75  C   UNL A   1      38.964  34.889  38.867  1.00  0.00     0.040 A 
ATOM     76  C   UNL A   1      40.364  36.451  37.687  1.00  0.00     0.040 A 
ATOM     77  F   UNL A   1      41.149  35.933  35.537  1.00  0.00    -0.206 F 
ATOM     78  C   UNL A   1      39.621  36.116  38.817  1.00  0.00     0.006 A 
ENDBRANCH  50  71
BRANCH  62  79
ATOM     79  C   UNL A   1      44.035  29.048  35.023  1.00  0.00     0.057 A 
ATOM     80  C   UNL A   1      43.951  28.014  35.965  1.00  0.00     0.134 A 
ATOM     81  C   UNL A   1      45.314  29.521  34.696  1.00  0.00     0.134 A 
ATOM     82  F   UNL A   1      42.757  27.525  36.332  1.00  0.00    -0.206 F 
ATOM     83  C   UNL A   1      45.092  27.491  36.576  1.00  0.00     0.040 A 
ATOM     84  C   UNL A   1      46.462  28.984  35.277  1.00  0.00     0.040 A 
ATOM     85  F   UNL A   1      45.467  30.503  33.794  1.00  0.00    -0.206 F 
ATOM     86  C   UNL A   1      46.353  27.971  36.226  1.00  0.00     0.006 A 
ENDBRANCH  62  79
ENDBRANCH  36  37
ENDBRANCH  28  31
ENDBRANCH  26  27
ENDBRANCH  25  26
ENDBRANCH  24  25
ENDBRANCH   1  24
TORSDOF 15
ENDMDL
MODEL 2
REMARK VINA RESULT:     -11.9      4.736      9.197
REMARK SMILES C[C@@H]1[C@@H](C(=O)NCCCCNC(=O)c2ccc(-c3c4nc(c(-c5c(F)cccc5F)c5ccc([nH]5)c(-c5c(F)cccc5F)c5nc(c(-c6c(F)cccc6F)c6ccc3[nH]6)C=C5)C=C4)cc2)CCN1C(=O)N[C@@H](C)Cc1ccco1
REMARK SMILES IDX 7 1 6 2 4 3 5 4 3 6 1 7 2 8 70 9 68 10 69 11 71 12 72 13
REMARK SMILES IDX 73 14 74 16 75 17 76 18 77 19 78 20 81 21 79 22 80 23 8 24
REMARK SMILES IDX 9 25 10 26 11 27 12 28 13 30 14 31 15 32 67 33 16 34 66 35
REMARK SMILES IDX 17 36 18 37 19 38 60 39 20 40 65 41 59 42 61 43 21 44 64 45
REMARK SMILES IDX 58 46 57 47 22 49 48 50 31 51 47 52 32 53 35 54 46 55 62 56
REMARK SMILES IDX 33 57 34 58 45 60 63 61 36 62 23 63 24 64 29 65 25 66 26 67
REMARK SMILES IDX 28 68 30 69 27 70 49 71 50 72 55 73 51 74 52 75 54 76 56 77
REMARK SMILES IDX 53 78 37 79 38 80 43 81 39 82 40 83 42 84 44 85 41 86
REMARK H PARENT 6 5 73 15 11 29 61 48 35 59
REMARK Flexibility Score: inf
ROOT
ATOM      1  C   UNL A   1      37.209  22.168  25.714  1.00  0.00     0.116 C 
ENDROOT
BRANCH   1   2
ATOM      2  N   UNL A   1      36.308  23.253  25.397  1.00  0.00    -0.356 N 
ATOM      3  C   UNL A   1      34.950  23.271  25.366  1.00  0.00     0.225 C 
ATOM      4  O   UNL A   1      34.431  24.290  24.917  1.00  0.00    -0.275 OA
ATOM      5  H   UNL A   1      36.744  24.106  25.169  1.00  0.00     0.163 HD
BRANCH   3   6
ATOM      6  C   UNL A   1      34.161  22.034  25.782  1.00  0.00     0.102 C 
ATOM      7  C   UNL A   1      32.132  20.744  25.021  1.00  0.00     0.032 C 
ATOM      8  C   UNL A   1      32.681  22.138  25.349  1.00  0.00     0.096 C 
ATOM      9  N   UNL A   1      31.987  22.721  26.507  1.00  0.00    -0.321 N 
ATOM     10  C   UNL A   1      34.042  21.851  27.296  1.00  0.00     0.037 C 
ATOM     11  C   UNL A   1      32.864  22.729  27.664  1.00  0.00     0.122 C 
BRANCH   9  12
ATOM     12  C   UNL A   1      30.776  23.320  26.645  1.00  0.00     0.317 C 
ATOM     13  O   UNL A   1      30.000  22.985  27.547  1.00  0.00    -0.249 OA
ATOM     14  N   UNL A   1      30.319  24.287  25.836  1.00  0.00    -0.335 N 
ATOM     15  H   UNL A   1      29.383  24.515  26.033  1.00  0.00     0.165 HD
BRANCH  14  16
ATOM     16  C   UNL A   1      30.851  25.092  24.735  1.00  0.00     0.088 C 
ATOM     17  C   UNL A   1      30.511  24.393  23.418  1.00  0.00     0.031 C 
BRANCH  16  18
ATOM     18  C   UNL A   1      30.286  26.527  24.738  1.00  0.00     0.100 C 
BRANCH  18  19
ATOM     19  C   UNL A   1      31.006  27.436  25.668  1.00  0.00     0.105 A 
ATOM     20  C   UNL A   1      31.685  28.623  25.486  1.00  0.00     0.045 A 
ATOM     21  O   UNL A   1      31.024  27.081  26.981  1.00  0.00    -0.469 OA
ATOM     22  C   UNL A   1      32.119  29.033  26.768  1.00  0.00     0.042 A 
ATOM     23  C   UNL A   1      31.687  28.067  27.644  1.00  0.00     0.195 A 
ENDBRANCH  18  19
ENDBRANCH  16  18
ENDBRANCH  14  16
ENDBRANCH   9  12
ENDBRANCH   3   6
ENDBRANCH   1   2
BRANCH   1  24
ATOM     24  C   UNL A   1      37.328  21.175  24.565  1.00  0.00     0.023 C 
BRANCH  24  25
ATOM     25  C   UNL A   1      38.179  19.940  24.863  1.00  0.00     0.023 C 
BRANCH  25  26
ATOM     26  C   UNL A   1      39.170  20.099  26.010  1.00  0.00     0.116 C 
BRANCH  26  27
ATOM     27  N   UNL A   1      40.327  19.226  25.875  1.00  0.00    -0.352 N 
ATOM     28  C   UNL A   1      41.663  19.514  26.022  1.00  0.00     0.251 C 
ATOM     29  H   UNL A   1      40.123  18.292  25.644  1.00  0.00     0.163 HD
ATOM     30  O   UNL A   1      42.510  18.691  25.704  1.00  0.00    -0.269 OA
BRANCH  28  31
ATOM     31  C   UNL A   1      42.070  20.836  26.541  1.00  0.00     0.039 A 
ATOM     32  C   UNL A   1      42.431  21.836  25.635  1.00  0.00     0.014 A 
ATOM     33  C   UNL A   1      42.076  21.093  27.914  1.00  0.00     0.014 A 
ATOM     34  C   UNL A   1      42.732  23.116  26.105  1.00  0.00     0.010 A 
ATOM     35  C   UNL A   1      42.282  22.389  28.371  1.00  0.00     0.010 A 
ATOM     36  C   UNL A   1      42.622  23.412  27.473  1.00  0.00    -0.014 A 
BRANCH  36  37
ATOM     37  C   UNL A   1      42.879  24.780  27.992  1.00  0.00     0.031 A 
ATOM     38  C   UNL A   1      44.271  25.180  28.394  1.00  0.00     0.074 A 
ATOM     39  C   UNL A   1      41.854  25.638  28.159  1.00  0.00     0.049 A 
ATOM     40  N   UNL A   1      44.689  26.297  28.934  1.00  0.00    -0.248 NA
ATOM     41  C   UNL A   1      45.332  24.179  28.193  1.00  0.00     0.031 C 
ATOM     42  C   UNL A   1      40.451  25.355  27.851  1.00  0.00     0.029 A 
ATOM     43  N   UNL A   1      41.834  26.923  28.641  1.00  0.00    -0.354 N 
ATOM     44  C   UNL A   1      46.051  26.127  29.149  1.00  0.00     0.074 A 
ATOM     45  C   UNL A   1      46.377  24.777  28.744  1.00  0.00     0.031 C 
ATOM     46  C   UNL A   1      39.713  26.443  28.123  1.00  0.00     0.029 A 
ATOM     47  C   UNL A   1      40.580  27.485  28.664  1.00  0.00     0.049 A 
ATOM     48  H   UNL A   1      42.643  27.398  28.941  1.00  0.00     0.167 HD
ATOM     49  C   UNL A   1      46.955  27.021  29.614  1.00  0.00     0.037 A 
ATOM     50  C   UNL A   1      40.176  28.699  29.081  1.00  0.00     0.037 A 
ATOM     51  C   UNL A   1      46.630  28.369  29.997  1.00  0.00     0.049 A 
ATOM     52  C   UNL A   1      41.197  29.671  29.609  1.00  0.00     0.074 A 
ATOM     53  C   UNL A   1      47.481  29.369  30.434  1.00  0.00     0.029 A 
ATOM     54  N   UNL A   1      45.350  28.905  29.992  1.00  0.00    -0.354 N 
ATOM     55  N   UNL A   1      42.492  29.518  29.746  1.00  0.00    -0.248 NA
ATOM     56  C   UNL A   1      40.699  30.987  30.032  1.00  0.00     0.031 C 
ATOM     57  C   UNL A   1      46.708  30.495  30.743  1.00  0.00     0.029 A 
ATOM     58  C   UNL A   1      45.386  30.216  30.439  1.00  0.00     0.049 A 
ATOM     59  H   UNL A   1      44.538  28.424  29.713  1.00  0.00     0.167 HD
ATOM     60  C   UNL A   1      42.969  30.729  30.233  1.00  0.00     0.074 A 
ATOM     61  C   UNL A   1      41.823  31.607  30.361  1.00  0.00     0.031 C 
ATOM     62  C   UNL A   1      44.239  31.083  30.546  1.00  0.00     0.037 A 
BRANCH  49  63
ATOM     63  C   UNL A   1      48.381  26.563  29.732  1.00  0.00     0.057 A 
ATOM     64  C   UNL A   1      48.867  25.947  30.895  1.00  0.00     0.134 A 
ATOM     65  C   UNL A   1      49.275  26.721  28.666  1.00  0.00     0.134 A 
ATOM     66  F   UNL A   1      48.068  25.775  31.959  1.00  0.00    -0.206 F 
ATOM     67  C   UNL A   1      50.198  25.539  31.005  1.00  0.00     0.040 A 
ATOM     68  C   UNL A   1      50.599  26.288  28.753  1.00  0.00     0.040 A 
ATOM     69  F   UNL A   1      48.877  27.296  27.522  1.00  0.00    -0.206 F 
ATOM     70  C   UNL A   1      51.067  25.703  29.927  1.00  0.00     0.006 A 
ENDBRANCH  49  63
BRANCH  50  71
ATOM     71  C   UNL A   1      38.743  29.080  28.989  1.00  0.00     0.057 A 
ATOM     72  C   UNL A   1      37.897  28.976  30.100  1.00  0.00     0.134 A 
ATOM     73  C   UNL A   1      38.182  29.544  27.793  1.00  0.00     0.134 A 
ATOM     74  F   UNL A   1      38.371  28.522  31.269  1.00  0.00    -0.206 F 
ATOM     75  C   UNL A   1      36.540  29.298  30.019  1.00  0.00     0.040 A 
ATOM     76  C   UNL A   1      36.835  29.895  27.706  1.00  0.00     0.040 A 
ATOM     77  F   UNL A   1      38.941  29.675  26.695  1.00  0.00    -0.206 F 
ATOM     78  C   UNL A   1      36.007  29.764  28.820  1.00  0.00     0.006 A 
ENDBRANCH  50  71
BRANCH  62  79
ATOM     79  C   UNL A   1      44.470  32.494  31.002  1.00  0.00     0.057 A 
ATOM     80  C   UNL A   1      44.464  32.852  32.357  1.00  0.00     0.134 A 
ATOM     81  C   UNL A   1      44.741  33.505  30.069  1.00  0.00     0.134 A 
ATOM     82  F   UNL A   1      44.199  31.936  33.300  1.00  0.00    -0.206 F 
ATOM     83  C   UNL A   1      44.692  34.168  32.764  1.00  0.00     0.040 A 
ATOM     84  C   UNL A   1      45.001  34.816  30.466  1.00  0.00     0.040 A 
ATOM     85  F   UNL A   1      44.773  33.229  28.756  1.00  0.00    -0.206 F 
ATOM     86  C   UNL A   1      44.969  35.153  31.818  1.00  0.00     0.006 A 
ENDBRANCH  62  79
ENDBRANCH  36  37
ENDBRANCH  28  31
ENDBRANCH  26  27
ENDBRANCH  25  26
ENDBRANCH  24  25
ENDBRANCH   1  24
TORSDOF 15
ENDMDL
MODEL 3
REMARK VINA RESULT:     -11.9      0.548      6.189
REMARK SMILES C[C@@H]1[C@@H](C(=O)NCCCCNC(=O)c2ccc(-c3c4nc(c(-c5c(F)cccc5F)c5ccc([nH]5)c(-c5c(F)cccc5F)c5nc(c(-c6c(F)cccc6F)c6ccc3[nH]6)C=C5)C=C4)cc2)CCN1C(=O)N[C@@H](C)Cc1ccco1
REMARK SMILES IDX 7 1 6 2 4 3 5 4 3 6 1 7 2 8 70 9 68 10 69 11 71 12 72 13
REMARK SMILES IDX 73 14 74 16 75 17 76 18 77 19 78 20 81 21 79 22 80 23 8 24
REMARK SMILES IDX 9 25 10 26 11 27 12 28 13 30 14 31 15 32 67 33 16 34 66 35
REMARK SMILES IDX 17 36 18 37 19 38 60 39 20 40 65 41 59 42 61 43 21 44 64 45
REMARK SMILES IDX 58 46 57 47 22 49 48 50 31 51 47 52 32 53 35 54 46 55 62 56
REMARK SMILES IDX 33 57 34 58 45 60 63 61 36 62 23 63 24 64 29 65 25 66 26 67
REMARK SMILES IDX 28 68 30 69 27 70 49 71 50 72 55 73 51 74 52 75 54 76 56 77
REMARK SMILES IDX 53 78 37 79 38 80 43 81 39 82 40 83 42 84 44 85 41 86
REMARK H PARENT 6 5 73 15 11 29 61 48 35 59
REMARK Flexibility Score: inf
ROOT
ATOM      1  C   UNL A   1      32.342  29.938  27.061  1.00  0.00     0.116 C 
ENDROOT
BRANCH   1   2
ATOM      2  N   UNL A   1      31.820  28.602  27.249  1.00  0.00    -0.356 N 
ATOM      3  C   UNL A   1      32.212  27.431  26.684  1.00  0.00     0.225 C 
ATOM      4  O   UNL A   1      31.498  26.456  26.905  1.00  0.00    -0.275 OA
ATOM      5  H   UNL A   1      31.068  28.532  27.881  1.00  0.00     0.163 HD
BRANCH   3   6
ATOM      6  C   UNL A   1      33.421  27.399  25.754  1.00  0.00     0.102 C 
ATOM      7  C   UNL A   1      34.284  28.643  23.737  1.00  0.00     0.032 C 
ATOM      8  C   UNL A   1      33.067  27.941  24.351  1.00  0.00     0.096 C 
ATOM      9  N   UNL A   1      32.691  26.754  23.570  1.00  0.00    -0.321 N 
ATOM     10  C   UNL A   1      33.928  25.992  25.438  1.00  0.00     0.037 C 
ATOM     11  C   UNL A   1      33.037  25.546  24.297  1.00  0.00     0.122 C 
BRANCH   9  12
ATOM     12  C   UNL A   1      32.014  26.599  22.403  1.00  0.00     0.317 C 
ATOM     13  O   UNL A   1      32.568  26.123  21.405  1.00  0.00    -0.249 OA
ATOM     14  N   UNL A   1      30.732  26.949  22.225  1.00  0.00    -0.335 N 
ATOM     15  H   UNL A   1      30.456  26.859  21.285  1.00  0.00     0.165 HD
BRANCH  14  16
ATOM     16  C   UNL A   1      29.635  27.431  23.066  1.00  0.00     0.088 C 
ATOM     17  C   UNL A   1      29.428  26.434  24.208  1.00  0.00     0.031 C 
BRANCH  16  18
ATOM     18  C   UNL A   1      29.911  28.839  23.632  1.00  0.00     0.100 C 
BRANCH  18  19
ATOM     19  C   UNL A   1      29.141  29.907  22.943  1.00  0.00     0.105 A 
ATOM     20  C   UNL A   1      28.639  31.123  23.360  1.00  0.00     0.045 A 
ATOM     21  O   UNL A   1      28.850  29.704  21.630  1.00  0.00    -0.469 OA
ATOM     22  C   UNL A   1      28.030  31.710  22.227  1.00  0.00     0.042 A 
ATOM     23  C   UNL A   1      28.190  30.812  21.199  1.00  0.00     0.195 A 
ENDBRANCH  18  19
ENDBRANCH  16  18
ENDBRANCH  14  16
ENDBRANCH   9  12
ENDBRANCH   3   6
ENDBRANCH   1   2
BRANCH   1  24
ATOM     24  C   UNL A   1      31.458  30.767  26.140  1.00  0.00     0.023 C 
BRANCH  24  25
ATOM     25  C   UNL A   1      31.360  32.250  26.501  1.00  0.00     0.023 C 
BRANCH  25  26
ATOM     26  C   UNL A   1      32.576  32.823  27.219  1.00  0.00     0.116 C 
BRANCH  26  27
ATOM     27  N   UNL A   1      32.385  34.207  27.625  1.00  0.00    -0.352 N 
ATOM     28  C   UNL A   1      33.034  34.932  28.597  1.00  0.00     0.251 C 
ATOM     29  H   UNL A   1      31.690  34.697  27.131  1.00  0.00     0.163 HD
ATOM     30  O   UNL A   1      32.625  36.040  28.916  1.00  0.00    -0.269 OA
BRANCH  28  31
ATOM     31  C   UNL A   1      34.211  34.352  29.274  1.00  0.00     0.039 A 
ATOM     32  C   UNL A   1      34.020  33.592  30.431  1.00  0.00     0.014 A 
ATOM     33  C   UNL A   1      35.496  34.541  28.759  1.00  0.00     0.014 A 
ATOM     34  C   UNL A   1      35.114  32.964  31.031  1.00  0.00     0.010 A 
ATOM     35  C   UNL A   1      36.565  33.838  29.300  1.00  0.00     0.010 A 
ATOM     36  C   UNL A   1      36.389  33.050  30.448  1.00  0.00    -0.014 A 
BRANCH  36  37
ATOM     37  C   UNL A   1      37.556  32.343  31.033  1.00  0.00     0.031 A 
ATOM     38  C   UNL A   1      38.184  32.855  32.299  1.00  0.00     0.074 A 
ATOM     39  C   UNL A   1      38.088  31.283  30.394  1.00  0.00     0.049 A 
ATOM     40  N   UNL A   1      39.249  32.424  32.928  1.00  0.00    -0.248 NA
ATOM     41  C   UNL A   1      37.552  34.027  32.926  1.00  0.00     0.031 C 
ATOM     42  C   UNL A   1      37.600  30.718  29.135  1.00  0.00     0.029 A 
ATOM     43  N   UNL A   1      39.166  30.496  30.714  1.00  0.00    -0.354 N 
ATOM     44  C   UNL A   1      39.419  33.279  34.010  1.00  0.00     0.074 A 
ATOM     45  C   UNL A   1      38.390  34.291  33.916  1.00  0.00     0.031 C 
ATOM     46  C   UNL A   1      38.357  29.659  28.805  1.00  0.00     0.029 A 
ATOM     47  C   UNL A   1      39.408  29.495  29.804  1.00  0.00     0.049 A 
ATOM     48  H   UNL A   1      39.714  30.636  31.520  1.00  0.00     0.167 HD
ATOM     49  C   UNL A   1      40.332  33.212  35.009  1.00  0.00     0.037 A 
ATOM     50  C   UNL A   1      40.373  28.556  29.777  1.00  0.00     0.037 A 
ATOM     51  C   UNL A   1      41.342  32.192  35.110  1.00  0.00     0.049 A 
ATOM     52  C   UNL A   1      41.385  28.511  30.889  1.00  0.00     0.074 A 
ATOM     53  C   UNL A   1      42.282  32.007  36.108  1.00  0.00     0.029 A 
ATOM     54  N   UNL A   1      41.545  31.187  34.176  1.00  0.00    -0.354 N 
ATOM     55  N   UNL A   1      41.494  29.287  31.941  1.00  0.00    -0.248 NA
ATOM     56  C   UNL A   1      42.402  27.454  30.814  1.00  0.00     0.031 C 
ATOM     57  C   UNL A   1      43.087  30.919  35.752  1.00  0.00     0.029 A 
ATOM     58  C   UNL A   1      42.609  30.390  34.564  1.00  0.00     0.049 A 
ATOM     59  H   UNL A   1      41.011  31.059  33.358  1.00  0.00     0.167 HD
ATOM     60  C   UNL A   1      42.566  28.789  32.671  1.00  0.00     0.074 A 
ATOM     61  C   UNL A   1      43.068  27.639  31.945  1.00  0.00     0.031 C 
ATOM     62  C   UNL A   1      43.088  29.240  33.838  1.00  0.00     0.037 A 
BRANCH  49  63
ATOM     63  C   UNL A   1      40.274  34.275  36.069  1.00  0.00     0.057 A 
ATOM     64  C   UNL A   1      40.992  35.474  35.956  1.00  0.00     0.134 A 
ATOM     65  C   UNL A   1      39.477  34.108  37.208  1.00  0.00     0.134 A 
ATOM     66  F   UNL A   1      41.786  35.694  34.897  1.00  0.00    -0.206 F 
ATOM     67  C   UNL A   1      40.948  36.450  36.953  1.00  0.00     0.040 A 
ATOM     68  C   UNL A   1      39.398  35.091  38.196  1.00  0.00     0.040 A 
ATOM     69  F   UNL A   1      38.757  32.989  37.379  1.00  0.00    -0.206 F 
ATOM     70  C   UNL A   1      40.142  36.262  38.075  1.00  0.00     0.006 A 
ENDBRANCH  49  63
BRANCH  50  71
ATOM     71  C   UNL A   1      40.412  27.561  28.674  1.00  0.00     0.057 A 
ATOM     72  C   UNL A   1      39.674  26.374  28.748  1.00  0.00     0.134 A 
ATOM     73  C   UNL A   1      41.192  27.765  27.530  1.00  0.00     0.134 A 
ATOM     74  F   UNL A   1      38.920  26.113  29.826  1.00  0.00    -0.206 F 
ATOM     75  C   UNL A   1      39.728  25.415  27.734  1.00  0.00     0.040 A 
ATOM     76  C   UNL A   1      41.235  26.827  26.498  1.00  0.00     0.040 A 
ATOM     77  F   UNL A   1      41.916  28.886  27.394  1.00  0.00    -0.206 F 
ATOM     78  C   UNL A   1      40.506  25.643  26.602  1.00  0.00     0.006 A 
ENDBRANCH  50  71
BRANCH  62  79
ATOM     79  C   UNL A   1      44.224  28.460  34.434  1.00  0.00     0.057 A 
ATOM     80  C   UNL A   1      44.014  27.373  35.292  1.00  0.00     0.134 A 
ATOM     81  C   UNL A   1      45.549  28.780  34.110  1.00  0.00     0.134 A 
ATOM     82  F   UNL A   1      42.770  27.022  35.652  1.00  0.00    -0.206 F 
ATOM     83  C   UNL A   1      45.082  26.651  35.829  1.00  0.00     0.040 A 
ATOM     84  C   UNL A   1      46.623  28.047  34.615  1.00  0.00     0.040 A 
ATOM     85  F   UNL A   1      45.821  29.803  33.284  1.00  0.00    -0.206 F 
ATOM     86  C   UNL A   1      46.391  26.983  35.484  1.00  0.00     0.006 A 
ENDBRANCH  62  79
ENDBRANCH  36  37
ENDBRANCH  28  31
ENDBRANCH  26  27
ENDBRANCH  25  26
ENDBRANCH  24  25
ENDBRANCH   1  24
TORSDOF 15
ENDMDL
