MODEL 1
REMARK VINA RESULT:     -11.7      0.000      0.000
REMARK SMILES COc1c(C)cccc1C(=O)NC(=S)Nc1ccc(C(=O)NCCCCNC(=O)c2ccc(-c3c4nc(c(-c5c(F)cccc5F)c5ccc([nH]5)c(-c5c(F)cccc5F)c5nc(c(-c6c(F)cccc6F)c6ccc3[nH]6)C=C5)C=C4)cc2)cc1C
REMARK SMILES IDX 23 1 22 2 20 3 21 4 19 6 16 7 17 8 85 9 18 10 84 11 86 12
REMARK SMILES IDX 15 13 13 15 14 16 12 17 10 18 11 19 9 21 3 22 4 23 5 24 6 25
REMARK SMILES IDX 8 26 7 27 2 28 1 29 24 30 25 31 26 32 27 33 28 34 29 36
REMARK SMILES IDX 30 37 31 38 83 39 32 40 82 41 33 42 34 43 35 44 76 45 36 46
REMARK SMILES IDX 81 47 75 48 77 49 37 50 80 51 74 52 73 53 38 55 64 56 47 57
REMARK SMILES IDX 63 58 48 59 51 60 62 61 78 62 49 63 50 64 61 66 79 67 52 68
REMARK SMILES IDX 39 69 40 70 45 71 41 72 42 73 44 74 46 75 43 76 65 77 66 78
REMARK SMILES IDX 71 79 67 80 68 81 70 82 72 83 69 84 53 85 54 86 59 87 55 88
REMARK SMILES IDX 56 89 58 90 60 91 57 92
REMARK H PARENT 22 5 15 14 12 20 27 35 77 54 51 65
REMARK Flexibility Score: inf
ROOT
ATOM      1  C   UNL A   1      38.978  22.433  26.614  1.00  0.00     0.116 C 
ENDROOT
BRANCH   1   2
ATOM      2  N   UNL A   1      38.620  22.325  25.202  1.00  0.00    -0.352 N 
ATOM      3  C   UNL A   1      37.417  22.149  24.560  1.00  0.00     0.251 C 
ATOM      4  O   UNL A   1      37.365  22.229  23.335  1.00  0.00    -0.269 OA
ATOM      5  H   UNL A   1      39.390  22.391  24.591  1.00  0.00     0.163 HD
BRANCH   3   6
ATOM      6  C   UNL A   1      36.141  22.072  25.305  1.00  0.00     0.040 A 
ATOM      7  C   UNL A   1      32.592  22.031  26.161  1.00  0.00     0.043 A 
ATOM      8  C   UNL A   1      33.705  23.354  26.810  1.00  0.00     0.027 A 
ATOM      9  C   UNL A   1      33.331  20.641  25.272  1.00  0.00    -0.027 A 
ATOM     10  C   UNL A   1      35.447  23.456  26.241  1.00  0.00     0.016 A 
ATOM     11  C   UNL A   1      35.098  20.623  24.877  1.00  0.00     0.019 A 
ATOM     12  C   UNL A   1      32.538  19.386  25.060  1.00  0.00     0.046 C 
BRANCH   7  13
ATOM     13  N   UNL A   1      31.167  22.111  26.069  1.00  0.00    -0.332 N 
ATOM     14  H   UNL A   1      30.781  21.262  25.756  1.00  0.00     0.169 HD
BRANCH  13  15
ATOM     15  C   UNL A   1      30.198  23.041  26.297  1.00  0.00     0.177 C 
ATOM     16  S   UNL A   1      29.142  22.666  27.560  1.00  0.00    -0.040 S 
BRANCH  15  17
ATOM     17  N   UNL A   1      29.924  24.267  25.715  1.00  0.00    -0.299 N 
ATOM     18  C   UNL A   1      30.347  25.575  25.348  1.00  0.00     0.261 C 
ATOM     19  O   UNL A   1      29.568  26.373  24.834  1.00  0.00    -0.269 OA
ATOM     20  H   UNL A   1      28.992  24.202  25.407  1.00  0.00     0.172 HD
BRANCH  18  21
ATOM     21  C   UNL A   1      31.748  25.909  25.480  1.00  0.00     0.082 A 
ATOM     22  C   UNL A   1      32.436  26.034  24.274  1.00  0.00     0.134 A 
ATOM     23  C   UNL A   1      33.350  27.278  23.963  1.00  0.00    -0.008 A 
ATOM     24  C   UNL A   1      34.011  28.028  22.101  1.00  0.00     0.048 C 
ATOM     25  C   UNL A   1      33.568  27.886  25.383  1.00  0.00     0.007 A 
ATOM     26  C   UNL A   1      32.120  26.504  26.679  1.00  0.00     0.018 A 
ATOM     27  C   UNL A   1      33.079  27.472  26.634  1.00  0.00     0.001 A 
BRANCH  22  28
ATOM     28  O   UNL A   1      32.450  24.754  23.639  1.00  0.00    -0.496 OA
ATOM     29  C   UNL A   1      33.665  24.161  23.090  1.00  0.00     0.278 C 
ENDBRANCH  22  28
ENDBRANCH  18  21
ENDBRANCH  15  17
ENDBRANCH  13  15
ENDBRANCH   7  13
ENDBRANCH   3   6
ENDBRANCH   1   2
BRANCH   1  30
ATOM     30  C   UNL A   1      40.366  23.039  26.819  1.00  0.00     0.023 C 
BRANCH  30  31
ATOM     31  C   UNL A   1      41.227  22.305  27.838  1.00  0.00     0.023 C 
BRANCH  31  32
ATOM     32  C   UNL A   1      42.724  22.406  27.606  1.00  0.00     0.116 C 
BRANCH  32  33
ATOM     33  N   UNL A   1      43.180  21.789  26.368  1.00  0.00    -0.352 N 
ATOM     34  C   UNL A   1      44.078  22.231  25.410  1.00  0.00     0.251 C 
ATOM     35  H   UNL A   1      42.782  20.908  26.180  1.00  0.00     0.163 HD
ATOM     36  O   UNL A   1      44.193  21.585  24.370  1.00  0.00    -0.269 OA
BRANCH  34  37
ATOM     37  C   UNL A   1      45.053  23.327  25.698  1.00  0.00     0.039 A 
ATOM     38  C   UNL A   1      45.643  23.271  26.971  1.00  0.00     0.014 A 
ATOM     39  C   UNL A   1      44.905  24.552  25.074  1.00  0.00     0.014 A 
ATOM     40  C   UNL A   1      45.653  24.413  27.752  1.00  0.00     0.010 A 
ATOM     41  C   UNL A   1      44.698  25.630  25.878  1.00  0.00     0.010 A 
ATOM     42  C   UNL A   1      45.021  25.528  27.230  1.00  0.00    -0.014 A 
BRANCH  42  43
ATOM     43  C   UNL A   1      44.784  26.757  27.937  1.00  0.00     0.031 A 
ATOM     44  C   UNL A   1      43.364  27.103  28.074  1.00  0.00     0.074 A 
ATOM     45  C   UNL A   1      45.842  27.279  28.598  1.00  0.00     0.049 A 
ATOM     46  N   UNL A   1      42.919  28.279  28.303  1.00  0.00    -0.248 NA
ATOM     47  C   UNL A   1      42.283  26.127  27.884  1.00  0.00     0.031 C 
ATOM     48  C   UNL A   1      45.886  28.264  29.667  1.00  0.00     0.029 A 
ATOM     49  N   UNL A   1      47.192  27.096  28.262  1.00  0.00    -0.354 N 
ATOM     50  C   UNL A   1      41.605  28.136  28.703  1.00  0.00     0.074 A 
ATOM     51  C   UNL A   1      41.209  26.835  28.243  1.00  0.00     0.031 C 
ATOM     52  C   UNL A   1      47.103  28.847  29.669  1.00  0.00     0.029 A 
ATOM     53  C   UNL A   1      47.835  28.323  28.526  1.00  0.00     0.049 A 
ATOM     54  H   UNL A   1      47.606  26.275  27.912  1.00  0.00     0.167 HD
ATOM     55  C   UNL A   1      41.112  29.070  29.562  1.00  0.00     0.037 A 
ATOM     56  C   UNL A   1      48.283  29.073  27.474  1.00  0.00     0.037 A 
ATOM     57  C   UNL A   1      42.151  30.078  29.789  1.00  0.00     0.049 A 
ATOM     58  C   UNL A   1      47.441  30.319  27.312  1.00  0.00     0.074 A 
ATOM     59  C   UNL A   1      43.088  30.229  30.798  1.00  0.00     0.029 A 
ATOM     60  N   UNL A   1      42.610  30.816  28.706  1.00  0.00    -0.354 N 
ATOM     61  N   UNL A   1      46.178  30.400  27.649  1.00  0.00    -0.248 NA
ATOM     62  C   UNL A   1      47.997  31.602  26.893  1.00  0.00     0.031 C 
ATOM     63  C   UNL A   1      44.154  31.014  30.279  1.00  0.00     0.029 A 
ATOM     64  C   UNL A   1      43.862  31.335  28.962  1.00  0.00     0.049 A 
ATOM     65  H   UNL A   1      42.109  30.952  27.869  1.00  0.00     0.167 HD
ATOM     66  C   UNL A   1      45.774  31.709  27.570  1.00  0.00     0.074 A 
ATOM     67  C   UNL A   1      46.944  32.415  27.080  1.00  0.00     0.031 C 
ATOM     68  C   UNL A   1      44.537  32.144  27.960  1.00  0.00     0.037 A 
BRANCH  55  69
ATOM     69  C   UNL A   1      39.867  28.973  30.417  1.00  0.00     0.057 A 
ATOM     70  C   UNL A   1      38.632  29.411  29.892  1.00  0.00     0.134 A 
ATOM     71  C   UNL A   1      39.790  28.506  31.741  1.00  0.00     0.134 A 
ATOM     72  F   UNL A   1      38.515  29.841  28.629  1.00  0.00    -0.206 F 
ATOM     73  C   UNL A   1      37.442  29.430  30.631  1.00  0.00     0.040 A 
ATOM     74  C   UNL A   1      38.605  28.525  32.495  1.00  0.00     0.040 A 
ATOM     75  F   UNL A   1      40.835  27.977  32.380  1.00  0.00    -0.206 F 
ATOM     76  C   UNL A   1      37.425  28.994  31.943  1.00  0.00     0.006 A 
ENDBRANCH  55  69
BRANCH  56  77
ATOM     77  C   UNL A   1      48.860  28.204  26.400  1.00  0.00     0.057 A 
ATOM     78  C   UNL A   1      50.097  27.592  26.694  1.00  0.00     0.134 A 
ATOM     79  C   UNL A   1      48.048  27.556  25.465  1.00  0.00     0.134 A 
ATOM     80  F   UNL A   1      50.950  28.184  27.546  1.00  0.00    -0.206 F 
ATOM     81  C   UNL A   1      50.405  26.297  26.266  1.00  0.00     0.040 A 
ATOM     82  C   UNL A   1      48.365  26.269  25.005  1.00  0.00     0.040 A 
ATOM     83  F   UNL A   1      46.864  28.076  25.109  1.00  0.00    -0.206 F 
ATOM     84  C   UNL A   1      49.505  25.609  25.462  1.00  0.00     0.006 A 
ENDBRANCH  56  77
BRANCH  68  85
ATOM     85  C   UNL A   1      43.881  33.437  27.518  1.00  0.00     0.057 A 
ATOM     86  C   UNL A   1      43.564  34.493  28.384  1.00  0.00     0.134 A 
ATOM     87  C   UNL A   1      43.687  33.729  26.143  1.00  0.00     0.134 A 
ATOM     88  F   UNL A   1      43.838  34.444  29.693  1.00  0.00    -0.206 F 
ATOM     89  C   UNL A   1      43.000  35.693  27.936  1.00  0.00     0.040 A 
ATOM     90  C   UNL A   1      43.212  34.956  25.680  1.00  0.00     0.040 A 
ATOM     91  F   UNL A   1      43.979  32.854  25.171  1.00  0.00    -0.206 F 
ATOM     92  C   UNL A   1      42.832  35.933  26.580  1.00  0.00     0.006 A 
ENDBRANCH  68  85
ENDBRANCH  42  43
ENDBRANCH  34  37
ENDBRANCH  32  33
ENDBRANCH  31  32
ENDBRANCH  30  31
ENDBRANCH   1  30
TORSDOF 16
ENDMDL
MODEL 2
REMARK VINA RESULT:     -11.5      1.720      3.130
REMARK SMILES COc1c(C)cccc1C(=O)NC(=S)Nc1ccc(C(=O)NCCCCNC(=O)c2ccc(-c3c4nc(c(-c5c(F)cccc5F)c5ccc([nH]5)c(-c5c(F)cccc5F)c5nc(c(-c6c(F)cccc6F)c6ccc3[nH]6)C=C5)C=C4)cc2)cc1C
REMARK SMILES IDX 23 1 22 2 20 3 21 4 19 6 16 7 17 8 85 9 18 10 84 11 86 12
REMARK SMILES IDX 15 13 13 15 14 16 12 17 10 18 11 19 9 21 3 22 4 23 5 24 6 25
REMARK SMILES IDX 8 26 7 27 2 28 1 29 24 30 25 31 26 32 27 33 28 34 29 36
REMARK SMILES IDX 30 37 31 38 83 39 32 40 82 41 33 42 34 43 35 44 76 45 36 46
REMARK SMILES IDX 81 47 75 48 77 49 37 50 80 51 74 52 73 53 38 55 64 56 47 57
REMARK SMILES IDX 63 58 48 59 51 60 62 61 78 62 49 63 50 64 61 66 79 67 52 68
REMARK SMILES IDX 39 69 40 70 45 71 41 72 42 73 44 74 46 75 43 76 65 77 66 78
REMARK SMILES IDX 71 79 67 80 68 81 70 82 72 83 69 84 53 85 54 86 59 87 55 88
REMARK SMILES IDX 56 89 58 90 60 91 57 92
REMARK H PARENT 22 5 15 14 12 20 27 35 77 54 51 65
REMARK Flexibility Score: inf
ROOT
ATOM      1  C   UNL A   1      42.694  18.931  25.733  1.00  0.00     0.116 C 
ENDROOT
BRANCH   1   2
ATOM      2  N   UNL A   1      42.465  19.857  26.839  1.00  0.00    -0.352 N 
ATOM      3  C   UNL A   1      41.418  20.694  27.148  1.00  0.00     0.251 C 
ATOM      4  O   UNL A   1      41.408  21.280  28.228  1.00  0.00    -0.269 OA
ATOM      5  H   UNL A   1      43.203  19.888  27.490  1.00  0.00     0.163 HD
BRANCH   3   6
ATOM      6  C   UNL A   1      40.198  20.755  26.314  1.00  0.00     0.040 A 
ATOM      7  C   UNL A   1      36.734  21.089  25.210  1.00  0.00     0.043 A 
ATOM      8  C   UNL A   1      37.638  19.490  25.016  1.00  0.00     0.027 A 
ATOM      9  C   UNL A   1      37.660  22.542  25.757  1.00  0.00    -0.027 A 
ATOM     10  C   UNL A   1      39.319  19.288  25.723  1.00  0.00     0.016 A 
ATOM     11  C   UNL A   1      39.392  22.403  26.267  1.00  0.00     0.019 A 
ATOM     12  C   UNL A   1      37.076  23.911  25.572  1.00  0.00     0.046 C 
BRANCH   7  13
ATOM     13  N   UNL A   1      35.313  21.248  25.210  1.00  0.00    -0.332 N 
ATOM     14  H   UNL A   1      34.946  21.182  26.121  1.00  0.00     0.169 HD
BRANCH  13  15
ATOM     15  C   UNL A   1      34.328  21.467  24.295  1.00  0.00     0.177 C 
ATOM     16  S   UNL A   1      33.049  20.367  24.357  1.00  0.00    -0.040 S 
BRANCH  15  17
ATOM     17  N   UNL A   1      34.147  22.447  23.334  1.00  0.00    -0.299 N 
ATOM     18  C   UNL A   1      33.614  23.709  22.952  1.00  0.00     0.261 C 
ATOM     19  O   UNL A   1      33.718  24.120  21.799  1.00  0.00    -0.269 OA
ATOM     20  H   UNL A   1      34.606  22.108  22.532  1.00  0.00     0.172 HD
BRANCH  18  21
ATOM     21  C   UNL A   1      33.051  24.560  23.978  1.00  0.00     0.082 A 
ATOM     22  C   UNL A   1      31.795  24.170  24.438  1.00  0.00     0.134 A 
ATOM     23  C   UNL A   1      31.473  24.051  25.975  1.00  0.00    -0.008 A 
ATOM     24  C   UNL A   1      29.943  22.964  26.947  1.00  0.00     0.048 C 
ATOM     25  C   UNL A   1      32.639  24.865  26.617  1.00  0.00     0.007 A 
ATOM     26  C   UNL A   1      33.959  25.336  24.688  1.00  0.00     0.018 A 
ATOM     27  C   UNL A   1      33.721  25.531  26.016  1.00  0.00     0.001 A 
BRANCH  22  28
ATOM     28  O   UNL A   1      30.871  24.287  23.355  1.00  0.00    -0.496 OA
ATOM     29  C   UNL A   1      29.941  25.403  23.230  1.00  0.00     0.278 C 
ENDBRANCH  22  28
ENDBRANCH  18  21
ENDBRANCH  15  17
ENDBRANCH  13  15
ENDBRANCH   7  13
ENDBRANCH   3   6
ENDBRANCH   1   2
BRANCH   1  30
ATOM     30  C   UNL A   1      44.174  18.805  25.374  1.00  0.00     0.023 C 
BRANCH  30  31
ATOM     31  C   UNL A   1      44.549  19.423  24.034  1.00  0.00     0.023 C 
BRANCH  31  32
ATOM     32  C   UNL A   1      44.634  20.939  24.026  1.00  0.00     0.116 C 
BRANCH  32  33
ATOM     33  N   UNL A   1      45.658  21.485  24.907  1.00  0.00    -0.352 N 
ATOM     34  C   UNL A   1      45.717  22.684  25.598  1.00  0.00     0.251 C 
ATOM     35  H   UNL A   1      46.443  20.903  25.031  1.00  0.00     0.163 HD
ATOM     36  O   UNL A   1      46.763  22.981  26.172  1.00  0.00    -0.269 OA
BRANCH  34  37
ATOM     37  C   UNL A   1      44.492  23.505  25.846  1.00  0.00     0.039 A 
ATOM     38  C   UNL A   1      44.348  24.616  24.999  1.00  0.00     0.014 A 
ATOM     39  C   UNL A   1      43.944  23.545  27.114  1.00  0.00     0.014 A 
ATOM     40  C   UNL A   1      44.075  25.851  25.560  1.00  0.00     0.010 A 
ATOM     41  C   UNL A   1      43.893  24.761  27.724  1.00  0.00     0.010 A 
ATOM     42  C   UNL A   1      44.020  25.907  26.942  1.00  0.00    -0.014 A 
BRANCH  42  43
ATOM     43  C   UNL A   1      43.906  27.109  27.722  1.00  0.00     0.031 A 
ATOM     44  C   UNL A   1      42.532  27.606  27.856  1.00  0.00     0.074 A 
ATOM     45  C   UNL A   1      45.000  27.465  28.433  1.00  0.00     0.049 A 
ATOM     46  N   UNL A   1      42.218  28.809  28.152  1.00  0.00    -0.248 NA
ATOM     47  C   UNL A   1      41.352  26.774  27.586  1.00  0.00     0.031 C 
ATOM     48  C   UNL A   1      45.129  28.371  29.564  1.00  0.00     0.029 A 
ATOM     49  N   UNL A   1      46.328  27.149  28.110  1.00  0.00    -0.354 N 
ATOM     50  C   UNL A   1      40.886  28.793  28.519  1.00  0.00     0.074 A 
ATOM     51  C   UNL A   1      40.357  27.577  27.970  1.00  0.00     0.031 C 
ATOM     52  C   UNL A   1      46.404  28.809  29.625  1.00  0.00     0.029 A 
ATOM     53  C   UNL A   1      47.100  28.276  28.463  1.00  0.00     0.049 A 
ATOM     54  H   UNL A   1      46.656  26.309  27.716  1.00  0.00     0.167 HD
ATOM     55  C   UNL A   1      40.481  29.723  29.427  1.00  0.00     0.037 A 
ATOM     56  C   UNL A   1      47.655  29.033  27.469  1.00  0.00     0.037 A 
ATOM     57  C   UNL A   1      41.621  30.589  29.736  1.00  0.00     0.049 A 
ATOM     58  C   UNL A   1      46.964  30.374  27.372  1.00  0.00     0.074 A 
ATOM     59  C   UNL A   1      42.545  30.570  30.769  1.00  0.00     0.029 A 
ATOM     60  N   UNL A   1      42.188  31.335  28.711  1.00  0.00    -0.354 N 
ATOM     61  N   UNL A   1      45.711  30.578  27.692  1.00  0.00    -0.248 NA
ATOM     62  C   UNL A   1      47.672  31.608  27.046  1.00  0.00     0.031 C 
ATOM     63  C   UNL A   1      43.705  31.258  30.319  1.00  0.00     0.029 A 
ATOM     64  C   UNL A   1      43.484  31.690  29.021  1.00  0.00     0.049 A 
ATOM     65  H   UNL A   1      41.726  31.578  27.875  1.00  0.00     0.167 HD
ATOM     66  C   UNL A   1      45.459  31.928  27.689  1.00  0.00     0.074 A 
ATOM     67  C   UNL A   1      46.714  32.524  27.265  1.00  0.00     0.031 C 
ATOM     68  C   UNL A   1      44.270  32.477  28.084  1.00  0.00     0.037 A 
BRANCH  55  69
ATOM     69  C   UNL A   1      39.213  29.717  30.253  1.00  0.00     0.057 A 
ATOM     70  C   UNL A   1      38.292  30.778  30.113  1.00  0.00     0.134 A 
ATOM     71  C   UNL A   1      38.833  28.756  31.206  1.00  0.00     0.134 A 
ATOM     72  F   UNL A   1      38.472  31.756  29.214  1.00  0.00    -0.206 F 
ATOM     73  C   UNL A   1      37.130  30.898  30.885  1.00  0.00     0.040 A 
ATOM     74  C   UNL A   1      37.674  28.867  31.991  1.00  0.00     0.040 A 
ATOM     75  F   UNL A   1      39.533  27.640  31.421  1.00  0.00    -0.206 F 
ATOM     76  C   UNL A   1      36.818  29.945  31.837  1.00  0.00     0.006 A 
ENDBRANCH  55  69
BRANCH  56  77
ATOM     77  C   UNL A   1      48.157  28.171  26.352  1.00  0.00     0.057 A 
ATOM     78  C   UNL A   1      49.275  27.362  26.646  1.00  0.00     0.134 A 
ATOM     79  C   UNL A   1      47.310  27.723  25.334  1.00  0.00     0.134 A 
ATOM     80  F   UNL A   1      50.158  27.755  27.578  1.00  0.00    -0.206 F 
ATOM     81  C   UNL A   1      49.414  26.071  26.126  1.00  0.00     0.040 A 
ATOM     82  C   UNL A   1      47.462  26.441  24.783  1.00  0.00     0.040 A 
ATOM     83  F   UNL A   1      46.234  28.438  24.973  1.00  0.00    -0.206 F 
ATOM     84  C   UNL A   1      48.468  25.587  25.232  1.00  0.00     0.006 A 
ENDBRANCH  56  77
BRANCH  68  85
ATOM     85  C   UNL A   1      43.775  33.861  27.714  1.00  0.00     0.057 A 
ATOM     86  C   UNL A   1      43.477  34.265  26.406  1.00  0.00     0.134 A 
ATOM     87  C   UNL A   1      43.424  34.806  28.713  1.00  0.00     0.134 A 
ATOM     88  F   UNL A   1      43.593  33.435  25.363  1.00  0.00    -0.206 F 
ATOM     89  C   UNL A   1      42.978  35.537  26.104  1.00  0.00     0.040 A 
ATOM     90  C   UNL A   1      42.841  36.040  28.429  1.00  0.00     0.040 A 
ATOM     91  F   UNL A   1      43.596  34.571  30.021  1.00  0.00    -0.206 F 
ATOM     92  C   UNL A   1      42.648  36.427  27.117  1.00  0.00     0.006 A 
ENDBRANCH  68  85
ENDBRANCH  42  43
ENDBRANCH  34  37
ENDBRANCH  32  33
ENDBRANCH  31  32
ENDBRANCH  30  31
ENDBRANCH   1  30
TORSDOF 16
ENDMDL
MODEL 3
REMARK VINA RESULT:     -11.2      1.524      2.532
REMARK SMILES COc1c(C)cccc1C(=O)NC(=S)Nc1ccc(C(=O)NCCCCNC(=O)c2ccc(-c3c4nc(c(-c5c(F)cccc5F)c5ccc([nH]5)c(-c5c(F)cccc5F)c5nc(c(-c6c(F)cccc6F)c6ccc3[nH]6)C=C5)C=C4)cc2)cc1C
REMARK SMILES IDX 23 1 22 2 20 3 21 4 19 6 16 7 17 8 85 9 18 10 84 11 86 12
REMARK SMILES IDX 15 13 13 15 14 16 12 17 10 18 11 19 9 21 3 22 4 23 5 24 6 25
REMARK SMILES IDX 8 26 7 27 2 28 1 29 24 30 25 31 26 32 27 33 28 34 29 36
REMARK SMILES IDX 30 37 31 38 83 39 32 40 82 41 33 42 34 43 35 44 76 45 36 46
REMARK SMILES IDX 81 47 75 48 77 49 37 50 80 51 74 52 73 53 38 55 64 56 47 57
REMARK SMILES IDX 63 58 48 59 51 60 62 61 78 62 49 63 50 64 61 66 79 67 52 68
REMARK SMILES IDX 39 69 40 70 45 71 41 72 42 73 44 74 46 75 43 76 65 77 66 78
REMARK SMILES IDX 71 79 67 80 68 81 70 82 72 83 69 84 53 85 54 86 59 87 55 88
REMARK SMILES IDX 56 89 58 90 60 91 57 92
REMARK H PARENT 22 5 15 14 12 20 27 35 77 54 51 65
REMARK Flexibility Score: inf
ROOT
ATOM      1  C   UNL A   1      39.474  20.883  25.805  1.00  0.00     0.116 C 
ENDROOT
BRANCH   1   2
ATOM      2  N   UNL A   1      39.278  22.326  25.918  1.00  0.00    -0.352 N 
ATOM      3  C   UNL A   1      38.183  23.133  25.713  1.00  0.00     0.251 C 
ATOM      4  O   UNL A   1      38.241  24.323  26.013  1.00  0.00    -0.269 OA
ATOM      5  H   UNL A   1      40.086  22.816  26.194  1.00  0.00     0.163 HD
BRANCH   3   6
ATOM      6  C   UNL A   1      36.865  22.576  25.335  1.00  0.00     0.040 A 
ATOM      7  C   UNL A   1      33.325  22.229  24.512  1.00  0.00     0.043 A 
ATOM      8  C   UNL A   1      34.033  21.408  26.008  1.00  0.00     0.027 A 
ATOM      9  C   UNL A   1      34.456  23.028  23.350  1.00  0.00    -0.027 A 
ATOM     10  C   UNL A   1      35.772  21.725  26.499  1.00  0.00     0.016 A 
ATOM     11  C   UNL A   1      36.223  23.170  23.722  1.00  0.00     0.019 A 
ATOM     12  C   UNL A   1      33.987  23.370  21.968  1.00  0.00     0.046 C 
BRANCH   7  13
ATOM     13  N   UNL A   1      31.942  22.519  24.296  1.00  0.00    -0.332 N 
ATOM     14  H   UNL A   1      31.586  22.012  23.530  1.00  0.00     0.169 HD
BRANCH  13  15
ATOM     15  C   UNL A   1      30.981  23.303  24.860  1.00  0.00     0.177 C 
ATOM     16  S   UNL A   1      30.799  23.110  26.527  1.00  0.00    -0.040 S 
BRANCH  15  17
ATOM     17  N   UNL A   1      30.136  24.266  24.336  1.00  0.00    -0.299 N 
ATOM     18  C   UNL A   1      29.910  25.608  23.922  1.00  0.00     0.261 C 
ATOM     19  O   UNL A   1      28.803  25.977  23.537  1.00  0.00    -0.269 OA
ATOM     20  H   UNL A   1      29.286  23.800  24.171  1.00  0.00     0.172 HD
BRANCH  18  21
ATOM     21  C   UNL A   1      31.042  26.507  23.845  1.00  0.00     0.082 A 
ATOM     22  C   UNL A   1      31.921  26.434  24.924  1.00  0.00     0.134 A 
ATOM     23  C   UNL A   1      33.477  26.301  24.720  1.00  0.00    -0.008 A 
ATOM     24  C   UNL A   1      34.952  25.596  26.061  1.00  0.00     0.048 C 
ATOM     25  C   UNL A   1      33.649  26.731  23.231  1.00  0.00     0.007 A 
ATOM     26  C   UNL A   1      31.369  26.963  22.575  1.00  0.00     0.018 A 
ATOM     27  C   UNL A   1      32.690  27.125  22.282  1.00  0.00     0.001 A 
BRANCH  22  28
ATOM     28  O   UNL A   1      31.223  26.865  26.094  1.00  0.00    -0.496 OA
ATOM     29  C   UNL A   1      31.835  27.717  27.107  1.00  0.00     0.278 C 
ENDBRANCH  22  28
ENDBRANCH  18  21
ENDBRANCH  15  17
ENDBRANCH  13  15
ENDBRANCH   7  13
ENDBRANCH   3   6
ENDBRANCH   1   2
BRANCH   1  30
ATOM     30  C   UNL A   1      40.313  20.317  26.951  1.00  0.00     0.023 C 
BRANCH  30  31
ATOM     31  C   UNL A   1      41.430  19.382  26.509  1.00  0.00     0.023 C 
BRANCH  31  32
ATOM     32  C   UNL A   1      42.346  19.939  25.434  1.00  0.00     0.116 C 
BRANCH  32  33
ATOM     33  N   UNL A   1      43.581  20.520  25.944  1.00  0.00    -0.352 N 
ATOM     34  C   UNL A   1      43.932  21.838  26.187  1.00  0.00     0.251 C 
ATOM     35  H   UNL A   1      44.286  19.865  26.152  1.00  0.00     0.163 HD
ATOM     36  O   UNL A   1      45.097  22.091  26.490  1.00  0.00    -0.269 OA
BRANCH  34  37
ATOM     37  C   UNL A   1      42.900  22.914  26.305  1.00  0.00     0.039 A 
ATOM     38  C   UNL A   1      43.064  23.987  25.414  1.00  0.00     0.014 A 
ATOM     39  C   UNL A   1      42.280  23.132  27.521  1.00  0.00     0.014 A 
ATOM     40  C   UNL A   1      43.025  25.278  25.911  1.00  0.00     0.010 A 
ATOM     41  C   UNL A   1      42.449  24.359  28.086  1.00  0.00     0.010 A 
ATOM     42  C   UNL A   1      42.881  25.412  27.282  1.00  0.00    -0.014 A 
BRANCH  42  43
ATOM     43  C   UNL A   1      42.973  26.647  28.011  1.00  0.00     0.031 A 
ATOM     44  C   UNL A   1      41.703  27.377  28.113  1.00  0.00     0.074 A 
ATOM     45  C   UNL A   1      44.110  26.840  28.717  1.00  0.00     0.049 A 
ATOM     46  N   UNL A   1      41.599  28.627  28.356  1.00  0.00    -0.248 NA
ATOM     47  C   UNL A   1      40.399  26.748  27.866  1.00  0.00     0.031 C 
ATOM     48  C   UNL A   1      44.391  27.757  29.811  1.00  0.00     0.029 A 
ATOM     49  N   UNL A   1      45.365  26.288  28.419  1.00  0.00    -0.354 N 
ATOM     50  C   UNL A   1      40.284  28.854  28.712  1.00  0.00     0.074 A 
ATOM     51  C   UNL A   1      39.555  27.725  28.208  1.00  0.00     0.031 C 
ATOM     52  C   UNL A   1      45.721  27.973  29.865  1.00  0.00     0.029 A 
ATOM     53  C   UNL A   1      46.318  27.280  28.733  1.00  0.00     0.049 A 
ATOM     54  H   UNL A   1      45.545  25.389  28.062  1.00  0.00     0.167 HD
ATOM     55  C   UNL A   1      40.043  29.877  29.578  1.00  0.00     0.037 A 
ATOM     56  C   UNL A   1      46.996  27.890  27.713  1.00  0.00     0.037 A 
ATOM     57  C   UNL A   1      41.314  30.547  29.861  1.00  0.00     0.049 A 
ATOM     58  C   UNL A   1      46.545  29.324  27.556  1.00  0.00     0.074 A 
ATOM     59  C   UNL A   1      42.218  30.413  30.902  1.00  0.00     0.029 A 
ATOM     60  N   UNL A   1      42.002  31.142  28.812  1.00  0.00    -0.354 N 
ATOM     61  N   UNL A   1      45.345  29.753  27.856  1.00  0.00    -0.248 NA
ATOM     62  C   UNL A   1      47.454  30.404  27.186  1.00  0.00     0.031 C 
ATOM     63  C   UNL A   1      43.480  30.874  30.436  1.00  0.00     0.029 A 
ATOM     64  C   UNL A   1      43.338  31.283  29.119  1.00  0.00     0.049 A 
ATOM     65  H   UNL A   1      41.590  31.426  27.962  1.00  0.00     0.167 HD
ATOM     66  C   UNL A   1      45.328  31.124  27.796  1.00  0.00     0.074 A 
ATOM     67  C   UNL A   1      46.667  31.479  27.360  1.00  0.00     0.031 C 
ATOM     68  C   UNL A   1      44.250  31.884  28.158  1.00  0.00     0.037 A 
BRANCH  55  69
ATOM     69  C   UNL A   1      38.791  30.122  30.391  1.00  0.00     0.057 A 
ATOM     70  C   UNL A   1      38.170  31.389  30.340  1.00  0.00     0.134 A 
ATOM     71  C   UNL A   1      38.155  29.212  31.253  1.00  0.00     0.134 A 
ATOM     72  F   UNL A   1      38.616  32.362  29.533  1.00  0.00    -0.206 F 
ATOM     73  C   UNL A   1      37.054  31.734  31.113  1.00  0.00     0.040 A 
ATOM     74  C   UNL A   1      37.038  29.546  32.038  1.00  0.00     0.040 A 
ATOM     75  F   UNL A   1      38.546  27.941  31.373  1.00  0.00    -0.206 F 
ATOM     76  C   UNL A   1      36.486  30.814  31.974  1.00  0.00     0.006 A 
ENDBRANCH  55  69
BRANCH  56  77
ATOM     77  C   UNL A   1      47.345  26.908  26.637  1.00  0.00     0.057 A 
ATOM     78  C   UNL A   1      46.678  27.074  25.405  1.00  0.00     0.134 A 
ATOM     79  C   UNL A   1      48.593  26.279  26.595  1.00  0.00     0.134 A 
ATOM     80  F   UNL A   1      45.454  27.625  25.377  1.00  0.00    -0.206 F 
ATOM     81  C   UNL A   1      47.314  26.844  24.181  1.00  0.00     0.040 A 
ATOM     82  C   UNL A   1      49.224  26.016  25.370  1.00  0.00     0.040 A 
ATOM     83  F   UNL A   1      49.289  26.061  27.721  1.00  0.00    -0.206 F 
ATOM     84  C   UNL A   1      48.618  26.366  24.165  1.00  0.00     0.006 A 
ENDBRANCH  56  77
BRANCH  68  85
ATOM     85  C   UNL A   1      44.000  33.316  27.728  1.00  0.00     0.057 A 
ATOM     86  C   UNL A   1      43.894  33.727  26.392  1.00  0.00     0.134 A 
ATOM     87  C   UNL A   1      43.693  34.324  28.677  1.00  0.00     0.134 A 
ATOM     88  F   UNL A   1      43.990  32.865  25.374  1.00  0.00    -0.206 F 
ATOM     89  C   UNL A   1      43.617  35.051  26.030  1.00  0.00     0.040 A 
ATOM     90  C   UNL A   1      43.326  35.623  28.325  1.00  0.00     0.040 A 
ATOM     91  F   UNL A   1      43.700  34.098  29.999  1.00  0.00    -0.206 F 
ATOM     92  C   UNL A   1      43.321  36.002  26.996  1.00  0.00     0.006 A 
ENDBRANCH  68  85
ENDBRANCH  42  43
ENDBRANCH  34  37
ENDBRANCH  32  33
ENDBRANCH  31  32
ENDBRANCH  30  31
ENDBRANCH   1  30
TORSDOF 16
ENDMDL
