MODEL 1
REMARK VINA RESULT:     -11.9      0.000      0.000
REMARK SMILES Cc1c(F)cc(C(=O)NCCCCNC(=O)c2ccc(-c3c4nc(c(-c5c(F)cccc5F)c5ccc([nH]5)c(-c5c(F)cccc5F)c5nc(c(-c6c(F)cccc6F)c6ccc3[nH]6)C=C5)C=C4)cc2)cc1S(=O)(=O)NC#N
REMARK SMILES IDX 11 1 10 2 9 3 7 4 8 5 6 7 1 8 2 9 3 10 72 11 4 12 5 13 71 14
REMARK SMILES IDX 73 15 74 16 75 17 76 18 77 20 78 21 12 22 13 23 14 24 15 25
REMARK SMILES IDX 16 27 17 28 18 29 70 30 19 31 69 32 20 33 21 34 22 35 63 36
REMARK SMILES IDX 23 37 68 38 62 39 64 40 24 41 67 42 61 43 60 44 25 46 51 47
REMARK SMILES IDX 34 48 50 49 35 50 38 51 49 52 65 53 36 54 37 55 48 57 66 58
REMARK SMILES IDX 39 59 26 60 27 61 32 62 28 63 29 64 31 65 33 66 30 67 52 68
REMARK SMILES IDX 53 69 58 70 54 71 55 72 57 73 59 74 56 75 40 76 41 77 46 78
REMARK SMILES IDX 42 79 43 80 45 81 47 82 44 83
REMARK H PARENT 9 6 76 19 14 26 64 45 38 56
REMARK Flexibility Score: inf
ROOT
ATOM      1  C   UNL A   1      32.537  27.681  25.326  1.00  0.00     0.023 C 
ENDROOT
BRANCH   1   2
ATOM      2  C   UNL A   1      33.276  26.361  25.072  1.00  0.00     0.116 C 
BRANCH   2   3
ATOM      3  N   UNL A   1      33.186  26.015  23.671  1.00  0.00    -0.352 N 
ATOM      4  C   UNL A   1      33.633  24.940  22.950  1.00  0.00     0.251 C 
ATOM      5  O   UNL A   1      33.545  25.023  21.724  1.00  0.00    -0.269 OA
ATOM      6  H   UNL A   1      32.709  26.683  23.128  1.00  0.00     0.163 HD
BRANCH   4   7
ATOM      7  C   UNL A   1      34.159  23.677  23.549  1.00  0.00     0.044 A 
ATOM      8  C   UNL A   1      36.110  20.117  25.086  1.00  0.00     0.049 C 
ATOM      9  C   UNL A   1      35.325  21.260  24.545  1.00  0.00     0.005 A 
ATOM     10  C   UNL A   1      36.086  22.297  23.963  1.00  0.00     0.128 A 
ATOM     11  C   UNL A   1      33.941  21.415  24.564  1.00  0.00     0.095 A 
ATOM     12  F   UNL A   1      37.418  22.163  23.870  1.00  0.00    -0.207 F 
ATOM     13  C   UNL A   1      35.529  23.467  23.459  1.00  0.00     0.053 A 
ATOM     14  C   UNL A   1      33.405  22.669  24.150  1.00  0.00     0.036 A 
BRANCH  11  15
ATOM     15  S   UNL A   1      32.605  20.267  24.885  1.00  0.00     0.270 S 
ATOM     16  O   UNL A   1      31.563  21.105  25.450  1.00  0.00    -0.201 OA
ATOM     17  O   UNL A   1      32.362  19.621  23.609  1.00  0.00    -0.201 OA
BRANCH  15  18
ATOM     18  N   UNL A   1      32.717  19.065  25.995  1.00  0.00    -0.215 NA
ATOM     19  H   UNL A   1      32.769  19.337  26.940  1.00  0.00     0.193 HD
BRANCH  18  20
ATOM     20  C   UNL A   1      32.744  17.776  25.744  1.00  0.00     0.191 C 
ATOM     21  N   UNL A   1      32.673  16.628  25.670  1.00  0.00    -0.172 NA
ENDBRANCH  18  20
ENDBRANCH  15  18
ENDBRANCH  11  15
ENDBRANCH   4   7
ENDBRANCH   2   3
ENDBRANCH   1   2
BRANCH   1  22
ATOM     22  C   UNL A   1      33.451  28.917  25.328  1.00  0.00     0.023 C 
BRANCH  22  23
ATOM     23  C   UNL A   1      34.219  29.058  26.622  1.00  0.00     0.116 C 
BRANCH  23  24
ATOM     24  N   UNL A   1      34.316  30.461  27.042  1.00  0.00    -0.352 N 
ATOM     25  C   UNL A   1      35.080  30.968  28.068  1.00  0.00     0.251 C 
ATOM     26  H   UNL A   1      33.776  31.109  26.534  1.00  0.00     0.163 HD
ATOM     27  O   UNL A   1      34.873  32.063  28.571  1.00  0.00    -0.269 OA
BRANCH  25  28
ATOM     28  C   UNL A   1      36.255  30.190  28.448  1.00  0.00     0.039 A 
ATOM     29  C   UNL A   1      36.351  29.459  29.636  1.00  0.00     0.014 A 
ATOM     30  C   UNL A   1      37.326  30.313  27.568  1.00  0.00     0.014 A 
ATOM     31  C   UNL A   1      37.579  28.896  29.954  1.00  0.00     0.010 A 
ATOM     32  C   UNL A   1      38.406  29.532  27.734  1.00  0.00     0.010 A 
ATOM     33  C   UNL A   1      38.589  28.986  28.996  1.00  0.00    -0.014 A 
BRANCH  33  34
ATOM     34  C   UNL A   1      39.960  28.574  29.159  1.00  0.00     0.031 A 
ATOM     35  C   UNL A   1      40.237  27.197  28.771  1.00  0.00     0.074 A 
ATOM     36  C   UNL A   1      40.800  29.619  29.363  1.00  0.00     0.049 A 
ATOM     37  N   UNL A   1      41.180  26.473  29.240  1.00  0.00    -0.248 NA
ATOM     38  C   UNL A   1      39.369  26.453  27.848  1.00  0.00     0.031 C 
ATOM     39  C   UNL A   1      42.230  29.792  29.196  1.00  0.00     0.029 A 
ATOM     40  N   UNL A   1      40.404  30.860  29.895  1.00  0.00    -0.354 N 
ATOM     41  C   UNL A   1      41.337  25.445  28.335  1.00  0.00     0.074 A 
ATOM     42  C   UNL A   1      40.057  25.319  27.694  1.00  0.00     0.031 C 
ATOM     43  C   UNL A   1      42.629  30.843  29.946  1.00  0.00     0.029 A 
ATOM     44  C   UNL A   1      41.466  31.335  30.672  1.00  0.00     0.049 A 
ATOM     45  H   UNL A   1      39.540  31.309  29.748  1.00  0.00     0.167 HD
ATOM     46  C   UNL A   1      42.610  25.047  28.048  1.00  0.00     0.037 A 
ATOM     47  C   UNL A   1      41.284  31.314  32.028  1.00  0.00     0.037 A 
ATOM     48  C   UNL A   1      43.543  25.884  28.820  1.00  0.00     0.049 A 
ATOM     49  C   UNL A   1      42.080  30.172  32.611  1.00  0.00     0.074 A 
ATOM     50  C   UNL A   1      44.312  26.986  28.482  1.00  0.00     0.029 A 
ATOM     51  N   UNL A   1      43.438  25.897  30.208  1.00  0.00    -0.354 N 
ATOM     52  N   UNL A   1      42.365  29.066  31.968  1.00  0.00    -0.248 NA
ATOM     53  C   UNL A   1      42.774  30.279  33.888  1.00  0.00     0.031 C 
ATOM     54  C   UNL A   1      44.600  27.701  29.684  1.00  0.00     0.029 A 
ATOM     55  C   UNL A   1      43.983  27.051  30.742  1.00  0.00     0.049 A 
ATOM     56  H   UNL A   1      43.027  25.179  30.741  1.00  0.00     0.167 HD
ATOM     57  C   UNL A   1      43.337  28.384  32.653  1.00  0.00     0.074 A 
ATOM     58  C   UNL A   1      43.541  29.178  33.855  1.00  0.00     0.031 C 
ATOM     59  C   UNL A   1      43.958  27.258  32.185  1.00  0.00     0.037 A 
BRANCH  46  60
ATOM     60  C   UNL A   1      43.062  24.154  26.910  1.00  0.00     0.057 A 
ATOM     61  C   UNL A   1      43.110  22.756  27.096  1.00  0.00     0.134 A 
ATOM     62  C   UNL A   1      43.448  24.565  25.619  1.00  0.00     0.134 A 
ATOM     63  F   UNL A   1      42.731  22.186  28.249  1.00  0.00    -0.206 F 
ATOM     64  C   UNL A   1      43.533  21.857  26.106  1.00  0.00     0.040 A 
ATOM     65  C   UNL A   1      43.881  23.677  24.621  1.00  0.00     0.040 A 
ATOM     66  F   UNL A   1      43.402  25.838  25.224  1.00  0.00    -0.206 F 
ATOM     67  C   UNL A   1      43.927  22.316  24.861  1.00  0.00     0.006 A 
ENDBRANCH  46  60
BRANCH  47  68
ATOM     68  C   UNL A   1      39.890  31.774  32.372  1.00  0.00     0.057 A 
ATOM     69  C   UNL A   1      39.057  30.795  32.960  1.00  0.00     0.134 A 
ATOM     70  C   UNL A   1      39.603  33.106  32.692  1.00  0.00     0.134 A 
ATOM     71  F   UNL A   1      39.230  29.499  32.654  1.00  0.00    -0.206 F 
ATOM     72  C   UNL A   1      38.177  31.096  34.006  1.00  0.00     0.040 A 
ATOM     73  C   UNL A   1      38.678  33.421  33.703  1.00  0.00     0.040 A 
ATOM     74  F   UNL A   1      40.310  34.110  32.156  1.00  0.00    -0.206 F 
ATOM     75  C   UNL A   1      38.029  32.413  34.418  1.00  0.00     0.006 A 
ENDBRANCH  47  68
BRANCH  59  76
ATOM     76  C   UNL A   1      44.669  26.243  33.057  1.00  0.00     0.057 A 
ATOM     77  C   UNL A   1      46.042  25.977  32.992  1.00  0.00     0.134 A 
ATOM     78  C   UNL A   1      44.001  25.628  34.146  1.00  0.00     0.134 A 
ATOM     79  F   UNL A   1      46.848  26.593  32.116  1.00  0.00    -0.206 F 
ATOM     80  C   UNL A   1      46.684  25.105  33.877  1.00  0.00     0.040 A 
ATOM     81  C   UNL A   1      44.652  24.840  35.094  1.00  0.00     0.040 A 
ATOM     82  F   UNL A   1      42.688  25.786  34.368  1.00  0.00    -0.206 F 
ATOM     83  C   UNL A   1      45.994  24.550  34.944  1.00  0.00     0.006 A 
ENDBRANCH  59  76
ENDBRANCH  33  34
ENDBRANCH  25  28
ENDBRANCH  23  24
ENDBRANCH  22  23
ENDBRANCH   1  22
TORSDOF 14
ENDMDL
MODEL 2
REMARK VINA RESULT:     -11.9      1.752      2.083
REMARK SMILES Cc1c(F)cc(C(=O)NCCCCNC(=O)c2ccc(-c3c4nc(c(-c5c(F)cccc5F)c5ccc([nH]5)c(-c5c(F)cccc5F)c5nc(c(-c6c(F)cccc6F)c6ccc3[nH]6)C=C5)C=C4)cc2)cc1S(=O)(=O)NC#N
REMARK SMILES IDX 11 1 10 2 9 3 7 4 8 5 6 7 1 8 2 9 3 10 72 11 4 12 5 13 71 14
REMARK SMILES IDX 73 15 74 16 75 17 76 18 77 20 78 21 12 22 13 23 14 24 15 25
REMARK SMILES IDX 16 27 17 28 18 29 70 30 19 31 69 32 20 33 21 34 22 35 63 36
REMARK SMILES IDX 23 37 68 38 62 39 64 40 24 41 67 42 61 43 60 44 25 46 51 47
REMARK SMILES IDX 34 48 50 49 35 50 38 51 49 52 65 53 36 54 37 55 48 57 66 58
REMARK SMILES IDX 39 59 26 60 27 61 32 62 28 63 29 64 31 65 33 66 30 67 52 68
REMARK SMILES IDX 53 69 58 70 54 71 55 72 57 73 59 74 56 75 40 76 41 77 46 78
REMARK SMILES IDX 42 79 43 80 45 81 47 82 44 83
REMARK H PARENT 9 6 76 19 14 26 64 45 38 56
REMARK Flexibility Score: inf
ROOT
ATOM      1  C   UNL A   1      31.798  28.672  26.525  1.00  0.00     0.023 C 
ENDROOT
BRANCH   1   2
ATOM      2  C   UNL A   1      31.976  28.845  25.011  1.00  0.00     0.116 C 
BRANCH   2   3
ATOM      3  N   UNL A   1      30.743  28.507  24.335  1.00  0.00    -0.352 N 
ATOM      4  C   UNL A   1      30.288  27.352  23.756  1.00  0.00     0.251 C 
ATOM      5  O   UNL A   1      29.247  27.436  23.102  1.00  0.00    -0.269 OA
ATOM      6  H   UNL A   1      30.104  29.254  24.280  1.00  0.00     0.163 HD
BRANCH   4   7
ATOM      7  C   UNL A   1      30.934  26.014  23.911  1.00  0.00     0.044 A 
ATOM      8  C   UNL A   1      32.896  22.143  23.889  1.00  0.00     0.049 C 
ATOM      9  C   UNL A   1      32.137  23.419  23.995  1.00  0.00     0.005 A 
ATOM     10  C   UNL A   1      32.208  24.262  22.865  1.00  0.00     0.128 A 
ATOM     11  C   UNL A   1      31.387  23.865  25.081  1.00  0.00     0.095 A 
ATOM     12  F   UNL A   1      32.870  23.847  21.774  1.00  0.00    -0.207 F 
ATOM     13  C   UNL A   1      31.611  25.516  22.806  1.00  0.00     0.053 A 
ATOM     14  C   UNL A   1      30.887  25.198  25.042  1.00  0.00     0.036 A 
BRANCH  11  15
ATOM     15  S   UNL A   1      30.766  23.032  26.539  1.00  0.00     0.270 S 
ATOM     16  O   UNL A   1      29.982  24.054  27.208  1.00  0.00    -0.201 OA
ATOM     17  O   UNL A   1      30.087  21.857  26.028  1.00  0.00    -0.201 OA
BRANCH  15  18
ATOM     18  N   UNL A   1      31.747  22.508  27.745  1.00  0.00    -0.215 NA
ATOM     19  H   UNL A   1      31.309  22.187  28.566  1.00  0.00     0.193 HD
BRANCH  18  20
ATOM     20  C   UNL A   1      33.060  22.475  27.720  1.00  0.00     0.191 C 
ATOM     21  N   UNL A   1      34.193  22.282  27.644  1.00  0.00    -0.172 NA
ENDBRANCH  18  20
ENDBRANCH  15  18
ENDBRANCH  11  15
ENDBRANCH   4   7
ENDBRANCH   2   3
ENDBRANCH   1   2
BRANCH   1  22
ATOM     22  C   UNL A   1      33.103  28.356  27.274  1.00  0.00     0.023 C 
BRANCH  22  23
ATOM     23  C   UNL A   1      34.305  29.004  26.627  1.00  0.00     0.116 C 
BRANCH  23  24
ATOM     24  N   UNL A   1      34.426  30.416  27.005  1.00  0.00    -0.352 N 
ATOM     25  C   UNL A   1      35.215  30.943  28.002  1.00  0.00     0.251 C 
ATOM     26  H   UNL A   1      33.884  31.056  26.488  1.00  0.00     0.163 HD
ATOM     27  O   UNL A   1      35.030  32.055  28.476  1.00  0.00    -0.269 OA
BRANCH  25  28
ATOM     28  C   UNL A   1      36.389  30.163  28.382  1.00  0.00     0.039 A 
ATOM     29  C   UNL A   1      36.480  29.427  29.567  1.00  0.00     0.014 A 
ATOM     30  C   UNL A   1      37.461  30.288  27.505  1.00  0.00     0.014 A 
ATOM     31  C   UNL A   1      37.707  28.862  29.886  1.00  0.00     0.010 A 
ATOM     32  C   UNL A   1      38.540  29.505  27.670  1.00  0.00     0.010 A 
ATOM     33  C   UNL A   1      38.719  28.954  28.931  1.00  0.00    -0.014 A 
BRANCH  33  34
ATOM     34  C   UNL A   1      40.089  28.540  29.096  1.00  0.00     0.031 A 
ATOM     35  C   UNL A   1      40.366  27.164  28.704  1.00  0.00     0.074 A 
ATOM     36  C   UNL A   1      40.931  29.583  29.306  1.00  0.00     0.049 A 
ATOM     37  N   UNL A   1      41.307  26.438  29.173  1.00  0.00    -0.248 NA
ATOM     38  C   UNL A   1      39.499  26.424  27.776  1.00  0.00     0.031 C 
ATOM     39  C   UNL A   1      42.361  29.755  29.143  1.00  0.00     0.029 A 
ATOM     40  N   UNL A   1      40.534  30.823  29.841  1.00  0.00    -0.354 N 
ATOM     41  C   UNL A   1      41.465  25.412  28.265  1.00  0.00     0.074 A 
ATOM     42  C   UNL A   1      40.187  25.290  27.620  1.00  0.00     0.031 C 
ATOM     43  C   UNL A   1      42.759  30.803  29.898  1.00  0.00     0.029 A 
ATOM     44  C   UNL A   1      41.595  31.294  30.622  1.00  0.00     0.049 A 
ATOM     45  H   UNL A   1      39.672  31.274  29.693  1.00  0.00     0.167 HD
ATOM     46  C   UNL A   1      42.739  25.013  27.980  1.00  0.00     0.037 A 
ATOM     47  C   UNL A   1      41.409  31.269  31.978  1.00  0.00     0.037 A 
ATOM     48  C   UNL A   1      43.670  25.847  28.757  1.00  0.00     0.049 A 
ATOM     49  C   UNL A   1      42.203  30.123  32.559  1.00  0.00     0.074 A 
ATOM     50  C   UNL A   1      44.442  26.949  28.424  1.00  0.00     0.029 A 
ATOM     51  N   UNL A   1      43.562  25.856  30.144  1.00  0.00    -0.354 N 
ATOM     52  N   UNL A   1      42.489  29.020  31.913  1.00  0.00    -0.248 NA
ATOM     53  C   UNL A   1      42.893  30.226  33.837  1.00  0.00     0.031 C 
ATOM     54  C   UNL A   1      44.728  27.660  29.630  1.00  0.00     0.029 A 
ATOM     55  C   UNL A   1      44.107  27.007  30.684  1.00  0.00     0.049 A 
ATOM     56  H   UNL A   1      43.149  25.136  30.674  1.00  0.00     0.167 HD
ATOM     57  C   UNL A   1      43.457  28.334  32.598  1.00  0.00     0.074 A 
ATOM     58  C   UNL A   1      43.660  29.124  33.803  1.00  0.00     0.031 C 
ATOM     59  C   UNL A   1      44.079  27.209  32.127  1.00  0.00     0.037 A 
BRANCH  46  60
ATOM     60  C   UNL A   1      43.192  24.124  26.839  1.00  0.00     0.057 A 
ATOM     61  C   UNL A   1      43.116  22.721  26.976  1.00  0.00     0.134 A 
ATOM     62  C   UNL A   1      43.694  24.543  25.592  1.00  0.00     0.134 A 
ATOM     63  F   UNL A   1      42.618  22.148  28.080  1.00  0.00    -0.206 F 
ATOM     64  C   UNL A   1      43.531  21.824  25.981  1.00  0.00     0.040 A 
ATOM     65  C   UNL A   1      44.121  23.656  24.591  1.00  0.00     0.040 A 
ATOM     66  F   UNL A   1      43.776  25.828  25.244  1.00  0.00    -0.206 F 
ATOM     67  C   UNL A   1      44.041  22.289  24.782  1.00  0.00     0.006 A 
ENDBRANCH  46  60
BRANCH  47  68
ATOM     68  C   UNL A   1      40.015  31.729  32.320  1.00  0.00     0.057 A 
ATOM     69  C   UNL A   1      39.173  30.743  32.882  1.00  0.00     0.134 A 
ATOM     70  C   UNL A   1      39.732  33.056  32.663  1.00  0.00     0.134 A 
ATOM     71  F   UNL A   1      39.342  29.452  32.553  1.00  0.00    -0.206 F 
ATOM     72  C   UNL A   1      38.286  31.028  33.927  1.00  0.00     0.040 A 
ATOM     73  C   UNL A   1      38.801  33.356  33.673  1.00  0.00     0.040 A 
ATOM     74  F   UNL A   1      40.448  34.067  32.152  1.00  0.00    -0.206 F 
ATOM     75  C   UNL A   1      38.141  32.338  34.363  1.00  0.00     0.006 A 
ENDBRANCH  47  68
BRANCH  59  76
ATOM     76  C   UNL A   1      44.786  26.190  32.998  1.00  0.00     0.057 A 
ATOM     77  C   UNL A   1      46.166  25.953  32.965  1.00  0.00     0.134 A 
ATOM     78  C   UNL A   1      44.101  25.539  34.055  1.00  0.00     0.134 A 
ATOM     79  F   UNL A   1      46.982  26.604  32.125  1.00  0.00    -0.206 F 
ATOM     80  C   UNL A   1      46.801  25.076  33.850  1.00  0.00     0.040 A 
ATOM     81  C   UNL A   1      44.742  24.744  35.004  1.00  0.00     0.040 A 
ATOM     82  F   UNL A   1      42.780  25.666  34.244  1.00  0.00    -0.206 F 
ATOM     83  C   UNL A   1      46.094  24.484  34.886  1.00  0.00     0.006 A 
ENDBRANCH  59  76
ENDBRANCH  33  34
ENDBRANCH  25  28
ENDBRANCH  23  24
ENDBRANCH  22  23
ENDBRANCH   1  22
TORSDOF 14
ENDMDL
MODEL 3
REMARK VINA RESULT:     -11.9      3.997      5.441
REMARK SMILES Cc1c(F)cc(C(=O)NCCCCNC(=O)c2ccc(-c3c4nc(c(-c5c(F)cccc5F)c5ccc([nH]5)c(-c5c(F)cccc5F)c5nc(c(-c6c(F)cccc6F)c6ccc3[nH]6)C=C5)C=C4)cc2)cc1S(=O)(=O)NC#N
REMARK SMILES IDX 11 1 10 2 9 3 7 4 8 5 6 7 1 8 2 9 3 10 72 11 4 12 5 13 71 14
REMARK SMILES IDX 73 15 74 16 75 17 76 18 77 20 78 21 12 22 13 23 14 24 15 25
REMARK SMILES IDX 16 27 17 28 18 29 70 30 19 31 69 32 20 33 21 34 22 35 63 36
REMARK SMILES IDX 23 37 68 38 62 39 64 40 24 41 67 42 61 43 60 44 25 46 51 47
REMARK SMILES IDX 34 48 50 49 35 50 38 51 49 52 65 53 36 54 37 55 48 57 66 58
REMARK SMILES IDX 39 59 26 60 27 61 32 62 28 63 29 64 31 65 33 66 30 67 52 68
REMARK SMILES IDX 53 69 58 70 54 71 55 72 57 73 59 74 56 75 40 76 41 77 46 78
REMARK SMILES IDX 42 79 43 80 45 81 47 82 44 83
REMARK H PARENT 9 6 76 19 14 26 64 45 38 56
REMARK Flexibility Score: inf
ROOT
ATOM      1  C   UNL A   1      34.486  29.992  27.294  1.00  0.00     0.023 C 
ENDROOT
BRANCH   1   2
ATOM      2  C   UNL A   1      33.690  29.004  26.433  1.00  0.00     0.116 C 
BRANCH   2   3
ATOM      3  N   UNL A   1      34.021  29.198  25.038  1.00  0.00    -0.352 N 
ATOM      4  C   UNL A   1      33.340  28.942  23.878  1.00  0.00     0.251 C 
ATOM      5  O   UNL A   1      33.973  29.064  22.828  1.00  0.00    -0.269 OA
ATOM      6  H   UNL A   1      34.911  29.592  24.894  1.00  0.00     0.163 HD
BRANCH   4   7
ATOM      7  C   UNL A   1      31.891  28.584  23.807  1.00  0.00     0.044 A 
ATOM      8  C   UNL A   1      27.822  27.086  23.638  1.00  0.00     0.049 C 
ATOM      9  C   UNL A   1      29.177  27.699  23.605  1.00  0.00     0.005 A 
ATOM     10  C   UNL A   1      30.238  26.844  23.972  1.00  0.00     0.128 A 
ATOM     11  C   UNL A   1      29.500  29.011  23.267  1.00  0.00     0.095 A 
ATOM     12  F   UNL A   1      29.980  25.556  24.249  1.00  0.00    -0.207 F 
ATOM     13  C   UNL A   1      31.563  27.258  24.055  1.00  0.00     0.053 A 
ATOM     14  C   UNL A   1      30.842  29.441  23.473  1.00  0.00     0.036 A 
BRANCH  11  15
ATOM     15  S   UNL A   1      28.571  30.309  22.454  1.00  0.00     0.270 S 
ATOM     16  O   UNL A   1      28.245  29.736  21.161  1.00  0.00    -0.201 OA
ATOM     17  O   UNL A   1      27.490  30.615  23.372  1.00  0.00    -0.201 OA
BRANCH  15  18
ATOM     18  N   UNL A   1      29.238  31.746  22.034  1.00  0.00    -0.215 NA
ATOM     19  H   UNL A   1      29.944  31.725  21.347  1.00  0.00     0.193 HD
BRANCH  18  20
ATOM     20  C   UNL A   1      28.921  32.923  22.523  1.00  0.00     0.191 C 
ATOM     21  N   UNL A   1      28.560  33.867  23.077  1.00  0.00    -0.172 NA
ENDBRANCH  18  20
ENDBRANCH  15  18
ENDBRANCH  11  15
ENDBRANCH   4   7
ENDBRANCH   2   3
ENDBRANCH   1   2
BRANCH   1  22
ATOM     22  C   UNL A   1      33.707  31.264  27.666  1.00  0.00     0.023 C 
BRANCH  22  23
ATOM     23  C   UNL A   1      34.622  32.432  27.953  1.00  0.00     0.116 C 
BRANCH  23  24
ATOM     24  N   UNL A   1      34.140  33.231  29.085  1.00  0.00    -0.352 N 
ATOM     25  C   UNL A   1      34.659  33.262  30.359  1.00  0.00     0.251 C 
ATOM     26  H   UNL A   1      33.360  33.807  28.914  1.00  0.00     0.163 HD
ATOM     27  O   UNL A   1      34.032  33.682  31.321  1.00  0.00    -0.269 OA
BRANCH  25  28
ATOM     28  C   UNL A   1      36.065  32.895  30.495  1.00  0.00     0.039 A 
ATOM     29  C   UNL A   1      37.111  33.586  29.875  1.00  0.00     0.014 A 
ATOM     30  C   UNL A   1      36.279  31.729  31.223  1.00  0.00     0.014 A 
ATOM     31  C   UNL A   1      38.384  33.040  29.953  1.00  0.00     0.010 A 
ATOM     32  C   UNL A   1      37.535  31.372  31.539  1.00  0.00     0.010 A 
ATOM     33  C   UNL A   1      38.548  31.915  30.762  1.00  0.00    -0.014 A 
BRANCH  33  34
ATOM     34  C   UNL A   1      39.747  31.128  30.899  1.00  0.00     0.031 A 
ATOM     35  C   UNL A   1      39.773  29.905  30.107  1.00  0.00     0.074 A 
ATOM     36  C   UNL A   1      40.753  31.808  31.506  1.00  0.00     0.049 A 
ATOM     37  N   UNL A   1      40.442  28.854  30.394  1.00  0.00    -0.248 NA
ATOM     38  C   UNL A   1      38.926  29.721  28.920  1.00  0.00     0.031 C 
ATOM     39  C   UNL A   1      42.192  31.640  31.529  1.00  0.00     0.029 A 
ATOM     40  N   UNL A   1      40.558  32.895  32.377  1.00  0.00    -0.354 N 
ATOM     41  C   UNL A   1      40.514  28.136  29.220  1.00  0.00     0.074 A 
ATOM     42  C   UNL A   1      39.363  28.544  28.464  1.00  0.00     0.031 C 
ATOM     43  C   UNL A   1      42.684  32.280  32.614  1.00  0.00     0.029 A 
ATOM     44  C   UNL A   1      41.555  32.823  33.356  1.00  0.00     0.049 A 
ATOM     45  H   UNL A   1      39.852  33.578  32.311  1.00  0.00     0.167 HD
ATOM     46  C   UNL A   1      41.697  27.520  28.930  1.00  0.00     0.037 A 
ATOM     47  C   UNL A   1      41.152  32.452  34.610  1.00  0.00     0.037 A 
ATOM     48  C   UNL A   1      42.651  27.817  30.011  1.00  0.00     0.049 A 
ATOM     49  C   UNL A   1      41.568  31.021  34.854  1.00  0.00     0.074 A 
ATOM     50  C   UNL A   1      43.691  28.727  30.120  1.00  0.00     0.029 A 
ATOM     51  N   UNL A   1      42.324  27.447  31.312  1.00  0.00    -0.354 N 
ATOM     52  N   UNL A   1      41.703  30.120  33.912  1.00  0.00    -0.248 NA
ATOM     53  C   UNL A   1      42.046  30.561  36.151  1.00  0.00     0.031 C 
ATOM     54  C   UNL A   1      43.927  28.953  31.510  1.00  0.00     0.029 A 
ATOM     55  C   UNL A   1      43.015  28.206  32.239  1.00  0.00     0.049 A 
ATOM     56  H   UNL A   1      41.682  26.737  31.543  1.00  0.00     0.167 HD
ATOM     57  C   UNL A   1      42.372  29.036  34.418  1.00  0.00     0.074 A 
ATOM     58  C   UNL A   1      42.546  29.358  35.826  1.00  0.00     0.031 C 
ATOM     59  C   UNL A   1      42.798  27.977  33.663  1.00  0.00     0.037 A 
BRANCH  46  60
ATOM     60  C   UNL A   1      42.122  26.917  27.606  1.00  0.00     0.057 A 
ATOM     61  C   UNL A   1      42.461  27.765  26.529  1.00  0.00     0.134 A 
ATOM     62  C   UNL A   1      42.240  25.547  27.304  1.00  0.00     0.134 A 
ATOM     63  F   UNL A   1      42.452  29.099  26.655  1.00  0.00    -0.206 F 
ATOM     64  C   UNL A   1      42.846  27.295  25.266  1.00  0.00     0.040 A 
ATOM     65  C   UNL A   1      42.616  25.061  26.041  1.00  0.00     0.040 A 
ATOM     66  F   UNL A   1      42.033  24.589  28.208  1.00  0.00    -0.206 F 
ATOM     67  C   UNL A   1      42.921  25.936  25.013  1.00  0.00     0.006 A 
ENDBRANCH  46  60
BRANCH  47  68
ATOM     68  C   UNL A   1      39.857  33.139  34.964  1.00  0.00     0.057 A 
ATOM     69  C   UNL A   1      38.749  32.281  35.154  1.00  0.00     0.134 A 
ATOM     70  C   UNL A   1      39.824  34.358  35.650  1.00  0.00     0.134 A 
ATOM     71  F   UNL A   1      38.678  31.121  34.482  1.00  0.00    -0.206 F 
ATOM     72  C   UNL A   1      37.807  32.496  36.166  1.00  0.00     0.040 A 
ATOM     73  C   UNL A   1      38.846  34.605  36.630  1.00  0.00     0.040 A 
ATOM     74  F   UNL A   1      40.808  35.255  35.506  1.00  0.00    -0.206 F 
ATOM     75  C   UNL A   1      37.890  33.640  36.947  1.00  0.00     0.006 A 
ENDBRANCH  47  68
BRANCH  59  76
ATOM     76  C   UNL A   1      43.112  26.601  34.213  1.00  0.00     0.057 A 
ATOM     77  C   UNL A   1      44.402  26.061  34.289  1.00  0.00     0.134 A 
ATOM     78  C   UNL A   1      42.115  25.839  34.875  1.00  0.00     0.134 A 
ATOM     79  F   UNL A   1      45.479  26.723  33.846  1.00  0.00    -0.206 F 
ATOM     80  C   UNL A   1      44.669  24.828  34.892  1.00  0.00     0.040 A 
ATOM     81  C   UNL A   1      42.389  24.660  35.567  1.00  0.00     0.040 A 
ATOM     82  F   UNL A   1      40.829  26.215  34.914  1.00  0.00    -0.206 F 
ATOM     83  C   UNL A   1      43.666  24.133  35.551  1.00  0.00     0.006 A 
ENDBRANCH  59  76
ENDBRANCH  33  34
ENDBRANCH  25  28
ENDBRANCH  23  24
ENDBRANCH  22  23
ENDBRANCH   1  22
TORSDOF 14
ENDMDL
