MODEL 1
REMARK VINA RESULT:     -13.8      0.000      0.000
REMARK SMILES Cc1ccc([C@@H](C)Nc2ccc(N)cc2C(=O)NCCCCNC(=O)c2ccc(-c3c4nc(c(-c5c(F)cccc5F)c5ccc([nH]5)c(-c5c(F)cccc5F)c5nc(c(-c6c(F)cccc6F)c6ccc3[nH]6)C=C5)C=C4)cc2)cc1F
REMARK SMILES IDX 20 1 19 2 18 3 16 4 17 5 15 7 9 8 10 9 11 10 14 11 12 12
REMARK SMILES IDX 8 13 6 15 7 16 5 17 1 18 2 19 3 20 81 21 4 22 80 23 82 24
REMARK SMILES IDX 13 25 21 28 22 29 23 30 24 31 25 33 26 34 27 35 79 36 28 37
REMARK SMILES IDX 78 38 29 39 30 40 31 41 72 42 32 43 77 44 71 45 73 46 33 47
REMARK SMILES IDX 76 48 70 49 69 50 34 52 60 53 43 54 59 55 44 56 47 57 58 58
REMARK SMILES IDX 74 59 45 60 46 61 57 63 75 64 48 65 35 66 36 67 41 68 37 69
REMARK SMILES IDX 38 70 40 71 42 72 39 73 61 74 62 75 67 76 63 77 64 78 66 79
REMARK SMILES IDX 68 80 65 81 49 82 50 83 55 84 51 85 52 86 54 87 56 88 53 89
REMARK H PARENT 18 6 8 14 13 26 13 27 23 32 73 51 47 62
REMARK Flexibility Score: inf
ROOT
ATOM      1  C   UNL A   1      33.492  30.443  27.267  1.00  0.00     0.023 C 
ENDROOT
BRANCH   1   2
ATOM      2  C   UNL A   1      33.014  28.791  27.175  1.00  0.00     0.116 C 
BRANCH   2   3
ATOM      3  N   UNL A   1      33.605  27.908  26.174  1.00  0.00    -0.352 N 
ATOM      4  C   UNL A   1      33.205  27.628  24.891  1.00  0.00     0.253 C 
ATOM      5  O   UNL A   1      33.966  27.038  24.127  1.00  0.00    -0.269 OA
ATOM      6  H   UNL A   1      34.421  27.440  26.466  1.00  0.00     0.163 HD
BRANCH   4   7
ATOM      7  C   UNL A   1      31.803  27.872  24.503  1.00  0.00     0.065 A 
ATOM      8  C   UNL A   1      30.751  26.973  24.701  1.00  0.00     0.048 A 
ATOM      9  C   UNL A   1      29.729  27.044  23.736  1.00  0.00     0.028 A 
ATOM     10  C   UNL A   1      29.692  28.049  22.752  1.00  0.00     0.027 A 
ATOM     11  C   UNL A   1      31.685  28.975  23.634  1.00  0.00     0.041 A 
ATOM     12  C   UNL A   1      30.613  29.088  22.765  1.00  0.00     0.032 A 
BRANCH   8  13
ATOM     13  N   UNL A   1      30.643  26.009  25.690  1.00  0.00    -0.378 N 
ATOM     14  H   UNL A   1      30.382  26.355  26.575  1.00  0.00     0.161 HD
BRANCH  13  15
ATOM     15  C   UNL A   1      30.855  24.555  25.639  1.00  0.00     0.106 C 
ATOM     16  C   UNL A   1      30.135  23.784  26.739  1.00  0.00     0.036 C 
BRANCH  15  17
ATOM     17  C   UNL A   1      32.292  24.241  25.215  1.00  0.00    -0.023 A 
ATOM     18  C   UNL A   1      36.715  22.692  23.213  1.00  0.00     0.047 C 
ATOM     19  C   UNL A   1      35.536  23.436  23.768  1.00  0.00    -0.015 A 
ATOM     20  C   UNL A   1      34.061  23.426  22.748  1.00  0.00     0.007 A 
ATOM     21  C   UNL A   1      35.390  23.828  25.536  1.00  0.00     0.126 A 
ATOM     22  C   UNL A   1      32.457  23.869  23.453  1.00  0.00     0.006 A 
ATOM     23  C   UNL A   1      33.778  24.251  26.261  1.00  0.00     0.045 A 
ATOM     24  F   UNL A   1      36.466  23.725  26.323  1.00  0.00    -0.207 F 
ENDBRANCH  15  17
ENDBRANCH  13  15
ENDBRANCH   8  13
BRANCH  12  25
ATOM     25  N   UNL A   1      30.597  30.089  21.809  1.00  0.00    -0.399 N 
ATOM     26  H   UNL A   1      30.102  29.959  20.968  1.00  0.00     0.156 HD
ATOM     27  H   UNL A   1      31.080  30.932  21.971  1.00  0.00     0.156 HD
ENDBRANCH  12  25
ENDBRANCH   4   7
ENDBRANCH   2   3
ENDBRANCH   1   2
BRANCH   1  28
ATOM     28  C   UNL A   1      34.635  31.710  28.642  1.00  0.00     0.023 C 
BRANCH  28  29
ATOM     29  C   UNL A   1      34.622  33.246  29.119  1.00  0.00     0.116 C 
BRANCH  29  30
ATOM     30  N   UNL A   1      34.073  33.487  30.472  1.00  0.00    -0.352 N 
ATOM     31  C   UNL A   1      34.498  32.960  31.666  1.00  0.00     0.251 C 
ATOM     32  H   UNL A   1      33.306  34.103  30.522  1.00  0.00     0.163 HD
ATOM     33  O   UNL A   1      33.754  32.821  32.626  1.00  0.00    -0.269 OA
BRANCH  31  34
ATOM     34  C   UNL A   1      35.943  32.779  31.788  1.00  0.00     0.039 A 
ATOM     35  C   UNL A   1      36.901  33.694  31.356  1.00  0.00     0.014 A 
ATOM     36  C   UNL A   1      36.312  31.510  32.218  1.00  0.00     0.014 A 
ATOM     37  C   UNL A   1      38.210  33.243  31.276  1.00  0.00     0.010 A 
ATOM     38  C   UNL A   1      37.572  31.253  32.549  1.00  0.00     0.010 A 
ATOM     39  C   UNL A   1      38.484  31.990  31.828  1.00  0.00    -0.014 A 
BRANCH  39  40
ATOM     40  C   UNL A   1      39.700  31.225  31.754  1.00  0.00     0.031 A 
ATOM     41  C   UNL A   1      39.552  30.091  30.850  1.00  0.00     0.074 A 
ATOM     42  C   UNL A   1      40.766  31.900  32.265  1.00  0.00     0.049 A 
ATOM     43  N   UNL A   1      39.870  28.870  31.089  1.00  0.00    -0.248 NA
ATOM     44  C   UNL A   1      38.767  30.231  29.604  1.00  0.00     0.031 C 
ATOM     45  C   UNL A   1      42.202  31.796  32.100  1.00  0.00     0.029 A 
ATOM     46  N   UNL A   1      40.657  32.950  33.200  1.00  0.00    -0.354 N 
ATOM     47  C   UNL A   1      39.894  28.303  29.831  1.00  0.00     0.074 A 
ATOM     48  C   UNL A   1      38.897  29.014  29.076  1.00  0.00     0.031 C 
ATOM     49  C   UNL A   1      42.806  32.392  33.154  1.00  0.00     0.029 A 
ATOM     50  C   UNL A   1      41.771  32.902  34.044  1.00  0.00     0.049 A 
ATOM     51  H   UNL A   1      39.923  33.605  33.250  1.00  0.00     0.167 HD
ATOM     52  C   UNL A   1      41.068  27.753  29.395  1.00  0.00     0.037 A 
ATOM     53  C   UNL A   1      41.524  32.517  35.333  1.00  0.00     0.037 A 
ATOM     54  C   UNL A   1      42.126  28.023  30.381  1.00  0.00     0.049 A 
ATOM     55  C   UNL A   1      41.876  31.054  35.464  1.00  0.00     0.074 A 
ATOM     56  C   UNL A   1      43.200  28.899  30.400  1.00  0.00     0.029 A 
ATOM     57  N   UNL A   1      41.935  27.625  31.697  1.00  0.00    -0.354 N 
ATOM     58  N   UNL A   1      41.867  30.212  34.463  1.00  0.00    -0.248 NA
ATOM     59  C   UNL A   1      42.416  30.470  36.685  1.00  0.00     0.031 C 
ATOM     60  C   UNL A   1      43.626  29.038  31.756  1.00  0.00     0.029 A 
ATOM     61  C   UNL A   1      42.769  28.305  32.560  1.00  0.00     0.049 A 
ATOM     62  H   UNL A   1      41.285  26.941  31.980  1.00  0.00     0.167 HD
ATOM     63  C   UNL A   1      42.465  29.047  34.843  1.00  0.00     0.074 A 
ATOM     64  C   UNL A   1      42.769  29.248  36.250  1.00  0.00     0.031 C 
ATOM     65  C   UNL A   1      42.707  28.012  33.985  1.00  0.00     0.037 A 
BRANCH  52  66
ATOM     66  C   UNL A   1      41.345  27.248  27.998  1.00  0.00     0.057 A 
ATOM     67  C   UNL A   1      41.064  25.910  27.661  1.00  0.00     0.134 A 
ATOM     68  C   UNL A   1      41.782  28.036  26.913  1.00  0.00     0.134 A 
ATOM     69  F   UNL A   1      40.576  25.045  28.559  1.00  0.00    -0.206 F 
ATOM     70  C   UNL A   1      41.229  25.393  26.370  1.00  0.00     0.040 A 
ATOM     71  C   UNL A   1      41.985  27.523  25.624  1.00  0.00     0.040 A 
ATOM     72  F   UNL A   1      41.974  29.355  27.018  1.00  0.00    -0.206 F 
ATOM     73  C   UNL A   1      41.698  26.198  25.344  1.00  0.00     0.006 A 
ENDBRANCH  52  66
BRANCH  53  74
ATOM     74  C   UNL A   1      40.301  33.231  35.850  1.00  0.00     0.057 A 
ATOM     75  C   UNL A   1      39.186  32.407  36.135  1.00  0.00     0.134 A 
ATOM     76  C   UNL A   1      40.373  34.441  36.552  1.00  0.00     0.134 A 
ATOM     77  F   UNL A   1      39.021  31.252  35.469  1.00  0.00    -0.206 F 
ATOM     78  C   UNL A   1      38.337  32.649  37.219  1.00  0.00     0.040 A 
ATOM     79  C   UNL A   1      39.496  34.713  37.613  1.00  0.00     0.040 A 
ATOM     80  F   UNL A   1      41.372  35.306  36.324  1.00  0.00    -0.206 F 
ATOM     81  C   UNL A   1      38.523  33.786  37.994  1.00  0.00     0.006 A 
ENDBRANCH  53  74
BRANCH  65  82
ATOM     82  C   UNL A   1      42.933  26.588  34.420  1.00  0.00     0.057 A 
ATOM     83  C   UNL A   1      41.978  25.830  35.110  1.00  0.00     0.134 A 
ATOM     84  C   UNL A   1      44.057  25.864  33.959  1.00  0.00     0.134 A 
ATOM     85  F   UNL A   1      40.801  26.346  35.488  1.00  0.00    -0.206 F 
ATOM     86  C   UNL A   1      42.162  24.475  35.388  1.00  0.00     0.040 A 
ATOM     87  C   UNL A   1      44.202  24.491  34.146  1.00  0.00     0.040 A 
ATOM     88  F   UNL A   1      45.049  26.445  33.267  1.00  0.00    -0.206 F 
ATOM     89  C   UNL A   1      43.265  23.796  34.888  1.00  0.00     0.006 A 
ENDBRANCH  65  82
ENDBRANCH  39  40
ENDBRANCH  31  34
ENDBRANCH  29  30
ENDBRANCH  28  29
ENDBRANCH   1  28
TORSDOF 15
ENDMDL
MODEL 2
REMARK VINA RESULT:     -13.4      4.394      9.516
REMARK SMILES Cc1ccc([C@@H](C)Nc2ccc(N)cc2C(=O)NCCCCNC(=O)c2ccc(-c3c4nc(c(-c5c(F)cccc5F)c5ccc([nH]5)c(-c5c(F)cccc5F)c5nc(c(-c6c(F)cccc6F)c6ccc3[nH]6)C=C5)C=C4)cc2)cc1F
REMARK SMILES IDX 20 1 19 2 18 3 16 4 17 5 15 7 9 8 10 9 11 10 14 11 12 12
REMARK SMILES IDX 8 13 6 15 7 16 5 17 1 18 2 19 3 20 81 21 4 22 80 23 82 24
REMARK SMILES IDX 13 25 21 28 22 29 23 30 24 31 25 33 26 34 27 35 79 36 28 37
REMARK SMILES IDX 78 38 29 39 30 40 31 41 72 42 32 43 77 44 71 45 73 46 33 47
REMARK SMILES IDX 76 48 70 49 69 50 34 52 60 53 43 54 59 55 44 56 47 57 58 58
REMARK SMILES IDX 74 59 45 60 46 61 57 63 75 64 48 65 35 66 36 67 41 68 37 69
REMARK SMILES IDX 38 70 40 71 42 72 39 73 61 74 62 75 67 76 63 77 64 78 66 79
REMARK SMILES IDX 68 80 65 81 49 82 50 83 55 84 51 85 52 86 54 87 56 88 53 89
REMARK H PARENT 18 6 8 14 13 26 13 27 23 32 73 51 47 62
REMARK Flexibility Score: inf
ROOT
ATOM      1  C   UNL A   1      37.888  21.669  25.372  1.00  0.00     0.023 C 
ENDROOT
BRANCH   1   2
ATOM      2  C   UNL A   1      37.037  22.977  24.647  1.00  0.00     0.116 C 
BRANCH   2   3
ATOM      3  N   UNL A   1      35.951  23.638  25.367  1.00  0.00    -0.352 N 
ATOM      4  C   UNL A   1      34.688  23.195  25.668  1.00  0.00     0.253 C 
ATOM      5  O   UNL A   1      34.002  23.807  26.484  1.00  0.00    -0.269 OA
ATOM      6  H   UNL A   1      36.160  24.546  25.687  1.00  0.00     0.163 HD
BRANCH   4   7
ATOM      7  C   UNL A   1      34.099  22.099  24.876  1.00  0.00     0.065 A 
ATOM      8  C   UNL A   1      33.399  22.266  23.677  1.00  0.00     0.048 A 
ATOM      9  C   UNL A   1      32.394  21.307  23.446  1.00  0.00     0.028 A 
ATOM     10  C   UNL A   1      32.225  20.181  24.273  1.00  0.00     0.027 A 
ATOM     11  C   UNL A   1      34.048  20.895  25.605  1.00  0.00     0.041 A 
ATOM     12  C   UNL A   1      33.124  19.910  25.294  1.00  0.00     0.032 A 
BRANCH   8  13
ATOM     13  N   UNL A   1      33.550  23.283  22.749  1.00  0.00    -0.378 N 
ATOM     14  H   UNL A   1      34.354  23.207  22.183  1.00  0.00     0.161 HD
BRANCH  13  15
ATOM     15  C   UNL A   1      32.712  24.458  22.468  1.00  0.00     0.106 C 
ATOM     16  C   UNL A   1      32.872  25.012  21.057  1.00  0.00     0.036 C 
BRANCH  15  17
ATOM     17  C   UNL A   1      32.625  25.357  23.704  1.00  0.00    -0.023 A 
ATOM     18  C   UNL A   1      31.492  28.334  27.683  1.00  0.00     0.047 C 
ATOM     19  C   UNL A   1      31.996  27.296  26.722  1.00  0.00    -0.015 A 
ATOM     20  C   UNL A   1      30.769  26.136  26.119  1.00  0.00     0.007 A 
ATOM     21  C   UNL A   1      33.545  27.512  25.797  1.00  0.00     0.126 A 
ATOM     22  C   UNL A   1      31.098  25.139  24.647  1.00  0.00     0.006 A 
ATOM     23  C   UNL A   1      33.875  26.533  24.302  1.00  0.00     0.045 A 
ATOM     24  F   UNL A   1      34.411  28.457  26.178  1.00  0.00    -0.207 F 
ENDBRANCH  15  17
ENDBRANCH  13  15
ENDBRANCH   8  13
BRANCH  12  25
ATOM     25  N   UNL A   1      32.981  18.808  26.120  1.00  0.00    -0.399 N 
ATOM     26  H   UNL A   1      33.573  18.696  26.899  1.00  0.00     0.156 HD
ATOM     27  H   UNL A   1      32.287  18.136  25.927  1.00  0.00     0.156 HD
ENDBRANCH  12  25
ENDBRANCH   4   7
ENDBRANCH   2   3
ENDBRANCH   1   2
BRANCH   1  28
ATOM     28  C   UNL A   1      39.907  21.296  26.143  1.00  0.00     0.023 C 
BRANCH  28  29
ATOM     29  C   UNL A   1      41.253  22.143  26.383  1.00  0.00     0.116 C 
BRANCH  29  30
ATOM     30  N   UNL A   1      42.354  21.870  25.434  1.00  0.00    -0.352 N 
ATOM     31  C   UNL A   1      43.276  22.753  24.928  1.00  0.00     0.251 C 
ATOM     32  H   UNL A   1      42.437  20.938  25.126  1.00  0.00     0.163 HD
ATOM     33  O   UNL A   1      43.822  22.587  23.847  1.00  0.00    -0.269 OA
BRANCH  31  34
ATOM     34  C   UNL A   1      43.723  23.787  25.857  1.00  0.00     0.039 A 
ATOM     35  C   UNL A   1      44.293  23.546  27.106  1.00  0.00     0.014 A 
ATOM     36  C   UNL A   1      43.368  25.074  25.473  1.00  0.00     0.014 A 
ATOM     37  C   UNL A   1      44.385  24.624  27.974  1.00  0.00     0.010 A 
ATOM     38  C   UNL A   1      43.857  26.128  26.117  1.00  0.00     0.010 A 
ATOM     39  C   UNL A   1      44.096  25.885  27.452  1.00  0.00    -0.014 A 
BRANCH  39  40
ATOM     40  C   UNL A   1      43.968  27.137  28.150  1.00  0.00     0.031 A 
ATOM     41  C   UNL A   1      42.575  27.565  28.207  1.00  0.00     0.074 A 
ATOM     42  C   UNL A   1      45.088  27.450  28.855  1.00  0.00     0.049 A 
ATOM     43  N   UNL A   1      42.114  28.726  27.908  1.00  0.00    -0.248 NA
ATOM     44  C   UNL A   1      41.499  26.569  28.405  1.00  0.00     0.031 C 
ATOM     45  C   UNL A   1      45.362  28.318  29.984  1.00  0.00     0.029 A 
ATOM     46  N   UNL A   1      46.370  26.942  28.562  1.00  0.00    -0.354 N 
ATOM     47  C   UNL A   1      40.861  28.720  28.485  1.00  0.00     0.074 A 
ATOM     48  C   UNL A   1      40.420  27.352  28.420  1.00  0.00     0.031 C 
ATOM     49  C   UNL A   1      46.684  28.603  30.003  1.00  0.00     0.029 A 
ATOM     50  C   UNL A   1      47.313  27.927  28.875  1.00  0.00     0.049 A 
ATOM     51  H   UNL A   1      46.568  26.048  28.200  1.00  0.00     0.167 HD
ATOM     52  C   UNL A   1      40.583  29.665  29.435  1.00  0.00     0.037 A 
ATOM     53  C   UNL A   1      47.944  28.505  27.809  1.00  0.00     0.037 A 
ATOM     54  C   UNL A   1      41.805  30.433  29.726  1.00  0.00     0.049 A 
ATOM     55  C   UNL A   1      47.269  29.826  27.521  1.00  0.00     0.074 A 
ATOM     56  C   UNL A   1      42.689  30.435  30.792  1.00  0.00     0.029 A 
ATOM     57  N   UNL A   1      42.465  31.064  28.680  1.00  0.00    -0.354 N 
ATOM     58  N   UNL A   1      46.027  30.089  27.833  1.00  0.00    -0.248 NA
ATOM     59  C   UNL A   1      47.981  30.992  27.014  1.00  0.00     0.031 C 
ATOM     60  C   UNL A   1      43.900  31.052  30.354  1.00  0.00     0.029 A 
ATOM     61  C   UNL A   1      43.773  31.357  29.009  1.00  0.00     0.049 A 
ATOM     62  H   UNL A   1      42.053  31.276  27.811  1.00  0.00     0.167 HD
ATOM     63  C   UNL A   1      45.792  31.424  27.678  1.00  0.00     0.074 A 
ATOM     64  C   UNL A   1      47.038  31.942  27.139  1.00  0.00     0.031 C 
ATOM     65  C   UNL A   1      44.617  32.026  28.029  1.00  0.00     0.037 A 
BRANCH  52  66
ATOM     66  C   UNL A   1      39.346  29.715  30.301  1.00  0.00     0.057 A 
ATOM     67  C   UNL A   1      39.283  28.958  31.487  1.00  0.00     0.134 A 
ATOM     68  C   UNL A   1      38.234  30.555  30.094  1.00  0.00     0.134 A 
ATOM     69  F   UNL A   1      40.289  28.158  31.867  1.00  0.00    -0.206 F 
ATOM     70  C   UNL A   1      38.200  29.008  32.373  1.00  0.00     0.040 A 
ATOM     71  C   UNL A   1      37.127  30.590  30.956  1.00  0.00     0.040 A 
ATOM     72  F   UNL A   1      38.179  31.436  29.091  1.00  0.00    -0.206 F 
ATOM     73  C   UNL A   1      37.112  29.823  32.107  1.00  0.00     0.006 A 
ENDBRANCH  52  66
BRANCH  53  74
ATOM     74  C   UNL A   1      48.364  27.440  26.828  1.00  0.00     0.057 A 
ATOM     75  C   UNL A   1      47.698  27.463  25.579  1.00  0.00     0.134 A 
ATOM     76  C   UNL A   1      49.638  26.861  26.841  1.00  0.00     0.134 A 
ATOM     77  F   UNL A   1      46.452  27.959  25.494  1.00  0.00    -0.206 F 
ATOM     78  C   UNL A   1      48.351  27.160  24.380  1.00  0.00     0.040 A 
ATOM     79  C   UNL A   1      50.284  26.512  25.644  1.00  0.00     0.040 A 
ATOM     80  F   UNL A   1      50.333  26.760  27.983  1.00  0.00    -0.206 F 
ATOM     81  C   UNL A   1      49.670  26.728  24.409  1.00  0.00     0.006 A 
ENDBRANCH  53  74
BRANCH  65  82
ATOM     82  C   UNL A   1      44.148  33.348  27.482  1.00  0.00     0.057 A 
ATOM     83  C   UNL A   1      43.836  33.558  26.132  1.00  0.00     0.134 A 
ATOM     84  C   UNL A   1      43.788  34.402  28.354  1.00  0.00     0.134 A 
ATOM     85  F   UNL A   1      43.993  32.600  25.210  1.00  0.00    -0.206 F 
ATOM     86  C   UNL A   1      43.282  34.755  25.674  1.00  0.00     0.040 A 
ATOM     87  C   UNL A   1      43.144  35.558  27.919  1.00  0.00     0.040 A 
ATOM     88  F   UNL A   1      44.005  34.342  29.677  1.00  0.00    -0.206 F 
ATOM     89  C   UNL A   1      42.914  35.750  26.569  1.00  0.00     0.006 A 
ENDBRANCH  65  82
ENDBRANCH  39  40
ENDBRANCH  31  34
ENDBRANCH  29  30
ENDBRANCH  28  29
ENDBRANCH   1  28
TORSDOF 15
ENDMDL
MODEL 3
REMARK VINA RESULT:     -13.4      2.014      3.144
REMARK SMILES Cc1ccc([C@@H](C)Nc2ccc(N)cc2C(=O)NCCCCNC(=O)c2ccc(-c3c4nc(c(-c5c(F)cccc5F)c5ccc([nH]5)c(-c5c(F)cccc5F)c5nc(c(-c6c(F)cccc6F)c6ccc3[nH]6)C=C5)C=C4)cc2)cc1F
REMARK SMILES IDX 20 1 19 2 18 3 16 4 17 5 15 7 9 8 10 9 11 10 14 11 12 12
REMARK SMILES IDX 8 13 6 15 7 16 5 17 1 18 2 19 3 20 81 21 4 22 80 23 82 24
REMARK SMILES IDX 13 25 21 28 22 29 23 30 24 31 25 33 26 34 27 35 79 36 28 37
REMARK SMILES IDX 78 38 29 39 30 40 31 41 72 42 32 43 77 44 71 45 73 46 33 47
REMARK SMILES IDX 76 48 70 49 69 50 34 52 60 53 43 54 59 55 44 56 47 57 58 58
REMARK SMILES IDX 74 59 45 60 46 61 57 63 75 64 48 65 35 66 36 67 41 68 37 69
REMARK SMILES IDX 38 70 40 71 42 72 39 73 61 74 62 75 67 76 63 77 64 78 66 79
REMARK SMILES IDX 68 80 65 81 49 82 50 83 55 84 51 85 52 86 54 87 56 88 53 89
REMARK H PARENT 18 6 8 14 13 26 13 27 23 32 73 51 47 62
REMARK Flexibility Score: inf
ROOT
ATOM      1  C   UNL A   1      34.005  28.569  24.195  1.00  0.00     0.023 C 
ENDROOT
BRANCH   1   2
ATOM      2  C   UNL A   1      33.851  28.377  22.492  1.00  0.00     0.116 C 
BRANCH   2   3
ATOM      3  N   UNL A   1      33.169  27.210  21.941  1.00  0.00    -0.352 N 
ATOM      4  C   UNL A   1      31.831  26.972  21.749  1.00  0.00     0.253 C 
ATOM      5  O   UNL A   1      31.470  26.024  21.056  1.00  0.00    -0.269 OA
ATOM      6  H   UNL A   1      33.764  26.476  21.662  1.00  0.00     0.163 HD
BRANCH   4   7
ATOM      7  C   UNL A   1      30.843  27.745  22.524  1.00  0.00     0.065 A 
ATOM      8  C   UNL A   1      29.859  27.187  23.347  1.00  0.00     0.048 A 
ATOM      9  C   UNL A   1      28.674  27.942  23.438  1.00  0.00     0.028 A 
ATOM     10  C   UNL A   1      28.556  29.228  22.881  1.00  0.00     0.027 A 
ATOM     11  C   UNL A   1      30.792  29.092  22.114  1.00  0.00     0.041 A 
ATOM     12  C   UNL A   1      29.654  29.857  22.311  1.00  0.00     0.032 A 
BRANCH   8  13
ATOM     13  N   UNL A   1      29.909  25.975  24.015  1.00  0.00    -0.378 N 
ATOM     14  H   UNL A   1      29.395  25.249  23.590  1.00  0.00     0.161 HD
BRANCH  13  15
ATOM     15  C   UNL A   1      30.603  25.591  25.253  1.00  0.00     0.106 C 
ATOM     16  C   UNL A   1      30.939  26.764  26.166  1.00  0.00     0.036 C 
BRANCH  15  17
ATOM     17  C   UNL A   1      31.583  24.447  24.981  1.00  0.00    -0.023 A 
ATOM     18  C   UNL A   1      34.492  20.269  24.757  1.00  0.00     0.047 C 
ATOM     19  C   UNL A   1      33.586  21.441  24.517  1.00  0.00    -0.015 A 
ATOM     20  C   UNL A   1      31.968  21.342  25.283  1.00  0.00     0.007 A 
ATOM     21  C   UNL A   1      34.226  23.061  23.998  1.00  0.00     0.126 A 
ATOM     22  C   UNL A   1      30.953  22.826  25.474  1.00  0.00     0.006 A 
ATOM     23  C   UNL A   1      33.224  24.563  24.207  1.00  0.00     0.045 A 
ATOM     24  F   UNL A   1      35.476  23.155  23.532  1.00  0.00    -0.207 F 
ENDBRANCH  15  17
ENDBRANCH  13  15
ENDBRANCH   8  13
BRANCH  12  25
ATOM     25  N   UNL A   1      29.565  31.123  21.758  1.00  0.00    -0.399 N 
ATOM     26  H   UNL A   1      29.943  31.897  22.237  1.00  0.00     0.156 HD
ATOM     27  H   UNL A   1      29.124  31.250  20.887  1.00  0.00     0.156 HD
ENDBRANCH  12  25
ENDBRANCH   4   7
ENDBRANCH   2   3
ENDBRANCH   1   2
BRANCH   1  28
ATOM     28  C   UNL A   1      33.066  29.774  25.768  1.00  0.00     0.023 C 
BRANCH  28  29
ATOM     29  C   UNL A   1      33.314  30.080  27.327  1.00  0.00     0.116 C 
BRANCH  29  30
ATOM     30  N   UNL A   1      33.633  31.487  27.656  1.00  0.00    -0.352 N 
ATOM     31  C   UNL A   1      34.469  31.960  28.637  1.00  0.00     0.251 C 
ATOM     32  H   UNL A   1      33.191  32.170  27.102  1.00  0.00     0.163 HD
ATOM     33  O   UNL A   1      34.328  33.063  29.147  1.00  0.00    -0.269 OA
BRANCH  31  34
ATOM     34  C   UNL A   1      35.664  31.156  28.879  1.00  0.00     0.039 A 
ATOM     35  C   UNL A   1      35.673  29.907  29.499  1.00  0.00     0.014 A 
ATOM     36  C   UNL A   1      36.851  31.822  28.600  1.00  0.00     0.014 A 
ATOM     37  C   UNL A   1      36.904  29.421  29.913  1.00  0.00     0.010 A 
ATOM     38  C   UNL A   1      38.005  31.166  28.597  1.00  0.00     0.010 A 
ATOM     39  C   UNL A   1      38.037  30.119  29.492  1.00  0.00    -0.014 A 
BRANCH  39  40
ATOM     40  C   UNL A   1      39.407  29.929  29.889  1.00  0.00     0.031 A 
ATOM     41  C   UNL A   1      39.985  28.761  29.236  1.00  0.00     0.074 A 
ATOM     42  C   UNL A   1      39.925  31.031  30.498  1.00  0.00     0.049 A 
ATOM     43  N   UNL A   1      40.642  27.812  29.798  1.00  0.00    -0.248 NA
ATOM     44  C   UNL A   1      39.640  28.448  27.831  1.00  0.00     0.031 C 
ATOM     45  C   UNL A   1      41.269  31.522  30.725  1.00  0.00     0.029 A 
ATOM     46  N   UNL A   1      39.144  32.018  31.133  1.00  0.00    -0.354 N 
ATOM     47  C   UNL A   1      41.271  27.197  28.735  1.00  0.00     0.074 A 
ATOM     48  C   UNL A   1      40.374  27.355  27.621  1.00  0.00     0.031 C 
ATOM     49  C   UNL A   1      41.242  32.408  31.747  1.00  0.00     0.029 A 
ATOM     50  C   UNL A   1      39.868  32.516  32.222  1.00  0.00     0.049 A 
ATOM     51  H   UNL A   1      38.243  32.308  30.858  1.00  0.00     0.167 HD
ATOM     52  C   UNL A   1      42.638  27.151  28.733  1.00  0.00     0.037 A 
ATOM     53  C   UNL A   1      39.390  32.181  33.458  1.00  0.00     0.037 A 
ATOM     54  C   UNL A   1      43.150  27.926  29.874  1.00  0.00     0.049 A 
ATOM     55  C   UNL A   1      40.201  31.017  33.977  1.00  0.00     0.074 A 
ATOM     56  C   UNL A   1      43.755  29.168  29.979  1.00  0.00     0.029 A 
ATOM     57  N   UNL A   1      42.717  27.604  31.153  1.00  0.00    -0.354 N 
ATOM     58  N   UNL A   1      40.821  30.162  33.206  1.00  0.00    -0.248 NA
ATOM     59  C   UNL A   1      40.504  30.824  35.389  1.00  0.00     0.031 C 
ATOM     60  C   UNL A   1      43.648  29.594  31.337  1.00  0.00     0.029 A 
ATOM     61  C   UNL A   1      42.919  28.645  32.035  1.00  0.00     0.049 A 
ATOM     62  H   UNL A   1      42.314  26.740  31.401  1.00  0.00     0.167 HD
ATOM     63  C   UNL A   1      41.658  29.393  33.960  1.00  0.00     0.074 A 
ATOM     64  C   UNL A   1      41.405  29.828  35.323  1.00  0.00     0.031 C 
ATOM     65  C   UNL A   1      42.525  28.482  33.428  1.00  0.00     0.037 A 
BRANCH  52  66
ATOM     66  C   UNL A   1      43.508  26.686  27.589  1.00  0.00     0.057 A 
ATOM     67  C   UNL A   1      43.921  25.341  27.516  1.00  0.00     0.134 A 
ATOM     68  C   UNL A   1      43.889  27.466  26.479  1.00  0.00     0.134 A 
ATOM     69  F   UNL A   1      43.585  24.449  28.457  1.00  0.00    -0.206 F 
ATOM     70  C   UNL A   1      44.667  24.824  26.450  1.00  0.00     0.040 A 
ATOM     71  C   UNL A   1      44.665  26.970  25.421  1.00  0.00     0.040 A 
ATOM     72  F   UNL A   1      43.478  28.727  26.316  1.00  0.00    -0.206 F 
ATOM     73  C   UNL A   1      45.050  25.640  25.398  1.00  0.00     0.006 A 
ENDBRANCH  52  66
BRANCH  53  74
ATOM     74  C   UNL A   1      37.893  32.361  33.489  1.00  0.00     0.057 A 
ATOM     75  C   UNL A   1      37.436  33.697  33.381  1.00  0.00     0.134 A 
ATOM     76  C   UNL A   1      37.004  31.366  33.068  1.00  0.00     0.134 A 
ATOM     77  F   UNL A   1      38.212  34.706  33.808  1.00  0.00    -0.206 F 
ATOM     78  C   UNL A   1      36.277  34.034  32.674  1.00  0.00     0.040 A 
ATOM     79  C   UNL A   1      35.816  31.696  32.397  1.00  0.00     0.040 A 
ATOM     80  F   UNL A   1      37.331  30.069  33.165  1.00  0.00    -0.206 F 
ATOM     81  C   UNL A   1      35.487  33.027  32.136  1.00  0.00     0.006 A 
ENDBRANCH  53  74
BRANCH  65  82
ATOM     82  C   UNL A   1      43.115  27.328  34.195  1.00  0.00     0.057 A 
ATOM     83  C   UNL A   1      44.470  27.244  34.543  1.00  0.00     0.134 A 
ATOM     84  C   UNL A   1      42.278  26.360  34.797  1.00  0.00     0.134 A 
ATOM     85  F   UNL A   1      45.359  28.170  34.160  1.00  0.00    -0.206 F 
ATOM     86  C   UNL A   1      44.966  26.230  35.363  1.00  0.00     0.040 A 
ATOM     87  C   UNL A   1      42.749  25.405  35.695  1.00  0.00     0.040 A 
ATOM     88  F   UNL A   1      40.955  26.321  34.577  1.00  0.00    -0.206 F 
ATOM     89  C   UNL A   1      44.104  25.319  35.959  1.00  0.00     0.006 A 
ENDBRANCH  65  82
ENDBRANCH  39  40
ENDBRANCH  31  34
ENDBRANCH  29  30
ENDBRANCH  28  29
ENDBRANCH   1  28
TORSDOF 15
ENDMDL
