MODEL 1
REMARK VINA RESULT:     -13.1      0.000      0.000
REMARK SMILES Cc1c(Cl)cccc1NC(=O)C[C@](C)(C(=O)NCCCCNC(=O)c1ccc(-c2c3nc(c(-c4c(F)cccc4F)c4ccc([nH]4)c(-c4c(F)cccc4F)c4nc(c(-c5c(F)cccc5F)c5ccc2[nH]5)C=C4)C=C3)cc1)c1ccccc1
REMARK SMILES IDX 19 1 18 2 17 3 15 4 16 5 13 7 14 8 12 9 10 10 9 11 11 13
REMARK SMILES IDX 8 14 1 15 2 16 3 17 4 18 5 19 7 20 6 21 79 22 80 23 84 24
REMARK SMILES IDX 81 25 83 26 82 27 20 28 21 29 22 30 23 31 24 33 25 34 26 35
REMARK SMILES IDX 78 36 27 37 77 38 28 39 29 40 30 41 71 42 31 43 76 44 70 45
REMARK SMILES IDX 72 46 32 47 75 48 69 49 68 50 33 52 59 53 42 54 58 55 43 56
REMARK SMILES IDX 46 57 57 58 73 59 44 60 45 61 56 63 74 64 47 65 34 66 35 67
REMARK SMILES IDX 40 68 36 69 37 70 39 71 41 72 38 73 60 74 61 75 66 76 62 77
REMARK SMILES IDX 63 78 65 79 67 80 64 81 48 82 49 83 54 84 50 85 51 86 53 87
REMARK SMILES IDX 55 88 52 89
REMARK H PARENT 17 6 9 12 22 32 72 51 46 62
REMARK Flexibility Score: inf
ROOT
ATOM      1  C   UNL A   1      38.389  22.421  25.679  1.00  0.00     0.023 C 
ENDROOT
BRANCH   1   2
ATOM      2  C   UNL A   1      36.995  22.955  24.814  1.00  0.00     0.116 C 
BRANCH   2   3
ATOM      3  N   UNL A   1      35.081  22.136  24.604  1.00  0.00    -0.355 N 
ATOM      4  C   UNL A   1      33.652  22.218  24.476  1.00  0.00     0.230 C 
ATOM      5  O   UNL A   1      33.200  21.071  24.300  1.00  0.00    -0.274 OA
ATOM      6  H   UNL A   1      35.253  21.167  24.582  1.00  0.00     0.163 HD
BRANCH   4   7
ATOM      7  C   UNL A   1      32.632  23.475  24.596  1.00  0.00     0.080 C 
ATOM      8  C   UNL A   1      31.273  23.017  23.940  1.00  0.00     0.027 C 
BRANCH   7   9
ATOM      9  C   UNL A   1      32.444  24.089  26.030  1.00  0.00     0.121 C 
BRANCH   9  10
ATOM     10  C   UNL A   1      31.048  24.227  26.609  1.00  0.00     0.225 C 
ATOM     11  N   UNL A   1      30.366  25.404  26.526  1.00  0.00    -0.326 N 
ATOM     12  H   UNL A   1      29.645  25.569  27.175  1.00  0.00     0.169 HD
ATOM     13  O   UNL A   1      30.513  23.290  27.209  1.00  0.00    -0.275 OA
BRANCH  11  14
ATOM     14  C   UNL A   1      30.631  26.384  25.573  1.00  0.00     0.045 A 
ATOM     15  C   UNL A   1      32.458  27.740  27.338  1.00  0.00     0.048 C 
ATOM     16  C   UNL A   1      31.444  27.860  26.236  1.00  0.00    -0.009 A 
ATOM     17  C   UNL A   1      31.304  29.424  25.350  1.00  0.00     0.046 A 
ATOM     18  Cl  UNL A   1      32.151  30.818  25.893  1.00  0.00    -0.084 Cl
ATOM     19  C   UNL A   1      30.269  29.554  23.884  1.00  0.00     0.021 A 
ATOM     20  C   UNL A   1      29.684  26.467  24.006  1.00  0.00     0.026 A 
ATOM     21  C   UNL A   1      29.477  28.076  23.188  1.00  0.00     0.004 A 
ENDBRANCH  11  14
ENDBRANCH   9  10
ENDBRANCH   7   9
BRANCH   7  22
ATOM     22  C   UNL A   1      32.968  24.742  23.706  1.00  0.00    -0.032 A 
ATOM     23  C   UNL A   1      33.732  25.791  24.302  1.00  0.00     0.005 A 
ATOM     24  C   UNL A   1      32.574  24.934  22.382  1.00  0.00     0.005 A 
ATOM     25  C   UNL A   1      33.954  27.011  23.671  1.00  0.00     0.000 A 
ATOM     26  C   UNL A   1      32.815  26.158  21.737  1.00  0.00     0.000 A 
ATOM     27  C   UNL A   1      33.477  27.201  22.387  1.00  0.00     0.000 A 
ENDBRANCH   7  22
ENDBRANCH   4   7
ENDBRANCH   2   3
ENDBRANCH   1   2
BRANCH   1  28
ATOM     28  C   UNL A   1      38.804  20.974  25.409  1.00  0.00     0.023 C 
BRANCH  28  29
ATOM     29  C   UNL A   1      39.637  20.345  26.503  1.00  0.00     0.116 C 
BRANCH  29  30
ATOM     30  N   UNL A   1      40.630  19.420  25.975  1.00  0.00    -0.352 N 
ATOM     31  C   UNL A   1      41.958  19.718  25.786  1.00  0.00     0.251 C 
ATOM     32  H   UNL A   1      40.327  18.515  25.736  1.00  0.00     0.163 HD
ATOM     33  O   UNL A   1      42.719  18.994  25.165  1.00  0.00    -0.269 OA
BRANCH  31  34
ATOM     34  C   UNL A   1      42.397  20.991  26.375  1.00  0.00     0.039 A 
ATOM     35  C   UNL A   1      42.552  22.099  25.545  1.00  0.00     0.014 A 
ATOM     36  C   UNL A   1      42.338  21.114  27.769  1.00  0.00     0.014 A 
ATOM     37  C   UNL A   1      42.658  23.357  26.128  1.00  0.00     0.010 A 
ATOM     38  C   UNL A   1      42.326  22.379  28.331  1.00  0.00     0.010 A 
ATOM     39  C   UNL A   1      42.536  23.506  27.523  1.00  0.00    -0.014 A 
BRANCH  39  40
ATOM     40  C   UNL A   1      42.740  24.831  28.154  1.00  0.00     0.031 A 
ATOM     41  C   UNL A   1      44.130  25.230  28.568  1.00  0.00     0.074 A 
ATOM     42  C   UNL A   1      41.703  25.673  28.328  1.00  0.00     0.049 A 
ATOM     43  N   UNL A   1      44.549  26.354  29.088  1.00  0.00    -0.248 NA
ATOM     44  C   UNL A   1      45.193  24.223  28.396  1.00  0.00     0.031 C 
ATOM     45  C   UNL A   1      40.306  25.380  28.002  1.00  0.00     0.029 A 
ATOM     46  N   UNL A   1      41.671  26.957  28.807  1.00  0.00    -0.354 N 
ATOM     47  C   UNL A   1      45.910  26.183  29.302  1.00  0.00     0.074 A 
ATOM     48  C   UNL A   1      46.235  24.824  28.944  1.00  0.00     0.031 C 
ATOM     49  C   UNL A   1      39.561  26.473  28.241  1.00  0.00     0.029 A 
ATOM     50  C   UNL A   1      40.420  27.525  28.776  1.00  0.00     0.049 A 
ATOM     51  H   UNL A   1      42.468  27.428  29.140  1.00  0.00     0.167 HD
ATOM     52  C   UNL A   1      46.821  27.090  29.719  1.00  0.00     0.037 A 
ATOM     53  C   UNL A   1      40.018  28.760  29.137  1.00  0.00     0.037 A 
ATOM     54  C   UNL A   1      46.496  28.447  30.058  1.00  0.00     0.049 A 
ATOM     55  C   UNL A   1      41.045  29.738  29.644  1.00  0.00     0.074 A 
ATOM     56  C   UNL A   1      47.345  29.461  30.460  1.00  0.00     0.029 A 
ATOM     57  N   UNL A   1      45.212  28.975  30.043  1.00  0.00    -0.354 N 
ATOM     58  N   UNL A   1      42.342  29.586  29.774  1.00  0.00    -0.248 NA
ATOM     59  C   UNL A   1      40.554  31.062  30.051  1.00  0.00     0.031 C 
ATOM     60  C   UNL A   1      46.568  30.584  30.753  1.00  0.00     0.029 A 
ATOM     61  C   UNL A   1      45.243  30.294  30.461  1.00  0.00     0.049 A 
ATOM     62  H   UNL A   1      44.402  28.485  29.774  1.00  0.00     0.167 HD
ATOM     63  C   UNL A   1      42.823  30.802  30.244  1.00  0.00     0.074 A 
ATOM     64  C   UNL A   1      41.682  31.685  30.356  1.00  0.00     0.031 C 
ATOM     65  C   UNL A   1      44.095  31.158  30.557  1.00  0.00     0.037 A 
BRANCH  52  66
ATOM     66  C   UNL A   1      48.248  26.636  29.831  1.00  0.00     0.057 A 
ATOM     67  C   UNL A   1      49.167  26.808  28.785  1.00  0.00     0.134 A 
ATOM     68  C   UNL A   1      48.713  26.033  31.005  1.00  0.00     0.134 A 
ATOM     69  F   UNL A   1      48.783  27.359  27.624  1.00  0.00    -0.206 F 
ATOM     70  C   UNL A   1      50.488  26.369  28.894  1.00  0.00     0.040 A 
ATOM     71  C   UNL A   1      50.040  25.623  31.138  1.00  0.00     0.040 A 
ATOM     72  F   UNL A   1      47.889  25.837  32.044  1.00  0.00    -0.206 F 
ATOM     73  C   UNL A   1      50.929  25.783  30.077  1.00  0.00     0.006 A 
ENDBRANCH  52  66
BRANCH  53  74
ATOM     74  C   UNL A   1      38.588  29.149  29.026  1.00  0.00     0.057 A 
ATOM     75  C   UNL A   1      38.048  29.607  27.818  1.00  0.00     0.134 A 
ATOM     76  C   UNL A   1      37.731  29.105  30.133  1.00  0.00     0.134 A 
ATOM     77  F   UNL A   1      38.818  29.690  26.722  1.00  0.00    -0.206 F 
ATOM     78  C   UNL A   1      36.722  30.037  27.722  1.00  0.00     0.040 A 
ATOM     79  C   UNL A   1      36.395  29.500  30.045  1.00  0.00     0.040 A 
ATOM     80  F   UNL A   1      38.180  28.669  31.320  1.00  0.00    -0.206 F 
ATOM     81  C   UNL A   1      35.890  29.980  28.838  1.00  0.00     0.006 A 
ENDBRANCH  53  74
BRANCH  65  82
ATOM     82  C   UNL A   1      44.325  32.572  31.007  1.00  0.00     0.057 A 
ATOM     83  C   UNL A   1      44.570  33.612  30.102  1.00  0.00     0.134 A 
ATOM     84  C   UNL A   1      44.251  32.904  32.367  1.00  0.00     0.134 A 
ATOM     85  F   UNL A   1      44.660  33.361  28.787  1.00  0.00    -0.206 F 
ATOM     86  C   UNL A   1      44.767  34.924  30.535  1.00  0.00     0.040 A 
ATOM     87  C   UNL A   1      44.410  34.217  32.809  1.00  0.00     0.040 A 
ATOM     88  F   UNL A   1      44.004  31.960  33.288  1.00  0.00    -0.206 F 
ATOM     89  C   UNL A   1      44.678  35.230  31.892  1.00  0.00     0.006 A 
ENDBRANCH  65  82
ENDBRANCH  39  40
ENDBRANCH  31  34
ENDBRANCH  29  30
ENDBRANCH  28  29
ENDBRANCH   1  28
TORSDOF 15
ENDMDL
MODEL 2
REMARK VINA RESULT:     -12.9      4.196      9.213
REMARK SMILES Cc1c(Cl)cccc1NC(=O)C[C@](C)(C(=O)NCCCCNC(=O)c1ccc(-c2c3nc(c(-c4c(F)cccc4F)c4ccc([nH]4)c(-c4c(F)cccc4F)c4nc(c(-c5c(F)cccc5F)c5ccc2[nH]5)C=C4)C=C3)cc1)c1ccccc1
REMARK SMILES IDX 19 1 18 2 17 3 15 4 16 5 13 7 14 8 12 9 10 10 9 11 11 13
REMARK SMILES IDX 8 14 1 15 2 16 3 17 4 18 5 19 7 20 6 21 79 22 80 23 84 24
REMARK SMILES IDX 81 25 83 26 82 27 20 28 21 29 22 30 23 31 24 33 25 34 26 35
REMARK SMILES IDX 78 36 27 37 77 38 28 39 29 40 30 41 71 42 31 43 76 44 70 45
REMARK SMILES IDX 72 46 32 47 75 48 69 49 68 50 33 52 59 53 42 54 58 55 43 56
REMARK SMILES IDX 46 57 57 58 73 59 44 60 45 61 56 63 74 64 47 65 34 66 35 67
REMARK SMILES IDX 40 68 36 69 37 70 39 71 41 72 38 73 60 74 61 75 66 76 62 77
REMARK SMILES IDX 63 78 65 79 67 80 64 81 48 82 49 83 54 84 50 85 51 86 53 87
REMARK SMILES IDX 55 88 52 89
REMARK H PARENT 17 6 9 12 22 32 72 51 46 62
REMARK Flexibility Score: inf
ROOT
ATOM      1  C   UNL A   1      32.020  30.490  27.121  1.00  0.00     0.023 C 
ENDROOT
BRANCH   1   2
ATOM      2  C   UNL A   1      33.304  29.750  26.235  1.00  0.00     0.116 C 
BRANCH   2   3
ATOM      3  N   UNL A   1      33.302  28.401  24.637  1.00  0.00    -0.355 N 
ATOM      4  C   UNL A   1      32.667  27.520  23.695  1.00  0.00     0.230 C 
ATOM      5  O   UNL A   1      33.529  27.088  22.907  1.00  0.00    -0.274 OA
ATOM      6  H   UNL A   1      34.255  28.331  24.401  1.00  0.00     0.163 HD
BRANCH   4   7
ATOM      7  C   UNL A   1      31.134  26.999  23.576  1.00  0.00     0.080 C 
ATOM      8  C   UNL A   1      30.993  26.338  22.151  1.00  0.00     0.027 C 
BRANCH   7   9
ATOM      9  C   UNL A   1      30.618  26.072  24.736  1.00  0.00     0.121 C 
BRANCH   9  10
ATOM     10  C   UNL A   1      31.274  26.148  26.102  1.00  0.00     0.225 C 
ATOM     11  N   UNL A   1      32.116  25.166  26.533  1.00  0.00    -0.326 N 
ATOM     12  H   UNL A   1      32.250  25.063  27.503  1.00  0.00     0.169 HD
ATOM     13  O   UNL A   1      31.026  27.078  26.875  1.00  0.00    -0.275 OA
BRANCH  11  14
ATOM     14  C   UNL A   1      32.797  24.304  25.678  1.00  0.00     0.045 A 
ATOM     15  C   UNL A   1      30.654  22.383  25.755  1.00  0.00     0.048 C 
ATOM     16  C   UNL A   1      32.133  22.620  25.643  1.00  0.00    -0.009 A 
ATOM     17  C   UNL A   1      33.195  21.257  25.128  1.00  0.00     0.046 A 
ATOM     18  Cl  UNL A   1      32.567  19.663  24.980  1.00  0.00    -0.084 Cl
ATOM     19  C   UNL A   1      34.934  21.541  24.764  1.00  0.00     0.021 A 
ATOM     20  C   UNL A   1      34.530  24.632  25.179  1.00  0.00     0.026 A 
ATOM     21  C   UNL A   1      35.605  23.229  24.760  1.00  0.00     0.004 A 
ENDBRANCH  11  14
ENDBRANCH   9  10
ENDBRANCH   7   9
BRANCH   7  22
ATOM     22  C   UNL A   1      30.014  28.116  23.487  1.00  0.00    -0.032 A 
ATOM     23  C   UNL A   1      28.657  27.691  23.365  1.00  0.00     0.005 A 
ATOM     24  C   UNL A   1      30.236  29.494  23.510  1.00  0.00     0.005 A 
ATOM     25  C   UNL A   1      27.610  28.576  23.126  1.00  0.00     0.000 A 
ATOM     26  C   UNL A   1      29.177  30.389  23.288  1.00  0.00     0.000 A 
ATOM     27  C   UNL A   1      27.877  29.933  23.070  1.00  0.00     0.000 A 
ENDBRANCH   7  22
ENDBRANCH   4   7
ENDBRANCH   2   3
ENDBRANCH   1   2
BRANCH   1  28
ATOM     28  C   UNL A   1      31.845  31.989  26.878  1.00  0.00     0.023 C 
BRANCH  28  29
ATOM     29  C   UNL A   1      32.933  32.853  27.473  1.00  0.00     0.116 C 
BRANCH  29  30
ATOM     30  N   UNL A   1      32.475  34.210  27.738  1.00  0.00    -0.352 N 
ATOM     31  C   UNL A   1      32.964  35.024  28.731  1.00  0.00     0.251 C 
ATOM     32  H   UNL A   1      31.761  34.570  27.163  1.00  0.00     0.163 HD
ATOM     33  O   UNL A   1      32.431  36.074  29.051  1.00  0.00    -0.269 OA
BRANCH  31  34
ATOM     34  C   UNL A   1      34.177  34.528  29.397  1.00  0.00     0.039 A 
ATOM     35  C   UNL A   1      34.045  33.624  30.448  1.00  0.00     0.014 A 
ATOM     36  C   UNL A   1      35.402  34.738  28.752  1.00  0.00     0.014 A 
ATOM     37  C   UNL A   1      35.170  32.922  30.867  1.00  0.00     0.010 A 
ATOM     38  C   UNL A   1      36.486  33.950  29.098  1.00  0.00     0.010 A 
ATOM     39  C   UNL A   1      36.395  33.073  30.190  1.00  0.00    -0.014 A 
BRANCH  39  40
ATOM     40  C   UNL A   1      37.614  32.398  30.689  1.00  0.00     0.031 A 
ATOM     41  C   UNL A   1      38.237  32.882  31.971  1.00  0.00     0.074 A 
ATOM     42  C   UNL A   1      38.140  31.352  30.023  1.00  0.00     0.049 A 
ATOM     43  N   UNL A   1      39.270  32.411  32.619  1.00  0.00    -0.248 NA
ATOM     44  C   UNL A   1      37.632  34.070  32.600  1.00  0.00     0.031 C 
ATOM     45  C   UNL A   1      37.646  30.820  28.752  1.00  0.00     0.029 A 
ATOM     46  N   UNL A   1      39.196  30.537  30.337  1.00  0.00    -0.354 N 
ATOM     47  C   UNL A   1      39.432  33.244  33.719  1.00  0.00     0.074 A 
ATOM     48  C   UNL A   1      38.456  34.299  33.607  1.00  0.00     0.031 C 
ATOM     49  C   UNL A   1      38.367  29.734  28.421  1.00  0.00     0.029 A 
ATOM     50  C   UNL A   1      39.397  29.522  29.433  1.00  0.00     0.049 A 
ATOM     51  H   UNL A   1      39.758  30.666  31.135  1.00  0.00     0.167 HD
ATOM     52  C   UNL A   1      40.290  33.118  34.755  1.00  0.00     0.037 A 
ATOM     53  C   UNL A   1      40.311  28.532  29.429  1.00  0.00     0.037 A 
ATOM     54  C   UNL A   1      41.250  32.056  34.869  1.00  0.00     0.049 A 
ATOM     55  C   UNL A   1      41.288  28.440  30.572  1.00  0.00     0.074 A 
ATOM     56  C   UNL A   1      42.146  31.812  35.893  1.00  0.00     0.029 A 
ATOM     57  N   UNL A   1      41.443  31.064  33.918  1.00  0.00    -0.354 N 
ATOM     58  N   UNL A   1      41.384  29.192  31.643  1.00  0.00    -0.248 NA
ATOM     59  C   UNL A   1      42.281  27.359  30.508  1.00  0.00     0.031 C 
ATOM     60  C   UNL A   1      42.927  30.712  35.531  1.00  0.00     0.029 A 
ATOM     61  C   UNL A   1      42.467  30.224  34.317  1.00  0.00     0.049 A 
ATOM     62  H   UNL A   1      40.926  30.972  33.085  1.00  0.00     0.167 HD
ATOM     63  C   UNL A   1      42.423  28.656  32.393  1.00  0.00     0.074 A 
ATOM     64  C   UNL A   1      42.910  27.503  31.665  1.00  0.00     0.031 C 
ATOM     65  C   UNL A   1      42.931  29.077  33.579  1.00  0.00     0.037 A 
BRANCH  52  66
ATOM     66  C   UNL A   1      40.225  34.157  35.837  1.00  0.00     0.057 A 
ATOM     67  C   UNL A   1      40.997  35.327  35.792  1.00  0.00     0.134 A 
ATOM     68  C   UNL A   1      39.368  33.993  36.931  1.00  0.00     0.134 A 
ATOM     69  F   UNL A   1      41.856  35.538  34.783  1.00  0.00    -0.206 F 
ATOM     70  C   UNL A   1      40.940  36.280  36.810  1.00  0.00     0.040 A 
ATOM     71  C   UNL A   1      39.276  34.956  37.937  1.00  0.00     0.040 A 
ATOM     72  F   UNL A   1      38.601  32.898  37.039  1.00  0.00    -0.206 F 
ATOM     73  C   UNL A   1      40.070  36.099  37.882  1.00  0.00     0.006 A 
ENDBRANCH  52  66
BRANCH  53  74
ATOM     74  C   UNL A   1      40.344  27.542  28.320  1.00  0.00     0.057 A 
ATOM     75  C   UNL A   1      39.655  26.325  28.406  1.00  0.00     0.134 A 
ATOM     76  C   UNL A   1      41.093  27.771  27.159  1.00  0.00     0.134 A 
ATOM     77  F   UNL A   1      38.932  26.035  29.499  1.00  0.00    -0.206 F 
ATOM     78  C   UNL A   1      39.734  25.363  27.397  1.00  0.00     0.040 A 
ATOM     79  C   UNL A   1      41.155  26.833  26.127  1.00  0.00     0.040 A 
ATOM     80  F   UNL A   1      41.770  28.919  27.006  1.00  0.00    -0.206 F 
ATOM     81  C   UNL A   1      40.484  25.618  26.250  1.00  0.00     0.006 A 
ENDBRANCH  53  74
BRANCH  65  82
ATOM     82  C   UNL A   1      44.041  28.265  34.182  1.00  0.00     0.057 A 
ATOM     83  C   UNL A   1      43.793  27.152  34.994  1.00  0.00     0.134 A 
ATOM     84  C   UNL A   1      45.379  28.576  33.903  1.00  0.00     0.134 A 
ATOM     85  F   UNL A   1      42.535  26.804  35.306  1.00  0.00    -0.206 F 
ATOM     86  C   UNL A   1      44.835  26.398  35.536  1.00  0.00     0.040 A 
ATOM     87  C   UNL A   1      46.428  27.809  34.409  1.00  0.00     0.040 A 
ATOM     88  F   UNL A   1      45.689  29.621  33.120  1.00  0.00    -0.206 F 
ATOM     89  C   UNL A   1      46.158  26.721  35.235  1.00  0.00     0.006 A 
ENDBRANCH  65  82
ENDBRANCH  39  40
ENDBRANCH  31  34
ENDBRANCH  29  30
ENDBRANCH  28  29
ENDBRANCH   1  28
TORSDOF 15
ENDMDL
MODEL 3
REMARK VINA RESULT:     -12.9      1.073      2.269
REMARK SMILES Cc1c(Cl)cccc1NC(=O)C[C@](C)(C(=O)NCCCCNC(=O)c1ccc(-c2c3nc(c(-c4c(F)cccc4F)c4ccc([nH]4)c(-c4c(F)cccc4F)c4nc(c(-c5c(F)cccc5F)c5ccc2[nH]5)C=C4)C=C3)cc1)c1ccccc1
REMARK SMILES IDX 19 1 18 2 17 3 15 4 16 5 13 7 14 8 12 9 10 10 9 11 11 13
REMARK SMILES IDX 8 14 1 15 2 16 3 17 4 18 5 19 7 20 6 21 79 22 80 23 84 24
REMARK SMILES IDX 81 25 83 26 82 27 20 28 21 29 22 30 23 31 24 33 25 34 26 35
REMARK SMILES IDX 78 36 27 37 77 38 28 39 29 40 30 41 71 42 31 43 76 44 70 45
REMARK SMILES IDX 72 46 32 47 75 48 69 49 68 50 33 52 59 53 42 54 58 55 43 56
REMARK SMILES IDX 46 57 57 58 73 59 44 60 45 61 56 63 74 64 47 65 34 66 35 67
REMARK SMILES IDX 40 68 36 69 37 70 39 71 41 72 38 73 60 74 61 75 66 76 62 77
REMARK SMILES IDX 63 78 65 79 67 80 64 81 48 82 49 83 54 84 50 85 51 86 53 87
REMARK SMILES IDX 55 88 52 89
REMARK H PARENT 17 6 9 12 22 32 72 51 46 62
REMARK Flexibility Score: inf
ROOT
ATOM      1  C   UNL A   1      38.996  22.499  26.352  1.00  0.00     0.023 C 
ENDROOT
BRANCH   1   2
ATOM      2  C   UNL A   1      37.511  23.207  25.828  1.00  0.00     0.116 C 
BRANCH   2   3
ATOM      3  N   UNL A   1      35.573  23.125  26.610  1.00  0.00    -0.355 N 
ATOM      4  C   UNL A   1      34.163  23.405  26.589  1.00  0.00     0.230 C 
ATOM      5  O   UNL A   1      33.629  22.843  27.564  1.00  0.00    -0.274 OA
ATOM      6  H   UNL A   1      35.689  22.622  27.447  1.00  0.00     0.163 HD
BRANCH   4   7
ATOM      7  C   UNL A   1      33.264  24.332  25.605  1.00  0.00     0.080 C 
ATOM      8  C   UNL A   1      34.117  24.562  24.299  1.00  0.00     0.027 C 
BRANCH   7   9
ATOM      9  C   UNL A   1      31.806  23.825  25.305  1.00  0.00     0.121 C 
BRANCH   9  10
ATOM     10  C   UNL A   1      31.517  23.110  23.999  1.00  0.00     0.225 C 
ATOM     11  N   UNL A   1      30.823  23.726  23.000  1.00  0.00    -0.326 N 
ATOM     12  H   UNL A   1      30.367  23.161  22.335  1.00  0.00     0.169 HD
ATOM     13  O   UNL A   1      31.863  21.938  23.825  1.00  0.00    -0.275 OA
BRANCH  11  14
ATOM     14  C   UNL A   1      30.724  25.108  22.868  1.00  0.00     0.045 A 
ATOM     15  C   UNL A   1      33.027  25.204  21.144  1.00  0.00     0.048 C 
ATOM     16  C   UNL A   1      32.210  25.896  22.197  1.00  0.00    -0.009 A 
ATOM     17  C   UNL A   1      32.516  27.641  22.528  1.00  0.00     0.046 A 
ATOM     18  Cl  UNL A   1      33.859  28.447  21.818  1.00  0.00    -0.084 Cl
ATOM     19  C   UNL A   1      31.423  28.572  23.614  1.00  0.00     0.021 A 
ATOM     20  C   UNL A   1      29.527  26.075  23.865  1.00  0.00     0.026 A 
ATOM     21  C   UNL A   1      29.911  27.805  24.265  1.00  0.00     0.004 A 
ENDBRANCH  11  14
ENDBRANCH   9  10
ENDBRANCH   7   9
BRANCH   7  22
ATOM     22  C   UNL A   1      33.032  25.831  26.066  1.00  0.00    -0.032 A 
ATOM     23  C   UNL A   1      34.045  26.788  25.753  1.00  0.00     0.005 A 
ATOM     24  C   UNL A   1      31.922  26.305  26.765  1.00  0.00     0.005 A 
ATOM     25  C   UNL A   1      34.022  28.091  26.238  1.00  0.00     0.000 A 
ATOM     26  C   UNL A   1      31.889  27.626  27.238  1.00  0.00     0.000 A 
ATOM     27  C   UNL A   1      32.945  28.507  27.001  1.00  0.00     0.000 A 
ENDBRANCH   7  22
ENDBRANCH   4   7
ENDBRANCH   2   3
ENDBRANCH   1   2
BRANCH   1  28
ATOM     28  C   UNL A   1      39.291  21.113  25.777  1.00  0.00     0.023 C 
BRANCH  28  29
ATOM     29  C   UNL A   1      40.006  20.179  26.726  1.00  0.00     0.116 C 
BRANCH  29  30
ATOM     30  N   UNL A   1      40.992  19.352  26.045  1.00  0.00    -0.352 N 
ATOM     31  C   UNL A   1      42.267  19.753  25.727  1.00  0.00     0.251 C 
ATOM     32  H   UNL A   1      40.725  18.439  25.794  1.00  0.00     0.163 HD
ATOM     33  O   UNL A   1      43.000  19.113  24.990  1.00  0.00    -0.269 OA
BRANCH  31  34
ATOM     34  C   UNL A   1      42.685  21.027  26.331  1.00  0.00     0.039 A 
ATOM     35  C   UNL A   1      42.850  22.139  25.508  1.00  0.00     0.014 A 
ATOM     36  C   UNL A   1      42.593  21.145  27.723  1.00  0.00     0.014 A 
ATOM     37  C   UNL A   1      42.935  23.395  26.097  1.00  0.00     0.010 A 
ATOM     38  C   UNL A   1      42.560  22.408  28.289  1.00  0.00     0.010 A 
ATOM     39  C   UNL A   1      42.781  23.539  27.489  1.00  0.00    -0.014 A 
BRANCH  39  40
ATOM     40  C   UNL A   1      42.961  24.863  28.128  1.00  0.00     0.031 A 
ATOM     41  C   UNL A   1      44.345  25.287  28.538  1.00  0.00     0.074 A 
ATOM     42  C   UNL A   1      41.908  25.683  28.314  1.00  0.00     0.049 A 
ATOM     43  N   UNL A   1      44.744  26.416  29.064  1.00  0.00    -0.248 NA
ATOM     44  C   UNL A   1      45.427  24.303  28.354  1.00  0.00     0.031 C 
ATOM     45  C   UNL A   1      40.516  25.364  27.993  1.00  0.00     0.029 A 
ATOM     46  N   UNL A   1      41.853  26.963  28.802  1.00  0.00    -0.354 N 
ATOM     47  C   UNL A   1      46.109  26.270  29.270  1.00  0.00     0.074 A 
ATOM     48  C   UNL A   1      46.459  24.921  28.901  1.00  0.00     0.031 C 
ATOM     49  C   UNL A   1      39.751  26.440  28.243  1.00  0.00     0.029 A 
ATOM     50  C   UNL A   1      40.591  27.506  28.781  1.00  0.00     0.049 A 
ATOM     51  H   UNL A   1      42.642  27.447  29.135  1.00  0.00     0.167 HD
ATOM     52  C   UNL A   1      47.004  27.192  29.689  1.00  0.00     0.037 A 
ATOM     53  C   UNL A   1      40.166  28.729  29.153  1.00  0.00     0.037 A 
ATOM     54  C   UNL A   1      46.653  28.540  30.040  1.00  0.00     0.049 A 
ATOM     55  C   UNL A   1      41.176  29.724  29.662  1.00  0.00     0.074 A 
ATOM     56  C   UNL A   1      47.484  29.568  30.445  1.00  0.00     0.029 A 
ATOM     57  N   UNL A   1      45.360  29.043  30.035  1.00  0.00    -0.354 N 
ATOM     58  N   UNL A   1      42.476  29.598  29.785  1.00  0.00    -0.248 NA
ATOM     59  C   UNL A   1      40.661  31.035  30.081  1.00  0.00     0.031 C 
ATOM     60  C   UNL A   1      46.686  30.673  30.750  1.00  0.00     0.029 A 
ATOM     61  C   UNL A   1      45.366  30.359  30.462  1.00  0.00     0.049 A 
ATOM     62  H   UNL A   1      44.558  28.538  29.767  1.00  0.00     0.167 HD
ATOM     63  C   UNL A   1      42.936  30.820  30.261  1.00  0.00     0.074 A 
ATOM     64  C   UNL A   1      41.777  31.679  30.385  1.00  0.00     0.031 C 
ATOM     65  C   UNL A   1      44.201  31.199  30.570  1.00  0.00     0.037 A 
BRANCH  52  66
ATOM     66  C   UNL A   1      48.440  26.766  29.791  1.00  0.00     0.057 A 
ATOM     67  C   UNL A   1      48.961  26.178  30.953  1.00  0.00     0.134 A 
ATOM     68  C   UNL A   1      49.311  26.932  28.708  1.00  0.00     0.134 A 
ATOM     69  F   UNL A   1      48.187  26.008  32.036  1.00  0.00    -0.206 F 
ATOM     70  C   UNL A   1      50.301  25.798  31.043  1.00  0.00     0.040 A 
ATOM     71  C   UNL A   1      50.643  26.523  28.773  1.00  0.00     0.040 A 
ATOM     72  F   UNL A   1      48.880  27.488  27.566  1.00  0.00    -0.206 F 
ATOM     73  C   UNL A   1      51.144  25.963  29.946  1.00  0.00     0.006 A 
ENDBRANCH  52  66
BRANCH  53  74
ATOM     74  C   UNL A   1      38.728  29.091  29.052  1.00  0.00     0.057 A 
ATOM     75  C   UNL A   1      38.172  29.546  27.849  1.00  0.00     0.134 A 
ATOM     76  C   UNL A   1      37.878  29.023  30.163  1.00  0.00     0.134 A 
ATOM     77  F   UNL A   1      38.935  29.651  26.750  1.00  0.00    -0.206 F 
ATOM     78  C   UNL A   1      36.838  29.950  27.763  1.00  0.00     0.040 A 
ATOM     79  C   UNL A   1      36.534  29.391  30.084  1.00  0.00     0.040 A 
ATOM     80  F   UNL A   1      38.342  28.588  31.345  1.00  0.00    -0.206 F 
ATOM     81  C   UNL A   1      36.013  29.869  28.884  1.00  0.00     0.006 A 
ENDBRANCH  53  74
BRANCH  65  82
ATOM     82  C   UNL A   1      44.405  32.614  31.030  1.00  0.00     0.057 A 
ATOM     83  C   UNL A   1      44.399  32.966  32.384  1.00  0.00     0.134 A 
ATOM     84  C   UNL A   1      44.659  33.632  30.099  1.00  0.00     0.134 A 
ATOM     85  F   UNL A   1      44.154  32.041  33.326  1.00  0.00    -0.206 F 
ATOM     86  C   UNL A   1      44.604  34.283  32.797  1.00  0.00     0.040 A 
ATOM     87  C   UNL A   1      44.902  34.945  30.501  1.00  0.00     0.040 A 
ATOM     88  F   UNL A   1      44.694  33.363  28.785  1.00  0.00    -0.206 F 
ATOM     89  C   UNL A   1      44.866  35.275  31.854  1.00  0.00     0.006 A 
ENDBRANCH  65  82
ENDBRANCH  39  40
ENDBRANCH  31  34
ENDBRANCH  29  30
ENDBRANCH  28  29
ENDBRANCH   1  28
TORSDOF 15
ENDMDL
