MODEL 1
REMARK VINA RESULT:     -12.5      0.000      0.000
REMARK SMILES O=C(NCCCCNC(=O)c1ccc(NS(=O)(=O)c2ccc3c(c2)CCC3)cc1Cl)c1ccc(-c2c3nc(c(-c4c(F)cccc4F)c4ccc([nH]4)c(-c4c(F)cccc4F)c4nc(c(-c5c(F)cccc5F)c5ccc2[nH]5)C=C4)C=C3)cc1
REMARK SMILES IDX 6 1 5 2 4 3 3 4 1 5 2 6 31 8 32 9 84 10 33 11 83 12 34 13
REMARK SMILES IDX 35 14 36 15 77 16 37 17 82 18 76 19 78 20 38 21 81 22 75 23
REMARK SMILES IDX 74 24 39 26 65 27 48 28 64 29 49 30 52 31 63 32 79 33 50 34
REMARK SMILES IDX 51 35 62 37 80 38 53 39 40 40 41 41 46 42 42 43 43 44 45 45
REMARK SMILES IDX 47 46 44 47 66 48 67 49 72 50 68 51 69 52 71 53 73 54 70 55
REMARK SMILES IDX 54 56 55 57 60 58 56 59 57 60 59 61 61 62 58 63 7 64 8 65
REMARK SMILES IDX 9 66 10 68 11 69 12 70 29 71 13 72 28 73 30 74 14 75 15 76
REMARK SMILES IDX 16 78 17 79 18 80 19 81 20 82 24 83 21 84 23 85 22 86 25 87
REMARK SMILES IDX 27 88 26 89
REMARK H PARENT 3 7 78 25 52 36 8 67 15 77
REMARK Flexibility Score: inf
ROOT
ATOM      1  C   UNL A   1      32.647  29.579  25.117  1.00  0.00     0.023 C 
ENDROOT
BRANCH   1   2
ATOM      2  C   UNL A   1      33.088  28.309  25.834  1.00  0.00     0.023 C 
BRANCH   2   3
ATOM      3  C   UNL A   1      33.914  28.510  27.095  1.00  0.00     0.116 C 
BRANCH   3   4
ATOM      4  N   UNL A   1      33.846  29.855  27.643  1.00  0.00    -0.352 N 
ATOM      5  O   UNL A   1      34.592  31.693  28.726  1.00  0.00    -0.269 OA
ATOM      6  C   UNL A   1      34.840  30.590  28.251  1.00  0.00     0.251 C 
ATOM      7  H   UNL A   1      32.970  30.302  27.569  1.00  0.00     0.163 HD
BRANCH   6   8
ATOM      8  C   UNL A   1      36.200  30.019  28.372  1.00  0.00     0.039 A 
ATOM      9  C   UNL A   1      36.618  29.426  29.564  1.00  0.00     0.014 A 
ATOM     10  C   UNL A   1      37.081  30.114  27.290  1.00  0.00     0.014 A 
ATOM     11  C   UNL A   1      37.957  29.099  29.735  1.00  0.00     0.010 A 
ATOM     12  C   UNL A   1      38.407  29.689  27.432  1.00  0.00     0.010 A 
ATOM     13  C   UNL A   1      38.867  29.218  28.670  1.00  0.00    -0.014 A 
BRANCH  13  14
ATOM     14  C   UNL A   1      40.273  28.787  28.886  1.00  0.00     0.031 A 
ATOM     15  C   UNL A   1      40.759  27.432  28.450  1.00  0.00     0.074 A 
ATOM     16  C   UNL A   1      41.136  29.675  29.415  1.00  0.00     0.049 A 
ATOM     17  N   UNL A   1      41.976  26.947  28.483  1.00  0.00    -0.248 NA
ATOM     18  C   UNL A   1      39.758  26.495  27.916  1.00  0.00     0.031 C 
ATOM     19  C   UNL A   1      40.776  31.010  29.899  1.00  0.00     0.029 A 
ATOM     20  N   UNL A   1      42.494  29.612  29.596  1.00  0.00    -0.354 N 
ATOM     21  C   UNL A   1      41.887  25.651  27.991  1.00  0.00     0.074 A 
ATOM     22  C   UNL A   1      40.491  25.413  27.688  1.00  0.00     0.031 C 
ATOM     23  C   UNL A   1      41.890  31.665  30.254  1.00  0.00     0.029 A 
ATOM     24  C   UNL A   1      43.035  30.780  30.077  1.00  0.00     0.049 A 
ATOM     25  H   UNL A   1      43.028  28.809  29.401  1.00  0.00     0.167 HD
ATOM     26  C   UNL A   1      42.880  24.748  27.801  1.00  0.00     0.037 A 
ATOM     27  C   UNL A   1      44.311  31.107  30.345  1.00  0.00     0.037 A 
ATOM     28  C   UNL A   1      44.270  24.992  28.090  1.00  0.00     0.049 A 
ATOM     29  C   UNL A   1      45.390  30.096  30.100  1.00  0.00     0.074 A 
ATOM     30  C   UNL A   1      45.350  24.139  27.926  1.00  0.00     0.029 A 
ATOM     31  N   UNL A   1      44.776  26.180  28.595  1.00  0.00    -0.354 N 
ATOM     32  N   UNL A   1      45.286  28.879  29.625  1.00  0.00    -0.248 NA
ATOM     33  C   UNL A   1      46.762  30.502  30.433  1.00  0.00     0.031 C 
ATOM     34  C   UNL A   1      46.504  24.803  28.358  1.00  0.00     0.029 A 
ATOM     35  C   UNL A   1      46.149  26.080  28.756  1.00  0.00     0.049 A 
ATOM     36  H   UNL A   1      44.239  26.977  28.808  1.00  0.00     0.167 HD
ATOM     37  C   UNL A   1      46.576  28.370  29.607  1.00  0.00     0.074 A 
ATOM     38  C   UNL A   1      47.450  29.424  30.081  1.00  0.00     0.031 C 
ATOM     39  C   UNL A   1      46.998  27.135  29.244  1.00  0.00     0.037 A 
BRANCH  26  40
ATOM     40  C   UNL A   1      42.501  23.401  27.259  1.00  0.00     0.057 A 
ATOM     41  C   UNL A   1      42.574  23.112  25.890  1.00  0.00     0.134 A 
ATOM     42  C   UNL A   1      42.121  22.363  28.119  1.00  0.00     0.134 A 
ATOM     43  F   UNL A   1      42.921  24.065  25.012  1.00  0.00    -0.206 F 
ATOM     44  C   UNL A   1      42.274  21.841  25.396  1.00  0.00     0.040 A 
ATOM     45  C   UNL A   1      41.836  21.082  27.639  1.00  0.00     0.040 A 
ATOM     46  F   UNL A   1      42.037  22.571  29.441  1.00  0.00    -0.206 F 
ATOM     47  C   UNL A   1      41.911  20.819  26.272  1.00  0.00     0.006 A 
ENDBRANCH  26  40
BRANCH  27  48
ATOM     48  C   UNL A   1      44.627  32.453  30.877  1.00  0.00     0.057 A 
ATOM     49  C   UNL A   1      44.923  33.521  30.024  1.00  0.00     0.134 A 
ATOM     50  C   UNL A   1      44.619  32.708  32.254  1.00  0.00     0.134 A 
ATOM     51  F   UNL A   1      44.959  33.334  28.696  1.00  0.00    -0.206 F 
ATOM     52  C   UNL A   1      45.212  34.793  30.520  1.00  0.00     0.040 A 
ATOM     53  C   UNL A   1      44.881  33.979  32.764  1.00  0.00     0.040 A 
ATOM     54  F   UNL A   1      44.333  31.727  33.122  1.00  0.00    -0.206 F 
ATOM     55  C   UNL A   1      45.184  35.026  31.894  1.00  0.00     0.006 A 
ENDBRANCH  27  48
BRANCH  39  56
ATOM     56  C   UNL A   1      48.469  26.870  29.358  1.00  0.00     0.057 A 
ATOM     57  C   UNL A   1      49.350  27.179  28.313  1.00  0.00     0.134 A 
ATOM     58  C   UNL A   1      49.009  26.301  30.517  1.00  0.00     0.134 A 
ATOM     59  F   UNL A   1      48.888  27.712  27.171  1.00  0.00    -0.206 F 
ATOM     60  C   UNL A   1      50.714  26.905  28.406  1.00  0.00     0.040 A 
ATOM     61  C   UNL A   1      50.375  26.041  30.630  1.00  0.00     0.040 A 
ATOM     62  F   UNL A   1      48.218  25.987  31.553  1.00  0.00    -0.206 F 
ATOM     63  C   UNL A   1      51.230  26.335  29.570  1.00  0.00     0.006 A 
ENDBRANCH  39  56
ENDBRANCH  13  14
ENDBRANCH   6   8
ENDBRANCH   3   4
ENDBRANCH   2   3
ENDBRANCH   1   2
BRANCH   1  64
ATOM     64  C   UNL A   1      31.142  29.761  24.942  1.00  0.00     0.116 C 
BRANCH  64  65
ATOM     65  N   UNL A   1      30.729  30.086  23.584  1.00  0.00    -0.352 N 
ATOM     66  C   UNL A   1      30.125  29.277  22.649  1.00  0.00     0.252 C 
ATOM     67  H   UNL A   1      30.905  31.010  23.296  1.00  0.00     0.163 HD
ATOM     68  O   UNL A   1      29.785  29.714  21.556  1.00  0.00    -0.269 OA
BRANCH  66  69
ATOM     69  C   UNL A   1      30.037  27.836  22.922  1.00  0.00     0.058 A 
ATOM     70  C   UNL A   1      31.221  27.124  22.756  1.00  0.00     0.017 A 
ATOM     71  C   UNL A   1      28.922  27.219  23.496  1.00  0.00     0.055 A 
ATOM     72  C   UNL A   1      31.334  25.850  23.300  1.00  0.00     0.027 A 
ATOM     73  C   UNL A   1      29.054  25.944  24.062  1.00  0.00     0.048 A 
ATOM     74  Cl  UNL A   1      27.401  28.025  23.630  1.00  0.00    -0.083 Cl
ATOM     75  C   UNL A   1      30.280  25.275  24.014  1.00  0.00     0.050 A 
BRANCH  75  76
ATOM     76  N   UNL A   1      30.489  24.168  24.890  1.00  0.00    -0.280 N 
ATOM     77  H   UNL A   1      30.166  23.285  24.597  1.00  0.00     0.180 HD
BRANCH  76  78
ATOM     78  S   UNL A   1      31.250  24.269  26.387  1.00  0.00     0.261 S 
ATOM     79  O   UNL A   1      31.235  25.673  26.745  1.00  0.00    -0.201 OA
ATOM     80  O   UNL A   1      30.647  23.273  27.246  1.00  0.00    -0.201 OA
BRANCH  78  81
ATOM     81  C   UNL A   1      32.941  23.825  26.082  1.00  0.00     0.088 A 
ATOM     82  C   UNL A   1      33.881  24.821  25.751  1.00  0.00     0.022 A 
ATOM     83  C   UNL A   1      33.250  22.464  25.978  1.00  0.00     0.026 A 
ATOM     84  C   UNL A   1      35.118  24.454  25.209  1.00  0.00     0.005 A 
ATOM     85  C   UNL A   1      34.478  22.121  25.446  1.00  0.00    -0.043 A 
ATOM     86  C   UNL A   1      35.389  23.102  25.039  1.00  0.00    -0.045 A 
ATOM     87  C   UNL A   1      34.961  20.749  25.095  1.00  0.00     0.036 C 
ATOM     88  C   UNL A   1      36.550  22.472  24.330  1.00  0.00     0.036 C 
ATOM     89  C   UNL A   1      36.445  21.017  24.809  1.00  0.00     0.010 C 
ENDBRANCH  78  81
ENDBRANCH  76  78
ENDBRANCH  75  76
ENDBRANCH  66  69
ENDBRANCH  64  65
ENDBRANCH   1  64
TORSDOF 14
ENDMDL
MODEL 2
REMARK VINA RESULT:     -12.3      0.622      6.147
REMARK SMILES O=C(NCCCCNC(=O)c1ccc(NS(=O)(=O)c2ccc3c(c2)CCC3)cc1Cl)c1ccc(-c2c3nc(c(-c4c(F)cccc4F)c4ccc([nH]4)c(-c4c(F)cccc4F)c4nc(c(-c5c(F)cccc5F)c5ccc2[nH]5)C=C4)C=C3)cc1
REMARK SMILES IDX 6 1 5 2 4 3 3 4 1 5 2 6 31 8 32 9 84 10 33 11 83 12 34 13
REMARK SMILES IDX 35 14 36 15 77 16 37 17 82 18 76 19 78 20 38 21 81 22 75 23
REMARK SMILES IDX 74 24 39 26 65 27 48 28 64 29 49 30 52 31 63 32 79 33 50 34
REMARK SMILES IDX 51 35 62 37 80 38 53 39 40 40 41 41 46 42 42 43 43 44 45 45
REMARK SMILES IDX 47 46 44 47 66 48 67 49 72 50 68 51 69 52 71 53 73 54 70 55
REMARK SMILES IDX 54 56 55 57 60 58 56 59 57 60 59 61 61 62 58 63 7 64 8 65
REMARK SMILES IDX 9 66 10 68 11 69 12 70 29 71 13 72 28 73 30 74 14 75 15 76
REMARK SMILES IDX 16 78 17 79 18 80 19 81 20 82 24 83 21 84 23 85 22 86 25 87
REMARK SMILES IDX 27 88 26 89
REMARK H PARENT 3 7 78 25 52 36 8 67 15 77
REMARK Flexibility Score: inf
ROOT
ATOM      1  C   UNL A   1      32.804  29.705  25.110  1.00  0.00     0.023 C 
ENDROOT
BRANCH   1   2
ATOM      2  C   UNL A   1      33.395  28.409  25.651  1.00  0.00     0.023 C 
BRANCH   2   3
ATOM      3  C   UNL A   1      33.935  28.465  27.071  1.00  0.00     0.116 C 
BRANCH   3   4
ATOM      4  N   UNL A   1      33.780  29.759  27.716  1.00  0.00    -0.352 N 
ATOM      5  O   UNL A   1      34.407  31.559  28.931  1.00  0.00    -0.269 OA
ATOM      6  C   UNL A   1      34.725  30.512  28.378  1.00  0.00     0.251 C 
ATOM      7  H   UNL A   1      32.877  30.152  27.673  1.00  0.00     0.163 HD
BRANCH   6   8
ATOM      8  C   UNL A   1      36.121  30.025  28.459  1.00  0.00     0.039 A 
ATOM      9  C   UNL A   1      36.612  29.471  29.642  1.00  0.00     0.014 A 
ATOM     10  C   UNL A   1      36.959  30.161  27.348  1.00  0.00     0.014 A 
ATOM     11  C   UNL A   1      37.972  29.226  29.771  1.00  0.00     0.010 A 
ATOM     12  C   UNL A   1      38.312  29.818  27.451  1.00  0.00     0.010 A 
ATOM     13  C   UNL A   1      38.840  29.388  28.677  1.00  0.00    -0.014 A 
BRANCH  13  14
ATOM     14  C   UNL A   1      40.274  29.044  28.851  1.00  0.00     0.031 A 
ATOM     15  C   UNL A   1      41.223  29.958  29.578  1.00  0.00     0.074 A 
ATOM     16  C   UNL A   1      40.699  27.845  28.409  1.00  0.00     0.049 A 
ATOM     17  N   UNL A   1      42.478  29.754  29.894  1.00  0.00    -0.248 NA
ATOM     18  C   UNL A   1      40.707  31.269  30.001  1.00  0.00     0.031 C 
ATOM     19  C   UNL A   1      39.878  26.885  27.667  1.00  0.00     0.029 A 
ATOM     20  N   UNL A   1      41.905  27.209  28.552  1.00  0.00    -0.354 N 
ATOM     21  C   UNL A   1      42.906  30.910  30.535  1.00  0.00     0.074 A 
ATOM     22  C   UNL A   1      41.782  31.823  30.544  1.00  0.00     0.031 C 
ATOM     23  C   UNL A   1      40.577  25.757  27.483  1.00  0.00     0.029 A 
ATOM     24  C   UNL A   1      41.912  25.933  28.043  1.00  0.00     0.049 A 
ATOM     25  H   UNL A   1      42.689  27.625  28.978  1.00  0.00     0.167 HD
ATOM     26  C   UNL A   1      44.120  31.178  31.075  1.00  0.00     0.037 A 
ATOM     27  C   UNL A   1      42.883  25.003  28.027  1.00  0.00     0.037 A 
ATOM     28  C   UNL A   1      45.232  30.262  31.078  1.00  0.00     0.049 A 
ATOM     29  C   UNL A   1      44.207  25.320  28.655  1.00  0.00     0.074 A 
ATOM     30  C   UNL A   1      46.500  30.444  31.605  1.00  0.00     0.029 A 
ATOM     31  N   UNL A   1      45.206  28.987  30.533  1.00  0.00    -0.354 N 
ATOM     32  N   UNL A   1      44.587  26.415  29.265  1.00  0.00    -0.248 NA
ATOM     33  C   UNL A   1      45.236  24.274  28.587  1.00  0.00     0.031 C 
ATOM     34  C   UNL A   1      47.249  29.288  31.355  1.00  0.00     0.029 A 
ATOM     35  C   UNL A   1      46.438  28.374  30.705  1.00  0.00     0.049 A 
ATOM     36  H   UNL A   1      44.429  28.577  30.091  1.00  0.00     0.167 HD
ATOM     37  C   UNL A   1      45.902  26.195  29.650  1.00  0.00     0.074 A 
ATOM     38  C   UNL A   1      46.239  24.847  29.239  1.00  0.00     0.031 C 
ATOM     39  C   UNL A   1      46.758  27.038  30.275  1.00  0.00     0.037 A 
BRANCH  26  40
ATOM     40  C   UNL A   1      44.318  32.525  31.707  1.00  0.00     0.057 A 
ATOM     41  C   UNL A   1      44.095  32.736  33.074  1.00  0.00     0.134 A 
ATOM     42  C   UNL A   1      44.798  33.606  30.956  1.00  0.00     0.134 A 
ATOM     43  F   UNL A   1      43.625  31.745  33.847  1.00  0.00    -0.206 F 
ATOM     44  C   UNL A   1      44.334  33.977  33.668  1.00  0.00     0.040 A 
ATOM     45  C   UNL A   1      45.058  34.846  31.543  1.00  0.00     0.040 A 
ATOM     46  F   UNL A   1      45.038  33.469  29.644  1.00  0.00    -0.206 F 
ATOM     47  C   UNL A   1      44.824  35.035  32.904  1.00  0.00     0.006 A 
ENDBRANCH  26  40
BRANCH  27  48
ATOM     48  C   UNL A   1      42.631  23.689  27.390  1.00  0.00     0.057 A 
ATOM     49  C   UNL A   1      42.170  22.597  28.134  1.00  0.00     0.134 A 
ATOM     50  C   UNL A   1      42.824  23.500  26.016  1.00  0.00     0.134 A 
ATOM     51  F   UNL A   1      41.980  22.714  29.457  1.00  0.00    -0.206 F 
ATOM     52  C   UNL A   1      41.922  21.360  27.537  1.00  0.00     0.040 A 
ATOM     53  C   UNL A   1      42.556  22.278  25.402  1.00  0.00     0.040 A 
ATOM     54  F   UNL A   1      43.255  24.512  25.249  1.00  0.00    -0.206 F 
ATOM     55  C   UNL A   1      42.109  21.201  26.166  1.00  0.00     0.006 A 
ENDBRANCH  27  48
BRANCH  39  56
ATOM     56  C   UNL A   1      48.138  26.517  30.538  1.00  0.00     0.057 A 
ATOM     57  C   UNL A   1      49.174  26.689  29.610  1.00  0.00     0.134 A 
ATOM     58  C   UNL A   1      48.435  25.839  31.726  1.00  0.00     0.134 A 
ATOM     59  F   UNL A   1      48.945  27.317  28.447  1.00  0.00    -0.206 F 
ATOM     60  C   UNL A   1      50.450  26.178  29.842  1.00  0.00     0.040 A 
ATOM     61  C   UNL A   1      49.714  25.343  31.979  1.00  0.00     0.040 A 
ATOM     62  F   UNL A   1      47.488  25.648  32.656  1.00  0.00    -0.206 F 
ATOM     63  C   UNL A   1      50.724  25.504  31.031  1.00  0.00     0.006 A 
ENDBRANCH  39  56
ENDBRANCH  13  14
ENDBRANCH   6   8
ENDBRANCH   3   4
ENDBRANCH   2   3
ENDBRANCH   1   2
BRANCH   1  64
ATOM     64  C   UNL A   1      31.291  29.722  24.915  1.00  0.00     0.116 C 
BRANCH  64  65
ATOM     65  N   UNL A   1      30.862  30.030  23.558  1.00  0.00    -0.352 N 
ATOM     66  C   UNL A   1      30.242  29.211  22.642  1.00  0.00     0.252 C 
ATOM     67  H   UNL A   1      31.040  30.949  23.254  1.00  0.00     0.163 HD
ATOM     68  O   UNL A   1      29.891  29.635  21.547  1.00  0.00    -0.269 OA
BRANCH  66  69
ATOM     69  C   UNL A   1      30.150  27.774  22.937  1.00  0.00     0.058 A 
ATOM     70  C   UNL A   1      31.337  27.061  22.804  1.00  0.00     0.017 A 
ATOM     71  C   UNL A   1      29.025  27.167  23.501  1.00  0.00     0.055 A 
ATOM     72  C   UNL A   1      31.440  25.795  23.371  1.00  0.00     0.027 A 
ATOM     73  C   UNL A   1      29.147  25.902  24.091  1.00  0.00     0.048 A 
ATOM     74  Cl  UNL A   1      27.501  27.974  23.595  1.00  0.00    -0.083 Cl
ATOM     75  C   UNL A   1      30.374  25.232  24.075  1.00  0.00     0.050 A 
BRANCH  75  76
ATOM     76  N   UNL A   1      30.568  24.139  24.972  1.00  0.00    -0.280 N 
ATOM     77  H   UNL A   1      30.229  23.257  24.699  1.00  0.00     0.180 HD
BRANCH  76  78
ATOM     78  S   UNL A   1      31.336  24.257  26.465  1.00  0.00     0.261 S 
ATOM     79  O   UNL A   1      31.317  25.665  26.809  1.00  0.00    -0.201 OA
ATOM     80  O   UNL A   1      30.742  23.267  27.336  1.00  0.00    -0.201 OA
BRANCH  78  81
ATOM     81  C   UNL A   1      33.027  23.818  26.155  1.00  0.00     0.088 A 
ATOM     82  C   UNL A   1      33.965  24.818  25.828  1.00  0.00     0.022 A 
ATOM     83  C   UNL A   1      33.338  22.458  26.044  1.00  0.00     0.026 A 
ATOM     84  C   UNL A   1      35.202  24.455  25.283  1.00  0.00     0.005 A 
ATOM     85  C   UNL A   1      34.566  22.120  25.508  1.00  0.00    -0.043 A 
ATOM     86  C   UNL A   1      35.475  23.105  25.105  1.00  0.00    -0.045 A 
ATOM     87  C   UNL A   1      35.051  20.750  25.150  1.00  0.00     0.036 C 
ATOM     88  C   UNL A   1      36.636  22.480  24.391  1.00  0.00     0.036 C 
ATOM     89  C   UNL A   1      36.534  21.022  24.863  1.00  0.00     0.010 C 
ENDBRANCH  78  81
ENDBRANCH  76  78
ENDBRANCH  75  76
ENDBRANCH  66  69
ENDBRANCH  64  65
ENDBRANCH   1  64
TORSDOF 14
ENDMDL
MODEL 3
REMARK VINA RESULT:     -12.3      2.800      7.630
REMARK SMILES O=C(NCCCCNC(=O)c1ccc(NS(=O)(=O)c2ccc3c(c2)CCC3)cc1Cl)c1ccc(-c2c3nc(c(-c4c(F)cccc4F)c4ccc([nH]4)c(-c4c(F)cccc4F)c4nc(c(-c5c(F)cccc5F)c5ccc2[nH]5)C=C4)C=C3)cc1
REMARK SMILES IDX 6 1 5 2 4 3 3 4 1 5 2 6 31 8 32 9 84 10 33 11 83 12 34 13
REMARK SMILES IDX 35 14 36 15 77 16 37 17 82 18 76 19 78 20 38 21 81 22 75 23
REMARK SMILES IDX 74 24 39 26 65 27 48 28 64 29 49 30 52 31 63 32 79 33 50 34
REMARK SMILES IDX 51 35 62 37 80 38 53 39 40 40 41 41 46 42 42 43 43 44 45 45
REMARK SMILES IDX 47 46 44 47 66 48 67 49 72 50 68 51 69 52 71 53 73 54 70 55
REMARK SMILES IDX 54 56 55 57 60 58 56 59 57 60 59 61 61 62 58 63 7 64 8 65
REMARK SMILES IDX 9 66 10 68 11 69 12 70 29 71 13 72 28 73 30 74 14 75 15 76
REMARK SMILES IDX 16 78 17 79 18 80 19 81 20 82 24 83 21 84 23 85 22 86 25 87
REMARK SMILES IDX 27 88 26 89
REMARK H PARENT 3 7 78 25 52 36 8 67 15 77
REMARK Flexibility Score: inf
ROOT
ATOM      1  C   UNL A   1      36.139  21.376  24.796  1.00  0.00     0.023 C 
ENDROOT
BRANCH   1   2
ATOM      2  C   UNL A   1      37.154  20.259  25.009  1.00  0.00     0.023 C 
BRANCH   2   3
ATOM      3  C   UNL A   1      38.497  20.680  25.583  1.00  0.00     0.116 C 
BRANCH   3   4
ATOM      4  N   UNL A   1      39.519  19.647  25.526  1.00  0.00    -0.352 N 
ATOM      5  O   UNL A   1      41.587  18.762  25.746  1.00  0.00    -0.269 OA
ATOM      6  C   UNL A   1      40.834  19.711  25.934  1.00  0.00     0.251 C 
ATOM      7  H   UNL A   1      39.233  18.785  25.144  1.00  0.00     0.163 HD
BRANCH   6   8
ATOM      8  C   UNL A   1      41.345  20.952  26.557  1.00  0.00     0.039 A 
ATOM      9  C   UNL A   1      41.248  21.147  27.935  1.00  0.00     0.014 A 
ATOM     10  C   UNL A   1      41.894  21.951  25.745  1.00  0.00     0.014 A 
ATOM     11  C   UNL A   1      41.526  22.397  28.472  1.00  0.00     0.010 A 
ATOM     12  C   UNL A   1      42.268  23.177  26.306  1.00  0.00     0.010 A 
ATOM     13  C   UNL A   1      42.047  23.426  27.668  1.00  0.00    -0.014 A 
BRANCH  13  14
ATOM     14  C   UNL A   1      42.393  24.721  28.308  1.00  0.00     0.031 A 
ATOM     15  C   UNL A   1      43.809  25.065  28.680  1.00  0.00     0.074 A 
ATOM     16  C   UNL A   1      41.412  25.629  28.478  1.00  0.00     0.049 A 
ATOM     17  N   UNL A   1      44.283  26.190  29.156  1.00  0.00    -0.248 NA
ATOM     18  C   UNL A   1      44.826  24.017  28.505  1.00  0.00     0.031 C 
ATOM     19  C   UNL A   1      39.996  25.400  28.179  1.00  0.00     0.029 A 
ATOM     20  N   UNL A   1      41.456  26.933  28.900  1.00  0.00    -0.354 N 
ATOM     21  C   UNL A   1      45.643  25.983  29.351  1.00  0.00     0.074 A 
ATOM     22  C   UNL A   1      45.917  24.615  28.965  1.00  0.00     0.031 C 
ATOM     23  C   UNL A   1      39.319  26.543  28.357  1.00  0.00     0.029 A 
ATOM     24  C   UNL A   1      40.239  27.567  28.837  1.00  0.00     0.049 A 
ATOM     25  H   UNL A   1      42.278  27.371  29.218  1.00  0.00     0.167 HD
ATOM     26  C   UNL A   1      46.575  26.857  29.802  1.00  0.00     0.037 A 
ATOM     27  C   UNL A   1      39.898  28.834  29.129  1.00  0.00     0.037 A 
ATOM     28  C   UNL A   1      46.302  28.223  30.172  1.00  0.00     0.049 A 
ATOM     29  C   UNL A   1      40.957  29.785  29.600  1.00  0.00     0.074 A 
ATOM     30  C   UNL A   1      47.184  29.185  30.636  1.00  0.00     0.029 A 
ATOM     31  N   UNL A   1      45.053  28.823  30.114  1.00  0.00    -0.354 N 
ATOM     32  N   UNL A   1      42.238  29.572  29.769  1.00  0.00    -0.248 NA
ATOM     33  C   UNL A   1      40.520  31.149  29.926  1.00  0.00     0.031 C 
ATOM     34  C   UNL A   1      46.462  30.359  30.883  1.00  0.00     0.029 A 
ATOM     35  C   UNL A   1      45.140  30.139  30.540  1.00  0.00     0.049 A 
ATOM     36  H   UNL A   1      44.227  28.380  29.814  1.00  0.00     0.167 HD
ATOM     37  C   UNL A   1      42.762  30.772  30.226  1.00  0.00     0.074 A 
ATOM     38  C   UNL A   1      41.667  31.719  30.271  1.00  0.00     0.031 C 
ATOM     39  C   UNL A   1      44.035  31.060  30.591  1.00  0.00     0.037 A 
BRANCH  26  40
ATOM     40  C   UNL A   1      47.987  26.365  29.928  1.00  0.00     0.057 A 
ATOM     41  C   UNL A   1      48.461  25.785  31.113  1.00  0.00     0.134 A 
ATOM     42  C   UNL A   1      48.863  26.411  28.836  1.00  0.00     0.134 A 
ATOM     43  F   UNL A   1      47.676  25.720  32.199  1.00  0.00    -0.206 F 
ATOM     44  C   UNL A   1      49.759  25.279  31.208  1.00  0.00     0.040 A 
ATOM     45  C   UNL A   1      50.157  25.891  28.914  1.00  0.00     0.040 A 
ATOM     46  F   UNL A   1      48.470  26.947  27.672  1.00  0.00    -0.206 F 
ATOM     47  C   UNL A   1      50.609  25.324  30.104  1.00  0.00     0.006 A 
ENDBRANCH  26  40
BRANCH  27  48
ATOM     48  C   UNL A   1      38.487  29.266  28.984  1.00  0.00     0.057 A 
ATOM     49  C   UNL A   1      37.979  29.685  27.750  1.00  0.00     0.134 A 
ATOM     50  C   UNL A   1      37.609  29.251  30.074  1.00  0.00     0.134 A 
ATOM     51  F   UNL A   1      38.777  29.735  26.673  1.00  0.00    -0.206 F 
ATOM     52  C   UNL A   1      36.649  30.084  27.605  1.00  0.00     0.040 A 
ATOM     53  C   UNL A   1      36.272  29.622  29.940  1.00  0.00     0.040 A 
ATOM     54  F   UNL A   1      38.035  28.850  31.281  1.00  0.00    -0.206 F 
ATOM     55  C   UNL A   1      35.790  30.046  28.702  1.00  0.00     0.006 A 
ENDBRANCH  27  48
BRANCH  39  56
ATOM     56  C   UNL A   1      44.293  32.455  31.074  1.00  0.00     0.057 A 
ATOM     57  C   UNL A   1      44.693  33.470  30.195  1.00  0.00     0.134 A 
ATOM     58  C   UNL A   1      44.143  32.787  32.425  1.00  0.00     0.134 A 
ATOM     59  F   UNL A   1      44.869  33.208  28.891  1.00  0.00    -0.206 F 
ATOM     60  C   UNL A   1      44.963  34.761  30.648  1.00  0.00     0.040 A 
ATOM     61  C   UNL A   1      44.390  34.080  32.887  1.00  0.00     0.040 A 
ATOM     62  F   UNL A   1      43.758  31.861  33.315  1.00  0.00    -0.206 F 
ATOM     63  C   UNL A   1      44.809  35.069  31.999  1.00  0.00     0.006 A 
ENDBRANCH  39  56
ENDBRANCH  13  14
ENDBRANCH   6   8
ENDBRANCH   3   4
ENDBRANCH   2   3
ENDBRANCH   1   2
BRANCH   1  64
ATOM     64  C   UNL A   1      35.074  21.528  25.878  1.00  0.00     0.116 C 
BRANCH  64  65
ATOM     65  N   UNL A   1      34.270  20.335  26.103  1.00  0.00    -0.352 N 
ATOM     66  C   UNL A   1      33.077  19.975  25.519  1.00  0.00     0.252 C 
ATOM     67  H   UNL A   1      34.629  19.699  26.763  1.00  0.00     0.163 HD
ATOM     68  O   UNL A   1      32.543  18.901  25.776  1.00  0.00    -0.269 OA
BRANCH  66  69
ATOM     69  C   UNL A   1      32.370  20.969  24.701  1.00  0.00     0.058 A 
ATOM     70  C   UNL A   1      32.038  22.151  25.354  1.00  0.00     0.017 A 
ATOM     71  C   UNL A   1      32.198  20.859  23.319  1.00  0.00     0.055 A 
ATOM     72  C   UNL A   1      31.679  23.268  24.606  1.00  0.00     0.027 A 
ATOM     73  C   UNL A   1      31.860  21.995  22.572  1.00  0.00     0.048 A 
ATOM     74  Cl  UNL A   1      32.498  19.381  22.476  1.00  0.00    -0.083 Cl
ATOM     75  C   UNL A   1      31.652  23.221  23.211  1.00  0.00     0.050 A 
BRANCH  75  76
ATOM     76  N   UNL A   1      31.668  24.413  22.425  1.00  0.00    -0.280 N 
ATOM     77  H   UNL A   1      30.811  24.732  22.061  1.00  0.00     0.180 HD
BRANCH  76  78
ATOM     78  S   UNL A   1      33.050  25.307  22.080  1.00  0.00     0.261 S 
ATOM     79  O   UNL A   1      34.154  24.570  22.661  1.00  0.00    -0.201 OA
ATOM     80  O   UNL A   1      33.021  25.619  20.668  1.00  0.00    -0.201 OA
BRANCH  78  81
ATOM     81  C   UNL A   1      32.879  26.809  23.009  1.00  0.00     0.088 A 
ATOM     82  C   UNL A   1      33.644  27.941  22.664  1.00  0.00     0.022 A 
ATOM     83  C   UNL A   1      32.134  26.764  24.193  1.00  0.00     0.026 A 
ATOM     84  C   UNL A   1      33.750  29.007  23.565  1.00  0.00     0.005 A 
ATOM     85  C   UNL A   1      32.247  27.828  25.067  1.00  0.00    -0.043 A 
ATOM     86  C   UNL A   1      33.067  28.922  24.771  1.00  0.00    -0.045 A 
ATOM     87  C   UNL A   1      31.677  27.930  26.447  1.00  0.00     0.036 C 
ATOM     88  C   UNL A   1      33.160  29.837  25.955  1.00  0.00     0.036 C 
ATOM     89  C   UNL A   1      31.929  29.409  26.767  1.00  0.00     0.010 C 
ENDBRANCH  78  81
ENDBRANCH  76  78
ENDBRANCH  75  76
ENDBRANCH  66  69
ENDBRANCH  64  65
ENDBRANCH   1  64
TORSDOF 14
ENDMDL
