MODEL 1
REMARK VINA RESULT:     -13.1      0.000      0.000
REMARK SMILES Cc1c(CC(=O)NCCCCNC(=O)c2ccc(-c3c4nc(c(-c5c(F)cccc5F)c5ccc([nH]5)c(-c5c(F)cccc5F)c5nc(c(-c6c(F)cccc6F)c6ccc3[nH]6)C=C5)C=C4)cc2)cc(-c2ccc(S(C)(=O)=O)cc2)n1-c1cccc(F)c1
REMARK SMILES IDX 9 1 8 2 7 3 5 4 6 5 4 7 3 8 1 9 2 10 81 11 69 12 70 13 82 14
REMARK SMILES IDX 83 15 88 16 84 17 86 18 85 19 87 20 71 21 72 22 80 23 73 24
REMARK SMILES IDX 79 25 74 26 75 27 76 28 77 29 78 30 10 31 11 32 12 33 13 34
REMARK SMILES IDX 14 36 15 37 16 38 68 39 17 40 67 41 18 42 19 43 20 44 61 45
REMARK SMILES IDX 21 46 66 47 60 48 62 49 22 50 65 51 59 52 58 53 23 55 49 56
REMARK SMILES IDX 32 57 48 58 33 59 36 60 47 61 63 62 34 63 35 64 46 66 64 67
REMARK SMILES IDX 37 68 24 69 25 70 30 71 26 72 27 73 29 74 31 75 28 76 50 77
REMARK SMILES IDX 51 78 56 79 52 80 53 81 55 82 57 83 54 84 38 85 39 86 44 87
REMARK SMILES IDX 40 88 41 89 43 90 45 91 42 92
REMARK H PARENT 7 6 12 35 62 54 36 65
REMARK Flexibility Score: inf
ROOT
ATOM      1  C   UNL A   1      36.357  21.687  25.688  1.00  0.00     0.023 C 
ENDROOT
BRANCH   1   2
ATOM      2  C   UNL A   1      35.460  20.827  24.785  1.00  0.00     0.116 C 
BRANCH   2   3
ATOM      3  N   UNL A   1      34.106  20.690  25.281  1.00  0.00    -0.356 N 
ATOM      4  C   UNL A   1      32.934  21.227  24.829  1.00  0.00     0.224 C 
ATOM      5  O   UNL A   1      31.892  20.840  25.371  1.00  0.00    -0.275 OA
ATOM      6  H   UNL A   1      34.014  20.116  26.077  1.00  0.00     0.163 HD
BRANCH   4   7
ATOM      7  C   UNL A   1      32.890  22.221  23.678  1.00  0.00     0.137 C 
BRANCH   7   8
ATOM      8  C   UNL A   1      32.464  23.605  24.070  1.00  0.00    -0.017 A 
ATOM      9  C   UNL A   1      33.838  23.994  26.244  1.00  0.00     0.065 C 
ATOM     10  C   UNL A   1      32.905  24.378  25.138  1.00  0.00     0.024 A 
ATOM     11  N   UNL A   1      32.252  25.608  25.093  1.00  0.00    -0.313 N 
ATOM     12  C   UNL A   1      31.436  24.349  23.435  1.00  0.00     0.033 A 
ATOM     13  C   UNL A   1      31.337  25.589  24.040  1.00  0.00     0.053 A 
BRANCH  11  14
ATOM     14  C   UNL A   1      32.484  26.709  25.964  1.00  0.00     0.049 A 
ATOM     15  C   UNL A   1      31.470  27.144  26.832  1.00  0.00     0.027 A 
ATOM     16  C   UNL A   1      33.696  27.401  25.897  1.00  0.00     0.065 A 
ATOM     17  C   UNL A   1      31.674  28.269  27.633  1.00  0.00     0.005 A 
ATOM     18  C   UNL A   1      33.874  28.529  26.689  1.00  0.00     0.125 A 
ATOM     19  C   UNL A   1      32.878  28.968  27.555  1.00  0.00     0.039 A 
ATOM     20  F   UNL A   1      35.017  29.221  26.597  1.00  0.00    -0.207 F 
ENDBRANCH  11  14
BRANCH  13  21
ATOM     21  C   UNL A   1      30.540  26.734  23.586  1.00  0.00    -0.001 A 
ATOM     22  C   UNL A   1      31.161  27.821  22.952  1.00  0.00     0.011 A 
ATOM     23  C   UNL A   1      29.149  26.742  23.750  1.00  0.00     0.011 A 
ATOM     24  C   UNL A   1      30.413  28.917  22.521  1.00  0.00     0.021 A 
ATOM     25  C   UNL A   1      28.391  27.837  23.322  1.00  0.00     0.021 A 
ATOM     26  C   UNL A   1      29.033  28.925  22.722  1.00  0.00     0.067 A 
BRANCH  26  27
ATOM     27  S   UNL A   1      28.076  30.319  22.173  1.00  0.00     0.175 S 
ATOM     28  C   UNL A   1      29.195  31.689  22.322  1.00  0.00     0.163 C 
ATOM     29  O   UNL A   1      27.821  30.105  20.740  1.00  0.00    -0.224 OA
ATOM     30  O   UNL A   1      27.003  30.519  23.090  1.00  0.00    -0.224 OA
ENDBRANCH  26  27
ENDBRANCH  13  21
ENDBRANCH   7   8
ENDBRANCH   4   7
ENDBRANCH   2   3
ENDBRANCH   1   2
BRANCH   1  31
ATOM     31  C   UNL A   1      36.937  23.030  25.153  1.00  0.00     0.023 C 
BRANCH  31  32
ATOM     32  C   UNL A   1      38.038  23.798  25.944  1.00  0.00     0.116 C 
BRANCH  32  33
ATOM     33  N   UNL A   1      39.308  23.059  26.041  1.00  0.00    -0.352 N 
ATOM     34  C   UNL A   1      40.595  23.274  26.522  1.00  0.00     0.251 C 
ATOM     35  H   UNL A   1      39.222  22.156  25.657  1.00  0.00     0.163 HD
ATOM     36  O   UNL A   1      41.379  22.337  26.321  1.00  0.00    -0.269 OA
BRANCH  34  37
ATOM     37  C   UNL A   1      41.163  24.485  27.255  1.00  0.00     0.039 A 
ATOM     38  C   UNL A   1      40.494  25.000  28.390  1.00  0.00     0.014 A 
ATOM     39  C   UNL A   1      42.102  25.351  26.727  1.00  0.00     0.014 A 
ATOM     40  C   UNL A   1      40.759  26.312  28.989  1.00  0.00     0.010 A 
ATOM     41  C   UNL A   1      42.378  26.655  27.344  1.00  0.00     0.010 A 
ATOM     42  C   UNL A   1      41.715  27.240  28.499  1.00  0.00    -0.014 A 
BRANCH  42  43
ATOM     43  C   UNL A   1      41.363  28.903  28.730  1.00  0.00     0.031 A 
ATOM     44  C   UNL A   1      42.694  29.429  29.232  1.00  0.00     0.074 A 
ATOM     45  C   UNL A   1      40.327  29.872  28.956  1.00  0.00     0.049 A 
ATOM     46  N   UNL A   1      43.250  28.718  30.168  1.00  0.00    -0.248 NA
ATOM     47  C   UNL A   1      43.263  30.767  29.097  1.00  0.00     0.031 C 
ATOM     48  C   UNL A   1      40.566  31.259  29.514  1.00  0.00     0.029 A 
ATOM     49  N   UNL A   1      38.905  29.967  28.941  1.00  0.00    -0.354 N 
ATOM     50  C   UNL A   1      43.620  29.640  31.096  1.00  0.00     0.074 A 
ATOM     51  C   UNL A   1      43.746  30.893  30.344  1.00  0.00     0.031 C 
ATOM     52  C   UNL A   1      39.489  32.064  29.566  1.00  0.00     0.029 A 
ATOM     53  C   UNL A   1      38.321  31.286  29.218  1.00  0.00     0.049 A 
ATOM     54  H   UNL A   1      38.338  29.183  28.753  1.00  0.00     0.167 HD
ATOM     55  C   UNL A   1      43.031  29.548  32.327  1.00  0.00     0.037 A 
ATOM     56  C   UNL A   1      37.095  31.663  29.729  1.00  0.00     0.037 A 
ATOM     57  C   UNL A   1      41.629  29.128  32.452  1.00  0.00     0.049 A 
ATOM     58  C   UNL A   1      37.002  30.993  31.057  1.00  0.00     0.074 A 
ATOM     59  C   UNL A   1      40.724  28.370  31.747  1.00  0.00     0.029 A 
ATOM     60  N   UNL A   1      40.888  29.476  33.560  1.00  0.00    -0.354 N 
ATOM     61  N   UNL A   1      37.371  31.469  32.213  1.00  0.00    -0.248 NA
ATOM     62  C   UNL A   1      36.436  29.656  31.057  1.00  0.00     0.031 C 
ATOM     63  C   UNL A   1      39.503  28.215  32.414  1.00  0.00     0.029 A 
ATOM     64  C   UNL A   1      39.533  29.243  33.320  1.00  0.00     0.049 A 
ATOM     65  H   UNL A   1      41.260  29.835  34.398  1.00  0.00     0.167 HD
ATOM     66  C   UNL A   1      37.428  30.347  33.030  1.00  0.00     0.074 A 
ATOM     67  C   UNL A   1      36.716  29.301  32.305  1.00  0.00     0.031 C 
ATOM     68  C   UNL A   1      38.541  30.173  33.796  1.00  0.00     0.037 A 
BRANCH  55  69
ATOM     69  C   UNL A   1      44.051  28.970  33.263  1.00  0.00     0.057 A 
ATOM     70  C   UNL A   1      44.208  27.581  33.407  1.00  0.00     0.134 A 
ATOM     71  C   UNL A   1      44.847  29.784  34.087  1.00  0.00     0.134 A 
ATOM     72  F   UNL A   1      43.478  26.720  32.679  1.00  0.00    -0.206 F 
ATOM     73  C   UNL A   1      45.107  27.035  34.317  1.00  0.00     0.040 A 
ATOM     74  C   UNL A   1      45.780  29.248  34.965  1.00  0.00     0.040 A 
ATOM     75  F   UNL A   1      44.739  31.121  34.087  1.00  0.00    -0.206 F 
ATOM     76  C   UNL A   1      45.911  27.871  35.083  1.00  0.00     0.006 A 
ENDBRANCH  55  69
BRANCH  56  77
ATOM     77  C   UNL A   1      36.109  32.827  29.723  1.00  0.00     0.057 A 
ATOM     78  C   UNL A   1      35.817  33.841  30.651  1.00  0.00     0.134 A 
ATOM     79  C   UNL A   1      35.151  32.702  28.685  1.00  0.00     0.134 A 
ATOM     80  F   UNL A   1      36.600  34.056  31.718  1.00  0.00    -0.206 F 
ATOM     81  C   UNL A   1      34.653  34.657  30.536  1.00  0.00     0.040 A 
ATOM     82  C   UNL A   1      33.988  33.478  28.573  1.00  0.00     0.040 A 
ATOM     83  F   UNL A   1      35.316  31.745  27.755  1.00  0.00    -0.206 F 
ATOM     84  C   UNL A   1      33.730  34.468  29.505  1.00  0.00     0.006 A 
ENDBRANCH  56  77
BRANCH  68  85
ATOM     85  C   UNL A   1      38.913  31.260  34.731  1.00  0.00     0.057 A 
ATOM     86  C   UNL A   1      39.492  32.403  34.181  1.00  0.00     0.134 A 
ATOM     87  C   UNL A   1      38.464  31.318  36.057  1.00  0.00     0.134 A 
ATOM     88  F   UNL A   1      39.949  32.394  32.918  1.00  0.00    -0.206 F 
ATOM     89  C   UNL A   1      39.520  33.600  34.888  1.00  0.00     0.040 A 
ATOM     90  C   UNL A   1      38.435  32.522  36.751  1.00  0.00     0.040 A 
ATOM     91  F   UNL A   1      37.892  30.253  36.643  1.00  0.00    -0.206 F 
ATOM     92  C   UNL A   1      38.951  33.672  36.159  1.00  0.00     0.006 A 
ENDBRANCH  68  85
ENDBRANCH  42  43
ENDBRANCH  34  37
ENDBRANCH  32  33
ENDBRANCH  31  32
ENDBRANCH   1  31
TORSDOF 15
ENDMDL
MODEL 2
REMARK VINA RESULT:     -12.4      3.995      7.895
REMARK SMILES Cc1c(CC(=O)NCCCCNC(=O)c2ccc(-c3c4nc(c(-c5c(F)cccc5F)c5ccc([nH]5)c(-c5c(F)cccc5F)c5nc(c(-c6c(F)cccc6F)c6ccc3[nH]6)C=C5)C=C4)cc2)cc(-c2ccc(S(C)(=O)=O)cc2)n1-c1cccc(F)c1
REMARK SMILES IDX 9 1 8 2 7 3 5 4 6 5 4 7 3 8 1 9 2 10 81 11 69 12 70 13 82 14
REMARK SMILES IDX 83 15 88 16 84 17 86 18 85 19 87 20 71 21 72 22 80 23 73 24
REMARK SMILES IDX 79 25 74 26 75 27 76 28 77 29 78 30 10 31 11 32 12 33 13 34
REMARK SMILES IDX 14 36 15 37 16 38 68 39 17 40 67 41 18 42 19 43 20 44 61 45
REMARK SMILES IDX 21 46 66 47 60 48 62 49 22 50 65 51 59 52 58 53 23 55 49 56
REMARK SMILES IDX 32 57 48 58 33 59 36 60 47 61 63 62 34 63 35 64 46 66 64 67
REMARK SMILES IDX 37 68 24 69 25 70 30 71 26 72 27 73 29 74 31 75 28 76 50 77
REMARK SMILES IDX 51 78 56 79 52 80 53 81 55 82 57 83 54 84 38 85 39 86 44 87
REMARK SMILES IDX 40 88 41 89 43 90 45 91 42 92
REMARK H PARENT 7 6 12 35 62 54 36 65
REMARK Flexibility Score: inf
ROOT
ATOM      1  C   UNL A   1      36.045  20.643  25.500  1.00  0.00     0.023 C 
ENDROOT
BRANCH   1   2
ATOM      2  C   UNL A   1      34.947  19.991  24.648  1.00  0.00     0.116 C 
BRANCH   2   3
ATOM      3  N   UNL A   1      33.612  20.193  25.174  1.00  0.00    -0.356 N 
ATOM      4  C   UNL A   1      32.625  21.054  24.789  1.00  0.00     0.224 C 
ATOM      5  O   UNL A   1      31.524  20.929  25.337  1.00  0.00    -0.275 OA
ATOM      6  H   UNL A   1      33.378  19.615  25.937  1.00  0.00     0.163 HD
BRANCH   4   7
ATOM      7  C   UNL A   1      32.839  22.094  23.699  1.00  0.00     0.137 C 
BRANCH   7   8
ATOM      8  C   UNL A   1      32.437  23.487  24.086  1.00  0.00    -0.017 A 
ATOM      9  C   UNL A   1      33.852  23.877  26.233  1.00  0.00     0.065 C 
ATOM     10  C   UNL A   1      32.907  24.264  25.139  1.00  0.00     0.024 A 
ATOM     11  N   UNL A   1      32.270  25.502  25.093  1.00  0.00    -0.313 N 
ATOM     12  C   UNL A   1      31.409  24.240  23.460  1.00  0.00     0.033 A 
ATOM     13  C   UNL A   1      31.337  25.486  24.056  1.00  0.00     0.053 A 
BRANCH  11  14
ATOM     14  C   UNL A   1      32.530  26.608  25.950  1.00  0.00     0.049 A 
ATOM     15  C   UNL A   1      31.541  27.056  26.839  1.00  0.00     0.027 A 
ATOM     16  C   UNL A   1      33.745  27.290  25.848  1.00  0.00     0.065 A 
ATOM     17  C   UNL A   1      31.773  28.186  27.626  1.00  0.00     0.005 A 
ATOM     18  C   UNL A   1      33.951  28.422  26.627  1.00  0.00     0.125 A 
ATOM     19  C   UNL A   1      32.980  28.875  27.514  1.00  0.00     0.039 A 
ATOM     20  F   UNL A   1      35.096  29.106  26.503  1.00  0.00    -0.207 F 
ENDBRANCH  11  14
BRANCH  13  21
ATOM     21  C   UNL A   1      30.548  26.638  23.604  1.00  0.00    -0.001 A 
ATOM     22  C   UNL A   1      29.175  26.710  23.887  1.00  0.00     0.011 A 
ATOM     23  C   UNL A   1      31.159  27.692  22.913  1.00  0.00     0.011 A 
ATOM     24  C   UNL A   1      28.415  27.797  23.457  1.00  0.00     0.021 A 
ATOM     25  C   UNL A   1      30.404  28.786  22.478  1.00  0.00     0.021 A 
ATOM     26  C   UNL A   1      29.032  28.823  22.742  1.00  0.00     0.067 A 
BRANCH  26  27
ATOM     27  S   UNL A   1      28.067  30.212  22.193  1.00  0.00     0.175 S 
ATOM     28  C   UNL A   1      29.107  31.611  22.529  1.00  0.00     0.163 C 
ATOM     29  O   UNL A   1      27.954  30.082  20.732  1.00  0.00    -0.224 OA
ATOM     30  O   UNL A   1      26.908  30.310  23.016  1.00  0.00    -0.224 OA
ENDBRANCH  26  27
ENDBRANCH  13  21
ENDBRANCH   7   8
ENDBRANCH   4   7
ENDBRANCH   2   3
ENDBRANCH   1   2
BRANCH   1  31
ATOM     31  C   UNL A   1      36.855  21.848  24.933  1.00  0.00     0.023 C 
BRANCH  31  32
ATOM     32  C   UNL A   1      38.094  22.408  25.694  1.00  0.00     0.116 C 
BRANCH  32  33
ATOM     33  N   UNL A   1      39.264  21.515  25.641  1.00  0.00    -0.352 N 
ATOM     34  C   UNL A   1      40.549  21.463  26.170  1.00  0.00     0.251 C 
ATOM     35  H   UNL A   1      39.087  20.734  25.068  1.00  0.00     0.163 HD
ATOM     36  O   UNL A   1      41.224  20.502  25.777  1.00  0.00    -0.269 OA
BRANCH  34  37
ATOM     37  C   UNL A   1      41.228  22.409  27.154  1.00  0.00     0.039 A 
ATOM     38  C   UNL A   1      41.662  23.684  26.722  1.00  0.00     0.014 A 
ATOM     39  C   UNL A   1      41.768  22.024  28.367  1.00  0.00     0.014 A 
ATOM     40  C   UNL A   1      42.579  24.550  27.470  1.00  0.00     0.010 A 
ATOM     41  C   UNL A   1      42.670  22.903  29.122  1.00  0.00     0.010 A 
ATOM     42  C   UNL A   1      43.159  24.214  28.721  1.00  0.00    -0.014 A 
BRANCH  42  43
ATOM     43  C   UNL A   1      44.717  24.856  29.045  1.00  0.00     0.031 A 
ATOM     44  C   UNL A   1      44.526  25.431  30.436  1.00  0.00     0.074 A 
ATOM     45  C   UNL A   1      45.938  25.343  28.468  1.00  0.00     0.049 A 
ATOM     46  N   UNL A   1      43.452  26.147  30.593  1.00  0.00    -0.248 NA
ATOM     47  C   UNL A   1      45.511  25.611  31.499  1.00  0.00     0.031 C 
ATOM     48  C   UNL A   1      46.936  26.217  29.199  1.00  0.00     0.029 A 
ATOM     49  N   UNL A   1      46.601  25.394  27.207  1.00  0.00    -0.354 N 
ATOM     50  C   UNL A   1      43.899  27.262  31.231  1.00  0.00     0.074 A 
ATOM     51  C   UNL A   1      45.133  26.836  31.901  1.00  0.00     0.031 C 
ATOM     52  C   UNL A   1      48.071  26.496  28.531  1.00  0.00     0.029 A 
ATOM     53  C   UNL A   1      47.937  26.003  27.179  1.00  0.00     0.049 A 
ATOM     54  H   UNL A   1      46.181  25.037  26.390  1.00  0.00     0.167 HD
ATOM     55  C   UNL A   1      43.765  28.450  30.567  1.00  0.00     0.037 A 
ATOM     56  C   UNL A   1      48.645  26.628  26.170  1.00  0.00     0.037 A 
ATOM     57  C   UNL A   1      43.930  28.510  29.109  1.00  0.00     0.049 A 
ATOM     58  C   UNL A   1      47.776  27.753  25.723  1.00  0.00     0.074 A 
ATOM     59  C   UNL A   1      43.792  27.668  28.030  1.00  0.00     0.029 A 
ATOM     60  N   UNL A   1      44.276  29.691  28.490  1.00  0.00    -0.354 N 
ATOM     61  N   UNL A   1      47.776  28.979  26.166  1.00  0.00    -0.248 NA
ATOM     62  C   UNL A   1      46.823  27.442  24.672  1.00  0.00     0.031 C 
ATOM     63  C   UNL A   1      43.991  28.313  26.804  1.00  0.00     0.029 A 
ATOM     64  C   UNL A   1      44.674  29.442  27.175  1.00  0.00     0.049 A 
ATOM     65  H   UNL A   1      44.246  30.580  28.912  1.00  0.00     0.167 HD
ATOM     66  C   UNL A   1      46.568  29.494  25.711  1.00  0.00     0.074 A 
ATOM     67  C   UNL A   1      46.103  28.557  24.696  1.00  0.00     0.031 C 
ATOM     68  C   UNL A   1      45.784  30.160  26.605  1.00  0.00     0.037 A 
BRANCH  55  69
ATOM     69  C   UNL A   1      42.621  29.185  31.202  1.00  0.00     0.057 A 
ATOM     70  C   UNL A   1      42.824  30.060  32.282  1.00  0.00     0.134 A 
ATOM     71  C   UNL A   1      41.292  28.981  30.794  1.00  0.00     0.134 A 
ATOM     72  F   UNL A   1      44.056  30.302  32.758  1.00  0.00    -0.206 F 
ATOM     73  C   UNL A   1      41.764  30.697  32.917  1.00  0.00     0.040 A 
ATOM     74  C   UNL A   1      40.232  29.650  31.393  1.00  0.00     0.040 A 
ATOM     75  F   UNL A   1      40.968  28.119  29.819  1.00  0.00    -0.206 F 
ATOM     76  C   UNL A   1      40.465  30.509  32.458  1.00  0.00     0.006 A 
ENDBRANCH  55  69
BRANCH  56  77
ATOM     77  C   UNL A   1      50.073  26.936  25.733  1.00  0.00     0.057 A 
ATOM     78  C   UNL A   1      51.133  27.629  26.341  1.00  0.00     0.134 A 
ATOM     79  C   UNL A   1      50.271  26.674  24.353  1.00  0.00     0.134 A 
ATOM     80  F   UNL A   1      51.079  27.994  27.629  1.00  0.00    -0.206 F 
ATOM     81  C   UNL A   1      52.294  28.024  25.611  1.00  0.00     0.040 A 
ATOM     82  C   UNL A   1      51.393  27.079  23.617  1.00  0.00     0.040 A 
ATOM     83  F   UNL A   1      49.307  26.039  23.664  1.00  0.00    -0.206 F 
ATOM     84  C   UNL A   1      52.419  27.762  24.246  1.00  0.00     0.006 A 
ENDBRANCH  56  77
BRANCH  68  85
ATOM     85  C   UNL A   1      46.374  31.322  27.310  1.00  0.00     0.057 A 
ATOM     86  C   UNL A   1      45.961  32.590  26.904  1.00  0.00     0.134 A 
ATOM     87  C   UNL A   1      47.081  31.210  28.515  1.00  0.00     0.134 A 
ATOM     88  F   UNL A   1      45.291  32.751  25.751  1.00  0.00    -0.206 F 
ATOM     89  C   UNL A   1      46.143  33.697  27.725  1.00  0.00     0.040 A 
ATOM     90  C   UNL A   1      47.217  32.298  29.369  1.00  0.00     0.040 A 
ATOM     91  F   UNL A   1      47.501  30.016  28.964  1.00  0.00    -0.206 F 
ATOM     92  C   UNL A   1      46.733  33.544  28.979  1.00  0.00     0.006 A 
ENDBRANCH  68  85
ENDBRANCH  42  43
ENDBRANCH  34  37
ENDBRANCH  32  33
ENDBRANCH  31  32
ENDBRANCH   1  31
TORSDOF 15
ENDMDL
MODEL 3
REMARK VINA RESULT:     -11.9      3.550      8.877
REMARK SMILES Cc1c(CC(=O)NCCCCNC(=O)c2ccc(-c3c4nc(c(-c5c(F)cccc5F)c5ccc([nH]5)c(-c5c(F)cccc5F)c5nc(c(-c6c(F)cccc6F)c6ccc3[nH]6)C=C5)C=C4)cc2)cc(-c2ccc(S(C)(=O)=O)cc2)n1-c1cccc(F)c1
REMARK SMILES IDX 9 1 8 2 7 3 5 4 6 5 4 7 3 8 1 9 2 10 81 11 69 12 70 13 82 14
REMARK SMILES IDX 83 15 88 16 84 17 86 18 85 19 87 20 71 21 72 22 80 23 73 24
REMARK SMILES IDX 79 25 74 26 75 27 76 28 77 29 78 30 10 31 11 32 12 33 13 34
REMARK SMILES IDX 14 36 15 37 16 38 68 39 17 40 67 41 18 42 19 43 20 44 61 45
REMARK SMILES IDX 21 46 66 47 60 48 62 49 22 50 65 51 59 52 58 53 23 55 49 56
REMARK SMILES IDX 32 57 48 58 33 59 36 60 47 61 63 62 34 63 35 64 46 66 64 67
REMARK SMILES IDX 37 68 24 69 25 70 30 71 26 72 27 73 29 74 31 75 28 76 50 77
REMARK SMILES IDX 51 78 56 79 52 80 53 81 55 82 57 83 54 84 38 85 39 86 44 87
REMARK SMILES IDX 40 88 41 89 43 90 45 91 42 92
REMARK H PARENT 7 6 12 35 62 54 36 65
REMARK Flexibility Score: inf
ROOT
ATOM      1  C   UNL A   1      34.568  35.118  28.888  1.00  0.00     0.023 C 
ENDROOT
BRANCH   1   2
ATOM      2  C   UNL A   1      34.512  34.238  27.630  1.00  0.00     0.116 C 
BRANCH   2   3
ATOM      3  N   UNL A   1      35.496  33.176  27.626  1.00  0.00    -0.356 N 
ATOM      4  C   UNL A   1      35.359  31.835  27.846  1.00  0.00     0.224 C 
ATOM      5  O   UNL A   1      36.356  31.129  27.655  1.00  0.00    -0.275 OA
ATOM      6  H   UNL A   1      36.417  33.468  27.433  1.00  0.00     0.163 HD
BRANCH   4   7
ATOM      7  C   UNL A   1      34.033  31.214  28.261  1.00  0.00     0.137 C 
BRANCH   7   8
ATOM      8  C   UNL A   1      33.487  30.211  27.288  1.00  0.00    -0.017 A 
ATOM      9  C   UNL A   1      31.288  31.360  26.510  1.00  0.00     0.065 C 
ATOM     10  C   UNL A   1      32.341  30.297  26.506  1.00  0.00     0.024 A 
ATOM     11  N   UNL A   1      32.247  29.142  25.732  1.00  0.00    -0.313 N 
ATOM     12  C   UNL A   1      34.033  28.921  27.059  1.00  0.00     0.033 A 
ATOM     13  C   UNL A   1      33.292  28.286  26.079  1.00  0.00     0.053 A 
BRANCH  11  14
ATOM     14  C   UNL A   1      31.259  28.878  24.743  1.00  0.00     0.049 A 
ATOM     15  C   UNL A   1      30.400  27.778  24.884  1.00  0.00     0.027 A 
ATOM     16  C   UNL A   1      31.200  29.673  23.595  1.00  0.00     0.065 A 
ATOM     17  C   UNL A   1      29.480  27.478  23.877  1.00  0.00     0.005 A 
ATOM     18  C   UNL A   1      30.290  29.349  22.596  1.00  0.00     0.125 A 
ATOM     19  C   UNL A   1      29.431  28.263  22.725  1.00  0.00     0.039 A 
ATOM     20  F   UNL A   1      30.259  30.082  21.475  1.00  0.00    -0.207 F 
ENDBRANCH  11  14
BRANCH  13  21
ATOM     21  C   UNL A   1      33.614  27.021  25.408  1.00  0.00    -0.001 A 
ATOM     22  C   UNL A   1      33.726  25.835  26.150  1.00  0.00     0.011 A 
ATOM     23  C   UNL A   1      33.781  26.976  24.018  1.00  0.00     0.011 A 
ATOM     24  C   UNL A   1      34.037  24.629  25.524  1.00  0.00     0.021 A 
ATOM     25  C   UNL A   1      34.094  25.770  23.381  1.00  0.00     0.021 A 
ATOM     26  C   UNL A   1      34.233  24.606  24.143  1.00  0.00     0.067 A 
BRANCH  26  27
ATOM     27  S   UNL A   1      34.628  23.070  23.339  1.00  0.00     0.175 S 
ATOM     28  C   UNL A   1      33.636  21.873  24.196  1.00  0.00     0.163 C 
ATOM     29  O   UNL A   1      34.108  23.179  21.967  1.00  0.00    -0.224 OA
ATOM     30  O   UNL A   1      35.999  22.771  23.586  1.00  0.00    -0.224 OA
ENDBRANCH  26  27
ENDBRANCH  13  21
ENDBRANCH   7   8
ENDBRANCH   4   7
ENDBRANCH   2   3
ENDBRANCH   1   2
BRANCH   1  31
ATOM     31  C   UNL A   1      33.247  35.606  29.554  1.00  0.00     0.023 C 
BRANCH  31  32
ATOM     32  C   UNL A   1      33.152  35.797  31.097  1.00  0.00     0.116 C 
BRANCH  32  33
ATOM     33  N   UNL A   1      33.279  34.538  31.850  1.00  0.00    -0.352 N 
ATOM     34  C   UNL A   1      34.292  33.765  32.409  1.00  0.00     0.251 C 
ATOM     35  H   UNL A   1      32.398  34.126  32.000  1.00  0.00     0.163 HD
ATOM     36  O   UNL A   1      33.903  32.705  32.917  1.00  0.00    -0.269 OA
BRANCH  34  37
ATOM     37  C   UNL A   1      35.789  34.042  32.483  1.00  0.00     0.039 A 
ATOM     38  C   UNL A   1      36.679  33.340  31.637  1.00  0.00     0.014 A 
ATOM     39  C   UNL A   1      36.417  34.683  33.535  1.00  0.00     0.014 A 
ATOM     40  C   UNL A   1      38.134  33.290  31.816  1.00  0.00     0.010 A 
ATOM     41  C   UNL A   1      37.877  34.648  33.697  1.00  0.00     0.010 A 
ATOM     42  C   UNL A   1      38.836  33.933  32.869  1.00  0.00    -0.014 A 
BRANCH  42  43
ATOM     43  C   UNL A   1      40.274  33.172  33.413  1.00  0.00     0.031 A 
ATOM     44  C   UNL A   1      41.318  34.220  33.077  1.00  0.00     0.074 A 
ATOM     45  C   UNL A   1      40.906  31.919  33.719  1.00  0.00     0.049 A 
ATOM     46  N   UNL A   1      41.229  34.724  31.882  1.00  0.00    -0.248 NA
ATOM     47  C   UNL A   1      42.597  34.484  33.730  1.00  0.00     0.031 C 
ATOM     48  C   UNL A   1      42.405  31.719  33.799  1.00  0.00     0.029 A 
ATOM     49  N   UNL A   1      40.569  30.545  33.896  1.00  0.00    -0.354 N 
ATOM     50  C   UNL A   1      42.507  34.679  31.417  1.00  0.00     0.074 A 
ATOM     51  C   UNL A   1      43.339  34.666  32.625  1.00  0.00     0.031 C 
ATOM     52  C   UNL A   1      42.813  30.499  34.194  1.00  0.00     0.029 A 
ATOM     53  C   UNL A   1      41.657  29.634  34.269  1.00  0.00     0.049 A 
ATOM     54  H   UNL A   1      39.646  30.222  33.772  1.00  0.00     0.167 HD
ATOM     55  C   UNL A   1      42.739  33.892  30.324  1.00  0.00     0.037 A 
ATOM     56  C   UNL A   1      41.830  28.276  34.079  1.00  0.00     0.037 A 
ATOM     57  C   UNL A   1      42.014  32.627  30.149  1.00  0.00     0.049 A 
ATOM     58  C   UNL A   1      41.741  28.074  32.605  1.00  0.00     0.074 A 
ATOM     59  C   UNL A   1      40.811  32.079  30.530  1.00  0.00     0.029 A 
ATOM     60  N   UNL A   1      42.538  31.619  29.369  1.00  0.00    -0.354 N 
ATOM     61  N   UNL A   1      42.720  28.085  31.743  1.00  0.00    -0.248 NA
ATOM     62  C   UNL A   1      40.411  27.839  32.073  1.00  0.00     0.031 C 
ATOM     63  C   UNL A   1      40.583  30.817  29.969  1.00  0.00     0.029 A 
ATOM     64  C   UNL A   1      41.845  30.429  29.600  1.00  0.00     0.049 A 
ATOM     65  H   UNL A   1      43.289  31.723  28.742  1.00  0.00     0.167 HD
ATOM     66  C   UNL A   1      42.079  28.230  30.519  1.00  0.00     0.074 A 
ATOM     67  C   UNL A   1      40.675  27.936  30.776  1.00  0.00     0.031 C 
ATOM     68  C   UNL A   1      42.554  29.177  29.661  1.00  0.00     0.037 A 
BRANCH  55  69
ATOM     69  C   UNL A   1      42.901  34.808  29.146  1.00  0.00     0.057 A 
ATOM     70  C   UNL A   1      41.788  35.318  28.458  1.00  0.00     0.134 A 
ATOM     71  C   UNL A   1      44.167  35.141  28.636  1.00  0.00     0.134 A 
ATOM     72  F   UNL A   1      40.536  35.038  28.857  1.00  0.00    -0.206 F 
ATOM     73  C   UNL A   1      41.927  36.117  27.328  1.00  0.00     0.040 A 
ATOM     74  C   UNL A   1      44.316  35.977  27.535  1.00  0.00     0.040 A 
ATOM     75  F   UNL A   1      45.301  34.660  29.167  1.00  0.00    -0.206 F 
ATOM     76  C   UNL A   1      43.195  36.465  26.878  1.00  0.00     0.006 A 
ENDBRANCH  55  69
BRANCH  56  77
ATOM     77  C   UNL A   1      42.554  27.073  34.673  1.00  0.00     0.057 A 
ATOM     78  C   UNL A   1      43.902  26.676  34.686  1.00  0.00     0.134 A 
ATOM     79  C   UNL A   1      41.650  26.058  35.076  1.00  0.00     0.134 A 
ATOM     80  F   UNL A   1      44.877  27.505  34.287  1.00  0.00    -0.206 F 
ATOM     81  C   UNL A   1      44.298  25.360  35.071  1.00  0.00     0.040 A 
ATOM     82  C   UNL A   1      42.021  24.753  35.432  1.00  0.00     0.040 A 
ATOM     83  F   UNL A   1      40.332  26.320  35.076  1.00  0.00    -0.206 F 
ATOM     84  C   UNL A   1      43.357  24.393  35.431  1.00  0.00     0.006 A 
ENDBRANCH  56  77
BRANCH  68  85
ATOM     85  C   UNL A   1      43.978  29.096  29.262  1.00  0.00     0.057 A 
ATOM     86  C   UNL A   1      44.257  28.567  28.002  1.00  0.00     0.134 A 
ATOM     87  C   UNL A   1      45.005  29.766  29.941  1.00  0.00     0.134 A 
ATOM     88  F   UNL A   1      43.310  27.906  27.317  1.00  0.00    -0.206 F 
ATOM     89  C   UNL A   1      45.483  28.797  27.387  1.00  0.00     0.040 A 
ATOM     90  C   UNL A   1      46.212  30.050  29.313  1.00  0.00     0.040 A 
ATOM     91  F   UNL A   1      44.799  30.303  31.154  1.00  0.00    -0.206 F 
ATOM     92  C   UNL A   1      46.447  29.577  28.025  1.00  0.00     0.006 A 
ENDBRANCH  68  85
ENDBRANCH  42  43
ENDBRANCH  34  37
ENDBRANCH  32  33
ENDBRANCH  31  32
ENDBRANCH   1  31
TORSDOF 15
ENDMDL
