MODEL 1
REMARK VINA RESULT:     -11.4      0.000      0.000
REMARK SMILES CC[C@@H](NC(=O)N1CCO[C@H](CC(=O)NCCCCNC(=O)c2ccc(-c3c4nc(c(-c5c(F)cccc5F)c5ccc([nH]5)c(-c5c(F)cccc5F)c5nc(c(-c6c(F)cccc6F)c6ccc3[nH]6)C=C5)C=C4)cc2)C1)c1cccs1
REMARK SMILES IDX 16 1 15 2 13 3 14 4 12 6 11 7 7 8 8 9 77 10 9 11 10 12 5 13
REMARK SMILES IDX 4 14 6 16 3 17 2 18 1 19 78 20 79 21 82 22 80 23 81 24 17 25
REMARK SMILES IDX 18 26 19 27 20 28 21 29 22 31 23 32 24 33 76 34 25 35 75 36
REMARK SMILES IDX 26 37 27 38 28 39 69 40 29 41 74 42 68 43 70 44 30 45 73 46
REMARK SMILES IDX 67 47 66 48 31 50 57 51 40 52 56 53 41 54 44 55 55 56 71 57
REMARK SMILES IDX 42 58 43 59 54 61 72 62 45 63 32 64 33 65 38 66 34 67 35 68
REMARK SMILES IDX 37 69 39 70 36 71 58 72 59 73 64 74 60 75 61 76 63 77 65 78
REMARK SMILES IDX 62 79 46 80 47 81 52 82 48 83 49 84 51 85 53 86 50 87
REMARK H PARENT 15 5 4 15 20 30 70 49 44 60
REMARK Flexibility Score: inf
ROOT
ATOM      1  C   UNL A   1      31.595  29.735  25.246  1.00  0.00     0.116 C 
ENDROOT
BRANCH   1   2
ATOM      2  N   UNL A   1      31.493  28.351  24.691  1.00  0.00    -0.356 N 
ATOM      3  C   UNL A   1      30.444  27.732  23.988  1.00  0.00     0.222 C 
ATOM      4  O   UNL A   1      29.621  28.220  23.216  1.00  0.00    -0.275 OA
ATOM      5  H   UNL A   1      32.285  27.785  24.841  1.00  0.00     0.163 HD
BRANCH   3   6
ATOM      6  C   UNL A   1      30.190  26.289  24.317  1.00  0.00     0.133 C 
BRANCH   6   7
ATOM      7  C   UNL A   1      30.728  25.397  23.188  1.00  0.00     0.147 C 
ATOM      8  N   UNL A   1      31.585  23.588  24.610  1.00  0.00    -0.320 N 
ATOM      9  C   UNL A   1      32.965  23.858  24.094  1.00  0.00     0.150 C 
ATOM     10  C   UNL A   1      30.658  23.882  23.511  1.00  0.00     0.154 C 
ATOM     11  C   UNL A   1      33.118  25.336  23.607  1.00  0.00     0.182 C 
ATOM     12  O   UNL A   1      32.052  25.785  22.757  1.00  0.00    -0.374 OA
BRANCH   8  13
ATOM     13  C   UNL A   1      31.225  22.623  25.535  1.00  0.00     0.318 C 
ATOM     14  N   UNL A   1      31.828  21.400  25.756  1.00  0.00    -0.330 N 
ATOM     15  H   UNL A   1      31.245  21.046  26.466  1.00  0.00     0.166 HD
ATOM     16  O   UNL A   1      30.269  22.874  26.284  1.00  0.00    -0.249 OA
BRANCH  14  17
ATOM     17  C   UNL A   1      32.900  20.128  25.605  1.00  0.00     0.124 C 
BRANCH  17  18
ATOM     18  C   UNL A   1      34.360  20.617  25.647  1.00  0.00     0.027 C 
ATOM     19  C   UNL A   1      34.586  21.693  26.697  1.00  0.00     0.006 C 
ENDBRANCH  17  18
BRANCH  17  20
ATOM     20  C   UNL A   1      32.869  18.777  24.747  1.00  0.00     0.027 A 
ATOM     21  C   UNL A   1      32.541  18.619  23.386  1.00  0.00     0.017 A 
ATOM     22  S   UNL A   1      32.910  17.137  25.357  1.00  0.00    -0.147 S 
ATOM     23  C   UNL A   1      33.084  17.404  22.842  1.00  0.00     0.012 A 
ATOM     24  C   UNL A   1      33.499  16.557  23.843  1.00  0.00     0.065 A 
ENDBRANCH  17  20
ENDBRANCH  14  17
ENDBRANCH   8  13
ENDBRANCH   6   7
ENDBRANCH   3   6
ENDBRANCH   1   2
BRANCH   1  25
ATOM     25  C   UNL A   1      32.444  29.966  26.484  1.00  0.00     0.023 C 
BRANCH  25  26
ATOM     26  C   UNL A   1      32.124  31.305  27.184  1.00  0.00     0.023 C 
BRANCH  26  27
ATOM     27  C   UNL A   1      33.180  32.418  27.203  1.00  0.00     0.116 C 
BRANCH  27  28
ATOM     28  N   UNL A   1      32.690  33.737  27.570  1.00  0.00    -0.352 N 
ATOM     29  C   UNL A   1      33.126  34.550  28.593  1.00  0.00     0.251 C 
ATOM     30  H   UNL A   1      31.954  34.091  27.020  1.00  0.00     0.163 HD
ATOM     31  O   UNL A   1      32.570  35.617  28.846  1.00  0.00    -0.269 OA
BRANCH  29  32
ATOM     32  C   UNL A   1      34.262  34.097  29.418  1.00  0.00     0.039 A 
ATOM     33  C   UNL A   1      34.028  33.213  30.473  1.00  0.00     0.014 A 
ATOM     34  C   UNL A   1      35.565  34.437  29.045  1.00  0.00     0.014 A 
ATOM     35  C   UNL A   1      35.110  32.583  31.089  1.00  0.00     0.010 A 
ATOM     36  C   UNL A   1      36.630  33.732  29.591  1.00  0.00     0.010 A 
ATOM     37  C   UNL A   1      36.415  32.790  30.611  1.00  0.00    -0.014 A 
BRANCH  37  38
ATOM     38  C   UNL A   1      37.568  32.021  31.150  1.00  0.00     0.031 A 
ATOM     39  C   UNL A   1      38.094  32.326  32.525  1.00  0.00     0.074 A 
ATOM     40  C   UNL A   1      38.190  31.108  30.378  1.00  0.00     0.049 A 
ATOM     41  N   UNL A   1      39.126  31.818  33.150  1.00  0.00    -0.248 NA
ATOM     42  C   UNL A   1      37.388  33.370  33.282  1.00  0.00     0.031 C 
ATOM     43  C   UNL A   1      37.812  30.760  29.005  1.00  0.00     0.029 A 
ATOM     44  N   UNL A   1      39.272  30.304  30.633  1.00  0.00    -0.354 N 
ATOM     45  C   UNL A   1      39.199  32.495  34.361  1.00  0.00     0.074 A 
ATOM     46  C   UNL A   1      38.164  33.504  34.346  1.00  0.00     0.031 C 
ATOM     47  C   UNL A   1      38.617  29.782  28.561  1.00  0.00     0.029 A 
ATOM     48  C   UNL A   1      39.596  29.464  29.595  1.00  0.00     0.049 A 
ATOM     49  H   UNL A   1      39.771  30.327  31.483  1.00  0.00     0.167 HD
ATOM     50  C   UNL A   1      40.030  32.274  35.408  1.00  0.00     0.037 A 
ATOM     51  C   UNL A   1      40.571  28.542  29.490  1.00  0.00     0.037 A 
ATOM     52  C   UNL A   1      41.049  31.258  35.421  1.00  0.00     0.049 A 
ATOM     53  C   UNL A   1      41.505  28.331  30.651  1.00  0.00     0.074 A 
ATOM     54  C   UNL A   1      41.906  30.907  36.448  1.00  0.00     0.029 A 
ATOM     55  N   UNL A   1      41.352  30.434  34.345  1.00  0.00    -0.354 N 
ATOM     56  N   UNL A   1      41.514  28.922  31.822  1.00  0.00    -0.248 NA
ATOM     57  C   UNL A   1      42.564  27.328  30.475  1.00  0.00     0.031 C 
ATOM     58  C   UNL A   1      42.769  29.913  35.972  1.00  0.00     0.029 A 
ATOM     59  C   UNL A   1      42.409  29.601  34.671  1.00  0.00     0.049 A 
ATOM     60  H   UNL A   1      40.884  30.442  33.479  1.00  0.00     0.167 HD
ATOM     61  C   UNL A   1      42.558  28.346  32.532  1.00  0.00     0.074 A 
ATOM     62  C   UNL A   1      43.151  27.348  31.663  1.00  0.00     0.031 C 
ATOM     63  C   UNL A   1      42.988  28.616  33.790  1.00  0.00     0.037 A 
BRANCH  50  64
ATOM     64  C   UNL A   1      39.863  33.162  36.611  1.00  0.00     0.057 A 
ATOM     65  C   UNL A   1      40.657  34.301  36.810  1.00  0.00     0.134 A 
ATOM     66  C   UNL A   1      38.915  32.861  37.598  1.00  0.00     0.134 A 
ATOM     67  F   UNL A   1      41.593  34.644  35.910  1.00  0.00    -0.206 F 
ATOM     68  C   UNL A   1      40.556  35.072  37.969  1.00  0.00     0.040 A 
ATOM     69  C   UNL A   1      38.779  33.647  38.743  1.00  0.00     0.040 A 
ATOM     70  F   UNL A   1      38.114  31.793  37.471  1.00  0.00    -0.206 F 
ATOM     71  C   UNL A   1      39.612  34.746  38.940  1.00  0.00     0.006 A 
ENDBRANCH  50  64
BRANCH  51  72
ATOM     72  C   UNL A   1      40.683  27.715  28.260  1.00  0.00     0.057 A 
ATOM     73  C   UNL A   1      41.420  28.165  27.158  1.00  0.00     0.134 A 
ATOM     74  C   UNL A   1      40.080  26.455  28.157  1.00  0.00     0.134 A 
ATOM     75  F   UNL A   1      42.007  29.371  27.186  1.00  0.00    -0.206 F 
ATOM     76  C   UNL A   1      41.546  27.400  25.996  1.00  0.00     0.040 A 
ATOM     77  C   UNL A   1      40.218  25.668  27.012  1.00  0.00     0.040 A 
ATOM     78  F   UNL A   1      39.366  25.960  29.180  1.00  0.00    -0.206 F 
ATOM     79  C   UNL A   1      40.950  26.143  25.925  1.00  0.00     0.006 A 
ENDBRANCH  51  72
BRANCH  63  80
ATOM     80  C   UNL A   1      44.142  27.809  34.311  1.00  0.00     0.057 A 
ATOM     81  C   UNL A   1      43.963  26.538  34.873  1.00  0.00     0.134 A 
ATOM     82  C   UNL A   1      45.454  28.287  34.200  1.00  0.00     0.134 A 
ATOM     83  F   UNL A   1      42.731  26.026  35.020  1.00  0.00    -0.206 F 
ATOM     84  C   UNL A   1      45.046  25.781  35.323  1.00  0.00     0.040 A 
ATOM     85  C   UNL A   1      46.546  27.527  34.618  1.00  0.00     0.040 A 
ATOM     86  F   UNL A   1      45.697  29.493  33.663  1.00  0.00    -0.206 F 
ATOM     87  C   UNL A   1      46.343  26.272  35.188  1.00  0.00     0.006 A 
ENDBRANCH  63  80
ENDBRANCH  37  38
ENDBRANCH  29  32
ENDBRANCH  27  28
ENDBRANCH  26  27
ENDBRANCH  25  26
ENDBRANCH   1  25
TORSDOF 16
ENDMDL
MODEL 2
REMARK VINA RESULT:     -11.3      4.433      9.589
REMARK SMILES CC[C@@H](NC(=O)N1CCO[C@H](CC(=O)NCCCCNC(=O)c2ccc(-c3c4nc(c(-c5c(F)cccc5F)c5ccc([nH]5)c(-c5c(F)cccc5F)c5nc(c(-c6c(F)cccc6F)c6ccc3[nH]6)C=C5)C=C4)cc2)C1)c1cccs1
REMARK SMILES IDX 16 1 15 2 13 3 14 4 12 6 11 7 7 8 8 9 77 10 9 11 10 12 5 13
REMARK SMILES IDX 4 14 6 16 3 17 2 18 1 19 78 20 79 21 82 22 80 23 81 24 17 25
REMARK SMILES IDX 18 26 19 27 20 28 21 29 22 31 23 32 24 33 76 34 25 35 75 36
REMARK SMILES IDX 26 37 27 38 28 39 69 40 29 41 74 42 68 43 70 44 30 45 73 46
REMARK SMILES IDX 67 47 66 48 31 50 57 51 40 52 56 53 41 54 44 55 55 56 71 57
REMARK SMILES IDX 42 58 43 59 54 61 72 62 45 63 32 64 33 65 38 66 34 67 35 68
REMARK SMILES IDX 37 69 39 70 36 71 58 72 59 73 64 74 60 75 61 76 63 77 65 78
REMARK SMILES IDX 62 79 46 80 47 81 52 82 48 83 49 84 51 85 53 86 50 87
REMARK H PARENT 15 5 4 15 20 30 70 49 44 60
REMARK Flexibility Score: inf
ROOT
ATOM      1  C   UNL A   1      35.350  19.407  24.615  1.00  0.00     0.116 C 
ENDROOT
BRANCH   1   2
ATOM      2  N   UNL A   1      34.441  20.342  25.347  1.00  0.00    -0.356 N 
ATOM      3  C   UNL A   1      33.036  20.387  25.394  1.00  0.00     0.222 C 
ATOM      4  O   UNL A   1      32.218  19.472  25.324  1.00  0.00    -0.275 OA
ATOM      5  H   UNL A   1      34.898  21.033  25.878  1.00  0.00     0.163 HD
BRANCH   3   6
ATOM      6  C   UNL A   1      32.420  21.756  25.395  1.00  0.00     0.133 C 
BRANCH   6   7
ATOM      7  C   UNL A   1      32.955  22.565  26.585  1.00  0.00     0.147 C 
ATOM      8  N   UNL A   1      31.852  24.688  26.034  1.00  0.00    -0.320 N 
ATOM      9  C   UNL A   1      33.196  25.334  25.901  1.00  0.00     0.150 C 
ATOM     10  C   UNL A   1      31.976  23.663  27.077  1.00  0.00     0.154 C 
ATOM     11  C   UNL A   1      34.302  24.290  25.536  1.00  0.00     0.182 C 
ATOM     12  O   UNL A   1      34.274  23.103  26.343  1.00  0.00    -0.374 OA
BRANCH   8  13
ATOM     13  C   UNL A   1      30.622  25.298  25.855  1.00  0.00     0.318 C 
ATOM     14  N   UNL A   1      30.289  26.270  24.929  1.00  0.00    -0.330 N 
ATOM     15  H   UNL A   1      29.347  26.422  25.171  1.00  0.00     0.166 HD
ATOM     16  O   UNL A   1      29.685  24.927  26.577  1.00  0.00    -0.249 OA
BRANCH  14  17
ATOM     17  C   UNL A   1      30.442  27.356  23.670  1.00  0.00     0.124 C 
BRANCH  17  18
ATOM     18  C   UNL A   1      31.885  27.883  23.555  1.00  0.00     0.027 C 
ATOM     19  C   UNL A   1      32.743  27.038  22.628  1.00  0.00     0.006 C 
ENDBRANCH  17  18
BRANCH  17  20
ATOM     20  C   UNL A   1      29.469  28.484  23.084  1.00  0.00     0.027 A 
ATOM     21  C   UNL A   1      28.059  28.501  23.084  1.00  0.00     0.017 A 
ATOM     22  S   UNL A   1      29.900  29.801  22.016  1.00  0.00    -0.147 S 
ATOM     23  C   UNL A   1      27.541  29.835  22.943  1.00  0.00     0.012 A 
ATOM     24  C   UNL A   1      28.520  30.704  22.524  1.00  0.00     0.065 A 
ENDBRANCH  17  20
ENDBRANCH  14  17
ENDBRANCH   8  13
ENDBRANCH   6   7
ENDBRANCH   3   6
ENDBRANCH   1   2
BRANCH   1  25
ATOM     25  C   UNL A   1      36.826  19.391  24.974  1.00  0.00     0.023 C 
BRANCH  25  26
ATOM     26  C   UNL A   1      37.436  20.806  25.047  1.00  0.00     0.023 C 
BRANCH  26  27
ATOM     27  C   UNL A   1      38.827  20.998  25.668  1.00  0.00     0.116 C 
BRANCH  27  28
ATOM     28  N   UNL A   1      39.690  19.829  25.637  1.00  0.00    -0.352 N 
ATOM     29  C   UNL A   1      41.013  19.739  26.015  1.00  0.00     0.251 C 
ATOM     30  H   UNL A   1      39.280  18.999  25.303  1.00  0.00     0.163 HD
ATOM     31  O   UNL A   1      41.655  18.701  25.865  1.00  0.00    -0.269 OA
BRANCH  29  32
ATOM     32  C   UNL A   1      41.668  20.937  26.575  1.00  0.00     0.039 A 
ATOM     33  C   UNL A   1      42.219  21.880  25.706  1.00  0.00     0.014 A 
ATOM     34  C   UNL A   1      41.597  21.184  27.948  1.00  0.00     0.014 A 
ATOM     35  C   UNL A   1      42.606  23.124  26.205  1.00  0.00     0.010 A 
ATOM     36  C   UNL A   1      41.887  22.457  28.422  1.00  0.00     0.010 A 
ATOM     37  C   UNL A   1      42.385  23.445  27.555  1.00  0.00    -0.014 A 
BRANCH  37  38
ATOM     38  C   UNL A   1      42.651  24.811  28.080  1.00  0.00     0.031 A 
ATOM     39  C   UNL A   1      44.045  25.198  28.488  1.00  0.00     0.074 A 
ATOM     40  C   UNL A   1      41.630  25.672  28.264  1.00  0.00     0.049 A 
ATOM     41  N   UNL A   1      44.471  26.311  29.029  1.00  0.00    -0.248 NA
ATOM     42  C   UNL A   1      45.091  24.182  28.301  1.00  0.00     0.031 C 
ATOM     43  C   UNL A   1      40.223  25.397  27.960  1.00  0.00     0.029 A 
ATOM     44  N   UNL A   1      41.615  26.955  28.751  1.00  0.00    -0.354 N 
ATOM     45  C   UNL A   1      45.828  26.118  29.259  1.00  0.00     0.074 A 
ATOM     46  C   UNL A   1      46.132  24.757  28.881  1.00  0.00     0.031 C 
ATOM     47  C   UNL A   1      39.493  26.494  28.222  1.00  0.00     0.029 A 
ATOM     48  C   UNL A   1      40.368  27.532  28.753  1.00  0.00     0.049 A 
ATOM     49  H   UNL A   1      42.424  27.419  29.068  1.00  0.00     0.167 HD
ATOM     50  C   UNL A   1      46.747  27.005  29.712  1.00  0.00     0.037 A 
ATOM     51  C   UNL A   1      39.976  28.761  29.140  1.00  0.00     0.037 A 
ATOM     52  C   UNL A   1      46.438  28.363  30.072  1.00  0.00     0.049 A 
ATOM     53  C   UNL A   1      41.005  29.723  29.669  1.00  0.00     0.074 A 
ATOM     54  C   UNL A   1      47.298  29.364  30.485  1.00  0.00     0.029 A 
ATOM     55  N   UNL A   1      45.161  28.907  30.071  1.00  0.00    -0.354 N 
ATOM     56  N   UNL A   1      42.298  29.556  29.808  1.00  0.00    -0.248 NA
ATOM     57  C   UNL A   1      40.520  31.042  30.098  1.00  0.00     0.031 C 
ATOM     58  C   UNL A   1      46.533  30.495  30.792  1.00  0.00     0.029 A 
ATOM     59  C   UNL A   1      45.204  30.219  30.512  1.00  0.00     0.049 A 
ATOM     60  H   UNL A   1      44.345  28.430  29.797  1.00  0.00     0.167 HD
ATOM     61  C   UNL A   1      42.786  30.754  30.313  1.00  0.00     0.074 A 
ATOM     62  C   UNL A   1      41.649  31.644  30.443  1.00  0.00     0.031 C 
ATOM     63  C   UNL A   1      44.060  31.089  30.638  1.00  0.00     0.037 A 
BRANCH  50  64
ATOM     64  C   UNL A   1      48.162  26.513  29.844  1.00  0.00     0.057 A 
ATOM     65  C   UNL A   1      49.095  26.645  28.804  1.00  0.00     0.134 A 
ATOM     66  C   UNL A   1      48.592  25.874  31.014  1.00  0.00     0.134 A 
ATOM     67  F   UNL A   1      48.749  27.237  27.650  1.00  0.00    -0.206 F 
ATOM     68  C   UNL A   1      50.381  26.110  28.901  1.00  0.00     0.040 A 
ATOM     69  C   UNL A   1      49.888  25.369  31.136  1.00  0.00     0.040 A 
ATOM     70  F   UNL A   1      47.758  25.720  32.053  1.00  0.00    -0.206 F 
ATOM     71  C   UNL A   1      50.781  25.471  30.072  1.00  0.00     0.006 A 
ENDBRANCH  50  64
BRANCH  51  72
ATOM     72  C   UNL A   1      38.553  29.167  28.995  1.00  0.00     0.057 A 
ATOM     73  C   UNL A   1      37.672  29.091  30.081  1.00  0.00     0.134 A 
ATOM     74  C   UNL A   1      38.043  29.657  27.787  1.00  0.00     0.134 A 
ATOM     75  F   UNL A   1      38.095  28.613  31.260  1.00  0.00    -0.206 F 
ATOM     76  C   UNL A   1      36.334  29.476  29.968  1.00  0.00     0.040 A 
ATOM     77  C   UNL A   1      36.714  30.071  27.667  1.00  0.00     0.040 A 
ATOM     78  F   UNL A   1      38.836  29.765  26.710  1.00  0.00    -0.206 F 
ATOM     79  C   UNL A   1      35.855  29.976  28.760  1.00  0.00     0.006 A 
ENDBRANCH  51  72
BRANCH  63  80
ATOM     80  C   UNL A   1      44.296  32.481  31.147  1.00  0.00     0.057 A 
ATOM     81  C   UNL A   1      44.306  32.778  32.516  1.00  0.00     0.134 A 
ATOM     82  C   UNL A   1      44.572  33.527  30.257  1.00  0.00     0.134 A 
ATOM     83  F   UNL A   1      44.038  31.824  33.421  1.00  0.00    -0.206 F 
ATOM     84  C   UNL A   1      44.562  34.070  32.980  1.00  0.00     0.040 A 
ATOM     85  C   UNL A   1      44.858  34.815  30.710  1.00  0.00     0.040 A 
ATOM     86  F   UNL A   1      44.587  33.309  28.933  1.00  0.00    -0.206 F 
ATOM     87  C   UNL A   1      44.848  35.091  32.075  1.00  0.00     0.006 A 
ENDBRANCH  63  80
ENDBRANCH  37  38
ENDBRANCH  29  32
ENDBRANCH  27  28
ENDBRANCH  26  27
ENDBRANCH  25  26
ENDBRANCH   1  25
TORSDOF 16
ENDMDL
MODEL 3
REMARK VINA RESULT:     -11.3      1.219      6.401
REMARK SMILES CC[C@@H](NC(=O)N1CCO[C@H](CC(=O)NCCCCNC(=O)c2ccc(-c3c4nc(c(-c5c(F)cccc5F)c5ccc([nH]5)c(-c5c(F)cccc5F)c5nc(c(-c6c(F)cccc6F)c6ccc3[nH]6)C=C5)C=C4)cc2)C1)c1cccs1
REMARK SMILES IDX 16 1 15 2 13 3 14 4 12 6 11 7 7 8 8 9 77 10 9 11 10 12 5 13
REMARK SMILES IDX 4 14 6 16 3 17 2 18 1 19 78 20 79 21 82 22 80 23 81 24 17 25
REMARK SMILES IDX 18 26 19 27 20 28 21 29 22 31 23 32 24 33 76 34 25 35 75 36
REMARK SMILES IDX 26 37 27 38 28 39 69 40 29 41 74 42 68 43 70 44 30 45 73 46
REMARK SMILES IDX 67 47 66 48 31 50 57 51 40 52 56 53 41 54 44 55 55 56 71 57
REMARK SMILES IDX 42 58 43 59 54 61 72 62 45 63 32 64 33 65 38 66 34 67 35 68
REMARK SMILES IDX 37 69 39 70 36 71 58 72 59 73 64 74 60 75 61 76 63 77 65 78
REMARK SMILES IDX 62 79 46 80 47 81 52 82 48 83 49 84 51 85 53 86 50 87
REMARK H PARENT 15 5 4 15 20 30 70 49 44 60
REMARK Flexibility Score: inf
ROOT
ATOM      1  C   UNL A   1      31.415  29.917  25.361  1.00  0.00     0.116 C 
ENDROOT
BRANCH   1   2
ATOM      2  N   UNL A   1      31.488  28.439  25.151  1.00  0.00    -0.356 N 
ATOM      3  C   UNL A   1      31.642  27.398  26.085  1.00  0.00     0.222 C 
ATOM      4  O   UNL A   1      31.255  27.325  27.250  1.00  0.00    -0.275 OA
ATOM      5  H   UNL A   1      31.417  28.149  24.214  1.00  0.00     0.163 HD
BRANCH   3   6
ATOM      6  C   UNL A   1      32.521  26.257  25.663  1.00  0.00     0.133 C 
BRANCH   6   7
ATOM      7  C   UNL A   1      31.776  24.928  25.858  1.00  0.00     0.147 C 
ATOM      8  N   UNL A   1      32.965  23.653  24.130  1.00  0.00    -0.320 N 
ATOM      9  C   UNL A   1      31.670  23.457  23.406  1.00  0.00     0.150 C 
ATOM     10  C   UNL A   1      32.649  23.681  25.563  1.00  0.00     0.154 C 
ATOM     11  C   UNL A   1      30.649  24.595  23.736  1.00  0.00     0.182 C 
ATOM     12  O   UNL A   1      30.525  24.881  25.137  1.00  0.00    -0.374 OA
BRANCH   8  13
ATOM     13  C   UNL A   1      34.208  23.183  23.739  1.00  0.00     0.318 C 
ATOM     14  N   UNL A   1      34.810  21.992  24.099  1.00  0.00    -0.330 N 
ATOM     15  H   UNL A   1      35.667  22.083  23.623  1.00  0.00     0.166 HD
ATOM     16  O   UNL A   1      34.865  23.881  22.953  1.00  0.00    -0.249 OA
BRANCH  14  17
ATOM     17  C   UNL A   1      35.034  20.500  24.814  1.00  0.00     0.124 C 
BRANCH  17  18
ATOM     18  C   UNL A   1      36.530  20.185  25.000  1.00  0.00     0.027 C 
ATOM     19  C   UNL A   1      37.390  21.437  25.036  1.00  0.00     0.006 C 
ENDBRANCH  17  18
BRANCH  17  20
ATOM     20  C   UNL A   1      34.260  19.104  24.680  1.00  0.00     0.027 A 
ATOM     21  C   UNL A   1      34.774  17.863  24.253  1.00  0.00     0.017 A 
ATOM     22  S   UNL A   1      32.530  18.848  24.713  1.00  0.00    -0.147 S 
ATOM     23  C   UNL A   1      33.973  16.764  24.717  1.00  0.00     0.012 A 
ATOM     24  C   UNL A   1      32.752  17.201  25.176  1.00  0.00     0.065 A 
ENDBRANCH  17  20
ENDBRANCH  14  17
ENDBRANCH   8  13
ENDBRANCH   6   7
ENDBRANCH   3   6
ENDBRANCH   1   2
BRANCH   1  25
ATOM     25  C   UNL A   1      31.801  30.485  26.716  1.00  0.00     0.023 C 
BRANCH  25  26
ATOM     26  C   UNL A   1      31.402  31.967  26.876  1.00  0.00     0.023 C 
BRANCH  26  27
ATOM     27  C   UNL A   1      32.471  33.058  26.720  1.00  0.00     0.116 C 
BRANCH  27  28
ATOM     28  N   UNL A   1      32.324  34.204  27.602  1.00  0.00    -0.352 N 
ATOM     29  C   UNL A   1      33.116  34.558  28.673  1.00  0.00     0.251 C 
ATOM     30  H   UNL A   1      31.565  34.801  27.411  1.00  0.00     0.163 HD
ATOM     31  O   UNL A   1      32.835  35.518  29.390  1.00  0.00    -0.269 OA
BRANCH  29  32
ATOM     32  C   UNL A   1      34.301  33.733  28.977  1.00  0.00     0.039 A 
ATOM     33  C   UNL A   1      35.574  34.271  28.781  1.00  0.00     0.014 A 
ATOM     34  C   UNL A   1      34.136  32.489  29.590  1.00  0.00     0.014 A 
ATOM     35  C   UNL A   1      36.684  33.605  29.301  1.00  0.00     0.010 A 
ATOM     36  C   UNL A   1      35.231  31.883  30.194  1.00  0.00     0.010 A 
ATOM     37  C   UNL A   1      36.515  32.438  30.065  1.00  0.00    -0.014 A 
BRANCH  37  38
ATOM     38  C   UNL A   1      37.663  31.790  30.754  1.00  0.00     0.031 A 
ATOM     39  C   UNL A   1      38.462  30.733  30.044  1.00  0.00     0.074 A 
ATOM     40  C   UNL A   1      37.937  32.094  32.038  1.00  0.00     0.049 A 
ATOM     41  N   UNL A   1      39.454  30.004  30.490  1.00  0.00    -0.248 NA
ATOM     42  C   UNL A   1      38.066  30.427  28.662  1.00  0.00     0.031 C 
ATOM     43  C   UNL A   1      37.201  33.062  32.857  1.00  0.00     0.029 A 
ATOM     44  N   UNL A   1      38.908  31.621  32.885  1.00  0.00    -0.354 N 
ATOM     45  C   UNL A   1      39.783  29.145  29.449  1.00  0.00     0.074 A 
ATOM     46  C   UNL A   1      38.833  29.385  28.386  1.00  0.00     0.031 C 
ATOM     47  C   UNL A   1      37.777  33.144  34.067  1.00  0.00     0.029 A 
ATOM     48  C   UNL A   1      38.892  32.205  34.128  1.00  0.00     0.049 A 
ATOM     49  H   UNL A   1      39.557  30.926  32.625  1.00  0.00     0.167 HD
ATOM     50  C   UNL A   1      40.806  28.261  29.369  1.00  0.00     0.037 A 
ATOM     51  C   UNL A   1      39.688  32.007  35.196  1.00  0.00     0.037 A 
ATOM     52  C   UNL A   1      41.756  28.039  30.426  1.00  0.00     0.049 A 
ATOM     53  C   UNL A   1      40.800  30.999  35.101  1.00  0.00     0.074 A 
ATOM     54  C   UNL A   1      42.865  27.213  30.432  1.00  0.00     0.029 A 
ATOM     55  N   UNL A   1      41.699  28.644  31.675  1.00  0.00    -0.354 N 
ATOM     56  N   UNL A   1      41.151  30.250  34.083  1.00  0.00    -0.248 NA
ATOM     57  C   UNL A   1      41.624  30.806  36.302  1.00  0.00     0.031 C 
ATOM     58  C   UNL A   1      43.443  27.271  31.705  1.00  0.00     0.029 A 
ATOM     59  C   UNL A   1      42.732  28.181  32.472  1.00  0.00     0.049 A 
ATOM     60  H   UNL A   1      41.025  29.304  31.952  1.00  0.00     0.167 HD
ATOM     61  C   UNL A   1      42.251  29.518  34.510  1.00  0.00     0.074 A 
ATOM     62  C   UNL A   1      42.517  29.924  35.876  1.00  0.00     0.031 C 
ATOM     63  C   UNL A   1      42.978  28.594  33.832  1.00  0.00     0.037 A 
BRANCH  50  64
ATOM     64  C   UNL A   1      40.928  27.473  28.094  1.00  0.00     0.057 A 
ATOM     65  C   UNL A   1      40.309  26.225  27.929  1.00  0.00     0.134 A 
ATOM     66  C   UNL A   1      41.698  27.952  27.026  1.00  0.00     0.134 A 
ATOM     67  F   UNL A   1      39.565  25.699  28.916  1.00  0.00    -0.206 F 
ATOM     68  C   UNL A   1      40.496  25.459  26.777  1.00  0.00     0.040 A 
ATOM     69  C   UNL A   1      41.861  27.212  25.853  1.00  0.00     0.040 A 
ATOM     70  F   UNL A   1      42.312  29.141  27.107  1.00  0.00    -0.206 F 
ATOM     71  C   UNL A   1      41.274  25.954  25.733  1.00  0.00     0.006 A 
ENDBRANCH  50  64
BRANCH  51  72
ATOM     72  C   UNL A   1      39.491  32.815  36.429  1.00  0.00     0.057 A 
ATOM     73  C   UNL A   1      38.554  32.430  37.396  1.00  0.00     0.134 A 
ATOM     74  C   UNL A   1      40.241  33.970  36.684  1.00  0.00     0.134 A 
ATOM     75  F   UNL A   1      37.792  31.344  37.202  1.00  0.00    -0.206 F 
ATOM     76  C   UNL A   1      38.361  33.169  38.566  1.00  0.00     0.040 A 
ATOM     77  C   UNL A   1      40.077  34.704  37.862  1.00  0.00     0.040 A 
ATOM     78  F   UNL A   1      41.162  34.388  35.804  1.00  0.00    -0.206 F 
ATOM     79  C   UNL A   1      39.131  34.305  38.804  1.00  0.00     0.006 A 
ENDBRANCH  51  72
BRANCH  63  80
ATOM     80  C   UNL A   1      44.142  27.974  34.550  1.00  0.00     0.057 A 
ATOM     81  C   UNL A   1      44.019  26.773  35.261  1.00  0.00     0.134 A 
ATOM     82  C   UNL A   1      45.414  28.557  34.482  1.00  0.00     0.134 A 
ATOM     83  F   UNL A   1      42.826  26.168  35.375  1.00  0.00    -0.206 F 
ATOM     84  C   UNL A   1      45.115  26.186  35.895  1.00  0.00     0.040 A 
ATOM     85  C   UNL A   1      46.522  27.964  35.086  1.00  0.00     0.040 A 
ATOM     86  F   UNL A   1      45.603  29.703  33.809  1.00  0.00    -0.206 F 
ATOM     87  C   UNL A   1      46.374  26.778  35.800  1.00  0.00     0.006 A 
ENDBRANCH  63  80
ENDBRANCH  37  38
ENDBRANCH  29  32
ENDBRANCH  27  28
ENDBRANCH  26  27
ENDBRANCH  25  26
ENDBRANCH   1  25
TORSDOF 16
ENDMDL
