MODEL 1
REMARK VINA RESULT:     -13.3      0.000      0.000
REMARK SMILES O=C(CNC(=O)[C@@H](CC1=c2ccccc2=NC1)N1C(=O)N=C2C=CC=C[C@H]2C1=O)NCCCCNC(=O)c1ccc(-c2c3nc(c(-c4c(F)cccc4F)c4ccc([nH]4)c(-c4c(F)cccc4F)c4nc(c(-c5c(F)cccc5F)c5ccc2[nH]5)C=C4)C=C3)cc1
REMARK SMILES IDX 31 1 30 2 1 3 2 4 3 6 4 7 5 8 6 10 7 11 8 12 9 13 10 14
REMARK SMILES IDX 17 15 11 16 15 17 16 18 12 19 14 20 13 21 18 22 19 23 28 24
REMARK SMILES IDX 21 25 20 26 27 27 29 28 22 29 26 30 23 31 25 32 24 33 32 34
REMARK SMILES IDX 33 35 34 36 35 37 36 38 37 40 38 41 39 42 91 43 40 44 90 45
REMARK SMILES IDX 41 46 42 47 43 48 84 49 44 50 89 51 83 52 85 53 45 54 88 55
REMARK SMILES IDX 82 56 81 57 46 59 72 60 55 61 71 62 56 63 59 64 70 65 86 66
REMARK SMILES IDX 57 67 58 68 69 70 87 71 60 72 47 73 48 74 53 75 49 76 50 77
REMARK SMILES IDX 52 78 54 79 51 80 73 81 74 82 79 83 75 84 76 85 78 86 80 87
REMARK SMILES IDX 77 88 61 89 62 90 67 91 63 92 64 93 66 94 68 95 65 96
REMARK H PARENT 30 5 4 9 35 39 85 58 59 69
REMARK Flexibility Score: inf
ROOT
ATOM      1  C   UNL A   1      41.142  20.686  27.087  1.00  0.00     0.116 C 
ENDROOT
BRANCH   1   2
ATOM      2  N   UNL A   1      39.817  20.811  26.489  1.00  0.00    -0.355 N 
ATOM      3  O   UNL A   1      39.795  23.097  26.595  1.00  0.00    -0.273 OA
ATOM      4  C   UNL A   1      39.261  22.047  26.240  1.00  0.00     0.239 C 
ATOM      5  H   UNL A   1      39.312  19.998  26.261  1.00  0.00     0.163 HD
BRANCH   4   6
ATOM      6  C   UNL A   1      37.924  22.087  25.475  1.00  0.00     0.216 C 
BRANCH   6   7
ATOM      7  N   UNL A   1      36.690  21.619  26.106  1.00  0.00    -0.345 N 
ATOM      8  C   UNL A   1      35.648  21.171  25.295  1.00  0.00     0.244 C 
ATOM      9  H   UNL A   1      36.597  21.622  27.086  1.00  0.00     0.164 HD
ATOM     10  O   UNL A   1      35.622  19.987  24.968  1.00  0.00    -0.273 OA
BRANCH   8  11
ATOM     11  C   UNL A   1      34.430  22.112  25.181  1.00  0.00     0.188 C 
BRANCH  11  12
ATOM     12  C   UNL A   1      34.475  23.386  26.056  1.00  0.00     0.069 C 
BRANCH  12  13
ATOM     13  C   UNL A   1      33.362  24.389  26.198  1.00  0.00    -0.037 C 
ATOM     14  C   UNL A   1      33.210  25.705  26.026  1.00  0.00     0.001 A 
ATOM     15  C   UNL A   1      32.067  23.798  26.700  1.00  0.00     0.174 C 
ATOM     16  C   UNL A   1      33.999  26.810  25.587  1.00  0.00     0.010 A 
ATOM     17  C   UNL A   1      31.842  25.945  26.542  1.00  0.00     0.065 A 
ATOM     18  N   UNL A   1      31.149  24.921  26.929  1.00  0.00    -0.280 NA
ATOM     19  C   UNL A   1      33.500  28.055  25.630  1.00  0.00     0.001 A 
ATOM     20  C   UNL A   1      31.375  27.345  26.607  1.00  0.00     0.028 A 
ATOM     21  C   UNL A   1      32.181  28.322  26.162  1.00  0.00     0.002 A 
ENDBRANCH  12  13
ENDBRANCH  11  12
BRANCH  11  22
ATOM     22  N   UNL A   1      33.771  22.402  23.903  1.00  0.00    -0.249 N 
ATOM     23  C   UNL A   1      32.556  21.785  23.683  1.00  0.00     0.351 C 
ATOM     24  C   UNL A   1      34.157  23.392  23.038  1.00  0.00     0.244 C 
ATOM     25  N   UNL A   1      31.490  22.639  23.598  1.00  0.00    -0.197 NA
ATOM     26  O   UNL A   1      32.425  20.567  23.708  1.00  0.00    -0.246 OA
ATOM     27  C   UNL A   1      33.009  24.069  22.296  1.00  0.00     0.151 C 
ATOM     28  O   UNL A   1      35.331  23.660  22.793  1.00  0.00    -0.273 OA
ATOM     29  C   UNL A   1      31.706  23.786  23.035  1.00  0.00     0.062 C 
ATOM     30  C   UNL A   1      33.259  25.550  22.158  1.00  0.00    -0.007 C 
ATOM     31  C   UNL A   1      30.677  24.844  23.165  1.00  0.00     0.025 C 
ATOM     32  C   UNL A   1      32.343  26.479  22.463  1.00  0.00    -0.003 C 
ATOM     33  C   UNL A   1      31.026  26.111  22.915  1.00  0.00     0.002 C 
ENDBRANCH  11  22
ENDBRANCH   8  11
ENDBRANCH   6   7
ENDBRANCH   4   6
ENDBRANCH   1   2
BRANCH   1  34
ATOM     34  C   UNL A   1      42.256  20.277  26.122  1.00  0.00     0.023 C 
BRANCH  34  35
ATOM     35  C   UNL A   1      43.397  21.280  25.961  1.00  0.00     0.023 C 
BRANCH  35  36
ATOM     36  C   UNL A   1      43.020  22.620  25.347  1.00  0.00     0.116 C 
BRANCH  36  37
ATOM     37  N   UNL A   1      44.146  23.391  24.848  1.00  0.00    -0.352 N 
ATOM     38  C   UNL A   1      44.510  24.685  25.162  1.00  0.00     0.251 C 
ATOM     39  H   UNL A   1      44.726  22.929  24.200  1.00  0.00     0.163 HD
ATOM     40  O   UNL A   1      45.452  25.219  24.586  1.00  0.00    -0.269 OA
BRANCH  38  41
ATOM     41  C   UNL A   1      43.722  25.450  26.158  1.00  0.00     0.039 A 
ATOM     42  C   UNL A   1      43.737  26.846  26.165  1.00  0.00     0.014 A 
ATOM     43  C   UNL A   1      42.998  24.758  27.133  1.00  0.00     0.014 A 
ATOM     44  C   UNL A   1      43.207  27.535  27.250  1.00  0.00     0.010 A 
ATOM     45  C   UNL A   1      42.376  25.461  28.170  1.00  0.00     0.010 A 
ATOM     46  C   UNL A   1      42.526  26.853  28.271  1.00  0.00    -0.014 A 
BRANCH  46  47
ATOM     47  C   UNL A   1      41.998  27.617  29.434  1.00  0.00     0.031 A 
ATOM     48  C   UNL A   1      42.726  27.623  30.753  1.00  0.00     0.074 A 
ATOM     49  C   UNL A   1      40.886  28.361  29.282  1.00  0.00     0.049 A 
ATOM     50  N   UNL A   1      42.418  28.248  31.863  1.00  0.00    -0.248 NA
ATOM     51  C   UNL A   1      43.955  26.820  30.842  1.00  0.00     0.031 C 
ATOM     52  C   UNL A   1      40.090  28.446  28.057  1.00  0.00     0.029 A 
ATOM     53  N   UNL A   1      40.246  29.204  30.154  1.00  0.00    -0.354 N 
ATOM     54  C   UNL A   1      43.398  27.896  32.785  1.00  0.00     0.074 A 
ATOM     55  C   UNL A   1      44.294  26.980  32.112  1.00  0.00     0.031 C 
ATOM     56  C   UNL A   1      39.102  29.336  28.235  1.00  0.00     0.029 A 
ATOM     57  C   UNL A   1      39.155  29.832  29.606  1.00  0.00     0.049 A 
ATOM     58  H   UNL A   1      40.540  29.345  31.083  1.00  0.00     0.167 HD
ATOM     59  C   UNL A   1      43.546  28.306  34.069  1.00  0.00     0.037 A 
ATOM     60  C   UNL A   1      38.282  30.700  30.148  1.00  0.00     0.037 A 
ATOM     61  C   UNL A   1      42.667  29.232  34.735  1.00  0.00     0.049 A 
ATOM     62  C   UNL A   1      38.445  31.110  31.581  1.00  0.00     0.074 A 
ATOM     63  C   UNL A   1      42.749  29.729  36.025  1.00  0.00     0.029 A 
ATOM     64  N   UNL A   1      41.541  29.804  34.160  1.00  0.00    -0.354 N 
ATOM     65  N   UNL A   1      39.380  30.772  32.435  1.00  0.00    -0.248 NA
ATOM     66  C   UNL A   1      37.423  32.011  32.129  1.00  0.00     0.031 C 
ATOM     67  C   UNL A   1      41.651  30.569  36.243  1.00  0.00     0.029 A 
ATOM     68  C   UNL A   1      40.907  30.629  35.076  1.00  0.00     0.049 A 
ATOM     69  H   UNL A   1      41.237  29.648  33.236  1.00  0.00     0.167 HD
ATOM     70  C   UNL A   1      39.063  31.422  33.619  1.00  0.00     0.074 A 
ATOM     71  C   UNL A   1      37.865  32.196  33.365  1.00  0.00     0.031 C 
ATOM     72  C   UNL A   1      39.706  31.380  34.812  1.00  0.00     0.037 A 
BRANCH  59  73
ATOM     73  C   UNL A   1      44.697  27.731  34.844  1.00  0.00     0.057 A 
ATOM     74  C   UNL A   1      44.543  26.547  35.576  1.00  0.00     0.134 A 
ATOM     75  C   UNL A   1      45.954  28.350  34.876  1.00  0.00     0.134 A 
ATOM     76  F   UNL A   1      43.365  25.906  35.595  1.00  0.00    -0.206 F 
ATOM     77  C   UNL A   1      45.599  25.994  36.305  1.00  0.00     0.040 A 
ATOM     78  C   UNL A   1      47.024  27.795  35.582  1.00  0.00     0.040 A 
ATOM     79  F   UNL A   1      46.173  29.478  34.186  1.00  0.00    -0.206 F 
ATOM     80  C   UNL A   1      46.847  26.615  36.301  1.00  0.00     0.006 A 
ENDBRANCH  59  73
BRANCH  60  81
ATOM     81  C   UNL A   1      37.165  31.227  29.326  1.00  0.00     0.057 A 
ATOM     82  C   UNL A   1      36.031  30.451  29.056  1.00  0.00     0.134 A 
ATOM     83  C   UNL A   1      37.213  32.513  28.780  1.00  0.00     0.134 A 
ATOM     84  F   UNL A   1      35.930  29.207  29.548  1.00  0.00    -0.206 F 
ATOM     85  C   UNL A   1      34.993  30.928  28.258  1.00  0.00     0.040 A 
ATOM     86  C   UNL A   1      36.171  33.014  27.999  1.00  0.00     0.040 A 
ATOM     87  F   UNL A   1      38.266  33.309  29.019  1.00  0.00    -0.206 F 
ATOM     88  C   UNL A   1      35.059  32.217  27.730  1.00  0.00     0.006 A 
ENDBRANCH  60  81
BRANCH  72  89
ATOM     89  C   UNL A   1      39.121  32.200  35.924  1.00  0.00     0.057 A 
ATOM     90  C   UNL A   1      38.219  31.635  36.833  1.00  0.00     0.134 A 
ATOM     91  C   UNL A   1      39.454  33.550  36.092  1.00  0.00     0.134 A 
ATOM     92  F   UNL A   1      37.857  30.348  36.725  1.00  0.00    -0.206 F 
ATOM     93  C   UNL A   1      37.668  32.385  37.873  1.00  0.00     0.040 A 
ATOM     94  C   UNL A   1      38.927  34.304  37.142  1.00  0.00     0.040 A 
ATOM     95  F   UNL A   1      40.326  34.144  35.264  1.00  0.00    -0.206 F 
ATOM     96  C   UNL A   1      38.027  33.722  38.034  1.00  0.00     0.006 A 
ENDBRANCH  72  89
ENDBRANCH  46  47
ENDBRANCH  38  41
ENDBRANCH  36  37
ENDBRANCH  35  36
ENDBRANCH  34  35
ENDBRANCH   1  34
TORSDOF 16
ENDMDL
MODEL 2
REMARK VINA RESULT:     -13.2      3.550      8.654
REMARK SMILES O=C(CNC(=O)[C@@H](CC1=c2ccccc2=NC1)N1C(=O)N=C2C=CC=C[C@H]2C1=O)NCCCCNC(=O)c1ccc(-c2c3nc(c(-c4c(F)cccc4F)c4ccc([nH]4)c(-c4c(F)cccc4F)c4nc(c(-c5c(F)cccc5F)c5ccc2[nH]5)C=C4)C=C3)cc1
REMARK SMILES IDX 31 1 30 2 1 3 2 4 3 6 4 7 5 8 6 10 7 11 8 12 9 13 10 14
REMARK SMILES IDX 17 15 11 16 15 17 16 18 12 19 14 20 13 21 18 22 19 23 28 24
REMARK SMILES IDX 21 25 20 26 27 27 29 28 22 29 26 30 23 31 25 32 24 33 32 34
REMARK SMILES IDX 33 35 34 36 35 37 36 38 37 40 38 41 39 42 91 43 40 44 90 45
REMARK SMILES IDX 41 46 42 47 43 48 84 49 44 50 89 51 83 52 85 53 45 54 88 55
REMARK SMILES IDX 82 56 81 57 46 59 72 60 55 61 71 62 56 63 59 64 70 65 86 66
REMARK SMILES IDX 57 67 58 68 69 70 87 71 60 72 47 73 48 74 53 75 49 76 50 77
REMARK SMILES IDX 52 78 54 79 51 80 73 81 74 82 79 83 75 84 76 85 78 86 80 87
REMARK SMILES IDX 77 88 61 89 62 90 67 91 63 92 64 93 66 94 68 95 65 96
REMARK H PARENT 30 5 4 9 35 39 85 58 59 69
REMARK Flexibility Score: inf
ROOT
ATOM      1  C   UNL A   1      35.789  32.991  28.272  1.00  0.00     0.116 C 
ENDROOT
BRANCH   1   2
ATOM      2  N   UNL A   1      34.717  32.242  27.626  1.00  0.00    -0.355 N 
ATOM      3  O   UNL A   1      35.378  30.224  28.481  1.00  0.00    -0.273 OA
ATOM      4  C   UNL A   1      34.568  30.887  27.833  1.00  0.00     0.239 C 
ATOM      5  H   UNL A   1      34.090  32.712  27.031  1.00  0.00     0.163 HD
BRANCH   4   6
ATOM      6  C   UNL A   1      33.327  30.204  27.229  1.00  0.00     0.216 C 
BRANCH   6   7
ATOM      7  N   UNL A   1      33.171  30.089  25.778  1.00  0.00    -0.345 N 
ATOM      8  C   UNL A   1      31.974  29.590  25.269  1.00  0.00     0.244 C 
ATOM      9  H   UNL A   1      33.900  30.359  25.174  1.00  0.00     0.164 HD
ATOM     10  O   UNL A   1      31.055  30.374  25.043  1.00  0.00    -0.273 OA
BRANCH   8  11
ATOM     11  C   UNL A   1      32.030  28.159  24.693  1.00  0.00     0.188 C 
BRANCH  11  12
ATOM     12  C   UNL A   1      33.437  27.527  24.591  1.00  0.00     0.069 C 
BRANCH  12  13
ATOM     13  C   UNL A   1      33.749  26.178  23.999  1.00  0.00    -0.037 C 
ATOM     14  C   UNL A   1      34.320  25.043  24.410  1.00  0.00     0.001 A 
ATOM     15  C   UNL A   1      33.363  26.045  22.545  1.00  0.00     0.174 C 
ATOM     16  C   UNL A   1      34.881  24.519  25.613  1.00  0.00     0.010 A 
ATOM     17  C   UNL A   1      34.394  24.245  23.164  1.00  0.00     0.065 A 
ATOM     18  N   UNL A   1      33.872  24.746  22.089  1.00  0.00    -0.280 NA
ATOM     19  C   UNL A   1      35.459  23.308  25.618  1.00  0.00     0.001 A 
ATOM     20  C   UNL A   1      35.087  22.942  23.230  1.00  0.00     0.028 A 
ATOM     21  C   UNL A   1      35.576  22.523  24.408  1.00  0.00     0.002 A 
ENDBRANCH  12  13
ENDBRANCH  11  12
BRANCH  11  22
ATOM     22  N   UNL A   1      31.039  27.131  25.029  1.00  0.00    -0.249 N 
ATOM     23  C   UNL A   1      30.149  26.784  24.032  1.00  0.00     0.351 C 
ATOM     24  C   UNL A   1      31.081  26.351  26.155  1.00  0.00     0.244 C 
ATOM     25  N   UNL A   1      30.267  25.496  23.586  1.00  0.00    -0.197 NA
ATOM     26  O   UNL A   1      29.417  27.606  23.493  1.00  0.00    -0.246 OA
ATOM     27  C   UNL A   1      30.575  24.925  25.958  1.00  0.00     0.151 C 
ATOM     28  O   UNL A   1      31.404  26.774  27.262  1.00  0.00    -0.273 OA
ATOM     29  C   UNL A   1      30.578  24.600  24.469  1.00  0.00     0.062 C 
ATOM     30  C   UNL A   1      31.411  23.946  26.743  1.00  0.00    -0.007 C 
ATOM     31  C   UNL A   1      30.987  23.256  24.000  1.00  0.00     0.025 C 
ATOM     32  C   UNL A   1      31.912  22.821  26.213  1.00  0.00    -0.003 C 
ATOM     33  C   UNL A   1      31.644  22.455  24.846  1.00  0.00     0.002 C 
ENDBRANCH  11  22
ENDBRANCH   8  11
ENDBRANCH   6   7
ENDBRANCH   4   6
ENDBRANCH   1   2
BRANCH   1  34
ATOM     34  C   UNL A   1      35.339  33.949  29.377  1.00  0.00     0.023 C 
BRANCH  34  35
ATOM     35  C   UNL A   1      33.875  34.382  29.324  1.00  0.00     0.023 C 
BRANCH  35  36
ATOM     36  C   UNL A   1      33.593  35.818  29.740  1.00  0.00     0.116 C 
BRANCH  36  37
ATOM     37  N   UNL A   1      32.545  35.960  30.736  1.00  0.00    -0.352 N 
ATOM     38  C   UNL A   1      32.560  35.577  32.062  1.00  0.00     0.251 C 
ATOM     39  H   UNL A   1      31.713  36.386  30.425  1.00  0.00     0.163 HD
ATOM     40  O   UNL A   1      31.554  35.699  32.754  1.00  0.00    -0.269 OA
BRANCH  38  41
ATOM     41  C   UNL A   1      33.782  34.963  32.637  1.00  0.00     0.039 A 
ATOM     42  C   UNL A   1      34.980  35.675  32.701  1.00  0.00     0.014 A 
ATOM     43  C   UNL A   1      33.738  33.635  33.070  1.00  0.00     0.014 A 
ATOM     44  C   UNL A   1      36.163  35.007  33.001  1.00  0.00     0.010 A 
ATOM     45  C   UNL A   1      34.915  32.992  33.470  1.00  0.00     0.010 A 
ATOM     46  C   UNL A   1      36.148  33.656  33.382  1.00  0.00    -0.014 A 
BRANCH  46  47
ATOM     47  C   UNL A   1      37.434  32.963  33.665  1.00  0.00     0.031 A 
ATOM     48  C   UNL A   1      38.174  33.198  34.956  1.00  0.00     0.074 A 
ATOM     49  C   UNL A   1      37.909  32.068  32.777  1.00  0.00     0.049 A 
ATOM     50  N   UNL A   1      39.296  32.666  35.374  1.00  0.00    -0.248 NA
ATOM     51  C   UNL A   1      37.583  34.160  35.899  1.00  0.00     0.031 C 
ATOM     52  C   UNL A   1      37.288  31.743  31.493  1.00  0.00     0.029 A 
ATOM     53  N   UNL A   1      39.008  31.250  32.831  1.00  0.00    -0.354 N 
ATOM     54  C   UNL A   1      39.556  33.243  36.612  1.00  0.00     0.074 A 
ATOM     55  C   UNL A   1      38.490  34.188  36.864  1.00  0.00     0.031 C 
ATOM     56  C   UNL A   1      37.981  30.758  30.905  1.00  0.00     0.029 A 
ATOM     57  C   UNL A   1      39.132  30.428  31.737  1.00  0.00     0.049 A 
ATOM     58  H   UNL A   1      39.648  31.253  33.580  1.00  0.00     0.167 HD
ATOM     59  C   UNL A   1      40.581  33.000  37.466  1.00  0.00     0.037 A 
ATOM     60  C   UNL A   1      40.074  29.519  31.429  1.00  0.00     0.037 A 
ATOM     61  C   UNL A   1      41.634  32.046  37.226  1.00  0.00     0.049 A 
ATOM     62  C   UNL A   1      41.218  29.295  32.373  1.00  0.00     0.074 A 
ATOM     63  C   UNL A   1      42.701  31.711  38.042  1.00  0.00     0.029 A 
ATOM     64  N   UNL A   1      41.751  31.272  36.081  1.00  0.00    -0.354 N 
ATOM     65  N   UNL A   1      41.445  29.845  33.541  1.00  0.00    -0.248 NA
ATOM     66  C   UNL A   1      42.244  28.334  31.948  1.00  0.00     0.031 C 
ATOM     67  C   UNL A   1      43.485  30.764  37.374  1.00  0.00     0.029 A 
ATOM     68  C   UNL A   1      42.884  30.478  36.159  1.00  0.00     0.049 A 
ATOM     69  H   UNL A   1      41.121  31.284  35.324  1.00  0.00     0.167 HD
ATOM     70  C   UNL A   1      42.635  29.294  33.994  1.00  0.00     0.074 A 
ATOM     71  C   UNL A   1      43.068  28.347  32.987  1.00  0.00     0.031 C 
ATOM     72  C   UNL A   1      43.311  29.552  35.140  1.00  0.00     0.037 A 
BRANCH  59  73
ATOM     73  C   UNL A   1      40.621  33.803  38.734  1.00  0.00     0.057 A 
ATOM     74  C   UNL A   1      41.403  34.963  38.821  1.00  0.00     0.134 A 
ATOM     75  C   UNL A   1      39.897  33.428  39.874  1.00  0.00     0.134 A 
ATOM     76  F   UNL A   1      42.127  35.376  37.770  1.00  0.00    -0.206 F 
ATOM     77  C   UNL A   1      41.455  35.724  39.991  1.00  0.00     0.040 A 
ATOM     78  C   UNL A   1      39.922  34.195  41.042  1.00  0.00     0.040 A 
ATOM     79  F   UNL A   1      39.117  32.337  39.854  1.00  0.00    -0.206 F 
ATOM     80  C   UNL A   1      40.706  35.345  41.102  1.00  0.00     0.006 A 
ENDBRANCH  59  73
BRANCH  60  81
ATOM     81  C   UNL A   1      39.976  28.762  30.158  1.00  0.00     0.057 A 
ATOM     82  C   UNL A   1      40.569  29.237  28.981  1.00  0.00     0.134 A 
ATOM     83  C   UNL A   1      39.273  27.555  30.086  1.00  0.00     0.134 A 
ATOM     84  F   UNL A   1      41.251  30.391  28.985  1.00  0.00    -0.206 F 
ATOM     85  C   UNL A   1      40.452  28.547  27.775  1.00  0.00     0.040 A 
ATOM     86  C   UNL A   1      39.168  26.842  28.891  1.00  0.00     0.040 A 
ATOM     87  F   UNL A   1      38.699  27.043  31.184  1.00  0.00    -0.206 F 
ATOM     88  C   UNL A   1      39.754  27.342  27.729  1.00  0.00     0.006 A 
ENDBRANCH  60  81
BRANCH  72  89
ATOM     89  C   UNL A   1      44.584  28.791  35.359  1.00  0.00     0.057 A 
ATOM     90  C   UNL A   1      45.811  29.306  34.924  1.00  0.00     0.134 A 
ATOM     91  C   UNL A   1      44.594  27.547  36.002  1.00  0.00     0.134 A 
ATOM     92  F   UNL A   1      45.870  30.492  34.298  1.00  0.00    -0.206 F 
ATOM     93  C   UNL A   1      47.005  28.611  35.122  1.00  0.00     0.040 A 
ATOM     94  C   UNL A   1      45.784  26.852  36.226  1.00  0.00     0.040 A 
ATOM     95  F   UNL A   1      43.454  27.008  36.458  1.00  0.00    -0.206 F 
ATOM     96  C   UNL A   1      46.994  27.383  35.781  1.00  0.00     0.006 A 
ENDBRANCH  72  89
ENDBRANCH  46  47
ENDBRANCH  38  41
ENDBRANCH  36  37
ENDBRANCH  35  36
ENDBRANCH  34  35
ENDBRANCH   1  34
TORSDOF 16
ENDMDL
MODEL 3
REMARK VINA RESULT:     -13.2      3.588      9.099
REMARK SMILES O=C(CNC(=O)[C@@H](CC1=c2ccccc2=NC1)N1C(=O)N=C2C=CC=C[C@H]2C1=O)NCCCCNC(=O)c1ccc(-c2c3nc(c(-c4c(F)cccc4F)c4ccc([nH]4)c(-c4c(F)cccc4F)c4nc(c(-c5c(F)cccc5F)c5ccc2[nH]5)C=C4)C=C3)cc1
REMARK SMILES IDX 31 1 30 2 1 3 2 4 3 6 4 7 5 8 6 10 7 11 8 12 9 13 10 14
REMARK SMILES IDX 17 15 11 16 15 17 16 18 12 19 14 20 13 21 18 22 19 23 28 24
REMARK SMILES IDX 21 25 20 26 27 27 29 28 22 29 26 30 23 31 25 32 24 33 32 34
REMARK SMILES IDX 33 35 34 36 35 37 36 38 37 40 38 41 39 42 91 43 40 44 90 45
REMARK SMILES IDX 41 46 42 47 43 48 84 49 44 50 89 51 83 52 85 53 45 54 88 55
REMARK SMILES IDX 82 56 81 57 46 59 72 60 55 61 71 62 56 63 59 64 70 65 86 66
REMARK SMILES IDX 57 67 58 68 69 70 87 71 60 72 47 73 48 74 53 75 49 76 50 77
REMARK SMILES IDX 52 78 54 79 51 80 73 81 74 82 79 83 75 84 76 85 78 86 80 87
REMARK SMILES IDX 77 88 61 89 62 90 67 91 63 92 64 93 66 94 68 95 65 96
REMARK H PARENT 30 5 4 9 35 39 85 58 59 69
REMARK Flexibility Score: inf
ROOT
ATOM      1  C   UNL A   1      35.400  32.289  28.287  1.00  0.00     0.116 C 
ENDROOT
BRANCH   1   2
ATOM      2  N   UNL A   1      34.880  31.330  27.318  1.00  0.00    -0.355 N 
ATOM      3  O   UNL A   1      35.695  29.502  28.429  1.00  0.00    -0.273 OA
ATOM      4  C   UNL A   1      35.034  29.972  27.504  1.00  0.00     0.239 C 
ATOM      5  H   UNL A   1      34.414  31.658  26.516  1.00  0.00     0.163 HD
BRANCH   4   6
ATOM      6  C   UNL A   1      34.330  29.031  26.509  1.00  0.00     0.216 C 
BRANCH   6   7
ATOM      7  N   UNL A   1      33.649  29.568  25.330  1.00  0.00    -0.345 N 
ATOM      8  C   UNL A   1      32.256  29.541  25.288  1.00  0.00     0.244 C 
ATOM      9  H   UNL A   1      34.166  29.939  24.579  1.00  0.00     0.164 HD
ATOM     10  O   UNL A   1      31.633  30.490  25.757  1.00  0.00    -0.273 OA
BRANCH   8  11
ATOM     11  C   UNL A   1      31.629  28.500  24.336  1.00  0.00     0.188 C 
BRANCH  11  12
ATOM     12  C   UNL A   1      32.559  27.950  23.230  1.00  0.00     0.069 C 
BRANCH  12  13
ATOM     13  C   UNL A   1      33.128  26.557  23.179  1.00  0.00    -0.037 C 
ATOM     14  C   UNL A   1      33.826  25.760  23.992  1.00  0.00     0.001 A 
ATOM     15  C   UNL A   1      32.902  25.853  21.862  1.00  0.00     0.174 C 
ATOM     16  C   UNL A   1      34.347  25.802  25.320  1.00  0.00     0.010 A 
ATOM     17  C   UNL A   1      34.136  24.600  23.124  1.00  0.00     0.065 A 
ATOM     18  N   UNL A   1      33.645  24.588  21.925  1.00  0.00    -0.280 NA
ATOM     19  C   UNL A   1      35.101  24.793  25.782  1.00  0.00     0.001 A 
ATOM     20  C   UNL A   1      35.012  23.549  23.681  1.00  0.00     0.028 A 
ATOM     21  C   UNL A   1      35.448  23.665  24.945  1.00  0.00     0.002 A 
ENDBRANCH  12  13
ENDBRANCH  11  12
BRANCH  11  22
ATOM     22  N   UNL A   1      30.722  27.446  24.803  1.00  0.00    -0.249 N 
ATOM     23  C   UNL A   1      29.726  27.059  23.928  1.00  0.00     0.351 C 
ATOM     24  C   UNL A   1      30.931  26.681  25.920  1.00  0.00     0.244 C 
ATOM     25  N   UNL A   1      29.828  25.770  23.482  1.00  0.00    -0.197 NA
ATOM     26  O   UNL A   1      28.905  27.851  23.479  1.00  0.00    -0.246 OA
ATOM     27  C   UNL A   1      30.450  25.238  25.800  1.00  0.00     0.151 C 
ATOM     28  O   UNL A   1      31.376  27.128  26.975  1.00  0.00    -0.273 OA
ATOM     29  C   UNL A   1      30.277  24.895  24.326  1.00  0.00     0.062 C 
ATOM     30  C   UNL A   1      31.410  24.296  26.482  1.00  0.00    -0.007 C 
ATOM     31  C   UNL A   1      30.667  23.559  23.820  1.00  0.00     0.025 C 
ATOM     32  C   UNL A   1      31.876  23.180  25.903  1.00  0.00    -0.003 C 
ATOM     33  C   UNL A   1      31.451  22.789  24.584  1.00  0.00     0.002 C 
ENDBRANCH  11  22
ENDBRANCH   8  11
ENDBRANCH   6   7
ENDBRANCH   4   6
ENDBRANCH   1   2
BRANCH   1  34
ATOM     34  C   UNL A   1      34.359  32.879  29.239  1.00  0.00     0.023 C 
BRANCH  34  35
ATOM     35  C   UNL A   1      33.533  34.038  28.684  1.00  0.00     0.023 C 
BRANCH  35  36
ATOM     36  C   UNL A   1      33.795  35.399  29.310  1.00  0.00     0.116 C 
BRANCH  36  37
ATOM     37  N   UNL A   1      32.780  35.833  30.254  1.00  0.00    -0.352 N 
ATOM     38  C   UNL A   1      32.761  35.685  31.626  1.00  0.00     0.251 C 
ATOM     39  H   UNL A   1      32.002  36.293  29.864  1.00  0.00     0.163 HD
ATOM     40  O   UNL A   1      31.782  36.041  32.274  1.00  0.00    -0.269 OA
BRANCH  38  41
ATOM     41  C   UNL A   1      33.906  35.040  32.313  1.00  0.00     0.039 A 
ATOM     42  C   UNL A   1      35.149  35.671  32.383  1.00  0.00     0.014 A 
ATOM     43  C   UNL A   1      33.746  33.759  32.851  1.00  0.00     0.014 A 
ATOM     44  C   UNL A   1      36.264  34.952  32.798  1.00  0.00     0.010 A 
ATOM     45  C   UNL A   1      34.853  33.074  33.363  1.00  0.00     0.010 A 
ATOM     46  C   UNL A   1      36.134  33.642  33.286  1.00  0.00    -0.014 A 
BRANCH  46  47
ATOM     47  C   UNL A   1      37.352  32.890  33.693  1.00  0.00     0.031 A 
ATOM     48  C   UNL A   1      37.959  31.850  32.787  1.00  0.00     0.074 A 
ATOM     49  C   UNL A   1      37.951  33.188  34.861  1.00  0.00     0.049 A 
ATOM     50  N   UNL A   1      39.027  31.114  32.975  1.00  0.00    -0.248 NA
ATOM     51  C   UNL A   1      37.278  31.597  31.509  1.00  0.00     0.031 C 
ATOM     52  C   UNL A   1      37.469  34.177  35.826  1.00  0.00     0.029 A 
ATOM     53  N   UNL A   1      39.106  32.710  35.424  1.00  0.00    -0.354 N 
ATOM     54  C   UNL A   1      39.131  30.298  31.853  1.00  0.00     0.074 A 
ATOM     55  C   UNL A   1      38.002  30.609  31.005  1.00  0.00     0.031 C 
ATOM     56  C   UNL A   1      38.348  34.274  36.834  1.00  0.00     0.029 A 
ATOM     57  C   UNL A   1      39.419  33.307  36.621  1.00  0.00     0.049 A 
ATOM     58  H   UNL A   1      39.657  32.006  35.011  1.00  0.00     0.167 HD
ATOM     59  C   UNL A   1      40.085  29.383  31.552  1.00  0.00     0.037 A 
ATOM     60  C   UNL A   1      40.446  33.092  37.462  1.00  0.00     0.037 A 
ATOM     61  C   UNL A   1      41.221  29.085  32.387  1.00  0.00     0.049 A 
ATOM     62  C   UNL A   1      41.469  32.048  37.125  1.00  0.00     0.074 A 
ATOM     63  C   UNL A   1      42.255  28.193  32.155  1.00  0.00     0.029 A 
ATOM     64  N   UNL A   1      41.473  29.675  33.617  1.00  0.00    -0.354 N 
ATOM     65  N   UNL A   1      41.555  31.291  36.058  1.00  0.00    -0.248 NA
ATOM     66  C   UNL A   1      42.529  31.820  38.115  1.00  0.00     0.031 C 
ATOM     67  C   UNL A   1      43.111  28.214  33.263  1.00  0.00     0.029 A 
ATOM     68  C   UNL A   1      42.632  29.149  34.166  1.00  0.00     0.049 A 
ATOM     69  H   UNL A   1      40.911  30.365  34.038  1.00  0.00     0.167 HD
ATOM     70  C   UNL A   1      42.680  30.501  36.245  1.00  0.00     0.074 A 
ATOM     71  C   UNL A   1      43.259  30.890  37.515  1.00  0.00     0.031 C 
ATOM     72  C   UNL A   1      43.186  29.536  35.439  1.00  0.00     0.037 A 
BRANCH  59  73
ATOM     73  C   UNL A   1      39.923  28.620  30.269  1.00  0.00     0.057 A 
ATOM     74  C   UNL A   1      40.546  29.059  29.093  1.00  0.00     0.134 A 
ATOM     75  C   UNL A   1      39.144  27.458  30.190  1.00  0.00     0.134 A 
ATOM     76  F   UNL A   1      41.300  30.168  29.096  1.00  0.00    -0.206 F 
ATOM     77  C   UNL A   1      40.408  28.366  27.888  1.00  0.00     0.040 A 
ATOM     78  C   UNL A   1      39.018  26.742  28.996  1.00  0.00     0.040 A 
ATOM     79  F   UNL A   1      38.533  26.974  31.281  1.00  0.00    -0.206 F 
ATOM     80  C   UNL A   1      39.649  27.198  27.841  1.00  0.00     0.006 A 
ENDBRANCH  59  73
BRANCH  60  81
ATOM     81  C   UNL A   1      40.545  33.879  38.716  1.00  0.00     0.057 A 
ATOM     82  C   UNL A   1      39.873  33.481  39.879  1.00  0.00     0.134 A 
ATOM     83  C   UNL A   1      41.300  35.054  38.775  1.00  0.00     0.134 A 
ATOM     84  F   UNL A   1      39.129  32.365  39.883  1.00  0.00    -0.206 F 
ATOM     85  C   UNL A   1      39.936  34.233  41.051  1.00  0.00     0.040 A 
ATOM     86  C   UNL A   1      41.390  35.805  39.948  1.00  0.00     0.040 A 
ATOM     87  F   UNL A   1      41.978  35.475  37.697  1.00  0.00    -0.206 F 
ATOM     88  C   UNL A   1      40.701  35.397  41.089  1.00  0.00     0.006 A 
ENDBRANCH  60  81
BRANCH  72  89
ATOM     89  C   UNL A   1      44.430  28.845  35.913  1.00  0.00     0.057 A 
ATOM     90  C   UNL A   1      45.696  29.357  35.605  1.00  0.00     0.134 A 
ATOM     91  C   UNL A   1      44.373  27.670  36.675  1.00  0.00     0.134 A 
ATOM     92  F   UNL A   1      45.820  30.477  34.876  1.00  0.00    -0.206 F 
ATOM     93  C   UNL A   1      46.863  28.727  36.039  1.00  0.00     0.040 A 
ATOM     94  C   UNL A   1      45.532  27.043  37.134  1.00  0.00     0.040 A 
ATOM     95  F   UNL A   1      43.190  27.140  37.018  1.00  0.00    -0.206 F 
ATOM     96  C   UNL A   1      46.782  27.570  36.812  1.00  0.00     0.006 A 
ENDBRANCH  72  89
ENDBRANCH  46  47
ENDBRANCH  38  41
ENDBRANCH  36  37
ENDBRANCH  35  36
ENDBRANCH  34  35
ENDBRANCH   1  34
TORSDOF 16
ENDMDL
