MODEL 1
REMARK VINA RESULT:     -14.5      0.000      0.000
REMARK SMILES Cc1ccccc1C(=O)Nc1cc(C(=O)NCCCCNC(=O)c2ccc(-c3c4nc(c(-c5c(F)cccc5F)c5ccc([nH]5)c(-c5c(F)cccc5F)c5nc(c(-c6c(F)cccc6F)c6ccc3[nH]6)C=C5)C=C4)cc2)ccc1N1CC[NH+](CC(=O)Nc2ccc(F)cc2)CC1
REMARK SMILES IDX 17 1 16 2 14 3 15 4 13 6 11 7 12 8 80 9 79 10 78 11 10 12
REMARK SMILES IDX 8 13 9 14 7 16 1 17 2 18 3 19 4 20 6 21 5 22 81 23 82 24
REMARK SMILES IDX 97 25 83 26 96 27 84 28 85 30 86 31 87 32 88 33 89 35 90 36
REMARK SMILES IDX 95 37 91 38 94 39 92 40 93 41 18 42 19 43 20 44 21 45 22 46
REMARK SMILES IDX 23 48 24 49 25 50 77 51 26 52 76 53 27 54 28 55 29 56 70 57
REMARK SMILES IDX 30 58 75 59 69 60 71 61 31 62 74 63 68 64 67 65 32 67 58 68
REMARK SMILES IDX 41 69 57 70 42 71 45 72 56 73 72 74 43 75 44 76 55 78 73 79
REMARK SMILES IDX 46 80 33 81 34 82 39 83 35 84 36 85 38 86 40 87 37 88 59 89
REMARK SMILES IDX 60 90 65 91 61 92 62 93 64 94 66 95 63 96 47 97 48 98 53 99
REMARK SMILES IDX 49 100 50 101 52 102 54 103 51 104
REMARK H PARENT 16 5 10 15 84 29 88 34 21 47 71 66 45 77
REMARK Flexibility Score: inf
ROOT
ATOM      1  C   UNL A   1      39.164  22.481  26.221  1.00  0.00     0.116 C 
ENDROOT
BRANCH   1   2
ATOM      2  N   UNL A   1      38.710  21.174  25.764  1.00  0.00    -0.352 N 
ATOM      3  C   UNL A   1      37.645  20.745  25.003  1.00  0.00     0.251 C 
ATOM      4  O   UNL A   1      37.606  19.543  24.729  1.00  0.00    -0.269 OA
ATOM      5  H   UNL A   1      39.290  20.437  26.064  1.00  0.00     0.163 HD
BRANCH   3   6
ATOM      6  C   UNL A   1      36.561  21.629  24.476  1.00  0.00     0.042 A 
ATOM      7  C   UNL A   1      34.289  22.468  24.471  1.00  0.00     0.065 A 
ATOM      8  C   UNL A   1      35.243  21.539  24.873  1.00  0.00     0.042 A 
ATOM      9  C   UNL A   1      34.567  23.492  23.531  1.00  0.00     0.061 A 
ATOM     10  C   UNL A   1      35.891  23.530  23.069  1.00  0.00     0.029 A 
ATOM     11  C   UNL A   1      36.876  22.639  23.555  1.00  0.00     0.016 A 
BRANCH   7  12
ATOM     12  N   UNL A   1      33.024  22.352  25.062  1.00  0.00    -0.320 N 
ATOM     13  C   UNL A   1      32.235  21.214  25.138  1.00  0.00     0.255 C 
ATOM     14  O   UNL A   1      31.284  21.220  25.923  1.00  0.00    -0.269 OA
ATOM     15  H   UNL A   1      32.654  23.168  25.468  1.00  0.00     0.170 HD
BRANCH  13  16
ATOM     16  C   UNL A   1      32.454  19.993  24.304  1.00  0.00     0.043 A 
ATOM     17  C   UNL A   1      31.789  20.870  21.951  1.00  0.00     0.045 C 
ATOM     18  C   UNL A   1      32.216  19.809  22.923  1.00  0.00    -0.038 A 
ATOM     19  C   UNL A   1      32.406  18.526  22.365  1.00  0.00     0.004 A 
ATOM     20  C   UNL A   1      32.903  17.476  23.128  1.00  0.00     0.000 A 
ATOM     21  C   UNL A   1      33.004  18.935  25.044  1.00  0.00     0.014 A 
ATOM     22  C   UNL A   1      33.223  17.693  24.460  1.00  0.00     0.001 A 
ENDBRANCH  13  16
ENDBRANCH   7  12
BRANCH   9  23
ATOM     23  N   UNL A   1      33.620  24.436  23.152  1.00  0.00    -0.359 N 
ATOM     24  C   UNL A   1      33.075  24.583  21.776  1.00  0.00     0.178 C 
ATOM     25  C   UNL A   1      33.537  25.702  23.876  1.00  0.00     0.178 C 
ATOM     26  C   UNL A   1      31.767  25.480  21.727  1.00  0.00     0.284 C 
ATOM     27  C   UNL A   1      32.056  26.034  24.032  1.00  0.00     0.284 C 
ATOM     28  N   UNL A   1      31.530  26.518  22.764  1.00  0.00    -0.324 N 
ATOM     29  H   UNL A   1      30.516  26.625  22.791  1.00  0.00     0.348 HD
BRANCH  28  30
ATOM     30  C   UNL A   1      31.903  27.925  22.475  1.00  0.00     0.364 C 
BRANCH  30  31
ATOM     31  C   UNL A   1      30.902  29.028  22.819  1.00  0.00     0.279 C 
ATOM     32  O   UNL A   1      30.055  29.362  21.975  1.00  0.00    -0.268 OA
ATOM     33  N   UNL A   1      30.808  29.659  24.031  1.00  0.00    -0.321 N 
ATOM     34  H   UNL A   1      29.919  30.067  24.146  1.00  0.00     0.170 HD
BRANCH  33  35
ATOM     35  C   UNL A   1      31.619  29.893  25.166  1.00  0.00     0.041 A 
ATOM     36  C   UNL A   1      31.310  31.042  25.921  1.00  0.00     0.029 A 
ATOM     37  C   UNL A   1      32.754  29.178  25.533  1.00  0.00     0.029 A 
ATOM     38  C   UNL A   1      32.132  31.476  26.970  1.00  0.00     0.041 A 
ATOM     39  C   UNL A   1      33.618  29.641  26.542  1.00  0.00     0.041 A 
ATOM     40  C   UNL A   1      33.298  30.785  27.254  1.00  0.00     0.123 A 
ATOM     41  F   UNL A   1      34.112  31.220  28.224  1.00  0.00    -0.207 F 
ENDBRANCH  33  35
ENDBRANCH  30  31
ENDBRANCH  28  30
ENDBRANCH   9  23
ENDBRANCH   3   6
ENDBRANCH   1   2
BRANCH   1  42
ATOM     42  C   UNL A   1      40.489  22.422  27.002  1.00  0.00     0.023 C 
BRANCH  42  43
ATOM     43  C   UNL A   1      40.810  21.042  27.568  1.00  0.00     0.023 C 
BRANCH  43  44
ATOM     44  C   UNL A   1      42.303  20.765  27.629  1.00  0.00     0.116 C 
BRANCH  44  45
ATOM     45  N   UNL A   1      42.852  20.058  26.482  1.00  0.00    -0.352 N 
ATOM     46  C   UNL A   1      43.536  20.545  25.375  1.00  0.00     0.251 C 
ATOM     47  H   UNL A   1      42.718  19.082  26.491  1.00  0.00     0.163 HD
ATOM     48  O   UNL A   1      43.823  19.787  24.468  1.00  0.00    -0.269 OA
BRANCH  46  49
ATOM     49  C   UNL A   1      44.069  21.940  25.364  1.00  0.00     0.039 A 
ATOM     50  C   UNL A   1      45.157  22.222  26.205  1.00  0.00     0.014 A 
ATOM     51  C   UNL A   1      43.389  22.988  24.757  1.00  0.00     0.014 A 
ATOM     52  C   UNL A   1      45.355  23.521  26.665  1.00  0.00     0.010 A 
ATOM     53  C   UNL A   1      43.482  24.243  25.310  1.00  0.00     0.010 A 
ATOM     54  C   UNL A   1      44.414  24.486  26.321  1.00  0.00    -0.014 A 
BRANCH  54  55
ATOM     55  C   UNL A   1      44.210  25.730  27.045  1.00  0.00     0.031 A 
ATOM     56  C   UNL A   1      42.903  26.402  27.004  1.00  0.00     0.074 A 
ATOM     57  C   UNL A   1      45.181  26.150  27.885  1.00  0.00     0.049 A 
ATOM     58  N   UNL A   1      42.701  27.604  27.416  1.00  0.00    -0.248 NA
ATOM     59  C   UNL A   1      41.721  25.794  26.403  1.00  0.00     0.031 C 
ATOM     60  C   UNL A   1      45.073  27.111  28.977  1.00  0.00     0.029 A 
ATOM     61  N   UNL A   1      46.551  25.930  27.764  1.00  0.00    -0.354 N 
ATOM     62  C   UNL A   1      41.342  27.814  27.434  1.00  0.00     0.074 A 
ATOM     63  C   UNL A   1      40.802  26.730  26.654  1.00  0.00     0.031 C 
ATOM     64  C   UNL A   1      46.291  27.619  29.225  1.00  0.00     0.029 A 
ATOM     65  C   UNL A   1      47.185  27.101  28.203  1.00  0.00     0.049 A 
ATOM     66  H   UNL A   1      46.989  25.112  27.436  1.00  0.00     0.167 HD
ATOM     67  C   UNL A   1      40.855  28.799  28.239  1.00  0.00     0.037 A 
ATOM     68  C   UNL A   1      48.017  27.850  27.425  1.00  0.00     0.037 A 
ATOM     69  C   UNL A   1      41.953  29.659  28.704  1.00  0.00     0.049 A 
ATOM     70  C   UNL A   1      47.490  29.257  27.271  1.00  0.00     0.074 A 
ATOM     71  C   UNL A   1      42.618  29.780  29.914  1.00  0.00     0.029 A 
ATOM     72  N   UNL A   1      42.723  30.348  27.765  1.00  0.00    -0.354 N 
ATOM     73  N   UNL A   1      46.241  29.576  27.478  1.00  0.00    -0.248 NA
ATOM     74  C   UNL A   1      48.304  30.408  26.896  1.00  0.00     0.031 C 
ATOM     75  C   UNL A   1      43.846  30.456  29.670  1.00  0.00     0.029 A 
ATOM     76  C   UNL A   1      43.905  30.790  28.326  1.00  0.00     0.049 A 
ATOM     77  H   UNL A   1      42.458  30.499  26.829  1.00  0.00     0.167 HD
ATOM     78  C   UNL A   1      46.079  30.925  27.325  1.00  0.00     0.074 A 
ATOM     79  C   UNL A   1      47.397  31.401  26.940  1.00  0.00     0.031 C 
ATOM     80  C   UNL A   1      44.879  31.540  27.539  1.00  0.00     0.037 A 
BRANCH  67  81
ATOM     81  C   UNL A   1      39.443  28.855  28.809  1.00  0.00     0.057 A 
ATOM     82  C   UNL A   1      38.385  29.369  28.028  1.00  0.00     0.134 A 
ATOM     83  C   UNL A   1      39.059  28.543  30.131  1.00  0.00     0.134 A 
ATOM     84  F   UNL A   1      38.561  29.703  26.743  1.00  0.00    -0.206 F 
ATOM     85  C   UNL A   1      37.090  29.589  28.529  1.00  0.00     0.040 A 
ATOM     86  C   UNL A   1      37.764  28.734  30.636  1.00  0.00     0.040 A 
ATOM     87  F   UNL A   1      39.907  28.059  31.039  1.00  0.00    -0.206 F 
ATOM     88  C   UNL A   1      36.775  29.274  29.840  1.00  0.00     0.006 A 
ENDBRANCH  67  81
BRANCH  68  89
ATOM     89  C   UNL A   1      48.759  27.055  26.411  1.00  0.00     0.057 A 
ATOM     90  C   UNL A   1      48.267  27.075  25.091  1.00  0.00     0.134 A 
ATOM     91  C   UNL A   1      50.106  26.720  26.582  1.00  0.00     0.134 A 
ATOM     92  F   UNL A   1      46.983  27.384  24.859  1.00  0.00    -0.206 F 
ATOM     93  C   UNL A   1      49.111  26.928  23.988  1.00  0.00     0.040 A 
ATOM     94  C   UNL A   1      50.958  26.558  25.480  1.00  0.00     0.040 A 
ATOM     95  F   UNL A   1      50.658  26.721  27.803  1.00  0.00    -0.206 F 
ATOM     96  C   UNL A   1      50.470  26.709  24.182  1.00  0.00     0.006 A 
ENDBRANCH  68  89
BRANCH  80  97
ATOM     97  C   UNL A   1      44.534  32.943  27.106  1.00  0.00     0.057 A 
ATOM     98  C   UNL A   1      43.984  33.261  25.855  1.00  0.00     0.134 A 
ATOM     99  C   UNL A   1      44.580  34.010  28.031  1.00  0.00     0.134 A 
ATOM    100  F   UNL A   1      43.786  32.325  24.917  1.00  0.00    -0.206 F 
ATOM    101  C   UNL A   1      43.555  34.554  25.531  1.00  0.00     0.040 A 
ATOM    102  C   UNL A   1      44.103  35.289  27.737  1.00  0.00     0.040 A 
ATOM    103  F   UNL A   1      45.064  33.849  29.271  1.00  0.00    -0.206 F 
ATOM    104  C   UNL A   1      43.597  35.569  26.477  1.00  0.00     0.006 A 
ENDBRANCH  80  97
ENDBRANCH  54  55
ENDBRANCH  46  49
ENDBRANCH  44  45
ENDBRANCH  43  44
ENDBRANCH  42  43
ENDBRANCH   1  42
TORSDOF 17
ENDMDL
MODEL 2
REMARK VINA RESULT:     -14.0      1.827      2.668
REMARK SMILES Cc1ccccc1C(=O)Nc1cc(C(=O)NCCCCNC(=O)c2ccc(-c3c4nc(c(-c5c(F)cccc5F)c5ccc([nH]5)c(-c5c(F)cccc5F)c5nc(c(-c6c(F)cccc6F)c6ccc3[nH]6)C=C5)C=C4)cc2)ccc1N1CC[NH+](CC(=O)Nc2ccc(F)cc2)CC1
REMARK SMILES IDX 17 1 16 2 14 3 15 4 13 6 11 7 12 8 80 9 79 10 78 11 10 12
REMARK SMILES IDX 8 13 9 14 7 16 1 17 2 18 3 19 4 20 6 21 5 22 81 23 82 24
REMARK SMILES IDX 97 25 83 26 96 27 84 28 85 30 86 31 87 32 88 33 89 35 90 36
REMARK SMILES IDX 95 37 91 38 94 39 92 40 93 41 18 42 19 43 20 44 21 45 22 46
REMARK SMILES IDX 23 48 24 49 25 50 77 51 26 52 76 53 27 54 28 55 29 56 70 57
REMARK SMILES IDX 30 58 75 59 69 60 71 61 31 62 74 63 68 64 67 65 32 67 58 68
REMARK SMILES IDX 41 69 57 70 42 71 45 72 56 73 72 74 43 75 44 76 55 78 73 79
REMARK SMILES IDX 46 80 33 81 34 82 39 83 35 84 36 85 38 86 40 87 37 88 59 89
REMARK SMILES IDX 60 90 65 91 61 92 62 93 64 94 66 95 63 96 47 97 48 98 53 99
REMARK SMILES IDX 49 100 50 101 52 102 54 103 51 104
REMARK H PARENT 16 5 10 15 84 29 88 34 21 47 71 66 45 77
REMARK Flexibility Score: inf
ROOT
ATOM      1  C   UNL A   1      39.024  23.057  26.327  1.00  0.00     0.116 C 
ENDROOT
BRANCH   1   2
ATOM      2  N   UNL A   1      38.403  21.781  25.997  1.00  0.00    -0.352 N 
ATOM      3  C   UNL A   1      37.243  21.423  25.347  1.00  0.00     0.251 C 
ATOM      4  O   UNL A   1      37.058  20.218  25.162  1.00  0.00    -0.269 OA
ATOM      5  H   UNL A   1      38.927  21.006  26.306  1.00  0.00     0.163 HD
BRANCH   3   6
ATOM      6  C   UNL A   1      36.218  22.385  24.839  1.00  0.00     0.042 A 
ATOM      7  C   UNL A   1      34.300  22.952  23.473  1.00  0.00     0.065 A 
ATOM      8  C   UNL A   1      35.332  22.089  23.823  1.00  0.00     0.042 A 
ATOM      9  C   UNL A   1      34.159  24.245  24.037  1.00  0.00     0.061 A 
ATOM     10  C   UNL A   1      35.111  24.572  25.014  1.00  0.00     0.029 A 
ATOM     11  C   UNL A   1      36.100  23.651  25.430  1.00  0.00     0.016 A 
BRANCH   7  12
ATOM     12  N   UNL A   1      33.382  22.470  22.531  1.00  0.00    -0.320 N 
ATOM     13  C   UNL A   1      32.477  21.431  22.695  1.00  0.00     0.255 C 
ATOM     14  O   UNL A   1      31.567  21.321  21.871  1.00  0.00    -0.269 OA
ATOM     15  H   UNL A   1      33.378  22.918  21.654  1.00  0.00     0.170 HD
BRANCH  13  16
ATOM     16  C   UNL A   1      32.559  20.425  23.798  1.00  0.00     0.043 A 
ATOM     17  C   UNL A   1      32.064  21.914  25.868  1.00  0.00     0.045 C 
ATOM     18  C   UNL A   1      32.433  20.627  25.191  1.00  0.00    -0.038 A 
ATOM     19  C   UNL A   1      32.646  19.533  26.058  1.00  0.00     0.004 A 
ATOM     20  C   UNL A   1      32.889  18.258  25.562  1.00  0.00     0.000 A 
ATOM     21  C   UNL A   1      32.753  19.122  23.316  1.00  0.00     0.014 A 
ATOM     22  C   UNL A   1      32.917  18.054  24.190  1.00  0.00     0.001 A 
ENDBRANCH  13  16
ENDBRANCH   7  12
BRANCH   9  23
ATOM     23  N   UNL A   1      33.111  25.096  23.706  1.00  0.00    -0.359 N 
ATOM     24  C   UNL A   1      33.273  26.430  23.069  1.00  0.00     0.178 C 
ATOM     25  C   UNL A   1      31.869  25.039  24.473  1.00  0.00     0.178 C 
ATOM     26  C   UNL A   1      31.913  26.999  22.484  1.00  0.00     0.284 C 
ATOM     27  C   UNL A   1      30.720  25.184  23.478  1.00  0.00     0.284 C 
ATOM     28  N   UNL A   1      30.611  26.575  23.062  1.00  0.00    -0.324 N 
ATOM     29  H   UNL A   1      29.943  26.691  22.300  1.00  0.00     0.348 HD
BRANCH  28  30
ATOM     30  C   UNL A   1      29.957  27.439  24.076  1.00  0.00     0.364 C 
BRANCH  30  31
ATOM     31  C   UNL A   1      30.708  28.672  24.576  1.00  0.00     0.279 C 
ATOM     32  O   UNL A   1      31.559  28.541  25.471  1.00  0.00    -0.268 OA
ATOM     33  N   UNL A   1      30.573  29.938  24.071  1.00  0.00    -0.321 N 
ATOM     34  H   UNL A   1      31.360  30.488  24.288  1.00  0.00     0.170 HD
BRANCH  33  35
ATOM     35  C   UNL A   1      29.628  30.684  23.327  1.00  0.00     0.041 A 
ATOM     36  C   UNL A   1      29.429  30.276  21.994  1.00  0.00     0.029 A 
ATOM     37  C   UNL A   1      28.977  31.841  23.742  1.00  0.00     0.029 A 
ATOM     38  C   UNL A   1      28.646  31.024  21.105  1.00  0.00     0.041 A 
ATOM     39  C   UNL A   1      28.242  32.631  22.841  1.00  0.00     0.041 A 
ATOM     40  C   UNL A   1      28.080  32.215  21.529  1.00  0.00     0.123 A 
ATOM     41  F   UNL A   1      27.369  32.959  20.673  1.00  0.00    -0.207 F 
ENDBRANCH  33  35
ENDBRANCH  30  31
ENDBRANCH  28  30
ENDBRANCH   9  23
ENDBRANCH   3   6
ENDBRANCH   1   2
BRANCH   1  42
ATOM     42  C   UNL A   1      40.076  22.947  27.447  1.00  0.00     0.023 C 
BRANCH  42  43
ATOM     43  C   UNL A   1      41.252  22.038  27.099  1.00  0.00     0.023 C 
BRANCH  43  44
ATOM     44  C   UNL A   1      41.942  22.441  25.806  1.00  0.00     0.116 C 
BRANCH  44  45
ATOM     45  N   UNL A   1      42.927  21.494  25.305  1.00  0.00    -0.352 N 
ATOM     46  C   UNL A   1      44.286  21.658  25.072  1.00  0.00     0.251 C 
ATOM     47  H   UNL A   1      42.574  20.598  25.098  1.00  0.00     0.163 HD
ATOM     48  O   UNL A   1      44.916  20.758  24.548  1.00  0.00    -0.269 OA
BRANCH  46  49
ATOM     49  C   UNL A   1      45.012  22.848  25.608  1.00  0.00     0.039 A 
ATOM     50  C   UNL A   1      45.458  22.786  26.939  1.00  0.00     0.014 A 
ATOM     51  C   UNL A   1      45.040  24.063  24.937  1.00  0.00     0.014 A 
ATOM     52  C   UNL A   1      45.629  23.962  27.664  1.00  0.00     0.010 A 
ATOM     53  C   UNL A   1      45.067  25.223  25.675  1.00  0.00     0.010 A 
ATOM     54  C   UNL A   1      45.283  25.162  27.052  1.00  0.00    -0.014 A 
BRANCH  54  55
ATOM     55  C   UNL A   1      44.973  26.390  27.767  1.00  0.00     0.031 A 
ATOM     56  C   UNL A   1      43.578  26.829  27.909  1.00  0.00     0.074 A 
ATOM     57  C   UNL A   1      45.969  27.009  28.440  1.00  0.00     0.049 A 
ATOM     58  N   UNL A   1      43.232  28.000  28.317  1.00  0.00    -0.248 NA
ATOM     59  C   UNL A   1      42.444  26.002  27.511  1.00  0.00     0.031 C 
ATOM     60  C   UNL A   1      45.855  27.993  29.510  1.00  0.00     0.029 A 
ATOM     61  N   UNL A   1      47.323  27.017  28.117  1.00  0.00    -0.354 N 
ATOM     62  C   UNL A   1      41.875  27.978  28.536  1.00  0.00     0.074 A 
ATOM     63  C   UNL A   1      41.423  26.781  27.875  1.00  0.00     0.031 C 
ATOM     64  C   UNL A   1      46.989  28.710  29.557  1.00  0.00     0.029 A 
ATOM     65  C   UNL A   1      47.801  28.299  28.424  1.00  0.00     0.049 A 
ATOM     66  H   UNL A   1      47.844  26.268  27.746  1.00  0.00     0.167 HD
ATOM     67  C   UNL A   1      41.346  28.907  29.381  1.00  0.00     0.037 A 
ATOM     68  C   UNL A   1      48.367  29.136  27.510  1.00  0.00     0.037 A 
ATOM     69  C   UNL A   1      42.334  29.962  29.652  1.00  0.00     0.049 A 
ATOM     70  C   UNL A   1      47.587  30.425  27.402  1.00  0.00     0.074 A 
ATOM     71  C   UNL A   1      43.136  30.255  30.743  1.00  0.00     0.029 A 
ATOM     72  N   UNL A   1      42.826  30.723  28.590  1.00  0.00    -0.354 N 
ATOM     73  N   UNL A   1      46.345  30.540  27.789  1.00  0.00    -0.248 NA
ATOM     74  C   UNL A   1      48.126  31.676  26.879  1.00  0.00     0.031 C 
ATOM     75  C   UNL A   1      44.180  31.115  30.298  1.00  0.00     0.029 A 
ATOM     76  C   UNL A   1      43.983  31.384  28.953  1.00  0.00     0.049 A 
ATOM     77  H   UNL A   1      42.406  30.779  27.701  1.00  0.00     0.167 HD
ATOM     78  C   UNL A   1      45.931  31.833  27.630  1.00  0.00     0.074 A 
ATOM     79  C   UNL A   1      47.075  32.503  27.037  1.00  0.00     0.031 C 
ATOM     80  C   UNL A   1      44.686  32.247  28.008  1.00  0.00     0.037 A 
BRANCH  67  81
ATOM     81  C   UNL A   1      40.044  28.754  30.158  1.00  0.00     0.057 A 
ATOM     82  C   UNL A   1      38.818  29.115  29.560  1.00  0.00     0.134 A 
ATOM     83  C   UNL A   1      39.915  28.380  31.513  1.00  0.00     0.134 A 
ATOM     84  F   UNL A   1      38.745  29.481  28.274  1.00  0.00    -0.206 F 
ATOM     85  C   UNL A   1      37.596  29.141  30.256  1.00  0.00     0.040 A 
ATOM     86  C   UNL A   1      38.698  28.378  32.212  1.00  0.00     0.040 A 
ATOM     87  F   UNL A   1      40.951  28.017  32.269  1.00  0.00    -0.206 F 
ATOM     88  C   UNL A   1      37.532  28.774  31.590  1.00  0.00     0.006 A 
ENDBRANCH  67  81
BRANCH  68  89
ATOM     89  C   UNL A   1      49.080  28.426  26.415  1.00  0.00     0.057 A 
ATOM     90  C   UNL A   1      50.384  27.968  26.687  1.00  0.00     0.134 A 
ATOM     91  C   UNL A   1      48.388  27.796  25.376  1.00  0.00     0.134 A 
ATOM     92  F   UNL A   1      51.103  28.533  27.668  1.00  0.00    -0.206 F 
ATOM     93  C   UNL A   1      50.911  26.834  26.064  1.00  0.00     0.040 A 
ATOM     94  C   UNL A   1      48.915  26.664  24.736  1.00  0.00     0.040 A 
ATOM     95  F   UNL A   1      47.128  28.147  25.085  1.00  0.00    -0.206 F 
ATOM     96  C   UNL A   1      50.158  26.154  25.114  1.00  0.00     0.006 A 
ENDBRANCH  68  89
BRANCH  80  97
ATOM     97  C   UNL A   1      44.043  33.548  27.598  1.00  0.00     0.057 A 
ATOM     98  C   UNL A   1      43.952  34.671  28.433  1.00  0.00     0.134 A 
ATOM     99  C   UNL A   1      43.654  33.764  26.257  1.00  0.00     0.134 A 
ATOM    100  F   UNL A   1      44.382  34.638  29.703  1.00  0.00    -0.206 F 
ATOM    101  C   UNL A   1      43.467  35.905  27.983  1.00  0.00     0.040 A 
ATOM    102  C   UNL A   1      43.223  35.005  25.783  1.00  0.00     0.040 A 
ATOM    103  F   UNL A   1      43.705  32.786  25.341  1.00  0.00    -0.206 F 
ATOM    104  C   UNL A   1      43.116  36.080  26.650  1.00  0.00     0.006 A 
ENDBRANCH  80  97
ENDBRANCH  54  55
ENDBRANCH  46  49
ENDBRANCH  44  45
ENDBRANCH  43  44
ENDBRANCH  42  43
ENDBRANCH   1  42
TORSDOF 17
ENDMDL
MODEL 3
REMARK VINA RESULT:     -13.5      2.428      3.854
REMARK SMILES Cc1ccccc1C(=O)Nc1cc(C(=O)NCCCCNC(=O)c2ccc(-c3c4nc(c(-c5c(F)cccc5F)c5ccc([nH]5)c(-c5c(F)cccc5F)c5nc(c(-c6c(F)cccc6F)c6ccc3[nH]6)C=C5)C=C4)cc2)ccc1N1CC[NH+](CC(=O)Nc2ccc(F)cc2)CC1
REMARK SMILES IDX 17 1 16 2 14 3 15 4 13 6 11 7 12 8 80 9 79 10 78 11 10 12
REMARK SMILES IDX 8 13 9 14 7 16 1 17 2 18 3 19 4 20 6 21 5 22 81 23 82 24
REMARK SMILES IDX 97 25 83 26 96 27 84 28 85 30 86 31 87 32 88 33 89 35 90 36
REMARK SMILES IDX 95 37 91 38 94 39 92 40 93 41 18 42 19 43 20 44 21 45 22 46
REMARK SMILES IDX 23 48 24 49 25 50 77 51 26 52 76 53 27 54 28 55 29 56 70 57
REMARK SMILES IDX 30 58 75 59 69 60 71 61 31 62 74 63 68 64 67 65 32 67 58 68
REMARK SMILES IDX 41 69 57 70 42 71 45 72 56 73 72 74 43 75 44 76 55 78 73 79
REMARK SMILES IDX 46 80 33 81 34 82 39 83 35 84 36 85 38 86 40 87 37 88 59 89
REMARK SMILES IDX 60 90 65 91 61 92 62 93 64 94 66 95 63 96 47 97 48 98 53 99
REMARK SMILES IDX 49 100 50 101 52 102 54 103 51 104
REMARK H PARENT 16 5 10 15 84 29 88 34 21 47 71 66 45 77
REMARK Flexibility Score: inf
ROOT
ATOM      1  C   UNL A   1      38.719  23.168  26.448  1.00  0.00     0.116 C 
ENDROOT
BRANCH   1   2
ATOM      2  N   UNL A   1      38.180  21.886  26.011  1.00  0.00    -0.352 N 
ATOM      3  C   UNL A   1      37.078  21.516  25.272  1.00  0.00     0.251 C 
ATOM      4  O   UNL A   1      36.963  20.317  25.010  1.00  0.00    -0.269 OA
ATOM      5  H   UNL A   1      38.720  21.119  26.309  1.00  0.00     0.163 HD
BRANCH   3   6
ATOM      6  C   UNL A   1      36.041  22.459  24.753  1.00  0.00     0.042 A 
ATOM      7  C   UNL A   1      34.135  22.997  23.359  1.00  0.00     0.065 A 
ATOM      8  C   UNL A   1      35.181  22.153  23.720  1.00  0.00     0.042 A 
ATOM      9  C   UNL A   1      33.956  24.280  23.932  1.00  0.00     0.061 A 
ATOM     10  C   UNL A   1      34.883  24.620  24.928  1.00  0.00     0.029 A 
ATOM     11  C   UNL A   1      35.885  23.717  25.353  1.00  0.00     0.016 A 
BRANCH   7  12
ATOM     12  N   UNL A   1      33.245  22.503  22.396  1.00  0.00    -0.320 N 
ATOM     13  C   UNL A   1      32.382  21.424  22.526  1.00  0.00     0.255 C 
ATOM     14  O   UNL A   1      31.484  21.299  21.691  1.00  0.00    -0.269 OA
ATOM     15  H   UNL A   1      33.230  22.973  21.531  1.00  0.00     0.170 HD
BRANCH  13  16
ATOM     16  C   UNL A   1      32.495  20.394  23.602  1.00  0.00     0.043 A 
ATOM     17  C   UNL A   1      31.881  21.797  25.701  1.00  0.00     0.045 C 
ATOM     18  C   UNL A   1      32.331  20.550  24.998  1.00  0.00    -0.038 A 
ATOM     19  C   UNL A   1      32.586  19.445  25.840  1.00  0.00     0.004 A 
ATOM     20  C   UNL A   1      32.906  18.199  25.315  1.00  0.00     0.000 A 
ATOM     21  C   UNL A   1      32.768  19.116  23.090  1.00  0.00     0.014 A 
ATOM     22  C   UNL A   1      32.972  18.035  23.939  1.00  0.00     0.001 A 
ENDBRANCH  13  16
ENDBRANCH   7  12
BRANCH   9  23
ATOM     23  N   UNL A   1      32.895  25.110  23.590  1.00  0.00    -0.359 N 
ATOM     24  C   UNL A   1      32.999  26.285  22.683  1.00  0.00     0.178 C 
ATOM     25  C   UNL A   1      31.781  25.274  24.520  1.00  0.00     0.178 C 
ATOM     26  C   UNL A   1      31.583  26.809  22.195  1.00  0.00     0.284 C 
ATOM     27  C   UNL A   1      30.501  25.292  23.689  1.00  0.00     0.284 C 
ATOM     28  N   UNL A   1      30.371  26.580  23.024  1.00  0.00    -0.324 N 
ATOM     29  H   UNL A   1      29.599  26.586  22.357  1.00  0.00     0.348 HD
BRANCH  28  30
ATOM     30  C   UNL A   1      29.901  27.659  23.927  1.00  0.00     0.364 C 
BRANCH  30  31
ATOM     31  C   UNL A   1      30.201  29.109  23.547  1.00  0.00     0.279 C 
ATOM     32  O   UNL A   1      29.634  29.606  22.560  1.00  0.00    -0.268 OA
ATOM     33  N   UNL A   1      31.013  29.959  24.250  1.00  0.00    -0.321 N 
ATOM     34  H   UNL A   1      30.805  30.898  24.040  1.00  0.00     0.170 HD
BRANCH  33  35
ATOM     35  C   UNL A   1      32.066  29.876  25.192  1.00  0.00     0.041 A 
ATOM     36  C   UNL A   1      33.048  28.899  24.938  1.00  0.00     0.029 A 
ATOM     37  C   UNL A   1      32.158  30.572  26.393  1.00  0.00     0.029 A 
ATOM     38  C   UNL A   1      34.052  28.605  25.871  1.00  0.00     0.041 A 
ATOM     39  C   UNL A   1      33.122  30.240  27.361  1.00  0.00     0.041 A 
ATOM     40  C   UNL A   1      34.063  29.260  27.090  1.00  0.00     0.123 A 
ATOM     41  F   UNL A   1      34.991  28.951  28.005  1.00  0.00    -0.207 F 
ENDBRANCH  33  35
ENDBRANCH  30  31
ENDBRANCH  28  30
ENDBRANCH   9  23
ENDBRANCH   3   6
ENDBRANCH   1   2
BRANCH   1  42
ATOM     42  C   UNL A   1      40.011  23.031  27.276  1.00  0.00     0.023 C 
BRANCH  42  43
ATOM     43  C   UNL A   1      41.056  22.118  26.639  1.00  0.00     0.023 C 
BRANCH  43  44
ATOM     44  C   UNL A   1      42.030  22.874  25.751  1.00  0.00     0.116 C 
BRANCH  44  45
ATOM     45  N   UNL A   1      43.299  23.222  26.373  1.00  0.00    -0.352 N 
ATOM     46  C   UNL A   1      43.693  24.394  27.005  1.00  0.00     0.251 C 
ATOM     47  H   UNL A   1      43.985  22.515  26.340  1.00  0.00     0.163 HD
ATOM     48  O   UNL A   1      44.847  24.517  27.371  1.00  0.00    -0.269 OA
BRANCH  46  49
ATOM     49  C   UNL A   1      42.685  25.427  27.389  1.00  0.00     0.039 A 
ATOM     50  C   UNL A   1      42.481  26.492  26.498  1.00  0.00     0.014 A 
ATOM     51  C   UNL A   1      42.146  25.496  28.667  1.00  0.00     0.014 A 
ATOM     52  C   UNL A   1      42.020  27.715  26.978  1.00  0.00     0.010 A 
ATOM     53  C   UNL A   1      41.826  26.731  29.182  1.00  0.00     0.010 A 
ATOM     54  C   UNL A   1      41.841  27.851  28.351  1.00  0.00    -0.014 A 
BRANCH  54  55
ATOM     55  C   UNL A   1      41.807  29.125  29.052  1.00  0.00     0.031 A 
ATOM     56  C   UNL A   1      40.557  29.893  29.125  1.00  0.00     0.074 A 
ATOM     57  C   UNL A   1      42.890  29.487  29.775  1.00  0.00     0.049 A 
ATOM     58  N   UNL A   1      40.489  31.117  29.519  1.00  0.00    -0.248 NA
ATOM     59  C   UNL A   1      39.276  29.365  28.669  1.00  0.00     0.031 C 
ATOM     60  C   UNL A   1      42.969  30.480  30.841  1.00  0.00     0.029 A 
ATOM     61  N   UNL A   1      44.220  29.160  29.520  1.00  0.00    -0.354 N 
ATOM     62  C   UNL A   1      39.159  31.431  29.669  1.00  0.00     0.074 A 
ATOM     63  C   UNL A   1      38.460  30.374  28.984  1.00  0.00     0.031 C 
ATOM     64  C   UNL A   1      44.240  30.898  30.946  1.00  0.00     0.029 A 
ATOM     65  C   UNL A   1      44.981  30.289  29.854  1.00  0.00     0.049 A 
ATOM     66  H   UNL A   1      44.559  28.303  29.175  1.00  0.00     0.167 HD
ATOM     67  C   UNL A   1      38.833  32.469  30.489  1.00  0.00     0.037 A 
ATOM     68  C   UNL A   1      45.780  30.953  28.972  1.00  0.00     0.037 A 
ATOM     69  C   UNL A   1      40.035  33.252  30.812  1.00  0.00     0.049 A 
ATOM     70  C   UNL A   1      45.345  32.393  28.829  1.00  0.00     0.074 A 
ATOM     71  C   UNL A   1      40.830  33.351  31.942  1.00  0.00     0.029 A 
ATOM     72  N   UNL A   1      40.750  33.859  29.777  1.00  0.00    -0.354 N 
ATOM     73  N   UNL A   1      44.152  32.812  29.153  1.00  0.00    -0.248 NA
ATOM     74  C   UNL A   1      46.199  33.468  28.336  1.00  0.00     0.031 C 
ATOM     75  C   UNL A   1      42.073  33.924  31.552  1.00  0.00     0.029 A 
ATOM     76  C   UNL A   1      42.015  34.221  30.199  1.00  0.00     0.049 A 
ATOM     77  H   UNL A   1      40.401  34.007  28.869  1.00  0.00     0.167 HD
ATOM     78  C   UNL A   1      44.075  34.165  28.976  1.00  0.00     0.074 A 
ATOM     79  C   UNL A   1      45.377  34.529  28.443  1.00  0.00     0.031 C 
ATOM     80  C   UNL A   1      42.953  34.875  29.293  1.00  0.00     0.037 A 
BRANCH  67  81
ATOM     81  C   UNL A   1      37.497  32.647  31.200  1.00  0.00     0.057 A 
ATOM     82  C   UNL A   1      36.499  33.468  30.632  1.00  0.00     0.134 A 
ATOM     83  C   UNL A   1      37.155  32.155  32.478  1.00  0.00     0.134 A 
ATOM     84  F   UNL A   1      36.643  34.008  29.415  1.00  0.00    -0.206 F 
ATOM     85  C   UNL A   1      35.302  33.798  31.292  1.00  0.00     0.040 A 
ATOM     86  C   UNL A   1      35.953  32.457  33.137  1.00  0.00     0.040 A 
ATOM     87  F   UNL A   1      37.961  31.373  33.196  1.00  0.00    -0.206 F 
ATOM     88  C   UNL A   1      35.025  33.294  32.552  1.00  0.00     0.006 A 
ENDBRANCH  67  81
BRANCH  68  89
ATOM     89  C   UNL A   1      46.350  30.080  27.912  1.00  0.00     0.057 A 
ATOM     90  C   UNL A   1      47.502  29.339  28.239  1.00  0.00     0.134 A 
ATOM     91  C   UNL A   1      45.570  29.607  26.851  1.00  0.00     0.134 A 
ATOM     92  F   UNL A   1      48.295  29.741  29.243  1.00  0.00    -0.206 F 
ATOM     93  C   UNL A   1      47.777  28.104  27.648  1.00  0.00     0.040 A 
ATOM     94  C   UNL A   1      45.845  28.373  26.243  1.00  0.00     0.040 A 
ATOM     95  F   UNL A   1      44.436  30.232  26.508  1.00  0.00    -0.206 F 
ATOM     96  C   UNL A   1      46.922  27.598  26.674  1.00  0.00     0.006 A 
ENDBRANCH  68  89
BRANCH  80  97
ATOM     97  C   UNL A   1      42.669  36.290  28.854  1.00  0.00     0.057 A 
ATOM     98  C   UNL A   1      43.162  37.425  29.515  1.00  0.00     0.134 A 
ATOM     99  C   UNL A   1      42.029  36.544  27.621  1.00  0.00     0.134 A 
ATOM    100  F   UNL A   1      43.878  37.325  30.643  1.00  0.00    -0.206 F 
ATOM    101  C   UNL A   1      42.990  38.721  29.011  1.00  0.00     0.040 A 
ATOM    102  C   UNL A   1      41.902  37.826  27.081  1.00  0.00     0.040 A 
ATOM    103  F   UNL A   1      41.525  35.553  26.871  1.00  0.00    -0.206 F 
ATOM    104  C   UNL A   1      42.374  38.924  27.783  1.00  0.00     0.006 A 
ENDBRANCH  80  97
ENDBRANCH  54  55
ENDBRANCH  46  49
ENDBRANCH  44  45
ENDBRANCH  43  44
ENDBRANCH  42  43
ENDBRANCH   1  42
TORSDOF 17
ENDMDL
