MODEL 1
REMARK VINA RESULT:     -10.9      0.000      0.000
REMARK SMILES CC(C)C[C@H](CNC(=O)Nc1cccc(Cl)c1)C(=O)NCCCCNC(=O)c1ccc(-c2c3nc(c(-c4c(F)cccc4F)c4ccc([nH]4)c(-c4c(F)cccc4F)c4nc(c(-c5c(F)cccc5F)c5ccc2[nH]5)C=C4)C=C3)cc1
REMARK SMILES IDX 22 1 21 2 20 3 18 4 19 5 5 7 4 8 2 9 1 10 3 11 6 12 7 13
REMARK SMILES IDX 8 14 9 16 10 17 11 19 12 20 17 21 13 22 15 23 14 24 16 25
REMARK SMILES IDX 23 26 24 27 25 28 26 29 27 31 28 32 29 33 81 34 30 35 80 36
REMARK SMILES IDX 31 37 32 38 33 39 74 40 34 41 79 42 73 43 75 44 35 45 78 46
REMARK SMILES IDX 72 47 71 48 36 50 62 51 45 52 61 53 46 54 49 55 60 56 76 57
REMARK SMILES IDX 47 58 48 59 59 61 77 62 50 63 37 64 38 65 43 66 39 67 40 68
REMARK SMILES IDX 42 69 44 70 41 71 63 72 64 73 69 74 65 75 66 76 68 77 70 78
REMARK SMILES IDX 67 79 51 80 52 81 57 82 53 83 54 84 56 85 58 86 55 87
REMARK H PARENT 20 6 7 15 10 18 25 30 75 49 49 60
REMARK Flexibility Score: inf
ROOT
ATOM      1  C   UNL A   1      34.419  30.831  27.573  1.00  0.00     0.023 C 
ENDROOT
BRANCH   1   2
ATOM      2  C   UNL A   1      34.172  29.370  27.197  1.00  0.00     0.116 C 
BRANCH   2   3
ATOM      3  N   UNL A   1      32.922  28.868  27.738  1.00  0.00    -0.356 N 
ATOM      4  C   UNL A   1      32.042  27.940  27.267  1.00  0.00     0.224 C 
ATOM      5  O   UNL A   1      31.060  27.686  27.969  1.00  0.00    -0.275 OA
ATOM      6  H   UNL A   1      32.663  29.269  28.599  1.00  0.00     0.163 HD
BRANCH   4   7
ATOM      7  C   UNL A   1      32.238  27.234  25.923  1.00  0.00     0.098 C 
BRANCH   7   8
ATOM      8  C   UNL A   1      31.134  27.599  24.920  1.00  0.00     0.018 C 
BRANCH   8   9
ATOM      9  C   UNL A   1      31.690  28.030  23.544  1.00  0.00    -0.017 C 
ATOM     10  C   UNL A   1      30.720  28.947  22.795  1.00  0.00     0.007 C 
ATOM     11  C   UNL A   1      33.030  28.746  23.731  1.00  0.00     0.007 C 
ENDBRANCH   8   9
ENDBRANCH   7   8
BRANCH   7  12
ATOM     12  C   UNL A   1      32.455  25.743  26.189  1.00  0.00     0.131 C 
BRANCH  12  13
ATOM     13  N   UNL A   1      31.370  25.043  26.857  1.00  0.00    -0.337 N 
ATOM     14  C   UNL A   1      30.513  24.080  26.461  1.00  0.00     0.319 C 
ATOM     15  H   UNL A   1      31.234  25.331  27.789  1.00  0.00     0.165 HD
ATOM     16  O   UNL A   1      29.605  23.770  27.236  1.00  0.00    -0.249 OA
ATOM     17  N   UNL A   1      30.535  23.534  25.224  1.00  0.00    -0.308 N 
ATOM     18  H   UNL A   1      29.690  23.105  24.955  1.00  0.00     0.171 HD
BRANCH  17  19
ATOM     19  C   UNL A   1      31.545  23.472  24.260  1.00  0.00     0.044 A 
ATOM     20  C   UNL A   1      32.660  22.639  24.401  1.00  0.00     0.026 A 
ATOM     21  C   UNL A   1      31.445  24.333  23.167  1.00  0.00     0.046 A 
ATOM     22  C   UNL A   1      33.735  22.759  23.516  1.00  0.00     0.004 A 
ATOM     23  C   UNL A   1      32.531  24.465  22.304  1.00  0.00     0.043 A 
ATOM     24  C   UNL A   1      33.681  23.697  22.485  1.00  0.00     0.020 A 
ATOM     25  Cl  UNL A   1      32.475  25.636  21.044  1.00  0.00    -0.084 Cl
ENDBRANCH  17  19
ENDBRANCH  12  13
ENDBRANCH   7  12
ENDBRANCH   4   7
ENDBRANCH   2   3
ENDBRANCH   1   2
BRANCH   1  26
ATOM     26  C   UNL A   1      33.153  31.672  27.749  1.00  0.00     0.023 C 
BRANCH  26  27
ATOM     27  C   UNL A   1      33.191  33.045  27.089  1.00  0.00     0.116 C 
BRANCH  27  28
ATOM     28  N   UNL A   1      32.694  34.109  27.948  1.00  0.00    -0.352 N 
ATOM     29  C   UNL A   1      33.239  34.605  29.111  1.00  0.00     0.251 C 
ATOM     30  H   UNL A   1      31.854  34.531  27.659  1.00  0.00     0.163 HD
ATOM     31  O   UNL A   1      32.637  35.427  29.777  1.00  0.00    -0.269 OA
BRANCH  29  32
ATOM     32  C   UNL A   1      34.552  34.095  29.562  1.00  0.00     0.039 A 
ATOM     33  C   UNL A   1      34.604  33.292  30.704  1.00  0.00     0.014 A 
ATOM     34  C   UNL A   1      35.715  34.380  28.843  1.00  0.00     0.014 A 
ATOM     35  C   UNL A   1      35.817  32.714  31.083  1.00  0.00     0.010 A 
ATOM     36  C   UNL A   1      36.906  33.745  29.179  1.00  0.00     0.010 A 
ATOM     37  C   UNL A   1      36.968  32.905  30.301  1.00  0.00    -0.014 A 
BRANCH  37  38
ATOM     38  C   UNL A   1      38.247  32.232  30.638  1.00  0.00     0.031 A 
ATOM     39  C   UNL A   1      39.216  32.886  31.581  1.00  0.00     0.074 A 
ATOM     40  C   UNL A   1      38.565  31.067  30.041  1.00  0.00     0.049 A 
ATOM     41  N   UNL A   1      40.413  32.496  31.939  1.00  0.00    -0.248 NA
ATOM     42  C   UNL A   1      38.797  34.164  32.181  1.00  0.00     0.031 C 
ATOM     43  C   UNL A   1      37.731  30.359  29.067  1.00  0.00     0.029 A 
ATOM     44  N   UNL A   1      39.683  30.280  30.156  1.00  0.00    -0.354 N 
ATOM     45  C   UNL A   1      40.891  33.482  32.793  1.00  0.00     0.074 A 
ATOM     46  C   UNL A   1      39.882  34.516  32.854  1.00  0.00     0.031 C 
ATOM     47  C   UNL A   1      38.358  29.233  28.688  1.00  0.00     0.029 A 
ATOM     48  C   UNL A   1      39.650  29.158  29.363  1.00  0.00     0.049 A 
ATOM     49  H   UNL A   1      40.437  30.497  30.750  1.00  0.00     0.167 HD
ATOM     50  C   UNL A   1      42.056  33.512  33.483  1.00  0.00     0.037 A 
ATOM     51  C   UNL A   1      40.563  28.184  29.193  1.00  0.00     0.037 A 
ATOM     52  C   UNL A   1      43.049  32.471  33.437  1.00  0.00     0.049 A 
ATOM     53  C   UNL A   1      41.850  28.240  29.969  1.00  0.00     0.074 A 
ATOM     54  C   UNL A   1      44.238  32.382  34.140  1.00  0.00     0.029 A 
ATOM     55  N   UNL A   1      42.968  31.338  32.642  1.00  0.00    -0.354 N 
ATOM     56  N   UNL A   1      42.261  29.145  30.823  1.00  0.00    -0.248 NA
ATOM     57  C   UNL A   1      42.797  27.134  29.764  1.00  0.00     0.031 C 
ATOM     58  C   UNL A   1      44.895  31.215  33.741  1.00  0.00     0.029 A 
ATOM     59  C   UNL A   1      44.094  30.552  32.824  1.00  0.00     0.049 A 
ATOM     60  H   UNL A   1      42.222  31.124  32.038  1.00  0.00     0.167 HD
ATOM     61  C   UNL A   1      43.498  28.707  31.277  1.00  0.00     0.074 A 
ATOM     62  C   UNL A   1      43.765  27.448  30.615  1.00  0.00     0.031 C 
ATOM     63  C   UNL A   1      44.339  29.296  32.162  1.00  0.00     0.037 A 
BRANCH  50  64
ATOM     64  C   UNL A   1      42.312  34.707  34.354  1.00  0.00     0.057 A 
ATOM     65  C   UNL A   1      41.945  34.726  35.706  1.00  0.00     0.134 A 
ATOM     66  C   UNL A   1      42.960  35.839  33.845  1.00  0.00     0.134 A 
ATOM     67  F   UNL A   1      41.308  33.678  36.252  1.00  0.00    -0.206 F 
ATOM     68  C   UNL A   1      42.187  35.838  36.514  1.00  0.00     0.040 A 
ATOM     69  C   UNL A   1      43.234  36.946  34.650  1.00  0.00     0.040 A 
ATOM     70  F   UNL A   1      43.344  35.886  32.560  1.00  0.00    -0.206 F 
ATOM     71  C   UNL A   1      42.841  36.950  35.987  1.00  0.00     0.006 A 
ENDBRANCH  50  64
BRANCH  51  72
ATOM     72  C   UNL A   1      40.287  27.059  28.264  1.00  0.00     0.057 A 
ATOM     73  C   UNL A   1      39.462  25.994  28.645  1.00  0.00     0.134 A 
ATOM     74  C   UNL A   1      40.846  27.015  26.982  1.00  0.00     0.134 A 
ATOM     75  F   UNL A   1      38.912  25.971  29.868  1.00  0.00    -0.206 F 
ATOM     76  C   UNL A   1      39.218  24.916  27.793  1.00  0.00     0.040 A 
ATOM     77  C   UNL A   1      40.590  25.955  26.109  1.00  0.00     0.040 A 
ATOM     78  F   UNL A   1      41.638  28.009  26.553  1.00  0.00    -0.206 F 
ATOM     79  C   UNL A   1      39.781  24.898  26.518  1.00  0.00     0.006 A 
ENDBRANCH  51  72
BRANCH  63  80
ATOM     80  C   UNL A   1      45.608  28.567  32.492  1.00  0.00     0.057 A 
ATOM     81  C   UNL A   1      46.799  28.802  31.794  1.00  0.00     0.134 A 
ATOM     82  C   UNL A   1      45.646  27.648  33.549  1.00  0.00     0.134 A 
ATOM     83  F   UNL A   1      46.825  29.660  30.763  1.00  0.00    -0.206 F 
ATOM     84  C   UNL A   1      47.979  28.131  32.121  1.00  0.00     0.040 A 
ATOM     85  C   UNL A   1      46.826  26.991  33.902  1.00  0.00     0.040 A 
ATOM     86  F   UNL A   1      44.543  27.384  34.263  1.00  0.00    -0.206 F 
ATOM     87  C   UNL A   1      47.996  27.228  33.183  1.00  0.00     0.006 A 
ENDBRANCH  63  80
ENDBRANCH  37  38
ENDBRANCH  29  32
ENDBRANCH  27  28
ENDBRANCH  26  27
ENDBRANCH   1  26
TORSDOF 16
ENDMDL
MODEL 2
REMARK VINA RESULT:     -10.9      4.306      8.964
REMARK SMILES CC(C)C[C@H](CNC(=O)Nc1cccc(Cl)c1)C(=O)NCCCCNC(=O)c1ccc(-c2c3nc(c(-c4c(F)cccc4F)c4ccc([nH]4)c(-c4c(F)cccc4F)c4nc(c(-c5c(F)cccc5F)c5ccc2[nH]5)C=C4)C=C3)cc1
REMARK SMILES IDX 22 1 21 2 20 3 18 4 19 5 5 7 4 8 2 9 1 10 3 11 6 12 7 13
REMARK SMILES IDX 8 14 9 16 10 17 11 19 12 20 17 21 13 22 15 23 14 24 16 25
REMARK SMILES IDX 23 26 24 27 25 28 26 29 27 31 28 32 29 33 81 34 30 35 80 36
REMARK SMILES IDX 31 37 32 38 33 39 74 40 34 41 79 42 73 43 75 44 35 45 78 46
REMARK SMILES IDX 72 47 71 48 36 50 62 51 45 52 61 53 46 54 49 55 60 56 76 57
REMARK SMILES IDX 47 58 48 59 59 61 77 62 50 63 37 64 38 65 43 66 39 67 40 68
REMARK SMILES IDX 42 69 44 70 41 71 63 72 64 73 69 74 65 75 66 76 68 77 70 78
REMARK SMILES IDX 67 79 51 80 52 81 57 82 53 83 54 84 56 85 58 86 55 87
REMARK H PARENT 20 6 7 15 10 18 25 30 75 49 49 60
REMARK Flexibility Score: inf
ROOT
ATOM      1  C   UNL A   1      37.011  21.155  24.869  1.00  0.00     0.023 C 
ENDROOT
BRANCH   1   2
ATOM      2  C   UNL A   1      35.583  20.796  25.280  1.00  0.00     0.116 C 
BRANCH   2   3
ATOM      3  N   UNL A   1      35.195  21.429  26.528  1.00  0.00    -0.356 N 
ATOM      4  C   UNL A   1      34.417  22.517  26.785  1.00  0.00     0.224 C 
ATOM      5  O   UNL A   1      34.232  22.812  27.969  1.00  0.00    -0.275 OA
ATOM      6  H   UNL A   1      35.561  20.994  27.333  1.00  0.00     0.163 HD
BRANCH   4   7
ATOM      7  C   UNL A   1      33.793  23.360  25.670  1.00  0.00     0.098 C 
BRANCH   7   8
ATOM      8  C   UNL A   1      34.854  24.151  24.890  1.00  0.00     0.018 C 
BRANCH   8   9
ATOM      9  C   UNL A   1      34.610  24.140  23.364  1.00  0.00    -0.017 C 
ATOM     10  C   UNL A   1      33.765  22.941  22.926  1.00  0.00     0.007 C 
ATOM     11  C   UNL A   1      33.913  25.437  22.944  1.00  0.00     0.007 C 
ENDBRANCH   8   9
ENDBRANCH   7   8
BRANCH   7  12
ATOM     12  C   UNL A   1      32.639  24.168  26.265  1.00  0.00     0.131 C 
BRANCH  12  13
ATOM     13  N   UNL A   1      31.521  23.403  26.793  1.00  0.00    -0.337 N 
ATOM     14  C   UNL A   1      30.211  23.678  26.956  1.00  0.00     0.319 C 
ATOM     15  H   UNL A   1      31.772  22.499  27.094  1.00  0.00     0.165 HD
ATOM     16  O   UNL A   1      29.524  22.851  27.560  1.00  0.00    -0.249 OA
ATOM     17  N   UNL A   1      29.654  24.857  26.598  1.00  0.00    -0.308 N 
ATOM     18  H   UNL A   1      28.803  25.058  27.051  1.00  0.00     0.171 HD
BRANCH  17  19
ATOM     19  C   UNL A   1      30.072  25.841  25.697  1.00  0.00     0.044 A 
ATOM     20  C   UNL A   1      29.881  25.717  24.316  1.00  0.00     0.026 A 
ATOM     21  C   UNL A   1      30.763  26.936  26.215  1.00  0.00     0.046 A 
ATOM     22  C   UNL A   1      30.492  26.623  23.445  1.00  0.00     0.004 A 
ATOM     23  C   UNL A   1      31.390  27.820  25.339  1.00  0.00     0.043 A 
ATOM     24  C   UNL A   1      31.273  27.658  23.959  1.00  0.00     0.020 A 
ATOM     25  Cl  UNL A   1      32.372  29.085  25.971  1.00  0.00    -0.084 Cl
ENDBRANCH  17  19
ENDBRANCH  12  13
ENDBRANCH   7  12
ENDBRANCH   4   7
ENDBRANCH   2   3
ENDBRANCH   1   2
BRANCH   1  26
ATOM     26  C   UNL A   1      38.018  20.009  24.976  1.00  0.00     0.023 C 
BRANCH  26  27
ATOM     27  C   UNL A   1      39.250  20.307  25.822  1.00  0.00     0.116 C 
BRANCH  27  28
ATOM     28  N   UNL A   1      40.199  19.205  25.862  1.00  0.00    -0.352 N 
ATOM     29  C   UNL A   1      41.550  19.239  26.123  1.00  0.00     0.251 C 
ATOM     30  H   UNL A   1      39.825  18.315  25.676  1.00  0.00     0.163 HD
ATOM     31  O   UNL A   1      42.230  18.235  26.007  1.00  0.00    -0.269 OA
BRANCH  29  32
ATOM     32  C   UNL A   1      42.174  20.523  26.510  1.00  0.00     0.039 A 
ATOM     33  C   UNL A   1      42.748  21.318  25.515  1.00  0.00     0.014 A 
ATOM     34  C   UNL A   1      42.160  20.953  27.839  1.00  0.00     0.014 A 
ATOM     35  C   UNL A   1      43.245  22.580  25.845  1.00  0.00     0.010 A 
ATOM     36  C   UNL A   1      42.587  22.238  28.152  1.00  0.00     0.010 A 
ATOM     37  C   UNL A   1      43.133  23.064  27.158  1.00  0.00    -0.014 A 
BRANCH  37  38
ATOM     38  C   UNL A   1      43.577  24.435  27.512  1.00  0.00     0.031 A 
ATOM     39  C   UNL A   1      42.566  25.476  27.904  1.00  0.00     0.074 A 
ATOM     40  C   UNL A   1      44.880  24.760  27.414  1.00  0.00     0.049 A 
ATOM     41  N   UNL A   1      42.747  26.744  28.172  1.00  0.00    -0.248 NA
ATOM     42  C   UNL A   1      41.162  25.041  27.975  1.00  0.00     0.031 C 
ATOM     43  C   UNL A   1      45.950  23.853  26.994  1.00  0.00     0.029 A 
ATOM     44  N   UNL A   1      45.525  25.949  27.647  1.00  0.00    -0.354 N 
ATOM     45  C   UNL A   1      41.484  27.258  28.432  1.00  0.00     0.074 A 
ATOM     46  C   UNL A   1      40.538  26.181  28.232  1.00  0.00     0.031 C 
ATOM     47  C   UNL A   1      47.121  24.513  27.018  1.00  0.00     0.029 A 
ATOM     48  C   UNL A   1      46.879  25.895  27.419  1.00  0.00     0.049 A 
ATOM     49  H   UNL A   1      45.062  26.763  27.949  1.00  0.00     0.167 HD
ATOM     50  C   UNL A   1      41.143  28.509  28.825  1.00  0.00     0.037 A 
ATOM     51  C   UNL A   1      47.818  26.855  27.514  1.00  0.00     0.037 A 
ATOM     52  C   UNL A   1      42.087  29.572  29.044  1.00  0.00     0.049 A 
ATOM     53  C   UNL A   1      47.415  28.236  27.950  1.00  0.00     0.074 A 
ATOM     54  C   UNL A   1      41.847  30.859  29.494  1.00  0.00     0.029 A 
ATOM     55  N   UNL A   1      43.453  29.472  28.827  1.00  0.00    -0.354 N 
ATOM     56  N   UNL A   1      46.224  28.691  28.256  1.00  0.00    -0.248 NA
ATOM     57  C   UNL A   1      48.487  29.235  28.063  1.00  0.00     0.031 C 
ATOM     58  C   UNL A   1      43.064  31.549  29.512  1.00  0.00     0.029 A 
ATOM     59  C   UNL A   1      44.067  30.678  29.117  1.00  0.00     0.049 A 
ATOM     60  H   UNL A   1      43.917  28.663  28.513  1.00  0.00     0.167 HD
ATOM     61  C   UNL A   1      46.406  30.018  28.623  1.00  0.00     0.074 A 
ATOM     62  C   UNL A   1      47.824  30.291  28.515  1.00  0.00     0.031 C 
ATOM     63  C   UNL A   1      45.482  30.930  29.013  1.00  0.00     0.037 A 
BRANCH  50  64
ATOM     64  C   UNL A   1      39.685  28.788  29.052  1.00  0.00     0.057 A 
ATOM     65  C   UNL A   1      38.848  29.217  28.014  1.00  0.00     0.134 A 
ATOM     66  C   UNL A   1      39.105  28.597  30.311  1.00  0.00     0.134 A 
ATOM     67  F   UNL A   1      39.344  29.432  26.785  1.00  0.00    -0.206 F 
ATOM     68  C   UNL A   1      37.492  29.472  28.226  1.00  0.00     0.040 A 
ATOM     69  C   UNL A   1      37.745  28.822  30.530  1.00  0.00     0.040 A 
ATOM     70  F   UNL A   1      39.848  28.182  31.349  1.00  0.00    -0.206 F 
ATOM     71  C   UNL A   1      36.936  29.268  29.487  1.00  0.00     0.006 A 
ENDBRANCH  50  64
BRANCH  51  72
ATOM     72  C   UNL A   1      49.237  26.540  27.209  1.00  0.00     0.057 A 
ATOM     73  C   UNL A   1      49.765  26.750  25.930  1.00  0.00     0.134 A 
ATOM     74  C   UNL A   1      50.095  26.014  28.183  1.00  0.00     0.134 A 
ATOM     75  F   UNL A   1      48.988  27.235  24.951  1.00  0.00    -0.206 F 
ATOM     76  C   UNL A   1      51.089  26.430  25.623  1.00  0.00     0.040 A 
ATOM     77  C   UNL A   1      51.427  25.713  27.896  1.00  0.00     0.040 A 
ATOM     78  F   UNL A   1      49.652  25.798  29.430  1.00  0.00    -0.206 F 
ATOM     79  C   UNL A   1      51.925  25.914  26.611  1.00  0.00     0.006 A 
ENDBRANCH  51  72
BRANCH  63  80
ATOM     80  C   UNL A   1      45.980  32.295  29.386  1.00  0.00     0.057 A 
ATOM     81  C   UNL A   1      46.063  33.333  28.449  1.00  0.00     0.134 A 
ATOM     82  C   UNL A   1      46.341  32.584  30.708  1.00  0.00     0.134 A 
ATOM     83  F   UNL A   1      45.745  33.117  27.165  1.00  0.00    -0.206 F 
ATOM     84  C   UNL A   1      46.511  34.605  28.811  1.00  0.00     0.040 A 
ATOM     85  C   UNL A   1      46.765  33.858  31.087  1.00  0.00     0.040 A 
ATOM     86  F   UNL A   1      46.275  31.637  31.655  1.00  0.00    -0.206 F 
ATOM     87  C   UNL A   1      46.856  34.872  30.135  1.00  0.00     0.006 A 
ENDBRANCH  63  80
ENDBRANCH  37  38
ENDBRANCH  29  32
ENDBRANCH  27  28
ENDBRANCH  26  27
ENDBRANCH   1  26
TORSDOF 16
ENDMDL
MODEL 3
REMARK VINA RESULT:     -10.8      3.626      8.720
REMARK SMILES CC(C)C[C@H](CNC(=O)Nc1cccc(Cl)c1)C(=O)NCCCCNC(=O)c1ccc(-c2c3nc(c(-c4c(F)cccc4F)c4ccc([nH]4)c(-c4c(F)cccc4F)c4nc(c(-c5c(F)cccc5F)c5ccc2[nH]5)C=C4)C=C3)cc1
REMARK SMILES IDX 22 1 21 2 20 3 18 4 19 5 5 7 4 8 2 9 1 10 3 11 6 12 7 13
REMARK SMILES IDX 8 14 9 16 10 17 11 19 12 20 17 21 13 22 15 23 14 24 16 25
REMARK SMILES IDX 23 26 24 27 25 28 26 29 27 31 28 32 29 33 81 34 30 35 80 36
REMARK SMILES IDX 31 37 32 38 33 39 74 40 34 41 79 42 73 43 75 44 35 45 78 46
REMARK SMILES IDX 72 47 71 48 36 50 62 51 45 52 61 53 46 54 49 55 60 56 76 57
REMARK SMILES IDX 47 58 48 59 59 61 77 62 50 63 37 64 38 65 43 66 39 67 40 68
REMARK SMILES IDX 42 69 44 70 41 71 63 72 64 73 69 74 65 75 66 76 68 77 70 78
REMARK SMILES IDX 67 79 51 80 52 81 57 82 53 83 54 84 56 85 58 86 55 87
REMARK H PARENT 20 6 7 15 10 18 25 30 75 49 49 60
REMARK Flexibility Score: inf
ROOT
ATOM      1  C   UNL A   1      36.446  20.614  25.141  1.00  0.00     0.023 C 
ENDROOT
BRANCH   1   2
ATOM      2  C   UNL A   1      36.248  22.122  24.984  1.00  0.00     0.116 C 
BRANCH   2   3
ATOM      3  N   UNL A   1      35.241  22.442  23.988  1.00  0.00    -0.356 N 
ATOM      4  C   UNL A   1      33.887  22.284  23.989  1.00  0.00     0.224 C 
ATOM      5  O   UNL A   1      33.272  22.684  22.997  1.00  0.00    -0.275 OA
ATOM      6  H   UNL A   1      35.600  22.845  23.165  1.00  0.00     0.163 HD
BRANCH   4   7
ATOM      7  C   UNL A   1      33.139  21.634  25.155  1.00  0.00     0.098 C 
BRANCH   7   8
ATOM      8  C   UNL A   1      32.190  20.526  24.678  1.00  0.00     0.018 C 
BRANCH   8   9
ATOM      9  C   UNL A   1      32.921  19.200  24.366  1.00  0.00    -0.017 C 
ATOM     10  C   UNL A   1      32.773  18.183  25.500  1.00  0.00     0.007 C 
ATOM     11  C   UNL A   1      32.372  18.602  23.068  1.00  0.00     0.007 C 
ENDBRANCH   8   9
ENDBRANCH   7   8
BRANCH   7  12
ATOM     12  C   UNL A   1      32.522  22.742  26.009  1.00  0.00     0.131 C 
BRANCH  12  13
ATOM     13  N   UNL A   1      31.255  22.431  26.653  1.00  0.00    -0.337 N 
ATOM     14  C   UNL A   1      30.145  23.155  26.900  1.00  0.00     0.319 C 
ATOM     15  H   UNL A   1      31.197  21.502  26.975  1.00  0.00     0.165 HD
ATOM     16  O   UNL A   1      29.265  22.634  27.589  1.00  0.00    -0.249 OA
ATOM     17  N   UNL A   1      30.010  24.449  26.532  1.00  0.00    -0.308 N 
ATOM     18  H   UNL A   1      29.326  24.946  27.037  1.00  0.00     0.171 HD
BRANCH  17  19
ATOM     19  C   UNL A   1      30.670  25.206  25.559  1.00  0.00     0.044 A 
ATOM     20  C   UNL A   1      30.486  24.985  24.190  1.00  0.00     0.026 A 
ATOM     21  C   UNL A   1      31.588  26.160  25.999  1.00  0.00     0.046 A 
ATOM     22  C   UNL A   1      31.314  25.625  23.264  1.00  0.00     0.004 A 
ATOM     23  C   UNL A   1      32.426  26.775  25.072  1.00  0.00     0.043 A 
ATOM     24  C   UNL A   1      32.306  26.498  23.710  1.00  0.00     0.020 A 
ATOM     25  Cl  UNL A   1      33.665  27.837  25.622  1.00  0.00    -0.084 Cl
ENDBRANCH  17  19
ENDBRANCH  12  13
ENDBRANCH   7  12
ENDBRANCH   4   7
ENDBRANCH   2   3
ENDBRANCH   1   2
BRANCH   1  26
ATOM     26  C   UNL A   1      37.834  20.104  24.747  1.00  0.00     0.023 C 
BRANCH  26  27
ATOM     27  C   UNL A   1      38.936  20.378  25.762  1.00  0.00     0.116 C 
BRANCH  27  28
ATOM     28  N   UNL A   1      39.989  19.373  25.753  1.00  0.00    -0.352 N 
ATOM     29  C   UNL A   1      41.318  19.513  26.079  1.00  0.00     0.251 C 
ATOM     30  H   UNL A   1      39.712  18.471  25.475  1.00  0.00     0.163 HD
ATOM     31  O   UNL A   1      42.099  18.594  25.909  1.00  0.00    -0.269 OA
BRANCH  29  32
ATOM     32  C   UNL A   1      41.796  20.812  26.603  1.00  0.00     0.039 A 
ATOM     33  C   UNL A   1      42.311  21.749  25.704  1.00  0.00     0.014 A 
ATOM     34  C   UNL A   1      41.703  21.111  27.964  1.00  0.00     0.014 A 
ATOM     35  C   UNL A   1      42.667  23.018  26.164  1.00  0.00     0.010 A 
ATOM     36  C   UNL A   1      41.987  22.398  28.406  1.00  0.00     0.010 A 
ATOM     37  C   UNL A   1      42.470  23.364  27.511  1.00  0.00    -0.014 A 
BRANCH  37  38
ATOM     38  C   UNL A   1      42.761  24.734  28.003  1.00  0.00     0.031 A 
ATOM     39  C   UNL A   1      44.162  25.111  28.396  1.00  0.00     0.074 A 
ATOM     40  C   UNL A   1      41.754  25.613  28.161  1.00  0.00     0.049 A 
ATOM     41  N   UNL A   1      44.602  26.227  28.918  1.00  0.00    -0.248 NA
ATOM     42  C   UNL A   1      45.202  24.086  28.203  1.00  0.00     0.031 C 
ATOM     43  C   UNL A   1      40.344  25.350  27.865  1.00  0.00     0.029 A 
ATOM     44  N   UNL A   1      41.759  26.905  28.624  1.00  0.00    -0.354 N 
ATOM     45  C   UNL A   1      45.962  26.036  29.126  1.00  0.00     0.074 A 
ATOM     46  C   UNL A   1      46.264  24.678  28.729  1.00  0.00     0.031 C 
ATOM     47  C   UNL A   1      39.624  26.451  28.136  1.00  0.00     0.029 A 
ATOM     48  C   UNL A   1      40.514  27.484  28.657  1.00  0.00     0.049 A 
ATOM     49  H   UNL A   1      42.578  27.373  28.906  1.00  0.00     0.167 HD
ATOM     50  C   UNL A   1      46.881  26.919  29.583  1.00  0.00     0.037 A 
ATOM     51  C   UNL A   1      40.132  28.707  29.069  1.00  0.00     0.037 A 
ATOM     52  C   UNL A   1      46.581  28.276  29.957  1.00  0.00     0.049 A 
ATOM     53  C   UNL A   1      41.171  29.670  29.574  1.00  0.00     0.074 A 
ATOM     54  C   UNL A   1      47.451  29.265  30.381  1.00  0.00     0.029 A 
ATOM     55  N   UNL A   1      45.312  28.833  29.952  1.00  0.00    -0.354 N 
ATOM     56  N   UNL A   1      42.463  29.498  29.704  1.00  0.00    -0.248 NA
ATOM     57  C   UNL A   1      40.698  31.000  29.984  1.00  0.00     0.031 C 
ATOM     58  C   UNL A   1      46.702  30.410  30.670  1.00  0.00     0.029 A 
ATOM     59  C   UNL A   1      45.372  30.148  30.382  1.00  0.00     0.049 A 
ATOM     60  H   UNL A   1      44.490  28.364  29.682  1.00  0.00     0.167 HD
ATOM     61  C   UNL A   1      42.963  30.702  30.182  1.00  0.00     0.074 A 
ATOM     62  C   UNL A   1      41.835  31.602  30.307  1.00  0.00     0.031 C 
ATOM     63  C   UNL A   1      44.240  31.033  30.492  1.00  0.00     0.037 A 
BRANCH  50  64
ATOM     64  C   UNL A   1      48.300  26.443  29.694  1.00  0.00     0.057 A 
ATOM     65  C   UNL A   1      49.208  26.577  28.635  1.00  0.00     0.134 A 
ATOM     66  C   UNL A   1      48.775  25.873  30.881  1.00  0.00     0.134 A 
ATOM     67  F   UNL A   1      48.813  27.103  27.465  1.00  0.00    -0.206 F 
ATOM     68  C   UNL A   1      50.528  26.137  28.743  1.00  0.00     0.040 A 
ATOM     69  C   UNL A   1      50.100  25.455  31.012  1.00  0.00     0.040 A 
ATOM     70  F   UNL A   1      47.961  25.720  31.938  1.00  0.00    -0.206 F 
ATOM     71  C   UNL A   1      50.979  25.580  29.937  1.00  0.00     0.006 A 
ENDBRANCH  50  64
BRANCH  51  72
ATOM     72  C   UNL A   1      38.702  29.102  29.002  1.00  0.00     0.057 A 
ATOM     73  C   UNL A   1      37.860  28.959  30.111  1.00  0.00     0.134 A 
ATOM     74  C   UNL A   1      38.140  29.620  27.829  1.00  0.00     0.134 A 
ATOM     75  F   UNL A   1      38.336  28.451  31.258  1.00  0.00    -0.206 F 
ATOM     76  C   UNL A   1      36.508  29.297  30.053  1.00  0.00     0.040 A 
ATOM     77  C   UNL A   1      36.794  29.986  27.764  1.00  0.00     0.040 A 
ATOM     78  F   UNL A   1      38.895  29.790  26.734  1.00  0.00    -0.206 F 
ATOM     79  C   UNL A   1      35.973  29.817  28.875  1.00  0.00     0.006 A 
ENDBRANCH  51  72
BRANCH  63  80
ATOM     80  C   UNL A   1      44.491  32.436  30.960  1.00  0.00     0.057 A 
ATOM     81  C   UNL A   1      44.749  33.480  30.064  1.00  0.00     0.134 A 
ATOM     82  C   UNL A   1      44.433  32.751  32.325  1.00  0.00     0.134 A 
ATOM     83  F   UNL A   1      44.831  33.241  28.747  1.00  0.00    -0.206 F 
ATOM     84  C   UNL A   1      44.964  34.785  30.510  1.00  0.00     0.040 A 
ATOM     85  C   UNL A   1      44.620  34.057  32.780  1.00  0.00     0.040 A 
ATOM     86  F   UNL A   1      44.181  31.799  33.234  1.00  0.00    -0.206 F 
ATOM     87  C   UNL A   1      44.892  35.078  31.871  1.00  0.00     0.006 A 
ENDBRANCH  63  80
ENDBRANCH  37  38
ENDBRANCH  29  32
ENDBRANCH  27  28
ENDBRANCH  26  27
ENDBRANCH   1  26
TORSDOF 16
ENDMDL
