MODEL 1
REMARK VINA RESULT:     -10.9      0.000      0.000
REMARK SMILES O=C(NCCCCNC(=O)[C@H]1CC[N@@H+]1CCc1ccccc1)c1ccc(-c2c3nc(c(-c4c(F)cccc4F)c4ccc([nH]4)c(-c4c(F)cccc4F)c4nc(c(-c5c(F)cccc5F)c5ccc2[nH]5)C=C4)C=C3)cc1
REMARK SMILES IDX 6 1 5 2 4 3 3 4 1 5 2 6 23 8 24 9 76 10 25 11 75 12 26 13
REMARK SMILES IDX 27 14 28 15 69 16 29 17 74 18 68 19 70 20 30 21 73 22 67 23
REMARK SMILES IDX 66 24 31 26 57 27 40 28 56 29 41 30 44 31 55 32 71 33 42 34
REMARK SMILES IDX 43 35 54 37 72 38 45 39 32 40 33 41 38 42 34 43 35 44 37 45
REMARK SMILES IDX 39 46 36 47 58 48 59 49 64 50 60 51 61 52 63 53 65 54 62 55
REMARK SMILES IDX 46 56 47 57 52 58 48 59 49 60 51 61 53 62 50 63 7 64 8 65
REMARK SMILES IDX 9 66 10 68 11 69 12 70 14 71 13 72 15 74 16 75 17 76 18 77
REMARK SMILES IDX 22 78 19 79 21 80 20 81
REMARK H PARENT 3 7 70 25 44 36 8 67 14 73
REMARK Flexibility Score: inf
ROOT
ATOM      1  C   UNL A   1      36.345  20.300  25.030  1.00  0.00     0.023 C 
ENDROOT
BRANCH   1   2
ATOM      2  C   UNL A   1      37.785  19.920  24.678  1.00  0.00     0.023 C 
BRANCH   2   3
ATOM      3  C   UNL A   1      38.819  20.249  25.746  1.00  0.00     0.116 C 
BRANCH   3   4
ATOM      4  N   UNL A   1      39.906  19.284  25.785  1.00  0.00    -0.352 N 
ATOM      5  O   UNL A   1      42.060  18.610  25.929  1.00  0.00    -0.269 OA
ATOM      6  C   UNL A   1      41.229  19.498  26.092  1.00  0.00     0.251 C 
ATOM      7  H   UNL A   1      39.664  18.357  25.563  1.00  0.00     0.163 HD
BRANCH   6   8
ATOM      8  C   UNL A   1      41.645  20.821  26.599  1.00  0.00     0.039 A 
ATOM      9  C   UNL A   1      41.607  21.092  27.969  1.00  0.00     0.014 A 
ATOM     10  C   UNL A   1      42.056  21.802  25.694  1.00  0.00     0.014 A 
ATOM     11  C   UNL A   1      41.858  22.379  28.422  1.00  0.00     0.010 A 
ATOM     12  C   UNL A   1      42.384  23.078  26.160  1.00  0.00     0.010 A 
ATOM     13  C   UNL A   1      42.263  23.383  27.525  1.00  0.00    -0.014 A 
BRANCH  13  14
ATOM     14  C   UNL A   1      42.624  24.721  28.050  1.00  0.00     0.031 A 
ATOM     15  C   UNL A   1      41.580  25.772  28.298  1.00  0.00     0.074 A 
ATOM     16  C   UNL A   1      43.919  24.972  28.324  1.00  0.00     0.049 A 
ATOM     17  N   UNL A   1      41.732  26.989  28.758  1.00  0.00    -0.248 NA
ATOM     18  C   UNL A   1      40.188  25.418  27.982  1.00  0.00     0.031 C 
ATOM     19  C   UNL A   1      45.021  24.029  28.110  1.00  0.00     0.029 A 
ATOM     20  N   UNL A   1      44.528  26.081  28.850  1.00  0.00    -0.354 N 
ATOM     21  C   UNL A   1      40.463  27.553  28.769  1.00  0.00     0.074 A 
ATOM     22  C   UNL A   1      39.554  26.552  28.250  1.00  0.00     0.031 C 
ATOM     23  C   UNL A   1      46.162  24.584  28.538  1.00  0.00     0.029 A 
ATOM     24  C   UNL A   1      45.886  25.939  29.000  1.00  0.00     0.049 A 
ATOM     25  H   UNL A   1      44.039  26.899  29.097  1.00  0.00     0.167 HD
ATOM     26  C   UNL A   1      40.093  28.790  29.180  1.00  0.00     0.037 A 
ATOM     27  C   UNL A   1      46.811  26.809  29.440  1.00  0.00     0.037 A 
ATOM     28  C   UNL A   1      41.003  29.773  29.711  1.00  0.00     0.049 A 
ATOM     29  C   UNL A   1      46.375  28.176  29.875  1.00  0.00     0.074 A 
ATOM     30  C   UNL A   1      40.720  31.040  30.193  1.00  0.00     0.029 A 
ATOM     31  N   UNL A   1      42.375  29.602  29.825  1.00  0.00    -0.354 N 
ATOM     32  N   UNL A   1      45.166  28.683  29.910  1.00  0.00    -0.248 NA
ATOM     33  C   UNL A   1      47.429  29.093  30.324  1.00  0.00     0.031 C 
ATOM     34  C   UNL A   1      41.925  31.650  30.560  1.00  0.00     0.029 A 
ATOM     35  C   UNL A   1      42.955  30.747  30.347  1.00  0.00     0.049 A 
ATOM     36  H   UNL A   1      42.866  28.786  29.573  1.00  0.00     0.167 HD
ATOM     37  C   UNL A   1      45.313  29.974  30.396  1.00  0.00     0.074 A 
ATOM     38  C   UNL A   1      46.725  30.164  30.662  1.00  0.00     0.031 C 
ATOM     39  C   UNL A   1      44.363  30.920  30.600  1.00  0.00     0.037 A 
BRANCH  26  40
ATOM     40  C   UNL A   1      38.644  29.161  29.059  1.00  0.00     0.057 A 
ATOM     41  C   UNL A   1      37.774  29.125  30.156  1.00  0.00     0.134 A 
ATOM     42  C   UNL A   1      38.123  29.607  27.837  1.00  0.00     0.134 A 
ATOM     43  F   UNL A   1      38.207  28.697  31.353  1.00  0.00    -0.206 F 
ATOM     44  C   UNL A   1      36.434  29.501  30.039  1.00  0.00     0.040 A 
ATOM     45  C   UNL A   1      36.791  30.008  27.713  1.00  0.00     0.040 A 
ATOM     46  F   UNL A   1      38.903  29.673  26.748  1.00  0.00    -0.206 F 
ATOM     47  C   UNL A   1      35.942  29.951  28.816  1.00  0.00     0.006 A 
ENDBRANCH  26  40
BRANCH  27  48
ATOM     48  C   UNL A   1      48.236  26.405  29.481  1.00  0.00     0.057 A 
ATOM     49  C   UNL A   1      49.085  26.631  28.392  1.00  0.00     0.134 A 
ATOM     50  C   UNL A   1      48.790  25.807  30.620  1.00  0.00     0.134 A 
ATOM     51  F   UNL A   1      48.607  27.187  27.268  1.00  0.00    -0.206 F 
ATOM     52  C   UNL A   1      50.432  26.269  28.431  1.00  0.00     0.040 A 
ATOM     53  C   UNL A   1      50.140  25.465  30.682  1.00  0.00     0.040 A 
ATOM     54  F   UNL A   1      48.029  25.573  31.699  1.00  0.00    -0.206 F 
ATOM     55  C   UNL A   1      50.964  25.691  29.582  1.00  0.00     0.006 A 
ENDBRANCH  27  48
BRANCH  39  56
ATOM     56  C   UNL A   1      44.825  32.234  31.153  1.00  0.00     0.057 A 
ATOM     57  C   UNL A   1      45.189  33.297  30.318  1.00  0.00     0.134 A 
ATOM     58  C   UNL A   1      44.888  32.443  32.536  1.00  0.00     0.134 A 
ATOM     59  F   UNL A   1      45.165  33.152  28.984  1.00  0.00    -0.206 F 
ATOM     60  C   UNL A   1      45.622  34.517  30.839  1.00  0.00     0.040 A 
ATOM     61  C   UNL A   1      45.297  33.666  33.069  1.00  0.00     0.040 A 
ATOM     62  F   UNL A   1      44.548  31.467  33.390  1.00  0.00    -0.206 F 
ATOM     63  C   UNL A   1      45.671  34.705  32.219  1.00  0.00     0.006 A 
ENDBRANCH  39  56
ENDBRANCH  13  14
ENDBRANCH   6   8
ENDBRANCH   3   4
ENDBRANCH   2   3
ENDBRANCH   1   2
BRANCH   1  64
ATOM     64  C   UNL A   1      36.188  21.644  25.739  1.00  0.00     0.116 C 
BRANCH  64  65
ATOM     65  N   UNL A   1      35.250  21.550  26.836  1.00  0.00    -0.351 N 
ATOM     66  C   UNL A   1      33.962  22.021  26.921  1.00  0.00     0.278 C 
ATOM     67  H   UNL A   1      35.582  21.079  27.635  1.00  0.00     0.163 HD
ATOM     68  O   UNL A   1      33.423  21.911  28.032  1.00  0.00    -0.268 OA
BRANCH  66  69
ATOM     69  C   UNL A   1      33.258  22.577  25.619  1.00  0.00     0.279 C 
ATOM     70  C   UNL A   1      31.936  21.859  25.264  1.00  0.00     0.137 C 
ATOM     71  N   UNL A   1      32.495  23.821  25.865  1.00  0.00    -0.324 N 
ATOM     72  C   UNL A   1      31.211  23.145  25.666  1.00  0.00     0.269 C 
ATOM     73  H   UNL A   1      32.678  24.328  26.731  1.00  0.00     0.348 HD
BRANCH  71  74
ATOM     74  C   UNL A   1      32.734  24.925  24.924  1.00  0.00     0.267 C 
BRANCH  74  75
ATOM     75  C   UNL A   1      33.737  26.077  25.175  1.00  0.00     0.097 C 
BRANCH  75  76
ATOM     76  C   UNL A   1      33.198  27.310  25.855  1.00  0.00    -0.042 A 
ATOM     77  C   UNL A   1      32.084  27.221  26.701  1.00  0.00     0.004 A 
ATOM     78  C   UNL A   1      33.796  28.562  25.657  1.00  0.00     0.004 A 
ATOM     79  C   UNL A   1      31.625  28.342  27.392  1.00  0.00     0.000 A 
ATOM     80  C   UNL A   1      33.322  29.688  26.334  1.00  0.00     0.000 A 
ATOM     81  C   UNL A   1      32.247  29.575  27.212  1.00  0.00     0.000 A 
ENDBRANCH  75  76
ENDBRANCH  74  75
ENDBRANCH  71  74
ENDBRANCH  66  69
ENDBRANCH  64  65
ENDBRANCH   1  64
TORSDOF 14
ENDMDL
MODEL 2
REMARK VINA RESULT:     -10.8      0.214      6.465
REMARK SMILES O=C(NCCCCNC(=O)[C@H]1CC[N@@H+]1CCc1ccccc1)c1ccc(-c2c3nc(c(-c4c(F)cccc4F)c4ccc([nH]4)c(-c4c(F)cccc4F)c4nc(c(-c5c(F)cccc5F)c5ccc2[nH]5)C=C4)C=C3)cc1
REMARK SMILES IDX 6 1 5 2 4 3 3 4 1 5 2 6 23 8 24 9 76 10 25 11 75 12 26 13
REMARK SMILES IDX 27 14 28 15 69 16 29 17 74 18 68 19 70 20 30 21 73 22 67 23
REMARK SMILES IDX 66 24 31 26 57 27 40 28 56 29 41 30 44 31 55 32 71 33 42 34
REMARK SMILES IDX 43 35 54 37 72 38 45 39 32 40 33 41 38 42 34 43 35 44 37 45
REMARK SMILES IDX 39 46 36 47 58 48 59 49 64 50 60 51 61 52 63 53 65 54 62 55
REMARK SMILES IDX 46 56 47 57 52 58 48 59 49 60 51 61 53 62 50 63 7 64 8 65
REMARK SMILES IDX 9 66 10 68 11 69 12 70 14 71 13 72 15 74 16 75 17 76 18 77
REMARK SMILES IDX 22 78 19 79 21 80 20 81
REMARK H PARENT 3 7 70 25 44 36 8 67 14 73
REMARK Flexibility Score: inf
ROOT
ATOM      1  C   UNL A   1      36.344  20.302  25.002  1.00  0.00     0.023 C 
ENDROOT
BRANCH   1   2
ATOM      2  C   UNL A   1      37.795  19.964  24.647  1.00  0.00     0.023 C 
BRANCH   2   3
ATOM      3  C   UNL A   1      38.812  20.261  25.740  1.00  0.00     0.116 C 
BRANCH   3   4
ATOM      4  N   UNL A   1      39.897  19.293  25.769  1.00  0.00    -0.352 N 
ATOM      5  O   UNL A   1      42.049  18.611  25.912  1.00  0.00    -0.269 OA
ATOM      6  C   UNL A   1      41.218  19.497  26.086  1.00  0.00     0.251 C 
ATOM      7  H   UNL A   1      39.654  18.370  25.530  1.00  0.00     0.163 HD
BRANCH   6   8
ATOM      8  C   UNL A   1      41.635  20.811  26.618  1.00  0.00     0.039 A 
ATOM      9  C   UNL A   1      41.467  21.105  27.974  1.00  0.00     0.014 A 
ATOM     10  C   UNL A   1      42.178  21.760  25.749  1.00  0.00     0.014 A 
ATOM     11  C   UNL A   1      41.724  22.388  28.435  1.00  0.00     0.010 A 
ATOM     12  C   UNL A   1      42.509  23.028  26.231  1.00  0.00     0.010 A 
ATOM     13  C   UNL A   1      42.261  23.360  27.573  1.00  0.00    -0.014 A 
BRANCH  13  14
ATOM     14  C   UNL A   1      42.622  24.691  28.117  1.00  0.00     0.031 A 
ATOM     15  C   UNL A   1      44.044  25.039  28.451  1.00  0.00     0.074 A 
ATOM     16  C   UNL A   1      41.642  25.599  28.287  1.00  0.00     0.049 A 
ATOM     17  N   UNL A   1      44.525  26.159  28.930  1.00  0.00    -0.248 NA
ATOM     18  C   UNL A   1      45.057  23.997  28.229  1.00  0.00     0.031 C 
ATOM     19  C   UNL A   1      40.222  25.365  28.007  1.00  0.00     0.029 A 
ATOM     20  N   UNL A   1      41.686  26.898  28.719  1.00  0.00    -0.354 N 
ATOM     21  C   UNL A   1      45.890  25.953  29.086  1.00  0.00     0.074 A 
ATOM     22  C   UNL A   1      46.159  24.592  28.669  1.00  0.00     0.031 C 
ATOM     23  C   UNL A   1      39.538  26.494  28.237  1.00  0.00     0.029 A 
ATOM     24  C   UNL A   1      40.456  27.510  28.736  1.00  0.00     0.049 A 
ATOM     25  H   UNL A   1      42.517  27.348  28.993  1.00  0.00     0.167 HD
ATOM     26  C   UNL A   1      46.829  26.822  29.529  1.00  0.00     0.037 A 
ATOM     27  C   UNL A   1      40.102  28.746  29.127  1.00  0.00     0.037 A 
ATOM     28  C   UNL A   1      46.554  28.181  29.926  1.00  0.00     0.049 A 
ATOM     29  C   UNL A   1      41.160  29.682  29.628  1.00  0.00     0.074 A 
ATOM     30  C   UNL A   1      47.444  29.153  30.351  1.00  0.00     0.029 A 
ATOM     31  N   UNL A   1      45.292  28.757  29.951  1.00  0.00    -0.354 N 
ATOM     32  N   UNL A   1      42.452  29.483  29.739  1.00  0.00    -0.248 NA
ATOM     33  C   UNL A   1      40.715  31.011  30.065  1.00  0.00     0.031 C 
ATOM     34  C   UNL A   1      46.716  30.304  30.672  1.00  0.00     0.029 A 
ATOM     35  C   UNL A   1      45.377  30.064  30.406  1.00  0.00     0.049 A 
ATOM     36  H   UNL A   1      44.459  28.306  29.684  1.00  0.00     0.167 HD
ATOM     37  C   UNL A   1      42.974  30.663  30.246  1.00  0.00     0.074 A 
ATOM     38  C   UNL A   1      41.863  31.581  30.401  1.00  0.00     0.031 C 
ATOM     39  C   UNL A   1      44.259  30.960  30.559  1.00  0.00     0.037 A 
BRANCH  26  40
ATOM     40  C   UNL A   1      48.244  26.331  29.627  1.00  0.00     0.057 A 
ATOM     41  C   UNL A   1      49.157  26.483  28.577  1.00  0.00     0.134 A 
ATOM     42  C   UNL A   1      48.712  25.739  30.809  1.00  0.00     0.134 A 
ATOM     43  F   UNL A   1      48.771  27.031  27.414  1.00  0.00    -0.206 F 
ATOM     44  C   UNL A   1      50.480  26.048  28.690  1.00  0.00     0.040 A 
ATOM     45  C   UNL A   1      50.038  25.322  30.942  1.00  0.00     0.040 A 
ATOM     46  F   UNL A   1      47.891  25.569  31.856  1.00  0.00    -0.206 F 
ATOM     47  C   UNL A   1      50.924  25.472  29.878  1.00  0.00     0.006 A 
ENDBRANCH  26  40
BRANCH  27  48
ATOM     48  C   UNL A   1      38.679  29.155  29.063  1.00  0.00     0.057 A 
ATOM     49  C   UNL A   1      38.117  29.644  27.879  1.00  0.00     0.134 A 
ATOM     50  C   UNL A   1      37.839  29.041  30.179  1.00  0.00     0.134 A 
ATOM     51  F   UNL A   1      38.876  29.788  26.782  1.00  0.00    -0.206 F 
ATOM     52  C   UNL A   1      36.774  30.013  27.807  1.00  0.00     0.040 A 
ATOM     53  C   UNL A   1      36.489  29.382  30.114  1.00  0.00     0.040 A 
ATOM     54  F   UNL A   1      38.316  28.570  31.340  1.00  0.00    -0.206 F 
ATOM     55  C   UNL A   1      35.954  29.875  28.926  1.00  0.00     0.006 A 
ENDBRANCH  27  48
BRANCH  39  56
ATOM     56  C   UNL A   1      44.526  32.339  31.083  1.00  0.00     0.057 A 
ATOM     57  C   UNL A   1      44.518  32.619  32.454  1.00  0.00     0.134 A 
ATOM     58  C   UNL A   1      44.814  33.392  30.206  1.00  0.00     0.134 A 
ATOM     59  F   UNL A   1      44.233  31.656  33.344  1.00  0.00    -0.206 F 
ATOM     60  C   UNL A   1      44.763  33.906  32.936  1.00  0.00     0.040 A 
ATOM     61  C   UNL A   1      45.085  34.677  30.676  1.00  0.00     0.040 A 
ATOM     62  F   UNL A   1      44.843  33.187  28.881  1.00  0.00    -0.206 F 
ATOM     63  C   UNL A   1      45.054  34.939  32.044  1.00  0.00     0.006 A 
ENDBRANCH  39  56
ENDBRANCH  13  14
ENDBRANCH   6   8
ENDBRANCH   3   4
ENDBRANCH   2   3
ENDBRANCH   1   2
BRANCH   1  64
ATOM     64  C   UNL A   1      36.153  21.628  25.739  1.00  0.00     0.116 C 
BRANCH  64  65
ATOM     65  N   UNL A   1      35.220  21.486  26.835  1.00  0.00    -0.351 N 
ATOM     66  C   UNL A   1      33.929  21.943  26.942  1.00  0.00     0.278 C 
ATOM     67  H   UNL A   1      35.559  20.989  27.615  1.00  0.00     0.163 HD
ATOM     68  O   UNL A   1      33.396  21.789  28.049  1.00  0.00    -0.268 OA
BRANCH  66  69
ATOM     69  C   UNL A   1      33.216  22.542  25.663  1.00  0.00     0.279 C 
ATOM     70  C   UNL A   1      31.943  21.776  25.237  1.00  0.00     0.137 C 
ATOM     71  N   UNL A   1      32.380  23.723  25.971  1.00  0.00    -0.324 N 
ATOM     72  C   UNL A   1      31.140  22.991  25.705  1.00  0.00     0.269 C 
ATOM     73  H   UNL A   1      32.519  24.184  26.871  1.00  0.00     0.348 HD
BRANCH  71  74
ATOM     74  C   UNL A   1      32.571  24.897  25.107  1.00  0.00     0.267 C 
BRANCH  74  75
ATOM     75  C   UNL A   1      33.640  25.989  25.351  1.00  0.00     0.097 C 
BRANCH  75  76
ATOM     76  C   UNL A   1      33.176  27.255  26.026  1.00  0.00    -0.042 A 
ATOM     77  C   UNL A   1      33.902  28.444  25.876  1.00  0.00     0.004 A 
ATOM     78  C   UNL A   1      32.016  27.268  26.811  1.00  0.00     0.004 A 
ATOM     79  C   UNL A   1      33.439  29.635  26.435  1.00  0.00     0.000 A 
ATOM     80  C   UNL A   1      31.564  28.457  27.388  1.00  0.00     0.000 A 
ATOM     81  C   UNL A   1      32.267  29.643  27.187  1.00  0.00     0.000 A 
ENDBRANCH  75  76
ENDBRANCH  74  75
ENDBRANCH  71  74
ENDBRANCH  66  69
ENDBRANCH  64  65
ENDBRANCH   1  64
TORSDOF 14
ENDMDL
MODEL 3
REMARK VINA RESULT:     -10.8      2.069      7.308
REMARK SMILES O=C(NCCCCNC(=O)[C@H]1CC[N@@H+]1CCc1ccccc1)c1ccc(-c2c3nc(c(-c4c(F)cccc4F)c4ccc([nH]4)c(-c4c(F)cccc4F)c4nc(c(-c5c(F)cccc5F)c5ccc2[nH]5)C=C4)C=C3)cc1
REMARK SMILES IDX 6 1 5 2 4 3 3 4 1 5 2 6 23 8 24 9 76 10 25 11 75 12 26 13
REMARK SMILES IDX 27 14 28 15 69 16 29 17 74 18 68 19 70 20 30 21 73 22 67 23
REMARK SMILES IDX 66 24 31 26 57 27 40 28 56 29 41 30 44 31 55 32 71 33 42 34
REMARK SMILES IDX 43 35 54 37 72 38 45 39 32 40 33 41 38 42 34 43 35 44 37 45
REMARK SMILES IDX 39 46 36 47 58 48 59 49 64 50 60 51 61 52 63 53 65 54 62 55
REMARK SMILES IDX 46 56 47 57 52 58 48 59 49 60 51 61 53 62 50 63 7 64 8 65
REMARK SMILES IDX 9 66 10 68 11 69 12 70 14 71 13 72 15 74 16 75 17 76 18 77
REMARK SMILES IDX 22 78 19 79 21 80 20 81
REMARK H PARENT 3 7 70 25 44 36 8 67 14 73
REMARK Flexibility Score: inf
ROOT
ATOM      1  C   UNL A   1      36.958  20.475  24.934  1.00  0.00     0.023 C 
ENDROOT
BRANCH   1   2
ATOM      2  C   UNL A   1      38.128  19.489  25.000  1.00  0.00     0.023 C 
BRANCH   2   3
ATOM      3  C   UNL A   1      39.287  19.922  25.886  1.00  0.00     0.116 C 
BRANCH   3   4
ATOM      4  N   UNL A   1      40.367  18.948  25.906  1.00  0.00    -0.352 N 
ATOM      5  O   UNL A   1      42.520  18.256  25.899  1.00  0.00    -0.269 OA
ATOM      6  C   UNL A   1      41.715  19.168  26.062  1.00  0.00     0.251 C 
ATOM      7  H   UNL A   1      40.098  18.008  25.794  1.00  0.00     0.163 HD
BRANCH   6   8
ATOM      8  C   UNL A   1      42.187  20.525  26.403  1.00  0.00     0.039 A 
ATOM      9  C   UNL A   1      42.290  20.916  27.741  1.00  0.00     0.014 A 
ATOM     10  C   UNL A   1      42.510  21.416  25.378  1.00  0.00     0.014 A 
ATOM     11  C   UNL A   1      42.593  22.235  28.049  1.00  0.00     0.010 A 
ATOM     12  C   UNL A   1      42.889  22.723  25.692  1.00  0.00     0.010 A 
ATOM     13  C   UNL A   1      42.910  23.149  27.030  1.00  0.00    -0.014 A 
BRANCH  13  14
ATOM     14  C   UNL A   1      43.330  24.523  27.394  1.00  0.00     0.031 A 
ATOM     15  C   UNL A   1      44.767  24.951  27.305  1.00  0.00     0.074 A 
ATOM     16  C   UNL A   1      42.385  25.397  27.790  1.00  0.00     0.049 A 
ATOM     17  N   UNL A   1      45.297  26.116  27.582  1.00  0.00    -0.248 NA
ATOM     18  C   UNL A   1      45.738  23.942  26.855  1.00  0.00     0.031 C 
ATOM     19  C   UNL A   1      40.959  25.087  27.926  1.00  0.00     0.029 A 
ATOM     20  N   UNL A   1      42.472  26.719  28.137  1.00  0.00    -0.354 N 
ATOM     21  C   UNL A   1      46.661  25.978  27.362  1.00  0.00     0.074 A 
ATOM     22  C   UNL A   1      46.882  24.608  26.946  1.00  0.00     0.031 C 
ATOM     23  C   UNL A   1      40.301  26.196  28.288  1.00  0.00     0.029 A 
ATOM     24  C   UNL A   1      41.261  27.278  28.467  1.00  0.00     0.049 A 
ATOM     25  H   UNL A   1      43.319  27.219  28.149  1.00  0.00     0.167 HD
ATOM     26  C   UNL A   1      47.635  26.910  27.489  1.00  0.00     0.037 A 
ATOM     27  C   UNL A   1      40.959  28.518  28.888  1.00  0.00     0.037 A 
ATOM     28  C   UNL A   1      47.403  28.276  27.887  1.00  0.00     0.049 A 
ATOM     29  C   UNL A   1      42.059  29.525  29.035  1.00  0.00     0.074 A 
ATOM     30  C   UNL A   1      48.318  29.309  28.005  1.00  0.00     0.029 A 
ATOM     31  N   UNL A   1      46.166  28.799  28.237  1.00  0.00    -0.354 N 
ATOM     32  N   UNL A   1      43.340  29.388  28.790  1.00  0.00    -0.248 NA
ATOM     33  C   UNL A   1      41.675  30.857  29.520  1.00  0.00     0.031 C 
ATOM     34  C   UNL A   1      47.642  30.444  28.466  1.00  0.00     0.029 A 
ATOM     35  C   UNL A   1      46.298  30.132  28.593  1.00  0.00     0.049 A 
ATOM     36  H   UNL A   1      45.319  28.297  28.231  1.00  0.00     0.167 HD
ATOM     37  C   UNL A   1      43.913  30.617  29.081  1.00  0.00     0.074 A 
ATOM     38  C   UNL A   1      42.837  31.494  29.499  1.00  0.00     0.031 C 
ATOM     39  C   UNL A   1      45.216  30.986  29.012  1.00  0.00     0.037 A 
BRANCH  26  40
ATOM     40  C   UNL A   1      49.048  26.486  27.211  1.00  0.00     0.057 A 
ATOM     41  C   UNL A   1      49.889  26.000  28.220  1.00  0.00     0.134 A 
ATOM     42  C   UNL A   1      49.558  26.521  25.906  1.00  0.00     0.134 A 
ATOM     43  F   UNL A   1      49.465  25.951  29.493  1.00  0.00    -0.206 F 
ATOM     44  C   UNL A   1      51.192  25.580  27.946  1.00  0.00     0.040 A 
ATOM     45  C   UNL A   1      50.852  26.082  25.616  1.00  0.00     0.040 A 
ATOM     46  F   UNL A   1      48.804  26.969  24.892  1.00  0.00    -0.206 F 
ATOM     47  C   UNL A   1      51.674  25.614  26.639  1.00  0.00     0.006 A 
ENDBRANCH  26  40
BRANCH  27  48
ATOM     48  C   UNL A   1      39.552  28.861  29.204  1.00  0.00     0.057 A 
ATOM     49  C   UNL A   1      38.689  29.360  28.223  1.00  0.00     0.134 A 
ATOM     50  C   UNL A   1      39.029  28.673  30.491  1.00  0.00     0.134 A 
ATOM     51  F   UNL A   1      39.137  29.574  26.976  1.00  0.00    -0.206 F 
ATOM     52  C   UNL A   1      37.359  29.667  28.510  1.00  0.00     0.040 A 
ATOM     53  C   UNL A   1      37.695  28.952  30.784  1.00  0.00     0.040 A 
ATOM     54  F   UNL A   1      39.805  28.189  31.472  1.00  0.00    -0.206 F 
ATOM     55  C   UNL A   1      36.857  29.456  29.793  1.00  0.00     0.006 A 
ENDBRANCH  27  48
BRANCH  39  56
ATOM     56  C   UNL A   1      45.538  32.403  29.380  1.00  0.00     0.057 A 
ATOM     57  C   UNL A   1      45.486  33.438  28.439  1.00  0.00     0.134 A 
ATOM     58  C   UNL A   1      45.883  32.738  30.696  1.00  0.00     0.134 A 
ATOM     59  F   UNL A   1      45.178  33.178  27.159  1.00  0.00    -0.206 F 
ATOM     60  C   UNL A   1      45.791  34.755  28.787  1.00  0.00     0.040 A 
ATOM     61  C   UNL A   1      46.166  34.054  31.061  1.00  0.00     0.040 A 
ATOM     62  F   UNL A   1      45.944  31.793  31.645  1.00  0.00    -0.206 F 
ATOM     63  C   UNL A   1      46.126  35.066  30.104  1.00  0.00     0.006 A 
ENDBRANCH  39  56
ENDBRANCH  13  14
ENDBRANCH   6   8
ENDBRANCH   3   4
ENDBRANCH   2   3
ENDBRANCH   1   2
BRANCH   1  64
ATOM     64  C   UNL A   1      37.339  21.941  25.137  1.00  0.00     0.116 C 
BRANCH  64  65
ATOM     65  N   UNL A   1      36.796  22.772  24.085  1.00  0.00    -0.351 N 
ATOM     66  C   UNL A   1      35.484  23.059  23.794  1.00  0.00     0.278 C 
ATOM     67  H   UNL A   1      37.462  23.192  23.494  1.00  0.00     0.163 HD
ATOM     68  O   UNL A   1      35.294  23.703  22.753  1.00  0.00    -0.268 OA
BRANCH  66  69
ATOM     69  C   UNL A   1      34.357  22.629  24.818  1.00  0.00     0.279 C 
ATOM     70  C   UNL A   1      33.472  23.799  25.304  1.00  0.00     0.137 C 
ATOM     71  N   UNL A   1      33.175  22.035  24.154  1.00  0.00    -0.324 N 
ATOM     72  C   UNL A   1      32.335  23.189  24.482  1.00  0.00     0.269 C 
ATOM     73  H   UNL A   1      33.274  21.733  23.185  1.00  0.00     0.348 HD
BRANCH  71  74
ATOM     74  C   UNL A   1      32.685  20.768  24.716  1.00  0.00     0.267 C 
BRANCH  74  75
ATOM     75  C   UNL A   1      32.481  19.474  23.891  1.00  0.00     0.097 C 
BRANCH  75  76
ATOM     76  C   UNL A   1      33.104  18.215  24.438  1.00  0.00    -0.042 A 
ATOM     77  C   UNL A   1      32.353  17.344  25.238  1.00  0.00     0.004 A 
ATOM     78  C   UNL A   1      34.439  17.893  24.160  1.00  0.00     0.004 A 
ATOM     79  C   UNL A   1      32.898  16.141  25.686  1.00  0.00     0.000 A 
ATOM     80  C   UNL A   1      34.991  16.697  24.626  1.00  0.00     0.000 A 
ATOM     81  C   UNL A   1      34.216  15.815  25.376  1.00  0.00     0.000 A 
ENDBRANCH  75  76
ENDBRANCH  74  75
ENDBRANCH  71  74
ENDBRANCH  66  69
ENDBRANCH  64  65
ENDBRANCH   1  64
TORSDOF 14
ENDMDL
