MODEL 1
REMARK VINA RESULT:     -10.7      0.000      0.000
REMARK SMILES C[C@@H](C(=O)NCCCCNC(=O)c1ccc(-c2c3nc(c(-c4c(F)cccc4F)c4ccc([nH]4)c(-c4c(F)cccc4F)c4nc(c(-c5c(F)cccc5F)c5ccc2[nH]5)C=C4)C=C3)cc1)c1cccn(C(F)F)c1=O
REMARK SMILES IDX 7 1 6 2 5 3 3 4 4 5 2 7 1 8 67 9 68 10 75 11 69 12 71 13
REMARK SMILES IDX 76 14 70 15 72 16 73 17 74 18 8 19 9 20 10 21 11 22 12 24
REMARK SMILES IDX 13 25 14 26 66 27 15 28 65 29 16 30 17 31 18 32 59 33 19 34
REMARK SMILES IDX 64 35 58 36 60 37 20 38 63 39 57 40 56 41 21 43 47 44 30 45
REMARK SMILES IDX 46 46 31 47 34 48 45 49 61 50 32 51 33 52 44 54 62 55 35 56
REMARK SMILES IDX 22 57 23 58 28 59 24 60 25 61 27 62 29 63 26 64 48 65 49 66
REMARK SMILES IDX 54 67 50 68 51 69 53 70 55 71 52 72 36 73 37 74 42 75 38 76
REMARK SMILES IDX 39 77 41 78 43 79 40 80
REMARK H PARENT 5 6 10 23 60 42 34 53
REMARK Flexibility Score: inf
ROOT
ATOM      1  C   UNL A   1      34.632  35.768  28.747  1.00  0.00     0.023 C 
ENDROOT
BRANCH   1   2
ATOM      2  C   UNL A   1      33.275  36.446  28.932  1.00  0.00     0.116 C 
BRANCH   2   3
ATOM      3  N   UNL A   1      33.273  37.389  30.031  1.00  0.00    -0.356 N 
ATOM      4  C   UNL A   1      33.109  37.175  31.369  1.00  0.00     0.227 C 
ATOM      5  O   UNL A   1      33.428  38.107  32.112  1.00  0.00    -0.274 OA
ATOM      6  H   UNL A   1      33.411  38.329  29.773  1.00  0.00     0.163 HD
BRANCH   4   7
ATOM      7  C   UNL A   1      32.664  35.789  31.889  1.00  0.00     0.111 C 
ATOM      8  C   UNL A   1      31.438  35.802  32.802  1.00  0.00     0.023 C 
BRANCH   7   9
ATOM      9  C   UNL A   1      33.798  35.074  32.595  1.00  0.00     0.030 A 
ATOM     10  C   UNL A   1      34.337  35.515  33.746  1.00  0.00     0.012 A 
ATOM     11  C   UNL A   1      34.355  33.816  31.975  1.00  0.00     0.258 A 
ATOM     12  C   UNL A   1      35.404  34.802  34.397  1.00  0.00     0.019 A 
ATOM     13  N   UNL A   1      35.280  33.125  32.737  1.00  0.00    -0.258 N 
ATOM     14  O   UNL A   1      34.010  33.465  30.848  1.00  0.00    -0.269 OA
ATOM     15  C   UNL A   1      35.822  33.633  33.901  1.00  0.00     0.095 A 
BRANCH  13  16
ATOM     16  C   UNL A   1      35.742  31.862  32.225  1.00  0.00     0.451 C 
ATOM     17  F   UNL A   1      36.648  32.079  31.234  1.00  0.00    -0.185 F 
ATOM     18  F   UNL A   1      36.408  31.182  33.198  1.00  0.00    -0.185 F 
ENDBRANCH  13  16
ENDBRANCH   7   9
ENDBRANCH   4   7
ENDBRANCH   2   3
ENDBRANCH   1   2
BRANCH   1  19
ATOM     19  C   UNL A   1      34.678  34.696  27.658  1.00  0.00     0.023 C 
BRANCH  19  20
ATOM     20  C   UNL A   1      35.205  33.339  28.100  1.00  0.00     0.116 C 
BRANCH  20  21
ATOM     21  N   UNL A   1      34.289  32.248  27.808  1.00  0.00    -0.352 N 
ATOM     22  C   UNL A   1      34.519  30.894  27.827  1.00  0.00     0.251 C 
ATOM     23  H   UNL A   1      33.375  32.519  27.561  1.00  0.00     0.163 HD
ATOM     24  O   UNL A   1      33.659  30.122  27.420  1.00  0.00    -0.269 OA
BRANCH  22  25
ATOM     25  C   UNL A   1      35.812  30.371  28.318  1.00  0.00     0.039 A 
ATOM     26  C   UNL A   1      35.826  29.582  29.472  1.00  0.00     0.014 A 
ATOM     27  C   UNL A   1      37.008  30.665  27.659  1.00  0.00     0.014 A 
ATOM     28  C   UNL A   1      37.032  29.062  29.941  1.00  0.00     0.010 A 
ATOM     29  C   UNL A   1      38.196  30.071  28.075  1.00  0.00     0.010 A 
ATOM     30  C   UNL A   1      38.226  29.287  29.237  1.00  0.00    -0.014 A 
BRANCH  30  31
ATOM     31  C   UNL A   1      39.521  28.758  29.734  1.00  0.00     0.031 A 
ATOM     32  C   UNL A   1      40.166  29.373  30.947  1.00  0.00     0.074 A 
ATOM     33  C   UNL A   1      40.134  27.754  29.079  1.00  0.00     0.049 A 
ATOM     34  N   UNL A   1      41.299  29.067  31.529  1.00  0.00    -0.248 NA
ATOM     35  C   UNL A   1      39.462  30.504  31.573  1.00  0.00     0.031 C 
ATOM     36  C   UNL A   1      39.636  27.105  27.866  1.00  0.00     0.029 A 
ATOM     37  N   UNL A   1      41.313  27.104  29.345  1.00  0.00    -0.354 N 
ATOM     38  C   UNL A   1      41.447  29.977  32.570  1.00  0.00     0.074 A 
ATOM     39  C   UNL A   1      40.324  30.884  32.501  1.00  0.00     0.031 C 
ATOM     40  C   UNL A   1      40.482  26.122  27.516  1.00  0.00     0.029 A 
ATOM     41  C   UNL A   1      41.598  26.095  28.457  1.00  0.00     0.049 A 
ATOM     42  H   UNL A   1      41.898  27.337  30.101  1.00  0.00     0.167 HD
ATOM     43  C   UNL A   1      42.416  30.035  33.514  1.00  0.00     0.037 A 
ATOM     44  C   UNL A   1      42.638  25.241  28.413  1.00  0.00     0.037 A 
ATOM     45  C   UNL A   1      43.516  29.111  33.598  1.00  0.00     0.049 A 
ATOM     46  C   UNL A   1      43.700  25.324  29.476  1.00  0.00     0.074 A 
ATOM     47  C   UNL A   1      44.515  29.043  34.552  1.00  0.00     0.029 A 
ATOM     48  N   UNL A   1      43.763  28.096  32.685  1.00  0.00    -0.354 N 
ATOM     49  N   UNL A   1      43.788  26.140  30.499  1.00  0.00    -0.248 NA
ATOM     50  C   UNL A   1      44.802  24.356  29.383  1.00  0.00     0.031 C 
ATOM     51  C   UNL A   1      45.398  28.020  34.188  1.00  0.00     0.029 A 
ATOM     52  C   UNL A   1      44.913  27.409  33.043  1.00  0.00     0.049 A 
ATOM     53  H   UNL A   1      43.205  27.893  31.900  1.00  0.00     0.167 HD
ATOM     54  C   UNL A   1      44.927  25.754  31.197  1.00  0.00     0.074 A 
ATOM     55  C   UNL A   1      45.491  24.627  30.480  1.00  0.00     0.031 C 
ATOM     56  C   UNL A   1      45.454  26.279  32.331  1.00  0.00     0.037 A 
BRANCH  43  57
ATOM     57  C   UNL A   1      42.326  31.142  34.528  1.00  0.00     0.057 A 
ATOM     58  C   UNL A   1      41.625  30.993  35.733  1.00  0.00     0.134 A 
ATOM     59  C   UNL A   1      42.962  32.368  34.302  1.00  0.00     0.134 A 
ATOM     60  F   UNL A   1      40.981  29.848  36.009  1.00  0.00    -0.206 F 
ATOM     61  C   UNL A   1      41.527  32.036  36.656  1.00  0.00     0.040 A 
ATOM     62  C   UNL A   1      42.899  33.408  35.232  1.00  0.00     0.040 A 
ATOM     63  F   UNL A   1      43.657  32.579  33.174  1.00  0.00    -0.206 F 
ATOM     64  C   UNL A   1      42.170  33.246  36.408  1.00  0.00     0.006 A 
ENDBRANCH  43  57
BRANCH  44  65
ATOM     65  C   UNL A   1      42.705  24.200  27.356  1.00  0.00     0.057 A 
ATOM     66  C   UNL A   1      42.204  22.912  27.584  1.00  0.00     0.134 A 
ATOM     67  C   UNL A   1      43.279  24.457  26.106  1.00  0.00     0.134 A 
ATOM     68  F   UNL A   1      41.658  22.600  28.767  1.00  0.00    -0.206 F 
ATOM     69  C   UNL A   1      42.294  21.910  26.616  1.00  0.00     0.040 A 
ATOM     70  C   UNL A   1      43.351  23.472  25.119  1.00  0.00     0.040 A 
ATOM     71  F   UNL A   1      43.769  25.672  25.821  1.00  0.00    -0.206 F 
ATOM     72  C   UNL A   1      42.865  22.191  25.377  1.00  0.00     0.006 A 
ENDBRANCH  44  65
BRANCH  56  73
ATOM     73  C   UNL A   1      46.664  25.600  32.905  1.00  0.00     0.057 A 
ATOM     74  C   UNL A   1      47.967  25.955  32.537  1.00  0.00     0.134 A 
ATOM     75  C   UNL A   1      46.517  24.589  33.865  1.00  0.00     0.134 A 
ATOM     76  F   UNL A   1      48.180  26.907  31.616  1.00  0.00    -0.206 F 
ATOM     77  C   UNL A   1      49.080  25.304  33.075  1.00  0.00     0.040 A 
ATOM     78  C   UNL A   1      47.621  23.955  34.434  1.00  0.00     0.040 A 
ATOM     79  F   UNL A   1      45.297  24.209  34.273  1.00  0.00    -0.206 F 
ATOM     80  C   UNL A   1      48.908  24.304  34.030  1.00  0.00     0.006 A 
ENDBRANCH  56  73
ENDBRANCH  30  31
ENDBRANCH  22  25
ENDBRANCH  20  21
ENDBRANCH  19  20
ENDBRANCH   1  19
TORSDOF 13
ENDMDL
MODEL 2
REMARK VINA RESULT:     -10.5      5.192     11.020
REMARK SMILES C[C@@H](C(=O)NCCCCNC(=O)c1ccc(-c2c3nc(c(-c4c(F)cccc4F)c4ccc([nH]4)c(-c4c(F)cccc4F)c4nc(c(-c5c(F)cccc5F)c5ccc2[nH]5)C=C4)C=C3)cc1)c1cccn(C(F)F)c1=O
REMARK SMILES IDX 7 1 6 2 5 3 3 4 4 5 2 7 1 8 67 9 68 10 75 11 69 12 71 13
REMARK SMILES IDX 76 14 70 15 72 16 73 17 74 18 8 19 9 20 10 21 11 22 12 24
REMARK SMILES IDX 13 25 14 26 66 27 15 28 65 29 16 30 17 31 18 32 59 33 19 34
REMARK SMILES IDX 64 35 58 36 60 37 20 38 63 39 57 40 56 41 21 43 47 44 30 45
REMARK SMILES IDX 46 46 31 47 34 48 45 49 61 50 32 51 33 52 44 54 62 55 35 56
REMARK SMILES IDX 22 57 23 58 28 59 24 60 25 61 27 62 29 63 26 64 48 65 49 66
REMARK SMILES IDX 54 67 50 68 51 69 53 70 55 71 52 72 36 73 37 74 42 75 38 76
REMARK SMILES IDX 39 77 41 78 43 79 40 80
REMARK H PARENT 5 6 10 23 60 42 34 53
REMARK Flexibility Score: inf
ROOT
ATOM      1  C   UNL A   1      39.002  22.232  26.236  1.00  0.00     0.023 C 
ENDROOT
BRANCH   1   2
ATOM      2  C   UNL A   1      37.882  23.160  25.768  1.00  0.00     0.116 C 
BRANCH   2   3
ATOM      3  N   UNL A   1      36.653  22.959  26.505  1.00  0.00    -0.356 N 
ATOM      4  C   UNL A   1      35.484  22.367  26.117  1.00  0.00     0.227 C 
ATOM      5  O   UNL A   1      34.697  22.077  27.022  1.00  0.00    -0.274 OA
ATOM      6  H   UNL A   1      36.660  23.302  27.428  1.00  0.00     0.163 HD
BRANCH   4   7
ATOM      7  C   UNL A   1      35.256  21.987  24.638  1.00  0.00     0.111 C 
ATOM      8  C   UNL A   1      34.717  23.114  23.755  1.00  0.00     0.023 C 
BRANCH   7   9
ATOM      9  C   UNL A   1      34.347  20.782  24.510  1.00  0.00     0.030 A 
ATOM     10  C   UNL A   1      33.022  20.883  24.300  1.00  0.00     0.012 A 
ATOM     11  C   UNL A   1      34.953  19.405  24.635  1.00  0.00     0.258 A 
ATOM     12  C   UNL A   1      32.191  19.715  24.169  1.00  0.00     0.019 A 
ATOM     13  N   UNL A   1      34.106  18.345  24.359  1.00  0.00    -0.258 N 
ATOM     14  O   UNL A   1      36.122  19.262  24.988  1.00  0.00    -0.269 OA
ATOM     15  C   UNL A   1      32.747  18.500  24.174  1.00  0.00     0.095 A 
BRANCH  13  16
ATOM     16  C   UNL A   1      34.684  17.027  24.355  1.00  0.00     0.451 C 
ATOM     17  F   UNL A   1      34.108  16.278  25.334  1.00  0.00    -0.185 F 
ATOM     18  F   UNL A   1      34.395  16.398  23.183  1.00  0.00    -0.185 F 
ENDBRANCH  13  16
ENDBRANCH   7   9
ENDBRANCH   4   7
ENDBRANCH   2   3
ENDBRANCH   1   2
BRANCH   1  19
ATOM     19  C   UNL A   1      39.128  20.923  25.457  1.00  0.00     0.023 C 
BRANCH  19  20
ATOM     20  C   UNL A   1      39.579  19.719  26.272  1.00  0.00     0.116 C 
BRANCH  20  21
ATOM     21  N   UNL A   1      40.832  19.152  25.804  1.00  0.00    -0.352 N 
ATOM     22  C   UNL A   1      42.078  19.729  25.747  1.00  0.00     0.251 C 
ATOM     23  H   UNL A   1      40.781  18.223  25.482  1.00  0.00     0.163 HD
ATOM     24  O   UNL A   1      43.000  19.141  25.194  1.00  0.00    -0.269 OA
BRANCH  22  25
ATOM     25  C   UNL A   1      42.299  21.069  26.331  1.00  0.00     0.039 A 
ATOM     26  C   UNL A   1      42.191  21.226  27.716  1.00  0.00     0.014 A 
ATOM     27  C   UNL A   1      42.596  22.170  25.524  1.00  0.00     0.014 A 
ATOM     28  C   UNL A   1      42.415  22.478  28.291  1.00  0.00     0.010 A 
ATOM     29  C   UNL A   1      42.908  23.395  26.106  1.00  0.00     0.010 A 
ATOM     30  C   UNL A   1      42.793  23.569  27.493  1.00  0.00    -0.014 A 
BRANCH  30  31
ATOM     31  C   UNL A   1      43.015  24.912  28.086  1.00  0.00     0.031 A 
ATOM     32  C   UNL A   1      44.400  25.329  28.503  1.00  0.00     0.074 A 
ATOM     33  C   UNL A   1      41.972  25.741  28.285  1.00  0.00     0.049 A 
ATOM     34  N   UNL A   1      44.800  26.449  29.051  1.00  0.00    -0.248 NA
ATOM     35  C   UNL A   1      45.477  24.345  28.305  1.00  0.00     0.031 C 
ATOM     36  C   UNL A   1      40.576  25.437  27.970  1.00  0.00     0.029 A 
ATOM     37  N   UNL A   1      41.928  27.011  28.803  1.00  0.00    -0.354 N 
ATOM     38  C   UNL A   1      46.162  26.293  29.279  1.00  0.00     0.074 A 
ATOM     39  C   UNL A   1      46.508  24.950  28.870  1.00  0.00     0.031 C 
ATOM     40  C   UNL A   1      39.818  26.507  28.261  1.00  0.00     0.029 A 
ATOM     41  C   UNL A   1      40.667  27.556  28.817  1.00  0.00     0.049 A 
ATOM     42  H   UNL A   1      42.724  27.487  29.131  1.00  0.00     0.167 HD
ATOM     43  C   UNL A   1      47.051  27.195  29.760  1.00  0.00     0.037 A 
ATOM     44  C   UNL A   1      40.247  28.769  29.226  1.00  0.00     0.037 A 
ATOM     45  C   UNL A   1      46.708  28.540  30.138  1.00  0.00     0.049 A 
ATOM     46  C   UNL A   1      41.254  29.754  29.753  1.00  0.00     0.074 A 
ATOM     47  C   UNL A   1      47.542  29.553  30.576  1.00  0.00     0.029 A 
ATOM     48  N   UNL A   1      45.421  29.058  30.126  1.00  0.00    -0.354 N 
ATOM     49  N   UNL A   1      42.551  29.621  29.892  1.00  0.00    -0.248 NA
ATOM     50  C   UNL A   1      40.737  31.066  30.169  1.00  0.00     0.031 C 
ATOM     51  C   UNL A   1      46.754  30.668  30.881  1.00  0.00     0.029 A 
ATOM     52  C   UNL A   1      45.436  30.371  30.572  1.00  0.00     0.049 A 
ATOM     53  H   UNL A   1      44.616  28.566  29.845  1.00  0.00     0.167 HD
ATOM     54  C   UNL A   1      43.011  30.845  30.366  1.00  0.00     0.074 A 
ATOM     55  C   UNL A   1      41.852  31.706  30.484  1.00  0.00     0.031 C 
ATOM     56  C   UNL A   1      44.278  31.223  30.668  1.00  0.00     0.037 A 
BRANCH  43  57
ATOM     57  C   UNL A   1      48.478  26.747  29.908  1.00  0.00     0.057 A 
ATOM     58  C   UNL A   1      49.429  26.941  28.897  1.00  0.00     0.134 A 
ATOM     59  C   UNL A   1      48.911  26.124  31.085  1.00  0.00     0.134 A 
ATOM     60  F   UNL A   1      49.080  27.521  27.737  1.00  0.00    -0.206 F 
ATOM     61  C   UNL A   1      50.746  26.499  29.034  1.00  0.00     0.040 A 
ATOM     62  C   UNL A   1      50.233  25.706  31.249  1.00  0.00     0.040 A 
ATOM     63  F   UNL A   1      48.058  25.911  32.098  1.00  0.00    -0.206 F 
ATOM     64  C   UNL A   1      51.152  25.884  30.216  1.00  0.00     0.006 A 
ENDBRANCH  43  57
BRANCH  44  65
ATOM     65  C   UNL A   1      38.815  29.141  29.107  1.00  0.00     0.057 A 
ATOM     66  C   UNL A   1      37.965  29.093  30.220  1.00  0.00     0.134 A 
ATOM     67  C   UNL A   1      38.257  29.539  27.887  1.00  0.00     0.134 A 
ATOM     68  F   UNL A   1      38.437  28.703  31.412  1.00  0.00    -0.206 F 
ATOM     69  C   UNL A   1      36.607  29.401  30.119  1.00  0.00     0.040 A 
ATOM     70  C   UNL A   1      36.906  29.877  27.777  1.00  0.00     0.040 A 
ATOM     71  F   UNL A   1      39.018  29.615  26.786  1.00  0.00    -0.206 F 
ATOM     72  C   UNL A   1      36.075  29.800  28.894  1.00  0.00     0.006 A 
ENDBRANCH  44  65
BRANCH  56  73
ATOM     73  C   UNL A   1      44.487  32.648  31.092  1.00  0.00     0.057 A 
ATOM     74  C   UNL A   1      44.466  33.041  32.436  1.00  0.00     0.134 A 
ATOM     75  C   UNL A   1      44.740  33.640  30.134  1.00  0.00     0.134 A 
ATOM     76  F   UNL A   1      44.220  32.146  33.404  1.00  0.00    -0.206 F 
ATOM     77  C   UNL A   1      44.652  34.374  32.809  1.00  0.00     0.040 A 
ATOM     78  C   UNL A   1      44.960  34.968  30.497  1.00  0.00     0.040 A 
ATOM     79  F   UNL A   1      44.787  33.331  28.829  1.00  0.00    -0.206 F 
ATOM     80  C   UNL A   1      44.905  35.341  31.838  1.00  0.00     0.006 A 
ENDBRANCH  56  73
ENDBRANCH  30  31
ENDBRANCH  22  25
ENDBRANCH  20  21
ENDBRANCH  19  20
ENDBRANCH   1  19
TORSDOF 13
ENDMDL
MODEL 3
REMARK VINA RESULT:     -10.5      5.156     10.664
REMARK SMILES C[C@@H](C(=O)NCCCCNC(=O)c1ccc(-c2c3nc(c(-c4c(F)cccc4F)c4ccc([nH]4)c(-c4c(F)cccc4F)c4nc(c(-c5c(F)cccc5F)c5ccc2[nH]5)C=C4)C=C3)cc1)c1cccn(C(F)F)c1=O
REMARK SMILES IDX 7 1 6 2 5 3 3 4 4 5 2 7 1 8 67 9 68 10 75 11 69 12 71 13
REMARK SMILES IDX 76 14 70 15 72 16 73 17 74 18 8 19 9 20 10 21 11 22 12 24
REMARK SMILES IDX 13 25 14 26 66 27 15 28 65 29 16 30 17 31 18 32 59 33 19 34
REMARK SMILES IDX 64 35 58 36 60 37 20 38 63 39 57 40 56 41 21 43 47 44 30 45
REMARK SMILES IDX 46 46 31 47 34 48 45 49 61 50 32 51 33 52 44 54 62 55 35 56
REMARK SMILES IDX 22 57 23 58 28 59 24 60 25 61 27 62 29 63 26 64 48 65 49 66
REMARK SMILES IDX 54 67 50 68 51 69 53 70 55 71 52 72 36 73 37 74 42 75 38 76
REMARK SMILES IDX 39 77 41 78 43 79 40 80
REMARK H PARENT 5 6 10 23 60 42 34 53
REMARK Flexibility Score: inf
ROOT
ATOM      1  C   UNL A   1      38.956  22.492  26.232  1.00  0.00     0.023 C 
ENDROOT
BRANCH   1   2
ATOM      2  C   UNL A   1      37.805  23.420  25.849  1.00  0.00     0.116 C 
BRANCH   2   3
ATOM      3  N   UNL A   1      36.578  23.096  26.545  1.00  0.00    -0.356 N 
ATOM      4  C   UNL A   1      35.510  22.348  26.138  1.00  0.00     0.227 C 
ATOM      5  O   UNL A   1      34.724  21.998  27.022  1.00  0.00    -0.274 OA
ATOM      6  H   UNL A   1      36.501  23.474  27.451  1.00  0.00     0.163 HD
BRANCH   4   7
ATOM      7  C   UNL A   1      35.397  21.884  24.669  1.00  0.00     0.111 C 
ATOM      8  C   UNL A   1      35.044  22.983  23.667  1.00  0.00     0.023 C 
BRANCH   7   9
ATOM      9  C   UNL A   1      34.407  20.746  24.523  1.00  0.00     0.030 A 
ATOM     10  C   UNL A   1      33.087  20.942  24.351  1.00  0.00     0.012 A 
ATOM     11  C   UNL A   1      34.922  19.329  24.585  1.00  0.00     0.258 A 
ATOM     12  C   UNL A   1      32.177  19.837  24.202  1.00  0.00     0.019 A 
ATOM     13  N   UNL A   1      34.001  18.338  24.294  1.00  0.00    -0.258 N 
ATOM     14  O   UNL A   1      36.087  19.096  24.902  1.00  0.00    -0.269 OA
ATOM     15  C   UNL A   1      32.651  18.588  24.150  1.00  0.00     0.095 A 
BRANCH  13  16
ATOM     16  C   UNL A   1      34.489  16.985  24.229  1.00  0.00     0.451 C 
ATOM     17  F   UNL A   1      33.658  16.170  24.933  1.00  0.00    -0.185 F 
ATOM     18  F   UNL A   1      34.450  16.540  22.943  1.00  0.00    -0.185 F 
ENDBRANCH  13  16
ENDBRANCH   7   9
ENDBRANCH   4   7
ENDBRANCH   2   3
ENDBRANCH   1   2
BRANCH   1  19
ATOM     19  C   UNL A   1      38.989  21.157  25.487  1.00  0.00     0.023 C 
BRANCH  19  20
ATOM     20  C   UNL A   1      39.373  19.949  26.329  1.00  0.00     0.116 C 
BRANCH  20  21
ATOM     21  N   UNL A   1      40.574  19.281  25.853  1.00  0.00    -0.352 N 
ATOM     22  C   UNL A   1      41.865  19.747  25.808  1.00  0.00     0.251 C 
ATOM     23  H   UNL A   1      40.442  18.367  25.513  1.00  0.00     0.163 HD
ATOM     24  O   UNL A   1      42.734  19.090  25.246  1.00  0.00    -0.269 OA
BRANCH  22  25
ATOM     25  C   UNL A   1      42.202  21.051  26.419  1.00  0.00     0.039 A 
ATOM     26  C   UNL A   1      42.563  22.113  25.584  1.00  0.00     0.014 A 
ATOM     27  C   UNL A   1      42.180  21.229  27.804  1.00  0.00     0.014 A 
ATOM     28  C   UNL A   1      42.866  23.357  26.137  1.00  0.00     0.010 A 
ATOM     29  C   UNL A   1      42.393  22.492  28.347  1.00  0.00     0.010 A 
ATOM     30  C   UNL A   1      42.766  23.563  27.522  1.00  0.00    -0.014 A 
BRANCH  30  31
ATOM     31  C   UNL A   1      43.105  24.875  28.129  1.00  0.00     0.031 A 
ATOM     32  C   UNL A   1      42.020  25.889  28.376  1.00  0.00     0.074 A 
ATOM     33  C   UNL A   1      44.385  25.171  28.423  1.00  0.00     0.049 A 
ATOM     34  N   UNL A   1      42.110  27.095  28.882  1.00  0.00    -0.248 NA
ATOM     35  C   UNL A   1      40.654  25.513  27.975  1.00  0.00     0.031 C 
ATOM     36  C   UNL A   1      45.533  24.294  28.187  1.00  0.00     0.029 A 
ATOM     37  N   UNL A   1      44.935  26.296  28.984  1.00  0.00    -0.354 N 
ATOM     38  C   UNL A   1      40.824  27.620  28.839  1.00  0.00     0.074 A 
ATOM     39  C   UNL A   1      39.985  26.631  28.201  1.00  0.00     0.031 C 
ATOM     40  C   UNL A   1      46.645  24.897  28.639  1.00  0.00     0.029 A 
ATOM     41  C   UNL A   1      46.295  26.214  29.161  1.00  0.00     0.049 A 
ATOM     42  H   UNL A   1      44.405  27.085  29.237  1.00  0.00     0.167 HD
ATOM     43  C   UNL A   1      40.377  28.807  29.312  1.00  0.00     0.037 A 
ATOM     44  C   UNL A   1      47.159  27.100  29.693  1.00  0.00     0.037 A 
ATOM     45  C   UNL A   1      41.210  29.777  29.973  1.00  0.00     0.049 A 
ATOM     46  C   UNL A   1      46.636  28.411  30.214  1.00  0.00     0.074 A 
ATOM     47  C   UNL A   1      40.845  30.981  30.546  1.00  0.00     0.029 A 
ATOM     48  N   UNL A   1      42.581  29.651  30.143  1.00  0.00    -0.354 N 
ATOM     49  N   UNL A   1      45.406  28.864  30.238  1.00  0.00    -0.248 NA
ATOM     50  C   UNL A   1      47.625  29.329  30.797  1.00  0.00     0.031 C 
ATOM     51  C   UNL A   1      42.002  31.611  31.017  1.00  0.00     0.029 A 
ATOM     52  C   UNL A   1      43.080  30.769  30.794  1.00  0.00     0.049 A 
ATOM     53  H   UNL A   1      43.120  28.883  29.846  1.00  0.00     0.167 HD
ATOM     54  C   UNL A   1      45.466  30.097  30.877  1.00  0.00     0.074 A 
ATOM     55  C   UNL A   1      46.854  30.315  31.230  1.00  0.00     0.031 C 
ATOM     56  C   UNL A   1      44.462  30.965  31.154  1.00  0.00     0.037 A 
BRANCH  43  57
ATOM     57  C   UNL A   1      38.919  29.121  29.123  1.00  0.00     0.057 A 
ATOM     58  C   UNL A   1      38.395  29.505  27.881  1.00  0.00     0.134 A 
ATOM     59  C   UNL A   1      38.024  29.024  30.195  1.00  0.00     0.134 A 
ATOM     60  F   UNL A   1      39.198  29.631  26.812  1.00  0.00    -0.206 F 
ATOM     61  C   UNL A   1      37.044  29.819  27.721  1.00  0.00     0.040 A 
ATOM     62  C   UNL A   1      36.664  29.303  30.041  1.00  0.00     0.040 A 
ATOM     63  F   UNL A   1      38.453  28.656  31.411  1.00  0.00    -0.206 F 
ATOM     64  C   UNL A   1      36.173  29.712  28.803  1.00  0.00     0.006 A 
ENDBRANCH  43  57
BRANCH  44  65
ATOM     65  C   UNL A   1      48.600  26.761  29.807  1.00  0.00     0.057 A 
ATOM     66  C   UNL A   1      49.511  27.152  28.817  1.00  0.00     0.134 A 
ATOM     67  C   UNL A   1      49.100  26.031  30.891  1.00  0.00     0.134 A 
ATOM     68  F   UNL A   1      49.089  27.838  27.746  1.00  0.00    -0.206 F 
ATOM     69  C   UNL A   1      50.862  26.808  28.888  1.00  0.00     0.040 A 
ATOM     70  C   UNL A   1      50.455  25.704  30.989  1.00  0.00     0.040 A 
ATOM     71  F   UNL A   1      48.282  25.635  31.877  1.00  0.00    -0.206 F 
ATOM     72  C   UNL A   1      51.338  26.085  29.980  1.00  0.00     0.006 A 
ENDBRANCH  44  65
BRANCH  56  73
ATOM     73  C   UNL A   1      44.816  32.200  31.932  1.00  0.00     0.057 A 
ATOM     74  C   UNL A   1      45.182  33.399  31.309  1.00  0.00     0.134 A 
ATOM     75  C   UNL A   1      44.764  32.191  33.333  1.00  0.00     0.134 A 
ATOM     76  F   UNL A   1      45.262  33.475  29.972  1.00  0.00    -0.206 F 
ATOM     77  C   UNL A   1      45.519  34.534  32.051  1.00  0.00     0.040 A 
ATOM     78  C   UNL A   1      45.066  33.327  34.084  1.00  0.00     0.040 A 
ATOM     79  F   UNL A   1      44.409  31.079  33.995  1.00  0.00    -0.206 F 
ATOM     80  C   UNL A   1      45.456  34.500  33.442  1.00  0.00     0.006 A 
ENDBRANCH  56  73
ENDBRANCH  30  31
ENDBRANCH  22  25
ENDBRANCH  20  21
ENDBRANCH  19  20
ENDBRANCH   1  19
TORSDOF 13
ENDMDL
