MODEL 1
REMARK VINA RESULT:     -10.7      0.000      0.000
REMARK SMILES CN(CC(=O)NCCCCNC(=O)c1ccc(-c2c3nc(c(-c4c(F)cccc4F)c4ccc([nH]4)c(-c4c(F)cccc4F)c4nc(c(-c5c(F)cccc5F)c5ccc2[nH]5)C=C4)C=C3)cc1)C(=O)c1ccccn1
REMARK SMILES IDX 8 1 7 2 6 3 4 4 5 5 3 7 2 8 1 9 68 10 69 11 70 12 71 13
REMARK SMILES IDX 75 14 72 15 74 16 73 17 9 18 10 19 11 20 12 21 13 23 14 24
REMARK SMILES IDX 15 25 67 26 16 27 66 28 17 29 18 30 19 31 60 32 20 33 65 34
REMARK SMILES IDX 59 35 61 36 21 37 64 38 58 39 57 40 22 42 48 43 31 44 47 45
REMARK SMILES IDX 32 46 35 47 46 48 62 49 33 50 34 51 45 53 63 54 36 55 23 56
REMARK SMILES IDX 24 57 29 58 25 59 26 60 28 61 30 62 27 63 49 64 50 65 55 66
REMARK SMILES IDX 51 67 52 68 54 69 56 70 53 71 37 72 38 73 43 74 39 75 40 76
REMARK SMILES IDX 42 77 44 78 41 79
REMARK H PARENT 6 6 11 22 61 41 35 52
REMARK Flexibility Score: inf
ROOT
ATOM      1  C   UNL A   1      37.015  21.174  24.409  1.00  0.00     0.023 C 
ENDROOT
BRANCH   1   2
ATOM      2  C   UNL A   1      36.861  22.316  25.412  1.00  0.00     0.116 C 
BRANCH   2   3
ATOM      3  N   UNL A   1      36.006  21.988  26.533  1.00  0.00    -0.355 N 
ATOM      4  C   UNL A   1      34.658  22.137  26.678  1.00  0.00     0.239 C 
ATOM      5  O   UNL A   1      34.133  21.534  27.619  1.00  0.00    -0.273 OA
ATOM      6  H   UNL A   1      36.469  21.597  27.309  1.00  0.00     0.163 HD
BRANCH   4   7
ATOM      7  C   UNL A   1      33.791  22.895  25.655  1.00  0.00     0.219 C 
BRANCH   7   8
ATOM      8  N   UNL A   1      33.183  22.088  24.591  1.00  0.00    -0.331 N 
ATOM      9  C   UNL A   1      33.600  22.330  23.219  1.00  0.00     0.147 C 
BRANCH   8  10
ATOM     10  C   UNL A   1      32.475  20.894  24.812  1.00  0.00     0.272 C 
ATOM     11  O   UNL A   1      31.420  20.869  25.446  1.00  0.00    -0.267 OA
BRANCH  10  12
ATOM     12  C   UNL A   1      32.986  19.613  24.248  1.00  0.00     0.128 A 
ATOM     13  C   UNL A   1      34.105  18.994  24.790  1.00  0.00     0.034 A 
ATOM     14  N   UNL A   1      32.262  19.096  23.222  1.00  0.00    -0.251 NA
ATOM     15  C   UNL A   1      34.534  17.799  24.220  1.00  0.00     0.004 A 
ATOM     16  C   UNL A   1      32.681  17.915  22.721  1.00  0.00     0.112 A 
ATOM     17  C   UNL A   1      33.805  17.243  23.172  1.00  0.00     0.020 A 
ENDBRANCH  10  12
ENDBRANCH   8  10
ENDBRANCH   7   8
ENDBRANCH   4   7
ENDBRANCH   2   3
ENDBRANCH   1   2
BRANCH   1  18
ATOM     18  C   UNL A   1      37.821  19.970  24.901  1.00  0.00     0.023 C 
BRANCH  18  19
ATOM     19  C   UNL A   1      39.032  20.286  25.772  1.00  0.00     0.116 C 
BRANCH  19  20
ATOM     20  N   UNL A   1      40.025  19.225  25.798  1.00  0.00    -0.352 N 
ATOM     21  C   UNL A   1      41.364  19.295  26.105  1.00  0.00     0.251 C 
ATOM     22  H   UNL A   1      39.693  18.329  25.561  1.00  0.00     0.163 HD
ATOM     23  O   UNL A   1      42.072  18.298  25.994  1.00  0.00    -0.269 OA
BRANCH  21  24
ATOM     24  C   UNL A   1      41.964  20.579  26.528  1.00  0.00     0.039 A 
ATOM     25  C   UNL A   1      42.396  21.473  25.543  1.00  0.00     0.014 A 
ATOM     26  C   UNL A   1      42.092  20.913  27.879  1.00  0.00     0.014 A 
ATOM     27  C   UNL A   1      42.886  22.728  25.912  1.00  0.00     0.010 A 
ATOM     28  C   UNL A   1      42.516  22.189  28.242  1.00  0.00     0.010 A 
ATOM     29  C   UNL A   1      42.911  23.113  27.261  1.00  0.00    -0.014 A 
BRANCH  29  30
ATOM     30  C   UNL A   1      43.332  24.479  27.664  1.00  0.00     0.031 A 
ATOM     31  C   UNL A   1      42.305  25.517  28.025  1.00  0.00     0.074 A 
ATOM     32  C   UNL A   1      44.639  24.809  27.637  1.00  0.00     0.049 A 
ATOM     33  N   UNL A   1      42.476  26.779  28.327  1.00  0.00    -0.248 NA
ATOM     34  C   UNL A   1      40.898  25.085  28.020  1.00  0.00     0.031 C 
ATOM     35  C   UNL A   1      45.732  23.910  27.257  1.00  0.00     0.029 A 
ATOM     36  N   UNL A   1      45.271  25.994  27.923  1.00  0.00    -0.354 N 
ATOM     37  C   UNL A   1      41.203  27.294  28.534  1.00  0.00     0.074 A 
ATOM     38  C   UNL A   1      40.266  26.222  28.275  1.00  0.00     0.031 C 
ATOM     39  C   UNL A   1      46.896  24.570  27.350  1.00  0.00     0.029 A 
ATOM     40  C   UNL A   1      46.634  25.945  27.761  1.00  0.00     0.049 A 
ATOM     41  H   UNL A   1      44.791  26.802  28.216  1.00  0.00     0.167 HD
ATOM     42  C   UNL A   1      40.847  28.542  28.924  1.00  0.00     0.037 A 
ATOM     43  C   UNL A   1      47.567  26.904  27.917  1.00  0.00     0.037 A 
ATOM     44  C   UNL A   1      41.780  29.599  29.210  1.00  0.00     0.049 A 
ATOM     45  C   UNL A   1      47.145  28.279  28.354  1.00  0.00     0.074 A 
ATOM     46  C   UNL A   1      41.518  30.878  29.674  1.00  0.00     0.029 A 
ATOM     47  N   UNL A   1      43.154  29.504  29.059  1.00  0.00    -0.354 N 
ATOM     48  N   UNL A   1      45.942  28.732  28.612  1.00  0.00    -0.248 NA
ATOM     49  C   UNL A   1      48.211  29.276  28.526  1.00  0.00     0.031 C 
ATOM     50  C   UNL A   1      42.731  31.568  29.765  1.00  0.00     0.029 A 
ATOM     51  C   UNL A   1      43.752  30.705  29.402  1.00  0.00     0.049 A 
ATOM     52  H   UNL A   1      43.635  28.701  28.754  1.00  0.00     0.167 HD
ATOM     53  C   UNL A   1      46.109  30.053  29.006  1.00  0.00     0.074 A 
ATOM     54  C   UNL A   1      47.531  30.326  28.965  1.00  0.00     0.031 C 
ATOM     55  C   UNL A   1      45.169  30.960  29.367  1.00  0.00     0.037 A 
BRANCH  42  56
ATOM     56  C   UNL A   1      39.382  28.832  29.073  1.00  0.00     0.057 A 
ATOM     57  C   UNL A   1      38.720  28.672  30.297  1.00  0.00     0.134 A 
ATOM     58  C   UNL A   1      38.637  29.326  27.995  1.00  0.00     0.134 A 
ATOM     59  F   UNL A   1      39.374  28.192  31.367  1.00  0.00    -0.206 F 
ATOM     60  C   UNL A   1      37.364  28.972  30.438  1.00  0.00     0.040 A 
ATOM     61  C   UNL A   1      37.287  29.654  28.130  1.00  0.00     0.040 A 
ATOM     62  F   UNL A   1      39.211  29.508  26.797  1.00  0.00    -0.206 F 
ATOM     63  C   UNL A   1      36.646  29.473  29.354  1.00  0.00     0.006 A 
ENDBRANCH  42  56
BRANCH  43  64
ATOM     64  C   UNL A   1      49.000  26.596  27.677  1.00  0.00     0.057 A 
ATOM     65  C   UNL A   1      49.818  26.116  28.707  1.00  0.00     0.134 A 
ATOM     66  C   UNL A   1      49.591  26.795  26.425  1.00  0.00     0.134 A 
ATOM     67  F   UNL A   1      49.314  25.924  29.935  1.00  0.00    -0.206 F 
ATOM     68  C   UNL A   1      51.177  25.867  28.506  1.00  0.00     0.040 A 
ATOM     69  C   UNL A   1      50.942  26.526  26.202  1.00  0.00     0.040 A 
ATOM     70  F   UNL A   1      48.860  27.247  25.394  1.00  0.00    -0.206 F 
ATOM     71  C   UNL A   1      51.741  26.068  27.249  1.00  0.00     0.006 A 
ENDBRANCH  43  64
BRANCH  55  72
ATOM     72  C   UNL A   1      45.649  32.319  29.784  1.00  0.00     0.057 A 
ATOM     73  C   UNL A   1      45.755  33.378  28.873  1.00  0.00     0.134 A 
ATOM     74  C   UNL A   1      45.975  32.579  31.121  1.00  0.00     0.134 A 
ATOM     75  F   UNL A   1      45.471  33.190  27.576  1.00  0.00    -0.206 F 
ATOM     76  C   UNL A   1      46.190  34.642  29.273  1.00  0.00     0.040 A 
ATOM     77  C   UNL A   1      46.386  33.845  31.538  1.00  0.00     0.040 A 
ATOM     78  F   UNL A   1      45.887  31.610  32.045  1.00  0.00    -0.206 F 
ATOM     79  C   UNL A   1      46.500  34.880  30.612  1.00  0.00     0.006 A 
ENDBRANCH  55  72
ENDBRANCH  29  30
ENDBRANCH  21  24
ENDBRANCH  19  20
ENDBRANCH  18  19
ENDBRANCH   1  18
TORSDOF 14
ENDMDL
MODEL 2
REMARK VINA RESULT:     -10.6      6.002      9.878
REMARK SMILES CN(CC(=O)NCCCCNC(=O)c1ccc(-c2c3nc(c(-c4c(F)cccc4F)c4ccc([nH]4)c(-c4c(F)cccc4F)c4nc(c(-c5c(F)cccc5F)c5ccc2[nH]5)C=C4)C=C3)cc1)C(=O)c1ccccn1
REMARK SMILES IDX 8 1 7 2 6 3 4 4 5 5 3 7 2 8 1 9 68 10 69 11 70 12 71 13
REMARK SMILES IDX 75 14 72 15 74 16 73 17 9 18 10 19 11 20 12 21 13 23 14 24
REMARK SMILES IDX 15 25 67 26 16 27 66 28 17 29 18 30 19 31 60 32 20 33 65 34
REMARK SMILES IDX 59 35 61 36 21 37 64 38 58 39 57 40 22 42 48 43 31 44 47 45
REMARK SMILES IDX 32 46 35 47 46 48 62 49 33 50 34 51 45 53 63 54 36 55 23 56
REMARK SMILES IDX 24 57 29 58 25 59 26 60 28 61 30 62 27 63 49 64 50 65 55 66
REMARK SMILES IDX 51 67 52 68 54 69 56 70 53 71 37 72 38 73 43 74 39 75 40 76
REMARK SMILES IDX 42 77 44 78 41 79
REMARK H PARENT 6 6 11 22 61 41 35 52
REMARK Flexibility Score: inf
ROOT
ATOM      1  C   UNL A   1      31.529  30.363  26.036  1.00  0.00     0.023 C 
ENDROOT
BRANCH   1   2
ATOM      2  C   UNL A   1      32.955  29.822  25.960  1.00  0.00     0.116 C 
BRANCH   2   3
ATOM      3  N   UNL A   1      33.461  29.717  24.608  1.00  0.00    -0.355 N 
ATOM      4  C   UNL A   1      33.374  28.685  23.720  1.00  0.00     0.239 C 
ATOM      5  O   UNL A   1      33.648  28.943  22.543  1.00  0.00    -0.273 OA
ATOM      6  H   UNL A   1      33.940  30.511  24.279  1.00  0.00     0.163 HD
BRANCH   4   7
ATOM      7  C   UNL A   1      32.829  27.297  24.109  1.00  0.00     0.219 C 
BRANCH   7   8
ATOM      8  N   UNL A   1      31.381  27.104  23.970  1.00  0.00    -0.331 N 
ATOM      9  C   UNL A   1      30.613  26.778  25.162  1.00  0.00     0.147 C 
BRANCH   8  10
ATOM     10  C   UNL A   1      30.632  27.516  22.855  1.00  0.00     0.272 C 
ATOM     11  O   UNL A   1      30.805  27.030  21.737  1.00  0.00    -0.267 OA
BRANCH  10  12
ATOM     12  C   UNL A   1      29.574  28.553  23.014  1.00  0.00     0.128 A 
ATOM     13  C   UNL A   1      29.907  29.896  23.135  1.00  0.00     0.034 A 
ATOM     14  N   UNL A   1      28.296  28.094  22.986  1.00  0.00    -0.251 NA
ATOM     15  C   UNL A   1      28.874  30.817  23.280  1.00  0.00     0.004 A 
ATOM     16  C   UNL A   1      27.319  29.019  23.087  1.00  0.00     0.112 A 
ATOM     17  C   UNL A   1      27.555  30.374  23.247  1.00  0.00     0.020 A 
ENDBRANCH  10  12
ENDBRANCH   8  10
ENDBRANCH   7   8
ENDBRANCH   4   7
ENDBRANCH   2   3
ENDBRANCH   1   2
BRANCH   1  18
ATOM     18  C   UNL A   1      31.399  31.818  26.490  1.00  0.00     0.023 C 
BRANCH  18  19
ATOM     19  C   UNL A   1      32.613  32.409  27.200  1.00  0.00     0.116 C 
BRANCH  19  20
ATOM     20  N   UNL A   1      32.445  33.801  27.584  1.00  0.00    -0.352 N 
ATOM     21  C   UNL A   1      33.172  34.548  28.481  1.00  0.00     0.251 C 
ATOM     22  H   UNL A   1      31.706  34.275  27.140  1.00  0.00     0.163 HD
ATOM     23  O   UNL A   1      32.831  35.699  28.739  1.00  0.00    -0.269 OA
BRANCH  21  24
ATOM     24  C   UNL A   1      34.341  33.956  29.168  1.00  0.00     0.039 A 
ATOM     25  C   UNL A   1      34.116  33.042  30.201  1.00  0.00     0.014 A 
ATOM     26  C   UNL A   1      35.647  34.284  28.796  1.00  0.00     0.014 A 
ATOM     27  C   UNL A   1      35.199  32.402  30.810  1.00  0.00     0.010 A 
ATOM     28  C   UNL A   1      36.721  33.596  29.355  1.00  0.00     0.010 A 
ATOM     29  C   UNL A   1      36.508  32.643  30.363  1.00  0.00    -0.014 A 
BRANCH  29  30
ATOM     30  C   UNL A   1      37.662  31.897  30.927  1.00  0.00     0.031 A 
ATOM     31  C   UNL A   1      38.189  32.230  32.296  1.00  0.00     0.074 A 
ATOM     32  C   UNL A   1      38.283  30.963  30.178  1.00  0.00     0.049 A 
ATOM     33  N   UNL A   1      39.229  31.742  32.923  1.00  0.00    -0.248 NA
ATOM     34  C   UNL A   1      37.467  33.269  33.048  1.00  0.00     0.031 C 
ATOM     35  C   UNL A   1      37.902  30.580  28.817  1.00  0.00     0.029 A 
ATOM     36  N   UNL A   1      39.373  30.174  30.451  1.00  0.00    -0.354 N 
ATOM     37  C   UNL A   1      39.295  32.422  34.133  1.00  0.00     0.074 A 
ATOM     38  C   UNL A   1      38.220  33.390  34.132  1.00  0.00     0.031 C 
ATOM     39  C   UNL A   1      38.733  29.620  28.382  1.00  0.00     0.029 A 
ATOM     40  C   UNL A   1      39.725  29.343  29.415  1.00  0.00     0.049 A 
ATOM     41  H   UNL A   1      39.857  30.203  31.308  1.00  0.00     0.167 HD
ATOM     42  C   UNL A   1      40.160  32.241  35.160  1.00  0.00     0.037 A 
ATOM     43  C   UNL A   1      40.739  28.464  29.307  1.00  0.00     0.037 A 
ATOM     44  C   UNL A   1      41.210  31.257  35.172  1.00  0.00     0.049 A 
ATOM     45  C   UNL A   1      41.683  28.281  30.463  1.00  0.00     0.074 A 
ATOM     46  C   UNL A   1      42.096  30.955  36.193  1.00  0.00     0.029 A 
ATOM     47  N   UNL A   1      41.519  30.417  34.115  1.00  0.00    -0.354 N 
ATOM     48  N   UNL A   1      41.689  28.882  31.628  1.00  0.00    -0.248 NA
ATOM     49  C   UNL A   1      42.757  27.292  30.292  1.00  0.00     0.031 C 
ATOM     50  C   UNL A   1      42.967  29.960  35.738  1.00  0.00     0.029 A 
ATOM     51  C   UNL A   1      42.594  29.610  34.451  1.00  0.00     0.049 A 
ATOM     52  H   UNL A   1      41.045  30.396  33.252  1.00  0.00     0.167 HD
ATOM     53  C   UNL A   1      42.745  28.325  32.338  1.00  0.00     0.074 A 
ATOM     54  C   UNL A   1      43.348  27.328  31.478  1.00  0.00     0.031 C 
ATOM     55  C   UNL A   1      43.177  28.615  33.589  1.00  0.00     0.037 A 
BRANCH  42  56
ATOM     56  C   UNL A   1      40.001  33.122  36.364  1.00  0.00     0.057 A 
ATOM     57  C   UNL A   1      39.098  32.814  37.389  1.00  0.00     0.134 A 
ATOM     58  C   UNL A   1      40.798  34.262  36.526  1.00  0.00     0.134 A 
ATOM     59  F   UNL A   1      38.297  31.741  37.291  1.00  0.00    -0.206 F 
ATOM     60  C   UNL A   1      38.977  33.621  38.522  1.00  0.00     0.040 A 
ATOM     61  C   UNL A   1      40.704  35.062  37.666  1.00  0.00     0.040 A 
ATOM     62  F   UNL A   1      41.688  34.611  35.585  1.00  0.00    -0.206 F 
ATOM     63  C   UNL A   1      39.788  34.744  38.666  1.00  0.00     0.006 A 
ENDBRANCH  42  56
BRANCH  43  64
ATOM     64  C   UNL A   1      40.910  27.672  28.062  1.00  0.00     0.057 A 
ATOM     65  C   UNL A   1      41.675  28.159  26.995  1.00  0.00     0.134 A 
ATOM     66  C   UNL A   1      40.298  26.424  27.899  1.00  0.00     0.134 A 
ATOM     67  F   UNL A   1      42.269  29.359  27.083  1.00  0.00    -0.206 F 
ATOM     68  C   UNL A   1      41.805  27.446  25.803  1.00  0.00     0.040 A 
ATOM     69  C   UNL A   1      40.441  25.688  26.723  1.00  0.00     0.040 A 
ATOM     70  F   UNL A   1      39.557  25.899  28.887  1.00  0.00    -0.206 F 
ATOM     71  C   UNL A   1      41.190  26.203  25.667  1.00  0.00     0.006 A 
ENDBRANCH  43  64
BRANCH  55  72
ATOM     72  C   UNL A   1      44.333  27.818  34.118  1.00  0.00     0.057 A 
ATOM     73  C   UNL A   1      45.654  28.271  34.013  1.00  0.00     0.134 A 
ATOM     74  C   UNL A   1      44.117  26.599  34.774  1.00  0.00     0.134 A 
ATOM     75  F   UNL A   1      45.930  29.423  33.384  1.00  0.00    -0.206 F 
ATOM     76  C   UNL A   1      46.722  27.529  34.520  1.00  0.00     0.040 A 
ATOM     77  C   UNL A   1      45.173  25.860  35.308  1.00  0.00     0.040 A 
ATOM     78  F   UNL A   1      42.874  26.113  34.916  1.00  0.00    -0.206 F 
ATOM     79  C   UNL A   1      46.481  26.323  35.177  1.00  0.00     0.006 A 
ENDBRANCH  55  72
ENDBRANCH  29  30
ENDBRANCH  21  24
ENDBRANCH  19  20
ENDBRANCH  18  19
ENDBRANCH   1  18
TORSDOF 14
ENDMDL
MODEL 3
REMARK VINA RESULT:     -10.5      6.208     10.796
REMARK SMILES CN(CC(=O)NCCCCNC(=O)c1ccc(-c2c3nc(c(-c4c(F)cccc4F)c4ccc([nH]4)c(-c4c(F)cccc4F)c4nc(c(-c5c(F)cccc5F)c5ccc2[nH]5)C=C4)C=C3)cc1)C(=O)c1ccccn1
REMARK SMILES IDX 8 1 7 2 6 3 4 4 5 5 3 7 2 8 1 9 68 10 69 11 70 12 71 13
REMARK SMILES IDX 75 14 72 15 74 16 73 17 9 18 10 19 11 20 12 21 13 23 14 24
REMARK SMILES IDX 15 25 67 26 16 27 66 28 17 29 18 30 19 31 60 32 20 33 65 34
REMARK SMILES IDX 59 35 61 36 21 37 64 38 58 39 57 40 22 42 48 43 31 44 47 45
REMARK SMILES IDX 32 46 35 47 46 48 62 49 33 50 34 51 45 53 63 54 36 55 23 56
REMARK SMILES IDX 24 57 29 58 25 59 26 60 28 61 30 62 27 63 49 64 50 65 55 66
REMARK SMILES IDX 51 67 52 68 54 69 56 70 53 71 37 72 38 73 43 74 39 75 40 76
REMARK SMILES IDX 42 77 44 78 41 79
REMARK H PARENT 6 6 11 22 61 41 35 52
REMARK Flexibility Score: inf
ROOT
ATOM      1  C   UNL A   1      31.881  30.409  26.689  1.00  0.00     0.023 C 
ENDROOT
BRANCH   1   2
ATOM      2  C   UNL A   1      31.558  29.761  25.344  1.00  0.00     0.116 C 
BRANCH   2   3
ATOM      3  N   UNL A   1      32.688  29.711  24.441  1.00  0.00    -0.355 N 
ATOM      4  C   UNL A   1      33.158  28.677  23.686  1.00  0.00     0.239 C 
ATOM      5  O   UNL A   1      33.969  28.963  22.799  1.00  0.00    -0.273 OA
ATOM      6  H   UNL A   1      33.195  30.551  24.361  1.00  0.00     0.163 HD
BRANCH   4   7
ATOM      7  C   UNL A   1      32.616  27.240  23.814  1.00  0.00     0.219 C 
BRANCH   7   8
ATOM      8  N   UNL A   1      31.502  26.883  22.930  1.00  0.00    -0.331 N 
ATOM      9  C   UNL A   1      31.777  26.028  21.785  1.00  0.00     0.147 C 
BRANCH   8  10
ATOM     10  C   UNL A   1      30.146  27.030  23.269  1.00  0.00     0.272 C 
ATOM     11  O   UNL A   1      29.551  26.199  23.956  1.00  0.00    -0.267 OA
BRANCH  10  12
ATOM     12  C   UNL A   1      29.393  28.232  22.812  1.00  0.00     0.128 A 
ATOM     13  C   UNL A   1      28.059  28.408  23.157  1.00  0.00     0.034 A 
ATOM     14  N   UNL A   1      30.111  29.133  22.095  1.00  0.00    -0.251 NA
ATOM     15  C   UNL A   1      27.411  29.552  22.701  1.00  0.00     0.004 A 
ATOM     16  C   UNL A   1      29.463  30.251  21.705  1.00  0.00     0.112 A 
ATOM     17  C   UNL A   1      28.125  30.496  21.969  1.00  0.00     0.020 A 
ENDBRANCH  10  12
ENDBRANCH   8  10
ENDBRANCH   7   8
ENDBRANCH   4   7
ENDBRANCH   2   3
ENDBRANCH   1   2
BRANCH   1  18
ATOM     18  C   UNL A   1      31.595  31.909  26.783  1.00  0.00     0.023 C 
BRANCH  18  19
ATOM     19  C   UNL A   1      32.778  32.794  27.162  1.00  0.00     0.116 C 
BRANCH  19  20
ATOM     20  N   UNL A   1      32.395  34.129  27.591  1.00  0.00    -0.352 N 
ATOM     21  C   UNL A   1      32.967  34.930  28.552  1.00  0.00     0.251 C 
ATOM     22  H   UNL A   1      31.616  34.514  27.130  1.00  0.00     0.163 HD
ATOM     23  O   UNL A   1      32.453  36.007  28.837  1.00  0.00    -0.269 OA
BRANCH  21  24
ATOM     24  C   UNL A   1      34.177  34.479  29.273  1.00  0.00     0.039 A 
ATOM     25  C   UNL A   1      34.025  33.887  30.530  1.00  0.00     0.014 A 
ATOM     26  C   UNL A   1      35.452  34.622  28.718  1.00  0.00     0.014 A 
ATOM     27  C   UNL A   1      35.141  33.374  31.196  1.00  0.00     0.010 A 
ATOM     28  C   UNL A   1      36.552  34.049  29.350  1.00  0.00     0.010 A 
ATOM     29  C   UNL A   1      36.408  33.413  30.593  1.00  0.00    -0.014 A 
BRANCH  29  30
ATOM     30  C   UNL A   1      37.587  32.781  31.239  1.00  0.00     0.031 A 
ATOM     31  C   UNL A   1      38.236  31.574  30.622  1.00  0.00     0.074 A 
ATOM     32  C   UNL A   1      38.031  33.253  32.421  1.00  0.00     0.049 A 
ATOM     33  N   UNL A   1      39.223  30.843  31.076  1.00  0.00    -0.248 NA
ATOM     34  C   UNL A   1      37.687  31.110  29.338  1.00  0.00     0.031 C 
ATOM     35  C   UNL A   1      37.458  34.387  33.150  1.00  0.00     0.029 A 
ATOM     36  N   UNL A   1      39.061  32.830  33.224  1.00  0.00    -0.354 N 
ATOM     37  C   UNL A   1      39.403  29.829  30.144  1.00  0.00     0.074 A 
ATOM     38  C   UNL A   1      38.393  30.009  29.124  1.00  0.00     0.031 C 
ATOM     39  C   UNL A   1      38.154  34.579  34.281  1.00  0.00     0.029 A 
ATOM     40  C   UNL A   1      39.197  33.564  34.378  1.00  0.00     0.049 A 
ATOM     41  H   UNL A   1      39.645  32.072  32.996  1.00  0.00     0.167 HD
ATOM     42  C   UNL A   1      40.339  28.849  30.130  1.00  0.00     0.037 A 
ATOM     43  C   UNL A   1      40.061  33.429  35.402  1.00  0.00     0.037 A 
ATOM     44  C   UNL A   1      41.362  28.689  31.129  1.00  0.00     0.049 A 
ATOM     45  C   UNL A   1      41.091  32.335  35.358  1.00  0.00     0.074 A 
ATOM     46  C   UNL A   1      42.394  27.765  31.165  1.00  0.00     0.029 A 
ATOM     47  N   UNL A   1      41.483  29.468  32.268  1.00  0.00    -0.354 N 
ATOM     48  N   UNL A   1      41.293  31.425  34.436  1.00  0.00    -0.248 NA
ATOM     49  C   UNL A   1      42.018  32.251  36.497  1.00  0.00     0.031 C 
ATOM     50  C   UNL A   1      43.115  27.960  32.348  1.00  0.00     0.029 A 
ATOM     51  C   UNL A   1      42.560  29.035  33.025  1.00  0.00     0.049 A 
ATOM     52  H   UNL A   1      40.892  30.218  32.506  1.00  0.00     0.167 HD
ATOM     53  C   UNL A   1      42.385  30.683  34.866  1.00  0.00     0.074 A 
ATOM     54  C   UNL A   1      42.811  31.256  36.126  1.00  0.00     0.031 C 
ATOM     55  C   UNL A   1      42.980  29.621  34.271  1.00  0.00     0.037 A 
BRANCH  42  56
ATOM     56  C   UNL A   1      40.305  27.874  28.988  1.00  0.00     0.057 A 
ATOM     57  C   UNL A   1      41.066  28.071  27.829  1.00  0.00     0.134 A 
ATOM     58  C   UNL A   1      39.546  26.701  29.072  1.00  0.00     0.134 A 
ATOM     59  F   UNL A   1      41.807  29.180  27.681  1.00  0.00    -0.206 F 
ATOM     60  C   UNL A   1      41.055  27.146  26.783  1.00  0.00     0.040 A 
ATOM     61  C   UNL A   1      39.547  25.756  28.045  1.00  0.00     0.040 A 
ATOM     62  F   UNL A   1      38.800  26.448  30.158  1.00  0.00    -0.206 F 
ATOM     63  C   UNL A   1      40.300  25.980  26.894  1.00  0.00     0.006 A 
ENDBRANCH  42  56
BRANCH  43  64
ATOM     64  C   UNL A   1      40.005  34.365  36.554  1.00  0.00     0.057 A 
ATOM     65  C   UNL A   1      39.282  34.045  37.710  1.00  0.00     0.134 A 
ATOM     66  C   UNL A   1      40.649  35.606  36.520  1.00  0.00     0.134 A 
ATOM     67  F   UNL A   1      38.625  32.878  37.794  1.00  0.00    -0.206 F 
ATOM     68  C   UNL A   1      39.183  34.935  38.781  1.00  0.00     0.040 A 
ATOM     69  C   UNL A   1      40.580  36.496  37.594  1.00  0.00     0.040 A 
ATOM     70  F   UNL A   1      41.363  35.970  35.444  1.00  0.00    -0.206 F 
ATOM     71  C   UNL A   1      39.838  36.163  38.725  1.00  0.00     0.006 A 
ENDBRANCH  43  64
BRANCH  55  72
ATOM     72  C   UNL A   1      44.179  29.033  34.955  1.00  0.00     0.057 A 
ATOM     73  C   UNL A   1      45.480  29.467  34.671  1.00  0.00     0.134 A 
ATOM     74  C   UNL A   1      44.025  28.046  35.937  1.00  0.00     0.134 A 
ATOM     75  F   UNL A   1      45.695  30.400  33.731  1.00  0.00    -0.206 F 
ATOM     76  C   UNL A   1      46.588  28.924  35.323  1.00  0.00     0.040 A 
ATOM     77  C   UNL A   1      45.123  27.514  36.614  1.00  0.00     0.040 A 
ATOM     78  F   UNL A   1      42.806  27.592  36.262  1.00  0.00    -0.206 F 
ATOM     79  C   UNL A   1      46.410  27.950  36.304  1.00  0.00     0.006 A 
ENDBRANCH  55  72
ENDBRANCH  29  30
ENDBRANCH  21  24
ENDBRANCH  19  20
ENDBRANCH  18  19
ENDBRANCH   1  18
TORSDOF 14
ENDMDL
