MODEL 1
REMARK VINA RESULT:     -12.0      0.000      0.000
REMARK SMILES COC(=O)[C@H]1CC[C@]2(C)[C@H](CC[C@]3(C)[C@H]2CC=C2[C@H]4CC(C)(C)CC[C@]4(C(=O)NCCCCNC(=O)c4ccc(-c5c6nc(c(-c7c(F)cccc7F)c7ccc([nH]7)c(-c7c(F)cccc7F)c7nc(c(-c8c(F)cccc8F)c8ccc5[nH]8)C=C7)C=C6)cc4)CC[C@@]23C)C1(C)C
REMARK SMILES IDX 31 1 30 2 29 3 27 4 28 5 26 7 5 8 6 9 95 10 7 11 10 12 96 13
REMARK SMILES IDX 97 14 8 15 11 16 15 17 9 18 12 19 16 20 13 21 17 22 93 23
REMARK SMILES IDX 14 24 18 25 92 26 94 27 19 28 91 29 20 30 21 31 25 32 24 33
REMARK SMILES IDX 22 34 23 35 3 36 4 37 2 38 1 39 32 40 33 41 34 42 35 43
REMARK SMILES IDX 36 45 37 46 38 47 90 48 39 49 89 50 40 51 41 52 42 53 83 54
REMARK SMILES IDX 43 55 88 56 82 57 84 58 44 59 87 60 81 61 80 62 45 64 71 65
REMARK SMILES IDX 54 66 70 67 55 68 58 69 69 70 85 71 56 72 57 73 68 75 86 76
REMARK SMILES IDX 59 77 46 78 47 79 52 80 48 81 49 82 51 83 53 84 50 85 72 86
REMARK SMILES IDX 73 87 78 88 74 89 75 90 77 91 79 92 76 93 60 94 61 95 66 96
REMARK SMILES IDX 62 97 63 98 65 99 67 100 64 101
REMARK H PARENT 29 6 34 44 84 63 58 74
REMARK Flexibility Score: inf
ROOT
ATOM      1  C   UNL A   1      43.816  28.914  31.050  1.00  0.00     0.023 C 
ENDROOT
BRANCH   1   2
ATOM      2  C   UNL A   1      42.385  28.048  32.380  1.00  0.00     0.116 C 
BRANCH   2   3
ATOM      3  N   UNL A   1      40.580  28.536  32.436  1.00  0.00    -0.356 N 
ATOM      4  C   UNL A   1      39.921  29.729  33.296  1.00  0.00     0.226 C 
ATOM      5  O   UNL A   1      38.706  29.758  33.480  1.00  0.00    -0.274 OA
ATOM      6  H   UNL A   1      39.965  28.005  31.879  1.00  0.00     0.163 HD
BRANCH   4   7
ATOM      7  C   UNL A   1      40.962  30.991  33.723  1.00  0.00     0.056 C 
ATOM      8  C   UNL A   1      33.548  34.920  31.533  1.00  0.00     0.105 C 
ATOM      9  C   UNL A   1      33.693  34.400  30.071  1.00  0.00     0.016 C 
ATOM     10  C   UNL A   1      34.731  34.656  32.564  1.00  0.00    -0.019 C 
ATOM     11  C   UNL A   1      35.107  34.045  29.575  1.00  0.00     0.008 C 
ATOM     12  C   UNL A   1      36.073  34.503  31.738  1.00  0.00     0.002 C 
ATOM     13  C   UNL A   1      34.478  33.394  33.458  1.00  0.00     0.012 C 
ATOM     14  C   UNL A   1      34.778  35.795  33.627  1.00  0.00     0.012 C 
ATOM     15  C   UNL A   1      35.975  33.341  30.654  1.00  0.00    -0.026 C 
ATOM     16  C   UNL A   1      37.335  34.582  32.591  1.00  0.00     0.005 C 
ATOM     17  C   UNL A   1      37.396  32.844  30.009  1.00  0.00     0.006 C 
ATOM     18  C   UNL A   1      35.110  32.068  30.963  1.00  0.00     0.012 C 
ATOM     19  C   UNL A   1      38.651  34.778  31.851  1.00  0.00     0.008 C 
ATOM     20  C   UNL A   1      37.560  30.802  29.882  1.00  0.00     0.032 C 
ATOM     21  C   UNL A   1      39.016  33.843  30.648  1.00  0.00    -0.020 C 
ATOM     22  C   UNL A   1      39.357  30.140  30.456  1.00  0.00    -0.027 C 
ATOM     23  C   UNL A   1      40.664  32.827  30.934  1.00  0.00    -0.006 C 
ATOM     24  C   UNL A   1      39.473  34.951  29.586  1.00  0.00     0.012 C 
ATOM     25  C   UNL A   1      40.316  31.156  31.360  1.00  0.00    -0.064 C 
ATOM     26  C   UNL A   1      41.779  33.062  32.098  1.00  0.00     0.013 C 
ATOM     27  C   UNL A   1      41.721  32.900  29.701  1.00  0.00     0.017 C 
ATOM     28  C   UNL A   1      39.908  31.780  33.173  1.00  0.00     0.031 C 
ATOM     29  C   UNL A   1      42.176  31.641  32.881  1.00  0.00     0.018 C 
ATOM     30  C   UNL A   1      38.551  31.628  34.283  1.00  0.00     0.015 C 
ATOM     31  C   UNL A   1      38.725  32.061  35.735  1.00  0.00    -0.035 C 
ATOM     32  C   UNL A   1      41.224  31.362  35.208  1.00  0.00     0.018 C 
ATOM     33  C   UNL A   1      40.156  31.828  36.211  1.00  0.00     0.007 C 
ATOM     34  C   UNL A   1      37.778  31.183  36.611  1.00  0.00     0.011 C 
ATOM     35  C   UNL A   1      38.242  33.510  35.928  1.00  0.00     0.011 C 
BRANCH   8  36
ATOM     36  C   UNL A   1      33.129  36.379  31.395  1.00  0.00     0.309 C 
ATOM     37  O   UNL A   1      33.641  37.149  30.591  1.00  0.00    -0.252 OA
BRANCH  36  38
ATOM     38  O   UNL A   1      32.188  36.711  32.316  1.00  0.00    -0.469 OA
ATOM     39  C   UNL A   1      31.174  35.735  32.568  1.00  0.00     0.282 C 
ENDBRANCH  36  38
ENDBRANCH   8  36
ENDBRANCH   4   7
ENDBRANCH   2   3
ENDBRANCH   1   2
BRANCH   1  40
ATOM     40  C   UNL A   1      43.862  29.663  29.485  1.00  0.00     0.023 C 
BRANCH  40  41
ATOM     41  C   UNL A   1      45.121  30.419  28.993  1.00  0.00     0.116 C 
BRANCH  41  42
ATOM     42  N   UNL A   1      45.567  30.049  27.647  1.00  0.00    -0.352 N 
ATOM     43  C   UNL A   1      45.916  30.864  26.590  1.00  0.00     0.251 C 
ATOM     44  H   UNL A   1      45.626  29.081  27.472  1.00  0.00     0.163 HD
ATOM     45  O   UNL A   1      46.270  30.404  25.512  1.00  0.00    -0.269 OA
BRANCH  43  46
ATOM     46  C   UNL A   1      45.781  32.317  26.774  1.00  0.00     0.039 A 
ATOM     47  C   UNL A   1      44.528  32.910  26.658  1.00  0.00     0.014 A 
ATOM     48  C   UNL A   1      46.872  33.044  27.233  1.00  0.00     0.014 A 
ATOM     49  C   UNL A   1      44.350  34.205  27.141  1.00  0.00     0.010 A 
ATOM     50  C   UNL A   1      46.679  34.286  27.807  1.00  0.00     0.010 A 
ATOM     51  C   UNL A   1      45.408  34.867  27.790  1.00  0.00    -0.014 A 
BRANCH  51  52
ATOM     52  C   UNL A   1      45.191  36.132  28.528  1.00  0.00     0.031 A 
ATOM     53  C   UNL A   1      44.816  36.108  29.980  1.00  0.00     0.074 A 
ATOM     54  C   UNL A   1      45.228  37.295  27.844  1.00  0.00     0.049 A 
ATOM     55  N   UNL A   1      44.545  37.109  30.776  1.00  0.00    -0.248 NA
ATOM     56  C   UNL A   1      44.681  34.785  30.611  1.00  0.00     0.031 C 
ATOM     57  C   UNL A   1      45.470  37.425  26.404  1.00  0.00     0.029 A 
ATOM     58  N   UNL A   1      45.059  38.587  28.266  1.00  0.00    -0.354 N 
ATOM     59  C   UNL A   1      44.200  36.537  31.994  1.00  0.00     0.074 A 
ATOM     60  C   UNL A   1      44.218  35.102  31.811  1.00  0.00     0.031 C 
ATOM     61  C   UNL A   1      45.482  38.725  26.073  1.00  0.00     0.029 A 
ATOM     62  C   UNL A   1      45.218  39.517  27.267  1.00  0.00     0.049 A 
ATOM     63  H   UNL A   1      44.843  38.825  29.197  1.00  0.00     0.167 HD
ATOM     64  C   UNL A   1      43.931  37.152  33.168  1.00  0.00     0.037 A 
ATOM     65  C   UNL A   1      45.167  40.861  27.319  1.00  0.00     0.037 A 
ATOM     66  C   UNL A   1      43.951  38.579  33.342  1.00  0.00     0.049 A 
ATOM     67  C   UNL A   1      44.914  41.522  28.644  1.00  0.00     0.074 A 
ATOM     68  C   UNL A   1      43.772  39.310  34.503  1.00  0.00     0.029 A 
ATOM     69  N   UNL A   1      44.165  39.492  32.320  1.00  0.00    -0.354 N 
ATOM     70  N   UNL A   1      44.693  40.969  29.813  1.00  0.00    -0.248 NA
ATOM     71  C   UNL A   1      44.912  42.990  28.662  1.00  0.00     0.031 C 
ATOM     72  C   UNL A   1      43.843  40.668  34.175  1.00  0.00     0.029 A 
ATOM     73  C   UNL A   1      44.109  40.782  32.819  1.00  0.00     0.049 A 
ATOM     74  H   UNL A   1      44.332  39.257  31.378  1.00  0.00     0.167 HD
ATOM     75  C   UNL A   1      44.554  42.019  30.710  1.00  0.00     0.074 A 
ATOM     76  C   UNL A   1      44.732  43.240  29.951  1.00  0.00     0.031 C 
ATOM     77  C   UNL A   1      44.297  41.979  32.040  1.00  0.00     0.037 A 
BRANCH  64  78
ATOM     78  C   UNL A   1      43.622  36.279  34.350  1.00  0.00     0.057 A 
ATOM     79  C   UNL A   1      44.598  35.956  35.303  1.00  0.00     0.134 A 
ATOM     80  C   UNL A   1      42.334  35.764  34.547  1.00  0.00     0.134 A 
ATOM     81  F   UNL A   1      45.855  36.403  35.167  1.00  0.00    -0.206 F 
ATOM     82  C   UNL A   1      44.314  35.126  36.389  1.00  0.00     0.040 A 
ATOM     83  C   UNL A   1      42.031  34.958  35.645  1.00  0.00     0.040 A 
ATOM     84  F   UNL A   1      41.350  36.036  33.675  1.00  0.00    -0.206 F 
ATOM     85  C   UNL A   1      43.024  34.629  36.565  1.00  0.00     0.006 A 
ENDBRANCH  64  78
BRANCH  65  86
ATOM     86  C   UNL A   1      45.415  41.666  26.095  1.00  0.00     0.057 A 
ATOM     87  C   UNL A   1      44.359  42.043  25.255  1.00  0.00     0.134 A 
ATOM     88  C   UNL A   1      46.702  42.080  25.735  1.00  0.00     0.134 A 
ATOM     89  F   UNL A   1      43.104  41.669  25.541  1.00  0.00    -0.206 F 
ATOM     90  C   UNL A   1      44.577  42.778  24.089  1.00  0.00     0.040 A 
ATOM     91  C   UNL A   1      46.932  42.837  24.584  1.00  0.00     0.040 A 
ATOM     92  F   UNL A   1      47.755  41.767  26.505  1.00  0.00    -0.206 F 
ATOM     93  C   UNL A   1      45.868  43.180  23.753  1.00  0.00     0.006 A 
ENDBRANCH  65  86
BRANCH  77  94
ATOM     94  C   UNL A   1      44.224  43.293  32.758  1.00  0.00     0.057 A 
ATOM     95  C   UNL A   1      45.352  43.873  33.350  1.00  0.00     0.134 A 
ATOM     96  C   UNL A   1      43.019  44.003  32.821  1.00  0.00     0.134 A 
ATOM     97  F   UNL A   1      46.532  43.236  33.335  1.00  0.00    -0.206 F 
ATOM     98  C   UNL A   1      45.278  45.106  34.001  1.00  0.00     0.040 A 
ATOM     99  C   UNL A   1      42.939  45.248  33.443  1.00  0.00     0.040 A 
ATOM    100  F   UNL A   1      41.904  43.504  32.263  1.00  0.00    -0.206 F 
ATOM    101  C   UNL A   1      44.070  45.800  34.040  1.00  0.00     0.006 A 
ENDBRANCH  77  94
ENDBRANCH  51  52
ENDBRANCH  43  46
ENDBRANCH  41  42
ENDBRANCH  40  41
ENDBRANCH   1  40
TORSDOF 13
ENDMDL
MODEL 2
REMARK VINA RESULT:     -11.9      4.421     10.418
REMARK SMILES COC(=O)[C@H]1CC[C@]2(C)[C@H](CC[C@]3(C)[C@H]2CC=C2[C@H]4CC(C)(C)CC[C@]4(C(=O)NCCCCNC(=O)c4ccc(-c5c6nc(c(-c7c(F)cccc7F)c7ccc([nH]7)c(-c7c(F)cccc7F)c7nc(c(-c8c(F)cccc8F)c8ccc5[nH]8)C=C7)C=C6)cc4)CC[C@@]23C)C1(C)C
REMARK SMILES IDX 31 1 30 2 29 3 27 4 28 5 26 7 5 8 6 9 95 10 7 11 10 12 96 13
REMARK SMILES IDX 97 14 8 15 11 16 15 17 9 18 12 19 16 20 13 21 17 22 93 23
REMARK SMILES IDX 14 24 18 25 92 26 94 27 19 28 91 29 20 30 21 31 25 32 24 33
REMARK SMILES IDX 22 34 23 35 3 36 4 37 2 38 1 39 32 40 33 41 34 42 35 43
REMARK SMILES IDX 36 45 37 46 38 47 90 48 39 49 89 50 40 51 41 52 42 53 83 54
REMARK SMILES IDX 43 55 88 56 82 57 84 58 44 59 87 60 81 61 80 62 45 64 71 65
REMARK SMILES IDX 54 66 70 67 55 68 58 69 69 70 85 71 56 72 57 73 68 75 86 76
REMARK SMILES IDX 59 77 46 78 47 79 52 80 48 81 49 82 51 83 53 84 50 85 72 86
REMARK SMILES IDX 73 87 78 88 74 89 75 90 77 91 79 92 76 93 60 94 61 95 66 96
REMARK SMILES IDX 62 97 63 98 65 99 67 100 64 101
REMARK H PARENT 29 6 34 44 84 63 58 74
REMARK Flexibility Score: inf
ROOT
ATOM      1  C   UNL A   1      47.108  27.257  28.026  1.00  0.00     0.023 C 
ENDROOT
BRANCH   1   2
ATOM      2  C   UNL A   1      47.057  29.233  27.213  1.00  0.00     0.116 C 
BRANCH   2   3
ATOM      3  N   UNL A   1      47.261  30.788  28.232  1.00  0.00    -0.356 N 
ATOM      4  C   UNL A   1      46.254  32.044  28.303  1.00  0.00     0.226 C 
ATOM      5  O   UNL A   1      46.637  33.116  28.765  1.00  0.00    -0.274 OA
ATOM      6  H   UNL A   1      48.074  30.846  28.786  1.00  0.00     0.163 HD
BRANCH   4   7
ATOM      7  C   UNL A   1      44.642  31.720  27.904  1.00  0.00     0.056 C 
ATOM      8  C   UNL A   1      44.543  39.832  30.966  1.00  0.00     0.105 C 
ATOM      9  C   UNL A   1      45.001  39.320  32.365  1.00  0.00     0.016 C 
ATOM     10  C   UNL A   1      44.207  38.769  29.830  1.00  0.00    -0.019 C 
ATOM     11  C   UNL A   1      44.705  37.852  32.721  1.00  0.00     0.008 C 
ATOM     12  C   UNL A   1      43.777  37.420  30.537  1.00  0.00     0.002 C 
ATOM     13  C   UNL A   1      45.412  38.530  28.856  1.00  0.00     0.012 C 
ATOM     14  C   UNL A   1      43.126  39.342  28.865  1.00  0.00     0.012 C 
ATOM     15  C   UNL A   1      44.902  36.880  31.525  1.00  0.00    -0.026 C 
ATOM     16  C   UNL A   1      43.106  36.420  29.600  1.00  0.00     0.005 C 
ATOM     17  C   UNL A   1      44.735  35.327  32.018  1.00  0.00     0.006 C 
ATOM     18  C   UNL A   1      46.414  37.120  31.178  1.00  0.00     0.012 C 
ATOM     19  C   UNL A   1      42.371  35.257  30.252  1.00  0.00     0.008 C 
ATOM     20  C   UNL A   1      46.490  34.264  31.963  1.00  0.00     0.032 C 
ATOM     21  C   UNL A   1      43.091  34.392  31.343  1.00  0.00    -0.020 C 
ATOM     22  C   UNL A   1      46.254  32.431  31.201  1.00  0.00    -0.027 C 
ATOM     23  C   UNL A   1      43.249  32.505  30.850  1.00  0.00    -0.006 C 
ATOM     24  C   UNL A   1      41.939  34.364  32.455  1.00  0.00     0.012 C 
ATOM     25  C   UNL A   1      44.881  32.121  30.315  1.00  0.00    -0.064 C 
ATOM     26  C   UNL A   1      42.492  31.737  29.628  1.00  0.00     0.013 C 
ATOM     27  C   UNL A   1      42.760  31.466  32.001  1.00  0.00     0.017 C 
ATOM     28  C   UNL A   1      44.432  32.949  28.595  1.00  0.00     0.031 C 
ATOM     29  C   UNL A   1      43.552  30.837  28.703  1.00  0.00     0.018 C 
ATOM     30  C   UNL A   1      45.131  34.208  27.583  1.00  0.00     0.015 C 
ATOM     31  C   UNL A   1      44.608  34.395  26.163  1.00  0.00    -0.035 C 
ATOM     32  C   UNL A   1      44.134  31.806  26.439  1.00  0.00     0.018 C 
ATOM     33  C   UNL A   1      44.156  33.068  25.562  1.00  0.00     0.007 C 
ATOM     34  C   UNL A   1      45.781  34.943  25.291  1.00  0.00     0.011 C 
ATOM     35  C   UNL A   1      43.523  35.486  26.127  1.00  0.00     0.011 C 
BRANCH   8  36
ATOM     36  C   UNL A   1      43.433  40.836  31.255  1.00  0.00     0.309 C 
ATOM     37  O   UNL A   1      42.425  40.554  31.891  1.00  0.00    -0.252 OA
BRANCH  36  38
ATOM     38  O   UNL A   1      43.682  42.031  30.660  1.00  0.00    -0.469 OA
ATOM     39  C   UNL A   1      42.879  43.134  31.090  1.00  0.00     0.282 C 
ENDBRANCH  36  38
ENDBRANCH   8  36
ENDBRANCH   4   7
ENDBRANCH   2   3
ENDBRANCH   1   2
BRANCH   1  40
ATOM     40  C   UNL A   1      47.528  25.649  27.529  1.00  0.00     0.023 C 
BRANCH  40  41
ATOM     41  C   UNL A   1      46.461  24.529  27.448  1.00  0.00     0.116 C 
BRANCH  41  42
ATOM     42  N   UNL A   1      45.999  24.224  26.091  1.00  0.00    -0.352 N 
ATOM     43  C   UNL A   1      44.842  24.623  25.456  1.00  0.00     0.251 C 
ATOM     44  H   UNL A   1      46.598  23.652  25.558  1.00  0.00     0.163 HD
ATOM     45  O   UNL A   1      44.587  24.282  24.307  1.00  0.00    -0.269 OA
BRANCH  43  46
ATOM     46  C   UNL A   1      43.878  25.421  26.228  1.00  0.00     0.039 A 
ATOM     47  C   UNL A   1      42.929  24.777  27.016  1.00  0.00     0.014 A 
ATOM     48  C   UNL A   1      44.043  26.799  26.297  1.00  0.00     0.014 A 
ATOM     49  C   UNL A   1      42.242  25.515  27.978  1.00  0.00     0.010 A 
ATOM     50  C   UNL A   1      43.443  27.514  27.316  1.00  0.00     0.010 A 
ATOM     51  C   UNL A   1      42.556  26.871  28.185  1.00  0.00    -0.014 A 
BRANCH  51  52
ATOM     52  C   UNL A   1      42.030  27.617  29.350  1.00  0.00     0.031 A 
ATOM     53  C   UNL A   1      42.659  27.453  30.702  1.00  0.00     0.074 A 
ATOM     54  C   UNL A   1      40.912  28.355  29.195  1.00  0.00     0.049 A 
ATOM     55  N   UNL A   1      42.310  27.989  31.842  1.00  0.00    -0.248 NA
ATOM     56  C   UNL A   1      43.803  26.530  30.796  1.00  0.00     0.031 C 
ATOM     57  C   UNL A   1      40.151  28.491  27.949  1.00  0.00     0.029 A 
ATOM     58  N   UNL A   1      40.217  29.126  30.089  1.00  0.00    -0.354 N 
ATOM     59  C   UNL A   1      43.182  27.463  32.786  1.00  0.00     0.074 A 
ATOM     60  C   UNL A   1      44.024  26.506  32.102  1.00  0.00     0.031 C 
ATOM     61  C   UNL A   1      39.126  29.335  28.146  1.00  0.00     0.029 A 
ATOM     62  C   UNL A   1      39.138  29.773  29.536  1.00  0.00     0.049 A 
ATOM     63  H   UNL A   1      40.468  29.209  31.037  1.00  0.00     0.167 HD
ATOM     64  C   UNL A   1      43.295  27.777  34.097  1.00  0.00     0.037 A 
ATOM     65  C   UNL A   1      38.264  30.633  30.092  1.00  0.00     0.037 A 
ATOM     66  C   UNL A   1      42.473  28.756  34.755  1.00  0.00     0.049 A 
ATOM     67  C   UNL A   1      38.440  31.003  31.538  1.00  0.00     0.074 A 
ATOM     68  C   UNL A   1      42.549  29.214  36.058  1.00  0.00     0.029 A 
ATOM     69  N   UNL A   1      41.420  29.430  34.152  1.00  0.00    -0.354 N 
ATOM     70  N   UNL A   1      39.336  30.578  32.396  1.00  0.00    -0.248 NA
ATOM     71  C   UNL A   1      37.493  31.979  32.091  1.00  0.00     0.031 C 
ATOM     72  C   UNL A   1      41.519  30.139  36.254  1.00  0.00     0.029 A 
ATOM     73  C   UNL A   1      40.828  30.290  35.061  1.00  0.00     0.049 A 
ATOM     74  H   UNL A   1      41.136  29.313  33.217  1.00  0.00     0.167 HD
ATOM     75  C   UNL A   1      39.079  31.253  33.580  1.00  0.00     0.074 A 
ATOM     76  C   UNL A   1      37.954  32.128  33.324  1.00  0.00     0.031 C 
ATOM     77  C   UNL A   1      39.712  31.155  34.775  1.00  0.00     0.037 A 
BRANCH  64  78
ATOM     78  C   UNL A   1      44.361  27.074  34.886  1.00  0.00     0.057 A 
ATOM     79  C   UNL A   1      44.107  25.870  35.557  1.00  0.00     0.134 A 
ATOM     80  C   UNL A   1      45.658  27.597  34.970  1.00  0.00     0.134 A 
ATOM     81  F   UNL A   1      42.883  25.322  35.531  1.00  0.00    -0.206 F 
ATOM     82  C   UNL A   1      45.093  25.229  36.310  1.00  0.00     0.040 A 
ATOM     83  C   UNL A   1      46.660  26.950  35.695  1.00  0.00     0.040 A 
ATOM     84  F   UNL A   1      45.972  28.745  34.350  1.00  0.00    -0.206 F 
ATOM     85  C   UNL A   1      46.377  25.767  36.375  1.00  0.00     0.006 A 
ENDBRANCH  64  78
BRANCH  65  86
ATOM     86  C   UNL A   1      37.188  31.242  29.270  1.00  0.00     0.057 A 
ATOM     87  C   UNL A   1      36.025  30.524  28.960  1.00  0.00     0.134 A 
ATOM     88  C   UNL A   1      37.288  32.547  28.776  1.00  0.00     0.134 A 
ATOM     89  F   UNL A   1      35.874  29.265  29.396  1.00  0.00    -0.206 F 
ATOM     90  C   UNL A   1      35.014  31.072  28.169  1.00  0.00     0.040 A 
ATOM     91  C   UNL A   1      36.274  33.117  28.003  1.00  0.00     0.040 A 
ATOM     92  F   UNL A   1      38.368  33.294  29.049  1.00  0.00    -0.206 F 
ATOM     93  C   UNL A   1      35.137  32.375  27.691  1.00  0.00     0.006 A 
ENDBRANCH  65  86
BRANCH  77  94
ATOM     94  C   UNL A   1      39.218  32.039  35.881  1.00  0.00     0.057 A 
ATOM     95  C   UNL A   1      39.667  33.356  36.028  1.00  0.00     0.134 A 
ATOM     96  C   UNL A   1      38.251  31.577  36.782  1.00  0.00     0.134 A 
ATOM     97  F   UNL A   1      40.602  33.853  35.204  1.00  0.00    -0.206 F 
ATOM     98  C   UNL A   1      39.187  34.178  37.049  1.00  0.00     0.040 A 
ATOM     99  C   UNL A   1      37.744  32.397  37.789  1.00  0.00     0.040 A 
ATOM    100  F   UNL A   1      37.774  30.326  36.687  1.00  0.00    -0.206 F 
ATOM    101  C   UNL A   1      38.216  33.700  37.927  1.00  0.00     0.006 A 
ENDBRANCH  77  94
ENDBRANCH  51  52
ENDBRANCH  43  46
ENDBRANCH  41  42
ENDBRANCH  40  41
ENDBRANCH   1  40
TORSDOF 13
ENDMDL
MODEL 3
REMARK VINA RESULT:     -11.8      5.627     13.472
REMARK SMILES COC(=O)[C@H]1CC[C@]2(C)[C@H](CC[C@]3(C)[C@H]2CC=C2[C@H]4CC(C)(C)CC[C@]4(C(=O)NCCCCNC(=O)c4ccc(-c5c6nc(c(-c7c(F)cccc7F)c7ccc([nH]7)c(-c7c(F)cccc7F)c7nc(c(-c8c(F)cccc8F)c8ccc5[nH]8)C=C7)C=C6)cc4)CC[C@@]23C)C1(C)C
REMARK SMILES IDX 31 1 30 2 29 3 27 4 28 5 26 7 5 8 6 9 95 10 7 11 10 12 96 13
REMARK SMILES IDX 97 14 8 15 11 16 15 17 9 18 12 19 16 20 13 21 17 22 93 23
REMARK SMILES IDX 14 24 18 25 92 26 94 27 19 28 91 29 20 30 21 31 25 32 24 33
REMARK SMILES IDX 22 34 23 35 3 36 4 37 2 38 1 39 32 40 33 41 34 42 35 43
REMARK SMILES IDX 36 45 37 46 38 47 90 48 39 49 89 50 40 51 41 52 42 53 83 54
REMARK SMILES IDX 43 55 88 56 82 57 84 58 44 59 87 60 81 61 80 62 45 64 71 65
REMARK SMILES IDX 54 66 70 67 55 68 58 69 69 70 85 71 56 72 57 73 68 75 86 76
REMARK SMILES IDX 59 77 46 78 47 79 52 80 48 81 49 82 51 83 53 84 50 85 72 86
REMARK SMILES IDX 73 87 78 88 74 89 75 90 77 91 79 92 76 93 60 94 61 95 66 96
REMARK SMILES IDX 62 97 63 98 65 99 67 100 64 101
REMARK H PARENT 29 6 34 44 84 63 58 74
REMARK Flexibility Score: inf
ROOT
ATOM      1  C   UNL A   1      40.769  32.682  35.165  1.00  0.00     0.023 C 
ENDROOT
BRANCH   1   2
ATOM      2  C   UNL A   1      42.391  31.797  34.091  1.00  0.00     0.116 C 
BRANCH   2   3
ATOM      3  N   UNL A   1      43.676  30.682  34.868  1.00  0.00    -0.356 N 
ATOM      4  C   UNL A   1      43.649  29.072  34.945  1.00  0.00     0.226 C 
ATOM      5  O   UNL A   1      44.384  28.480  35.731  1.00  0.00    -0.274 OA
ATOM      6  H   UNL A   1      44.454  31.127  35.275  1.00  0.00     0.163 HD
BRANCH   4   7
ATOM      7  C   UNL A   1      42.723  28.294  33.763  1.00  0.00     0.056 C 
ATOM      8  C   UNL A   1      48.748  22.474  36.004  1.00  0.00     0.105 C 
ATOM      9  C   UNL A   1      49.869  23.412  35.464  1.00  0.00     0.016 C 
ATOM     10  C   UNL A   1      47.227  22.890  35.788  1.00  0.00    -0.019 C 
ATOM     11  C   UNL A   1      49.479  24.452  34.398  1.00  0.00     0.008 C 
ATOM     12  C   UNL A   1      47.154  23.823  34.511  1.00  0.00     0.002 C 
ATOM     13  C   UNL A   1      46.617  23.606  37.041  1.00  0.00     0.012 C 
ATOM     14  C   UNL A   1      46.335  21.616  35.683  1.00  0.00     0.012 C 
ATOM     15  C   UNL A   1      48.091  25.101  34.654  1.00  0.00    -0.026 C 
ATOM     16  C   UNL A   1      45.738  24.029  33.979  1.00  0.00     0.005 C 
ATOM     17  C   UNL A   1      47.819  26.310  33.583  1.00  0.00     0.006 C 
ATOM     18  C   UNL A   1      48.309  25.746  36.069  1.00  0.00     0.012 C 
ATOM     19  C   UNL A   1      45.612  24.626  32.585  1.00  0.00     0.008 C 
ATOM     20  C   UNL A   1      47.810  28.173  34.446  1.00  0.00     0.032 C 
ATOM     21  C   UNL A   1      46.390  25.937  32.223  1.00  0.00    -0.020 C 
ATOM     22  C   UNL A   1      46.317  29.321  33.776  1.00  0.00    -0.027 C 
ATOM     23  C   UNL A   1      45.215  27.412  31.702  1.00  0.00    -0.006 C 
ATOM     24  C   UNL A   1      47.022  25.487  30.822  1.00  0.00     0.012 C 
ATOM     25  C   UNL A   1      45.042  28.580  33.007  1.00  0.00    -0.064 C 
ATOM     26  C   UNL A   1      43.628  27.331  31.344  1.00  0.00     0.013 C 
ATOM     27  C   UNL A   1      45.640  28.153  30.318  1.00  0.00     0.017 C 
ATOM     28  C   UNL A   1      43.779  27.339  33.849  1.00  0.00     0.031 C 
ATOM     29  C   UNL A   1      42.743  28.488  32.161  1.00  0.00     0.018 C 
ATOM     30  C   UNL A   1      43.624  26.577  35.428  1.00  0.00     0.015 C 
ATOM     31  C   UNL A   1      42.331  25.850  35.779  1.00  0.00    -0.035 C 
ATOM     32  C   UNL A   1      41.352  27.646  34.099  1.00  0.00     0.018 C 
ATOM     33  C   UNL A   1      41.129  26.505  35.106  1.00  0.00     0.007 C 
ATOM     34  C   UNL A   1      42.130  25.953  37.324  1.00  0.00     0.011 C 
ATOM     35  C   UNL A   1      42.459  24.346  35.479  1.00  0.00     0.011 C 
BRANCH   8  36
ATOM     36  C   UNL A   1      49.114  21.085  35.492  1.00  0.00     0.309 C 
ATOM     37  O   UNL A   1      49.283  20.123  36.232  1.00  0.00    -0.252 OA
BRANCH  36  38
ATOM     38  O   UNL A   1      49.293  21.086  34.146  1.00  0.00    -0.469 OA
ATOM     39  C   UNL A   1      48.802  19.945  33.438  1.00  0.00     0.282 C 
ENDBRANCH  36  38
ENDBRANCH   8  36
ENDBRANCH   4   7
ENDBRANCH   2   3
ENDBRANCH   1   2
BRANCH   1  40
ATOM     40  C   UNL A   1      39.598  33.946  34.960  1.00  0.00     0.023 C 
BRANCH  40  41
ATOM     41  C   UNL A   1      38.741  34.045  33.674  1.00  0.00     0.116 C 
BRANCH  41  42
ATOM     42  N   UNL A   1      37.349  33.616  33.834  1.00  0.00    -0.352 N 
ATOM     43  C   UNL A   1      36.717  32.502  33.321  1.00  0.00     0.251 C 
ATOM     44  H   UNL A   1      36.784  34.206  34.384  1.00  0.00     0.163 HD
ATOM     45  O   UNL A   1      35.534  32.275  33.541  1.00  0.00    -0.269 OA
BRANCH  43  46
ATOM     46  C   UNL A   1      37.493  31.622  32.435  1.00  0.00     0.039 A 
ATOM     47  C   UNL A   1      37.409  31.789  31.056  1.00  0.00     0.014 A 
ATOM     48  C   UNL A   1      38.430  30.760  32.991  1.00  0.00     0.014 A 
ATOM     49  C   UNL A   1      38.370  31.186  30.247  1.00  0.00     0.010 A 
ATOM     50  C   UNL A   1      39.444  30.245  32.206  1.00  0.00     0.010 A 
ATOM     51  C   UNL A   1      39.438  30.477  30.827  1.00  0.00    -0.014 A 
BRANCH  51  52
ATOM     52  C   UNL A   1      40.601  30.037  30.024  1.00  0.00     0.031 A 
ATOM     53  C   UNL A   1      41.699  31.001  29.689  1.00  0.00     0.074 A 
ATOM     54  C   UNL A   1      40.597  28.790  29.509  1.00  0.00     0.049 A 
ATOM     55  N   UNL A   1      42.770  30.809  28.963  1.00  0.00    -0.248 NA
ATOM     56  C   UNL A   1      41.556  32.376  30.196  1.00  0.00     0.031 C 
ATOM     57  C   UNL A   1      39.522  27.806  29.676  1.00  0.00     0.029 A 
ATOM     58  N   UNL A   1      41.522  28.137  28.738  1.00  0.00    -0.354 N 
ATOM     59  C   UNL A   1      43.419  32.036  28.920  1.00  0.00     0.074 A 
ATOM     60  C   UNL A   1      42.584  32.985  29.623  1.00  0.00     0.031 C 
ATOM     61  C   UNL A   1      39.872  26.661  29.069  1.00  0.00     0.029 A 
ATOM     62  C   UNL A   1      41.177  26.840  28.444  1.00  0.00     0.049 A 
ATOM     63  H   UNL A   1      42.354  28.558  28.423  1.00  0.00     0.167 HD
ATOM     64  C   UNL A   1      44.621  32.335  28.376  1.00  0.00     0.037 A 
ATOM     65  C   UNL A   1      41.849  25.898  27.757  1.00  0.00     0.037 A 
ATOM     66  C   UNL A   1      45.455  31.372  27.709  1.00  0.00     0.049 A 
ATOM     67  C   UNL A   1      43.204  26.241  27.203  1.00  0.00     0.074 A 
ATOM     68  C   UNL A   1      46.725  31.543  27.189  1.00  0.00     0.029 A 
ATOM     69  N   UNL A   1      45.097  30.053  27.473  1.00  0.00    -0.354 N 
ATOM     70  N   UNL A   1      43.855  27.377  27.260  1.00  0.00    -0.248 NA
ATOM     71  C   UNL A   1      43.921  25.170  26.501  1.00  0.00     0.031 C 
ATOM     72  C   UNL A   1      47.121  30.335  26.606  1.00  0.00     0.029 A 
ATOM     73  C   UNL A   1      46.115  29.400  26.801  1.00  0.00     0.049 A 
ATOM     74  H   UNL A   1      44.243  29.642  27.743  1.00  0.00     0.167 HD
ATOM     75  C   UNL A   1      45.068  27.153  26.626  1.00  0.00     0.074 A 
ATOM     76  C   UNL A   1      45.068  25.766  26.208  1.00  0.00     0.031 C 
ATOM     77  C   UNL A   1      46.090  28.015  26.404  1.00  0.00     0.037 A 
BRANCH  64  78
ATOM     78  C   UNL A   1      45.105  33.750  28.507  1.00  0.00     0.057 A 
ATOM     79  C   UNL A   1      45.880  34.166  29.599  1.00  0.00     0.134 A 
ATOM     80  C   UNL A   1      44.806  34.707  27.529  1.00  0.00     0.134 A 
ATOM     81  F   UNL A   1      46.190  33.304  30.579  1.00  0.00    -0.206 F 
ATOM     82  C   UNL A   1      46.311  35.486  29.731  1.00  0.00     0.040 A 
ATOM     83  C   UNL A   1      45.256  36.024  27.635  1.00  0.00     0.040 A 
ATOM     84  F   UNL A   1      44.071  34.378  26.455  1.00  0.00    -0.206 F 
ATOM     85  C   UNL A   1      46.004  36.420  28.743  1.00  0.00     0.006 A 
ENDBRANCH  64  78
BRANCH  65  86
ATOM     86  C   UNL A   1      41.281  24.534  27.604  1.00  0.00     0.057 A 
ATOM     87  C   UNL A   1      41.757  23.465  28.373  1.00  0.00     0.134 A 
ATOM     88  C   UNL A   1      40.253  24.264  26.694  1.00  0.00     0.134 A 
ATOM     89  F   UNL A   1      42.748  23.658  29.256  1.00  0.00    -0.206 F 
ATOM     90  C   UNL A   1      41.252  22.173  28.225  1.00  0.00     0.040 A 
ATOM     91  C   UNL A   1      39.721  22.980  26.551  1.00  0.00     0.040 A 
ATOM     92  F   UNL A   1      39.741  25.246  25.938  1.00  0.00    -0.206 F 
ATOM     93  C   UNL A   1      40.227  21.929  27.313  1.00  0.00     0.006 A 
ENDBRANCH  65  86
BRANCH  77  94
ATOM     94  C   UNL A   1      47.299  27.472  25.703  1.00  0.00     0.057 A 
ATOM     95  C   UNL A   1      48.318  26.810  26.398  1.00  0.00     0.134 A 
ATOM     96  C   UNL A   1      47.422  27.576  24.312  1.00  0.00     0.134 A 
ATOM     97  F   UNL A   1      48.264  26.690  27.733  1.00  0.00    -0.206 F 
ATOM     98  C   UNL A   1      49.431  26.291  25.735  1.00  0.00     0.040 A 
ATOM     99  C   UNL A   1      48.515  27.037  23.636  1.00  0.00     0.040 A 
ATOM    100  F   UNL A   1      46.473  28.191  23.588  1.00  0.00    -0.206 F 
ATOM    101  C   UNL A   1      49.526  26.397  24.348  1.00  0.00     0.006 A 
ENDBRANCH  77  94
ENDBRANCH  51  52
ENDBRANCH  43  46
ENDBRANCH  41  42
ENDBRANCH  40  41
ENDBRANCH   1  40
TORSDOF 13
ENDMDL
