MODEL 1
REMARK VINA RESULT:     -11.8      0.000      0.000
REMARK SMILES O=C(C[C@H]1C[N@@H+]([C@@H]2CC(=O)NC2=O)CCO1)NCCCCNC(=O)c1ccc(-c2c3nc(c(-c4c(F)cccc4F)c4ccc([nH]4)c(-c4c(F)cccc4F)c4nc(c(-c5c(F)cccc5F)c5ccc2[nH]5)C=C4)C=C3)cc1
REMARK SMILES IDX 19 1 18 2 17 3 1 4 2 5 3 7 4 8 5 9 16 10 6 11 15 12 14 13
REMARK SMILES IDX 7 15 8 16 12 17 9 18 11 19 13 20 10 21 20 23 21 24 22 25
REMARK SMILES IDX 23 26 24 28 25 29 26 30 78 31 27 32 77 33 28 34 29 35 30 36
REMARK SMILES IDX 71 37 31 38 76 39 70 40 72 41 32 42 75 43 69 44 68 45 33 47
REMARK SMILES IDX 59 48 42 49 58 50 43 51 46 52 57 53 73 54 44 55 45 56 56 58
REMARK SMILES IDX 74 59 47 60 34 61 35 62 40 63 36 64 37 65 39 66 41 67 38 68
REMARK SMILES IDX 60 69 61 70 66 71 62 72 63 73 65 74 67 75 64 76 48 77 49 78
REMARK SMILES IDX 54 79 50 80 51 81 53 82 55 83 52 84
REMARK H PARENT 17 6 6 14 11 22 22 27 72 46 46 57
REMARK Flexibility Score: inf
ROOT
ATOM      1  C   UNL A   1      31.818  30.602  26.217  1.00  0.00     0.023 C 
ENDROOT
BRANCH   1   2
ATOM      2  C   UNL A   1      33.221  30.115  26.580  1.00  0.00     0.116 C 
BRANCH   2   3
ATOM      3  N   UNL A   1      33.736  29.104  25.683  1.00  0.00    -0.356 N 
ATOM      4  O   UNL A   1      33.067  27.327  26.954  1.00  0.00    -0.275 OA
ATOM      5  C   UNL A   1      33.576  27.764  25.928  1.00  0.00     0.222 C 
ATOM      6  H   UNL A   1      34.216  29.387  24.871  1.00  0.00     0.163 HD
BRANCH   5   7
ATOM      7  C   UNL A   1      34.150  26.845  24.878  1.00  0.00     0.138 C 
BRANCH   7   8
ATOM      8  C   UNL A   1      33.239  25.785  24.242  1.00  0.00     0.182 C 
ATOM      9  C   UNL A   1      31.722  26.071  24.374  1.00  0.00     0.295 C 
ATOM     10  O   UNL A   1      33.625  25.348  22.931  1.00  0.00    -0.366 OA
ATOM     11  N   UNL A   1      31.071  26.757  23.262  1.00  0.00    -0.320 N 
ATOM     12  C   UNL A   1      33.048  26.114  21.863  1.00  0.00     0.222 C 
ATOM     13  C   UNL A   1      31.526  26.260  21.968  1.00  0.00     0.291 C 
ATOM     14  H   UNL A   1      30.102  26.459  23.375  1.00  0.00     0.348 HD
BRANCH  11  15
ATOM     15  C   UNL A   1      30.711  28.174  23.358  1.00  0.00     0.284 C 
ATOM     16  C   UNL A   1      29.354  28.626  22.822  1.00  0.00     0.176 C 
ATOM     17  C   UNL A   1      31.704  29.077  22.631  1.00  0.00     0.285 C 
ATOM     18  C   UNL A   1      29.685  29.659  21.785  1.00  0.00     0.233 C 
ATOM     19  N   UNL A   1      31.026  29.817  21.717  1.00  0.00    -0.291 N 
ATOM     20  O   UNL A   1      32.909  29.135  22.809  1.00  0.00    -0.268 OA
ATOM     21  O   UNL A   1      28.880  30.315  21.140  1.00  0.00    -0.274 OA
ATOM     22  H   UNL A   1      31.468  30.411  21.068  1.00  0.00     0.173 HD
ENDBRANCH  11  15
ENDBRANCH   7   8
ENDBRANCH   5   7
ENDBRANCH   2   3
ENDBRANCH   1   2
BRANCH   1  23
ATOM     23  C   UNL A   1      31.508  32.042  26.629  1.00  0.00     0.023 C 
BRANCH  23  24
ATOM     24  C   UNL A   1      32.652  32.787  27.301  1.00  0.00     0.116 C 
BRANCH  24  25
ATOM     25  N   UNL A   1      32.324  34.168  27.618  1.00  0.00    -0.352 N 
ATOM     26  C   UNL A   1      32.923  35.003  28.530  1.00  0.00     0.251 C 
ATOM     27  H   UNL A   1      31.574  34.557  27.112  1.00  0.00     0.163 HD
ATOM     28  O   UNL A   1      32.457  36.115  28.757  1.00  0.00    -0.269 OA
BRANCH  26  29
ATOM     29  C   UNL A   1      34.114  34.535  29.271  1.00  0.00     0.039 A 
ATOM     30  C   UNL A   1      33.943  33.987  30.543  1.00  0.00     0.014 A 
ATOM     31  C   UNL A   1      35.387  34.609  28.698  1.00  0.00     0.014 A 
ATOM     32  C   UNL A   1      35.041  33.452  31.219  1.00  0.00     0.010 A 
ATOM     33  C   UNL A   1      36.469  34.015  29.344  1.00  0.00     0.010 A 
ATOM     34  C   UNL A   1      36.306  33.430  30.609  1.00  0.00    -0.014 A 
BRANCH  34  35
ATOM     35  C   UNL A   1      37.470  32.796  31.278  1.00  0.00     0.031 A 
ATOM     36  C   UNL A   1      38.134  31.598  30.662  1.00  0.00     0.074 A 
ATOM     37  C   UNL A   1      37.888  33.261  32.471  1.00  0.00     0.049 A 
ATOM     38  N   UNL A   1      39.119  30.870  31.123  1.00  0.00    -0.248 NA
ATOM     39  C   UNL A   1      37.604  31.140  29.367  1.00  0.00     0.031 C 
ATOM     40  C   UNL A   1      37.296  34.388  33.197  1.00  0.00     0.029 A 
ATOM     41  N   UNL A   1      38.904  32.835  33.291  1.00  0.00    -0.354 N 
ATOM     42  C   UNL A   1      39.314  29.862  30.188  1.00  0.00     0.074 A 
ATOM     43  C   UNL A   1      38.315  30.042  29.157  1.00  0.00     0.031 C 
ATOM     44  C   UNL A   1      37.975  34.579  34.340  1.00  0.00     0.029 A 
ATOM     45  C   UNL A   1      39.024  33.569  34.446  1.00  0.00     0.049 A 
ATOM     46  H   UNL A   1      39.491  32.077  33.070  1.00  0.00     0.167 HD
ATOM     47  C   UNL A   1      40.255  28.887  30.177  1.00  0.00     0.037 A 
ATOM     48  C   UNL A   1      39.882  33.440  35.476  1.00  0.00     0.037 A 
ATOM     49  C   UNL A   1      41.268  28.729  31.187  1.00  0.00     0.049 A 
ATOM     50  C   UNL A   1      40.917  32.350  35.439  1.00  0.00     0.074 A 
ATOM     51  C   UNL A   1      42.307  27.816  31.229  1.00  0.00     0.029 A 
ATOM     52  N   UNL A   1      41.367  29.503  32.334  1.00  0.00    -0.354 N 
ATOM     53  N   UNL A   1      41.135  31.447  34.514  1.00  0.00    -0.248 NA
ATOM     54  C   UNL A   1      41.828  32.263  36.589  1.00  0.00     0.031 C 
ATOM     55  C   UNL A   1      43.011  28.011  32.422  1.00  0.00     0.029 A 
ATOM     56  C   UNL A   1      42.438  29.073  33.101  1.00  0.00     0.049 A 
ATOM     57  H   UNL A   1      40.766  30.247  32.567  1.00  0.00     0.167 HD
ATOM     58  C   UNL A   1      42.224  30.707  34.953  1.00  0.00     0.074 A 
ATOM     59  C   UNL A   1      42.629  31.272  36.223  1.00  0.00     0.031 C 
ATOM     60  C   UNL A   1      42.834  29.653  34.358  1.00  0.00     0.037 A 
BRANCH  47  61
ATOM     61  C   UNL A   1      40.234  27.918  29.032  1.00  0.00     0.057 A 
ATOM     62  C   UNL A   1      40.959  28.147  27.855  1.00  0.00     0.134 A 
ATOM     63  C   UNL A   1      39.507  26.723  29.121  1.00  0.00     0.134 A 
ATOM     64  F   UNL A   1      41.666  29.278  27.702  1.00  0.00    -0.206 F 
ATOM     65  C   UNL A   1      40.942  27.237  26.798  1.00  0.00     0.040 A 
ATOM     66  C   UNL A   1      39.504  25.792  28.080  1.00  0.00     0.040 A 
ATOM     67  F   UNL A   1      38.796  26.438  30.221  1.00  0.00    -0.206 F 
ATOM     68  C   UNL A   1      40.218  26.052  26.912  1.00  0.00     0.006 A 
ENDBRANCH  47  61
BRANCH  48  69
ATOM     69  C   UNL A   1      39.819  34.383  36.621  1.00  0.00     0.057 A 
ATOM     70  C   UNL A   1      40.507  35.602  36.587  1.00  0.00     0.134 A 
ATOM     71  C   UNL A   1      39.085  34.088  37.775  1.00  0.00     0.134 A 
ATOM     72  F   UNL A   1      41.243  35.931  35.515  1.00  0.00    -0.206 F 
ATOM     73  C   UNL A   1      40.486  36.485  37.667  1.00  0.00     0.040 A 
ATOM     74  C   UNL A   1      39.035  34.973  38.854  1.00  0.00     0.040 A 
ATOM     75  F   UNL A   1      38.400  32.939  37.868  1.00  0.00    -0.206 F 
ATOM     76  C   UNL A   1      39.743  36.172  38.804  1.00  0.00     0.006 A 
ENDBRANCH  48  69
BRANCH  60  77
ATOM     77  C   UNL A   1      44.027  29.068  35.055  1.00  0.00     0.057 A 
ATOM     78  C   UNL A   1      45.325  29.535  34.817  1.00  0.00     0.134 A 
ATOM     79  C   UNL A   1      43.867  28.053  36.007  1.00  0.00     0.134 A 
ATOM     80  F   UNL A   1      45.546  30.496  33.908  1.00  0.00    -0.206 F 
ATOM     81  C   UNL A   1      46.426  28.997  35.485  1.00  0.00     0.040 A 
ATOM     82  C   UNL A   1      44.957  27.526  36.700  1.00  0.00     0.040 A 
ATOM     83  F   UNL A   1      42.648  27.568  36.289  1.00  0.00    -0.206 F 
ATOM     84  C   UNL A   1      46.242  27.994  36.436  1.00  0.00     0.006 A 
ENDBRANCH  60  77
ENDBRANCH  34  35
ENDBRANCH  26  29
ENDBRANCH  24  25
ENDBRANCH  23  24
ENDBRANCH   1  23
TORSDOF 13
ENDMDL
MODEL 2
REMARK VINA RESULT:     -11.8      0.625      6.309
REMARK SMILES O=C(C[C@H]1C[N@@H+]([C@@H]2CC(=O)NC2=O)CCO1)NCCCCNC(=O)c1ccc(-c2c3nc(c(-c4c(F)cccc4F)c4ccc([nH]4)c(-c4c(F)cccc4F)c4nc(c(-c5c(F)cccc5F)c5ccc2[nH]5)C=C4)C=C3)cc1
REMARK SMILES IDX 19 1 18 2 17 3 1 4 2 5 3 7 4 8 5 9 16 10 6 11 15 12 14 13
REMARK SMILES IDX 7 15 8 16 12 17 9 18 11 19 13 20 10 21 20 23 21 24 22 25
REMARK SMILES IDX 23 26 24 28 25 29 26 30 78 31 27 32 77 33 28 34 29 35 30 36
REMARK SMILES IDX 71 37 31 38 76 39 70 40 72 41 32 42 75 43 69 44 68 45 33 47
REMARK SMILES IDX 59 48 42 49 58 50 43 51 46 52 57 53 73 54 44 55 45 56 56 58
REMARK SMILES IDX 74 59 47 60 34 61 35 62 40 63 36 64 37 65 39 66 41 67 38 68
REMARK SMILES IDX 60 69 61 70 66 71 62 72 63 73 65 74 67 75 64 76 48 77 49 78
REMARK SMILES IDX 54 79 50 80 51 81 53 82 55 83 52 84
REMARK H PARENT 17 6 6 14 11 22 22 27 72 46 46 57
REMARK Flexibility Score: inf
ROOT
ATOM      1  C   UNL A   1      31.583  30.755  26.041  1.00  0.00     0.023 C 
ENDROOT
BRANCH   1   2
ATOM      2  C   UNL A   1      32.215  29.703  26.953  1.00  0.00     0.116 C 
BRANCH   2   3
ATOM      3  N   UNL A   1      32.899  28.648  26.237  1.00  0.00    -0.356 N 
ATOM      4  O   UNL A   1      31.775  26.936  27.251  1.00  0.00    -0.275 OA
ATOM      5  C   UNL A   1      32.587  27.325  26.418  1.00  0.00     0.222 C 
ATOM      6  H   UNL A   1      33.610  28.888  25.600  1.00  0.00     0.163 HD
BRANCH   5   7
ATOM      7  C   UNL A   1      33.377  26.357  25.574  1.00  0.00     0.138 C 
BRANCH   7   8
ATOM      8  C   UNL A   1      32.623  25.423  24.614  1.00  0.00     0.182 C 
ATOM      9  C   UNL A   1      31.132  25.783  24.399  1.00  0.00     0.295 C 
ATOM     10  O   UNL A   1      33.314  25.104  23.398  1.00  0.00    -0.366 OA
ATOM     11  N   UNL A   1      30.803  26.617  23.248  1.00  0.00    -0.320 N 
ATOM     12  C   UNL A   1      33.047  26.010  22.316  1.00  0.00     0.222 C 
ATOM     13  C   UNL A   1      31.554  26.233  22.058  1.00  0.00     0.291 C 
ATOM     14  H   UNL A   1      29.828  26.366  23.083  1.00  0.00     0.348 HD
BRANCH  11  15
ATOM     15  C   UNL A   1      30.473  28.035  23.416  1.00  0.00     0.284 C 
ATOM     16  C   UNL A   1      29.204  28.577  22.762  1.00  0.00     0.176 C 
ATOM     17  C   UNL A   1      31.571  28.954  22.886  1.00  0.00     0.285 C 
ATOM     18  C   UNL A   1      29.686  29.674  21.858  1.00  0.00     0.233 C 
ATOM     19  N   UNL A   1      31.029  29.787  21.961  1.00  0.00    -0.291 N 
ATOM     20  O   UNL A   1      32.748  28.954  23.207  1.00  0.00    -0.268 OA
ATOM     21  O   UNL A   1      28.982  30.407  21.178  1.00  0.00    -0.274 OA
ATOM     22  H   UNL A   1      31.562  30.412  21.418  1.00  0.00     0.173 HD
ENDBRANCH  11  15
ENDBRANCH   7   8
ENDBRANCH   5   7
ENDBRANCH   2   3
ENDBRANCH   1   2
BRANCH   1  23
ATOM     23  C   UNL A   1      31.324  32.110  26.702  1.00  0.00     0.023 C 
BRANCH  23  24
ATOM     24  C   UNL A   1      32.561  32.830  27.219  1.00  0.00     0.116 C 
BRANCH  24  25
ATOM     25  N   UNL A   1      32.295  34.200  27.626  1.00  0.00    -0.352 N 
ATOM     26  C   UNL A   1      32.945  34.954  28.574  1.00  0.00     0.251 C 
ATOM     27  H   UNL A   1      31.552  34.648  27.161  1.00  0.00     0.163 HD
ATOM     28  O   UNL A   1      32.529  36.067  28.878  1.00  0.00    -0.269 OA
BRANCH  26  29
ATOM     29  C   UNL A   1      34.131  34.396  29.259  1.00  0.00     0.039 A 
ATOM     30  C   UNL A   1      33.946  33.661  30.431  1.00  0.00     0.014 A 
ATOM     31  C   UNL A   1      35.412  34.571  28.729  1.00  0.00     0.014 A 
ATOM     32  C   UNL A   1      35.040  33.045  31.040  1.00  0.00     0.010 A 
ATOM     33  C   UNL A   1      36.491  33.901  29.299  1.00  0.00     0.010 A 
ATOM     34  C   UNL A   1      36.316  33.130  30.459  1.00  0.00    -0.014 A 
BRANCH  34  35
ATOM     35  C   UNL A   1      37.478  32.418  31.047  1.00  0.00     0.031 A 
ATOM     36  C   UNL A   1      38.096  32.909  32.325  1.00  0.00     0.074 A 
ATOM     37  C   UNL A   1      38.015  31.367  30.398  1.00  0.00     0.049 A 
ATOM     38  N   UNL A   1      39.150  32.462  32.960  1.00  0.00    -0.248 NA
ATOM     39  C   UNL A   1      37.462  34.075  32.962  1.00  0.00     0.031 C 
ATOM     40  C   UNL A   1      37.536  30.823  29.125  1.00  0.00     0.029 A 
ATOM     41  N   UNL A   1      39.090  30.575  30.715  1.00  0.00    -0.354 N 
ATOM     42  C   UNL A   1      39.315  33.300  34.056  1.00  0.00     0.074 A 
ATOM     43  C   UNL A   1      38.282  34.311  33.975  1.00  0.00     0.031 C 
ATOM     44  C   UNL A   1      38.299  29.771  28.783  1.00  0.00     0.029 A 
ATOM     45  C   UNL A   1      39.340  29.590  29.791  1.00  0.00     0.049 A 
ATOM     46  H   UNL A   1      39.631  30.700  31.528  1.00  0.00     0.167 HD
ATOM     47  C   UNL A   1      40.229  33.221  35.052  1.00  0.00     0.037 A 
ATOM     48  C   UNL A   1      40.302  28.648  29.758  1.00  0.00     0.037 A 
ATOM     49  C   UNL A   1      41.235  32.196  35.147  1.00  0.00     0.049 A 
ATOM     50  C   UNL A   1      41.305  28.581  30.876  1.00  0.00     0.074 A 
ATOM     51  C   UNL A   1      42.162  31.990  36.154  1.00  0.00     0.029 A 
ATOM     52  N   UNL A   1      41.445  31.205  34.200  1.00  0.00    -0.354 N 
ATOM     53  N   UNL A   1      41.405  29.336  31.943  1.00  0.00    -0.248 NA
ATOM     54  C   UNL A   1      42.326  27.529  30.788  1.00  0.00     0.031 C 
ATOM     55  C   UNL A   1      42.961  30.898  35.796  1.00  0.00     0.029 A 
ATOM     56  C   UNL A   1      42.502  30.398  34.589  1.00  0.00     0.049 A 
ATOM     57  H   UNL A   1      40.920  31.092  33.375  1.00  0.00     0.167 HD
ATOM     58  C   UNL A   1      42.478  28.833  32.666  1.00  0.00     0.074 A 
ATOM     59  C   UNL A   1      42.989  27.701  31.923  1.00  0.00     0.031 C 
ATOM     60  C   UNL A   1      42.993  29.269  33.842  1.00  0.00     0.037 A 
BRANCH  47  61
ATOM     61  C   UNL A   1      40.180  34.271  36.122  1.00  0.00     0.057 A 
ATOM     62  C   UNL A   1      40.888  35.475  36.009  1.00  0.00     0.134 A 
ATOM     63  C   UNL A   1      39.388  34.093  37.263  1.00  0.00     0.134 A 
ATOM     64  F   UNL A   1      41.675  35.704  34.946  1.00  0.00    -0.206 F 
ATOM     65  C   UNL A   1      40.831  36.453  37.003  1.00  0.00     0.040 A 
ATOM     66  C   UNL A   1      39.302  35.075  38.253  1.00  0.00     0.040 A 
ATOM     67  F   UNL A   1      38.680  32.966  37.432  1.00  0.00    -0.206 F 
ATOM     68  C   UNL A   1      40.030  36.256  38.126  1.00  0.00     0.006 A 
ENDBRANCH  47  61
BRANCH  48  69
ATOM     69  C   UNL A   1      40.351  27.671  28.641  1.00  0.00     0.057 A 
ATOM     70  C   UNL A   1      39.649  26.462  28.711  1.00  0.00     0.134 A 
ATOM     71  C   UNL A   1      41.105  27.913  27.487  1.00  0.00     0.134 A 
ATOM     72  F   UNL A   1      38.925  26.165  29.801  1.00  0.00    -0.206 F 
ATOM     73  C   UNL A   1      39.711  25.518  27.685  1.00  0.00     0.040 A 
ATOM     74  C   UNL A   1      41.156  26.989  26.442  1.00  0.00     0.040 A 
ATOM     75  F   UNL A   1      41.795  29.055  27.355  1.00  0.00    -0.206 F 
ATOM     76  C   UNL A   1      40.463  25.784  26.543  1.00  0.00     0.006 A 
ENDBRANCH  48  69
BRANCH  60  77
ATOM     77  C   UNL A   1      44.144  28.497  34.414  1.00  0.00     0.057 A 
ATOM     78  C   UNL A   1      45.473  28.861  34.168  1.00  0.00     0.134 A 
ATOM     79  C   UNL A   1      43.918  27.399  35.255  1.00  0.00     0.134 A 
ATOM     80  F   UNL A   1      45.757  29.894  33.361  1.00  0.00    -0.206 F 
ATOM     81  C   UNL A   1      46.539  28.147  34.721  1.00  0.00     0.040 A 
ATOM     82  C   UNL A   1      44.974  26.695  35.834  1.00  0.00     0.040 A 
ATOM     83  F   UNL A   1      42.667  27.004  35.537  1.00  0.00    -0.206 F 
ATOM     84  C   UNL A   1      46.288  27.065  35.563  1.00  0.00     0.006 A 
ENDBRANCH  60  77
ENDBRANCH  34  35
ENDBRANCH  26  29
ENDBRANCH  24  25
ENDBRANCH  23  24
ENDBRANCH   1  23
TORSDOF 13
ENDMDL
MODEL 3
REMARK VINA RESULT:     -11.7      5.756     10.102
REMARK SMILES O=C(C[C@H]1C[N@@H+]([C@@H]2CC(=O)NC2=O)CCO1)NCCCCNC(=O)c1ccc(-c2c3nc(c(-c4c(F)cccc4F)c4ccc([nH]4)c(-c4c(F)cccc4F)c4nc(c(-c5c(F)cccc5F)c5ccc2[nH]5)C=C4)C=C3)cc1
REMARK SMILES IDX 19 1 18 2 17 3 1 4 2 5 3 7 4 8 5 9 16 10 6 11 15 12 14 13
REMARK SMILES IDX 7 15 8 16 12 17 9 18 11 19 13 20 10 21 20 23 21 24 22 25
REMARK SMILES IDX 23 26 24 28 25 29 26 30 78 31 27 32 77 33 28 34 29 35 30 36
REMARK SMILES IDX 71 37 31 38 76 39 70 40 72 41 32 42 75 43 69 44 68 45 33 47
REMARK SMILES IDX 59 48 42 49 58 50 43 51 46 52 57 53 73 54 44 55 45 56 56 58
REMARK SMILES IDX 74 59 47 60 34 61 35 62 40 63 36 64 37 65 39 66 41 67 38 68
REMARK SMILES IDX 60 69 61 70 66 71 62 72 63 73 65 74 67 75 64 76 48 77 49 78
REMARK SMILES IDX 54 79 50 80 51 81 53 82 55 83 52 84
REMARK H PARENT 17 6 6 14 11 22 22 27 72 46 46 57
REMARK Flexibility Score: inf
ROOT
ATOM      1  C   UNL A   1      37.045  20.385  24.994  1.00  0.00     0.023 C 
ENDROOT
BRANCH   1   2
ATOM      2  C   UNL A   1      37.433  21.854  25.171  1.00  0.00     0.116 C 
BRANCH   2   3
ATOM      3  N   UNL A   1      36.330  22.772  24.992  1.00  0.00    -0.356 N 
ATOM      4  O   UNL A   1      36.565  22.955  22.727  1.00  0.00    -0.275 OA
ATOM      5  C   UNL A   1      35.951  23.224  23.754  1.00  0.00     0.222 C 
ATOM      6  H   UNL A   1      35.835  23.082  25.786  1.00  0.00     0.163 HD
BRANCH   5   7
ATOM      7  C   UNL A   1      34.765  24.155  23.744  1.00  0.00     0.138 C 
BRANCH   7   8
ATOM      8  C   UNL A   1      33.602  23.864  22.784  1.00  0.00     0.182 C 
ATOM      9  C   UNL A   1      32.952  22.468  22.959  1.00  0.00     0.295 C 
ATOM     10  O   UNL A   1      32.645  24.923  22.638  1.00  0.00    -0.366 OA
ATOM     11  N   UNL A   1      31.775  22.380  23.816  1.00  0.00    -0.320 N 
ATOM     12  C   UNL A   1      31.554  24.863  23.569  1.00  0.00     0.222 C 
ATOM     13  C   UNL A   1      30.861  23.497  23.611  1.00  0.00     0.291 C 
ATOM     14  H   UNL A   1      31.316  21.544  23.451  1.00  0.00     0.348 HD
BRANCH  11  15
ATOM     15  C   UNL A   1      31.866  21.814  25.165  1.00  0.00     0.284 C 
ATOM     16  C   UNL A   1      32.705  22.543  26.213  1.00  0.00     0.176 C 
ATOM     17  C   UNL A   1      32.441  20.400  25.165  1.00  0.00     0.285 C 
ATOM     18  C   UNL A   1      33.728  21.534  26.643  1.00  0.00     0.233 C 
ATOM     19  N   UNL A   1      33.530  20.376  25.975  1.00  0.00    -0.291 N 
ATOM     20  O   UNL A   1      32.024  19.438  24.542  1.00  0.00    -0.268 OA
ATOM     21  O   UNL A   1      34.575  21.693  27.511  1.00  0.00    -0.274 OA
ATOM     22  H   UNL A   1      34.119  19.592  26.066  1.00  0.00     0.173 HD
ENDBRANCH  11  15
ENDBRANCH   7   8
ENDBRANCH   5   7
ENDBRANCH   2   3
ENDBRANCH   1   2
BRANCH   1  23
ATOM     23  C   UNL A   1      38.218  19.404  24.993  1.00  0.00     0.023 C 
BRANCH  23  24
ATOM     24  C   UNL A   1      39.451  19.862  25.758  1.00  0.00     0.116 C 
BRANCH  24  25
ATOM     25  N   UNL A   1      40.490  18.846  25.826  1.00  0.00    -0.352 N 
ATOM     26  C   UNL A   1      41.828  19.006  26.096  1.00  0.00     0.251 C 
ATOM     27  H   UNL A   1      40.196  17.921  25.657  1.00  0.00     0.163 HD
ATOM     28  O   UNL A   1      42.599  18.055  26.011  1.00  0.00    -0.269 OA
BRANCH  26  29
ATOM     29  C   UNL A   1      42.343  20.346  26.451  1.00  0.00     0.039 A 
ATOM     30  C   UNL A   1      42.905  21.138  25.449  1.00  0.00     0.014 A 
ATOM     31  C   UNL A   1      42.242  20.827  27.760  1.00  0.00     0.014 A 
ATOM     32  C   UNL A   1      43.308  22.441  25.743  1.00  0.00     0.010 A 
ATOM     33  C   UNL A   1      42.582  22.149  28.036  1.00  0.00     0.010 A 
ATOM     34  C   UNL A   1      43.117  22.969  27.030  1.00  0.00    -0.014 A 
BRANCH  34  35
ATOM     35  C   UNL A   1      43.468  24.377  27.343  1.00  0.00     0.031 A 
ATOM     36  C   UNL A   1      44.898  24.831  27.280  1.00  0.00     0.074 A 
ATOM     37  C   UNL A   1      42.506  25.230  27.745  1.00  0.00     0.049 A 
ATOM     38  N   UNL A   1      45.410  25.998  27.578  1.00  0.00    -0.248 NA
ATOM     39  C   UNL A   1      45.892  23.832  26.853  1.00  0.00     0.031 C 
ATOM     40  C   UNL A   1      41.087  24.899  27.892  1.00  0.00     0.029 A 
ATOM     41  N   UNL A   1      42.579  26.551  28.114  1.00  0.00    -0.354 N 
ATOM     42  C   UNL A   1      46.780  25.869  27.391  1.00  0.00     0.074 A 
ATOM     43  C   UNL A   1      47.027  24.498  27.001  1.00  0.00     0.031 C 
ATOM     44  C   UNL A   1      40.420  25.993  28.296  1.00  0.00     0.029 A 
ATOM     45  C   UNL A   1      41.367  27.091  28.471  1.00  0.00     0.049 A 
ATOM     46  H   UNL A   1      43.420  27.062  28.121  1.00  0.00     0.167 HD
ATOM     47  C   UNL A   1      47.744  26.814  27.511  1.00  0.00     0.037 A 
ATOM     48  C   UNL A   1      41.056  28.331  28.894  1.00  0.00     0.037 A 
ATOM     49  C   UNL A   1      47.492  28.185  27.868  1.00  0.00     0.049 A 
ATOM     50  C   UNL A   1      42.144  29.361  29.018  1.00  0.00     0.074 A 
ATOM     51  C   UNL A   1      48.393  29.233  27.948  1.00  0.00     0.029 A 
ATOM     52  N   UNL A   1      46.249  28.698  28.205  1.00  0.00    -0.354 N 
ATOM     53  N   UNL A   1      43.425  29.244  28.769  1.00  0.00    -0.248 NA
ATOM     54  C   UNL A   1      41.741  30.697  29.479  1.00  0.00     0.031 C 
ATOM     55  C   UNL A   1      47.700  30.372  28.374  1.00  0.00     0.029 A 
ATOM     56  C   UNL A   1      46.363  30.043  28.516  1.00  0.00     0.049 A 
ATOM     57  H   UNL A   1      45.410  28.183  28.221  1.00  0.00     0.167 HD
ATOM     58  C   UNL A   1      43.976  30.495  29.013  1.00  0.00     0.074 A 
ATOM     59  C   UNL A   1      42.888  31.359  29.418  1.00  0.00     0.031 C 
ATOM     60  C   UNL A   1      45.267  30.893  28.908  1.00  0.00     0.037 A 
BRANCH  47  61
ATOM     61  C   UNL A   1      49.160  26.395  27.249  1.00  0.00     0.057 A 
ATOM     62  C   UNL A   1      49.713  26.420  25.962  1.00  0.00     0.134 A 
ATOM     63  C   UNL A   1      49.993  25.993  28.302  1.00  0.00     0.134 A 
ATOM     64  F   UNL A   1      48.965  26.783  24.908  1.00  0.00    -0.206 F 
ATOM     65  C   UNL A   1      51.034  26.038  25.726  1.00  0.00     0.040 A 
ATOM     66  C   UNL A   1      51.324  25.633  28.082  1.00  0.00     0.040 A 
ATOM     67  F   UNL A   1      49.529  25.951  29.560  1.00  0.00    -0.206 F 
ATOM     68  C   UNL A   1      51.846  25.649  26.790  1.00  0.00     0.006 A 
ENDBRANCH  47  61
BRANCH  48  69
ATOM     69  C   UNL A   1      39.647  28.679  29.207  1.00  0.00     0.057 A 
ATOM     70  C   UNL A   1      39.125  28.479  30.491  1.00  0.00     0.134 A 
ATOM     71  C   UNL A   1      38.787  29.205  28.236  1.00  0.00     0.134 A 
ATOM     72  F   UNL A   1      39.895  27.960  31.459  1.00  0.00    -0.206 F 
ATOM     73  C   UNL A   1      37.794  28.769  30.794  1.00  0.00     0.040 A 
ATOM     74  C   UNL A   1      37.460  29.523  28.531  1.00  0.00     0.040 A 
ATOM     75  F   UNL A   1      39.228  29.425  26.989  1.00  0.00    -0.206 F 
ATOM     76  C   UNL A   1      36.959  29.298  29.811  1.00  0.00     0.006 A 
ENDBRANCH  48  69
BRANCH  60  77
ATOM     77  C   UNL A   1      45.567  32.333  29.202  1.00  0.00     0.057 A 
ATOM     78  C   UNL A   1      45.488  33.321  28.214  1.00  0.00     0.134 A 
ATOM     79  C   UNL A   1      45.899  32.740  30.501  1.00  0.00     0.134 A 
ATOM     80  F   UNL A   1      45.188  32.994  26.948  1.00  0.00    -0.206 F 
ATOM     81  C   UNL A   1      45.751  34.662  28.502  1.00  0.00     0.040 A 
ATOM     82  C   UNL A   1      46.137  34.080  30.806  1.00  0.00     0.040 A 
ATOM     83  F   UNL A   1      45.982  31.843  31.496  1.00  0.00    -0.206 F 
ATOM     84  C   UNL A   1      46.069  35.044  29.804  1.00  0.00     0.006 A 
ENDBRANCH  60  77
ENDBRANCH  34  35
ENDBRANCH  26  29
ENDBRANCH  24  25
ENDBRANCH  23  24
ENDBRANCH   1  23
TORSDOF 13
ENDMDL
