MODEL 1
REMARK VINA RESULT:     -11.3      0.000      0.000
REMARK SMILES CC[C@@](C)([NH3+])C(=O)N1CC[NH+]([C@H](C)C(=O)NCCCCNC(=O)c2ccc(-c3c4nc(c(-c5c(F)cccc5F)c5ccc([nH]5)c(-c5c(F)cccc5F)c5nc(c(-c6c(F)cccc6F)c6ccc3[nH]6)C=C5)C=C4)cc2)CC1
REMARK SMILES IDX 18 1 17 2 16 3 14 4 15 5 12 7 13 8 11 9 6 10 7 11 8 12 9 13
REMARK SMILES IDX 79 14 10 15 78 16 3 18 4 19 2 20 1 21 5 22 19 26 20 27 21 28
REMARK SMILES IDX 22 29 23 31 24 32 25 33 77 34 26 35 76 36 27 37 28 38 29 39
REMARK SMILES IDX 70 40 30 41 75 42 69 43 71 44 31 45 74 46 68 47 67 48 32 50
REMARK SMILES IDX 58 51 41 52 57 53 42 54 45 55 56 56 72 57 43 58 44 59 55 61
REMARK SMILES IDX 73 62 46 63 33 64 34 65 39 66 35 67 36 68 38 69 40 70 37 71
REMARK SMILES IDX 59 72 60 73 65 74 61 75 62 76 64 77 66 78 63 79 47 80 48 81
REMARK SMILES IDX 53 82 49 83 50 84 52 85 54 86 51 87
REMARK H PARENT 16 6 11 17 5 23 5 24 5 25 21 30 71 49 45 60
REMARK Flexibility Score: inf
ROOT
ATOM      1  C   UNL A   1      37.080  21.037  24.691  1.00  0.00     0.023 C 
ENDROOT
BRANCH   1   2
ATOM      2  C   UNL A   1      35.591  20.777  24.873  1.00  0.00     0.116 C 
BRANCH   2   3
ATOM      3  N   UNL A   1      35.095  21.073  26.201  1.00  0.00    -0.351 N 
ATOM      4  C   UNL A   1      34.456  22.184  26.681  1.00  0.00     0.278 C 
ATOM      5  O   UNL A   1      33.929  22.075  27.795  1.00  0.00    -0.268 OA
ATOM      6  H   UNL A   1      35.242  20.362  26.865  1.00  0.00     0.163 HD
BRANCH   4   7
ATOM      7  C   UNL A   1      34.399  23.526  25.905  1.00  0.00     0.271 C 
ATOM      8  C   UNL A   1      35.776  24.186  25.751  1.00  0.00     0.086 C 
BRANCH   7   9
ATOM      9  N   UNL A   1      33.502  23.501  24.709  1.00  0.00    -0.322 N 
ATOM     10  C   UNL A   1      30.962  25.987  22.703  1.00  0.00     0.283 C 
ATOM     11  O   UNL A   1      31.279  26.546  21.643  1.00  0.00    -0.268 OA
ATOM     12  N   UNL A   1      31.531  24.757  22.996  1.00  0.00    -0.326 N 
ATOM     13  C   UNL A   1      32.854  24.468  22.459  1.00  0.00     0.181 C 
ATOM     14  C   UNL A   1      31.087  23.703  23.903  1.00  0.00     0.181 C 
ATOM     15  C   UNL A   1      33.841  24.460  23.643  1.00  0.00     0.284 C 
ATOM     16  C   UNL A   1      32.068  23.541  25.083  1.00  0.00     0.284 C 
ATOM     17  H   UNL A   1      33.683  22.593  24.281  1.00  0.00     0.348 HD
BRANCH  10  18
ATOM     18  C   UNL A   1      30.133  26.793  23.777  1.00  0.00     0.171 C 
ATOM     19  C   UNL A   1      31.036  27.075  24.989  1.00  0.00     0.090 C 
BRANCH  18  20
ATOM     20  C   UNL A   1      29.612  28.132  23.167  1.00  0.00     0.075 C 
ATOM     21  C   UNL A   1      28.094  28.320  23.126  1.00  0.00     0.011 C 
ENDBRANCH  18  20
BRANCH  18  22
ATOM     22  N   UNL A   1      28.935  26.044  24.228  1.00  0.00    -0.345 N 
ATOM     23  H   UNL A   1      29.128  25.043  24.196  1.00  0.00     0.345 HD
ATOM     24  H   UNL A   1      28.149  26.257  23.613  1.00  0.00     0.345 HD
ATOM     25  H   UNL A   1      28.704  26.315  25.183  1.00  0.00     0.345 HD
ENDBRANCH  18  22
ENDBRANCH  10  18
ENDBRANCH   7   9
ENDBRANCH   4   7
ENDBRANCH   2   3
ENDBRANCH   1   2
BRANCH   1  26
ATOM     26  C   UNL A   1      37.992  19.852  25.002  1.00  0.00     0.023 C 
BRANCH  26  27
ATOM     27  C   UNL A   1      39.218  20.163  25.855  1.00  0.00     0.116 C 
BRANCH  27  28
ATOM     28  N   UNL A   1      40.211  19.098  25.861  1.00  0.00    -0.352 N 
ATOM     29  C   UNL A   1      41.570  19.164  26.069  1.00  0.00     0.251 C 
ATOM     30  H   UNL A   1      39.856  18.195  25.690  1.00  0.00     0.163 HD
ATOM     31  O   UNL A   1      42.265  18.165  25.932  1.00  0.00    -0.269 OA
BRANCH  29  32
ATOM     32  C   UNL A   1      42.194  20.459  26.407  1.00  0.00     0.039 A 
ATOM     33  C   UNL A   1      42.666  21.269  25.372  1.00  0.00     0.014 A 
ATOM     34  C   UNL A   1      42.269  20.893  27.733  1.00  0.00     0.014 A 
ATOM     35  C   UNL A   1      43.119  22.559  25.658  1.00  0.00     0.010 A 
ATOM     36  C   UNL A   1      42.640  22.205  28.006  1.00  0.00     0.010 A 
ATOM     37  C   UNL A   1      43.059  23.055  26.971  1.00  0.00    -0.014 A 
BRANCH  37  38
ATOM     38  C   UNL A   1      43.411  24.464  27.281  1.00  0.00     0.031 A 
ATOM     39  C   UNL A   1      44.842  24.918  27.211  1.00  0.00     0.074 A 
ATOM     40  C   UNL A   1      42.453  25.313  27.702  1.00  0.00     0.049 A 
ATOM     41  N   UNL A   1      45.358  26.077  27.531  1.00  0.00    -0.248 NA
ATOM     42  C   UNL A   1      45.827  23.927  26.751  1.00  0.00     0.031 C 
ATOM     43  C   UNL A   1      41.036  24.983  27.864  1.00  0.00     0.029 A 
ATOM     44  N   UNL A   1      42.530  26.630  28.082  1.00  0.00    -0.354 N 
ATOM     45  C   UNL A   1      46.726  25.950  27.327  1.00  0.00     0.074 A 
ATOM     46  C   UNL A   1      46.965  24.586  26.910  1.00  0.00     0.031 C 
ATOM     47  C   UNL A   1      40.374  26.073  28.285  1.00  0.00     0.029 A 
ATOM     48  C   UNL A   1      41.323  27.168  28.459  1.00  0.00     0.049 A 
ATOM     49  H   UNL A   1      43.372  27.142  28.084  1.00  0.00     0.167 HD
ATOM     50  C   UNL A   1      47.691  26.890  27.452  1.00  0.00     0.037 A 
ATOM     51  C   UNL A   1      41.017  28.403  28.901  1.00  0.00     0.037 A 
ATOM     52  C   UNL A   1      47.448  28.255  27.838  1.00  0.00     0.049 A 
ATOM     53  C   UNL A   1      42.108  29.429  29.027  1.00  0.00     0.074 A 
ATOM     54  C   UNL A   1      48.354  29.297  27.936  1.00  0.00     0.029 A 
ATOM     55  N   UNL A   1      46.208  28.767  28.186  1.00  0.00    -0.354 N 
ATOM     56  N   UNL A   1      43.388  29.312  28.771  1.00  0.00    -0.248 NA
ATOM     57  C   UNL A   1      41.710  30.763  29.501  1.00  0.00     0.031 C 
ATOM     58  C   UNL A   1      47.666  30.432  28.377  1.00  0.00     0.029 A 
ATOM     59  C   UNL A   1      46.326  30.106  28.515  1.00  0.00     0.049 A 
ATOM     60  H   UNL A   1      45.368  28.253  28.200  1.00  0.00     0.167 HD
ATOM     61  C   UNL A   1      43.943  30.560  29.023  1.00  0.00     0.074 A 
ATOM     62  C   UNL A   1      42.858  31.423  29.442  1.00  0.00     0.031 C 
ATOM     63  C   UNL A   1      45.235  30.955  28.919  1.00  0.00     0.037 A 
BRANCH  50  64
ATOM     64  C   UNL A   1      49.102  26.471  27.157  1.00  0.00     0.057 A 
ATOM     65  C   UNL A   1      49.952  25.991  28.161  1.00  0.00     0.134 A 
ATOM     66  C   UNL A   1      49.608  26.527  25.853  1.00  0.00     0.134 A 
ATOM     67  F   UNL A   1      49.532  25.926  29.434  1.00  0.00    -0.206 F 
ATOM     68  C   UNL A   1      51.265  25.605  27.885  1.00  0.00     0.040 A 
ATOM     69  C   UNL A   1      50.910  26.119  25.559  1.00  0.00     0.040 A 
ATOM     70  F   UNL A   1      48.845  26.972  24.843  1.00  0.00    -0.206 F 
ATOM     71  C   UNL A   1      51.745  25.663  26.578  1.00  0.00     0.006 A 
ENDBRANCH  50  64
BRANCH  51  72
ATOM     72  C   UNL A   1      39.612  28.750  29.229  1.00  0.00     0.057 A 
ATOM     73  C   UNL A   1      39.103  28.548  30.517  1.00  0.00     0.134 A 
ATOM     74  C   UNL A   1      38.743  29.277  28.267  1.00  0.00     0.134 A 
ATOM     75  F   UNL A   1      39.884  28.028  31.475  1.00  0.00    -0.206 F 
ATOM     76  C   UNL A   1      37.775  28.838  30.834  1.00  0.00     0.040 A 
ATOM     77  C   UNL A   1      37.418  29.593  28.575  1.00  0.00     0.040 A 
ATOM     78  F   UNL A   1      39.171  29.501  27.016  1.00  0.00    -0.206 F 
ATOM     79  C   UNL A   1      36.929  29.366  29.861  1.00  0.00     0.006 A 
ENDBRANCH  51  72
BRANCH  63  80
ATOM     80  C   UNL A   1      45.540  32.390  29.226  1.00  0.00     0.057 A 
ATOM     81  C   UNL A   1      45.415  33.395  28.260  1.00  0.00     0.134 A 
ATOM     82  C   UNL A   1      45.927  32.774  30.516  1.00  0.00     0.134 A 
ATOM     83  F   UNL A   1      45.062  33.090  27.002  1.00  0.00    -0.206 F 
ATOM     84  C   UNL A   1      45.683  34.732  28.561  1.00  0.00     0.040 A 
ATOM     85  C   UNL A   1      46.173  34.110  30.836  1.00  0.00     0.040 A 
ATOM     86  F   UNL A   1      46.057  31.860  31.489  1.00  0.00    -0.206 F 
ATOM     87  C   UNL A   1      46.057  35.092  29.855  1.00  0.00     0.006 A 
ENDBRANCH  63  80
ENDBRANCH  37  38
ENDBRANCH  29  32
ENDBRANCH  27  28
ENDBRANCH  26  27
ENDBRANCH   1  26
TORSDOF 15
ENDMDL
MODEL 2
REMARK VINA RESULT:     -11.3      0.310      1.657
REMARK SMILES CC[C@@](C)([NH3+])C(=O)N1CC[NH+]([C@H](C)C(=O)NCCCCNC(=O)c2ccc(-c3c4nc(c(-c5c(F)cccc5F)c5ccc([nH]5)c(-c5c(F)cccc5F)c5nc(c(-c6c(F)cccc6F)c6ccc3[nH]6)C=C5)C=C4)cc2)CC1
REMARK SMILES IDX 18 1 17 2 16 3 14 4 15 5 12 7 13 8 11 9 6 10 7 11 8 12 9 13
REMARK SMILES IDX 79 14 10 15 78 16 3 18 4 19 2 20 1 21 5 22 19 26 20 27 21 28
REMARK SMILES IDX 22 29 23 31 24 32 25 33 77 34 26 35 76 36 27 37 28 38 29 39
REMARK SMILES IDX 70 40 30 41 75 42 69 43 71 44 31 45 74 46 68 47 67 48 32 50
REMARK SMILES IDX 58 51 41 52 57 53 42 54 45 55 56 56 72 57 43 58 44 59 55 61
REMARK SMILES IDX 73 62 46 63 33 64 34 65 39 66 35 67 36 68 38 69 40 70 37 71
REMARK SMILES IDX 59 72 60 73 65 74 61 75 62 76 64 77 66 78 63 79 47 80 48 81
REMARK SMILES IDX 53 82 49 83 50 84 52 85 54 86 51 87
REMARK H PARENT 16 6 11 17 5 23 5 24 5 25 21 30 71 49 45 60
REMARK Flexibility Score: inf
ROOT
ATOM      1  C   UNL A   1      36.790  20.999  24.775  1.00  0.00     0.023 C 
ENDROOT
BRANCH   1   2
ATOM      2  C   UNL A   1      35.326  20.644  24.999  1.00  0.00     0.116 C 
BRANCH   2   3
ATOM      3  N   UNL A   1      34.830  20.980  26.318  1.00  0.00    -0.351 N 
ATOM      4  C   UNL A   1      34.258  22.134  26.783  1.00  0.00     0.278 C 
ATOM      5  O   UNL A   1      33.707  22.066  27.888  1.00  0.00    -0.268 OA
ATOM      6  H   UNL A   1      34.920  20.265  26.988  1.00  0.00     0.163 HD
BRANCH   4   7
ATOM      7  C   UNL A   1      34.301  23.472  25.999  1.00  0.00     0.271 C 
ATOM      8  C   UNL A   1      35.713  24.066  25.909  1.00  0.00     0.086 C 
BRANCH   7   9
ATOM      9  N   UNL A   1      33.464  23.480  24.761  1.00  0.00    -0.322 N 
ATOM     10  C   UNL A   1      30.975  26.003  22.736  1.00  0.00     0.283 C 
ATOM     11  O   UNL A   1      31.332  26.611  21.716  1.00  0.00    -0.268 OA
ATOM     12  N   UNL A   1      31.553  24.772  23.006  1.00  0.00    -0.326 N 
ATOM     13  C   UNL A   1      32.906  24.528  22.523  1.00  0.00     0.181 C 
ATOM     14  C   UNL A   1      31.087  23.674  23.847  1.00  0.00     0.181 C 
ATOM     15  C   UNL A   1      33.835  24.488  23.752  1.00  0.00     0.284 C 
ATOM     16  C   UNL A   1      32.013  23.480  25.066  1.00  0.00     0.284 C 
ATOM     17  H   UNL A   1      33.682  22.594  24.306  1.00  0.00     0.348 HD
BRANCH  10  18
ATOM     18  C   UNL A   1      30.080  26.750  23.800  1.00  0.00     0.171 C 
ATOM     19  C   UNL A   1      30.858  26.840  25.123  1.00  0.00     0.090 C 
BRANCH  18  20
ATOM     20  C   UNL A   1      29.710  28.178  23.290  1.00  0.00     0.075 C 
ATOM     21  C   UNL A   1      30.547  29.337  23.836  1.00  0.00     0.011 C 
ENDBRANCH  18  20
BRANCH  18  22
ATOM     22  N   UNL A   1      28.798  26.044  24.037  1.00  0.00    -0.345 N 
ATOM     23  H   UNL A   1      28.917  25.049  23.848  1.00  0.00     0.345 HD
ATOM     24  H   UNL A   1      28.081  26.423  23.419  1.00  0.00     0.345 HD
ATOM     25  H   UNL A   1      28.513  26.173  25.008  1.00  0.00     0.345 HD
ENDBRANCH  18  22
ENDBRANCH  10  18
ENDBRANCH   7   9
ENDBRANCH   4   7
ENDBRANCH   2   3
ENDBRANCH   1   2
BRANCH   1  26
ATOM     26  C   UNL A   1      37.780  19.859  25.000  1.00  0.00     0.023 C 
BRANCH  26  27
ATOM     27  C   UNL A   1      39.054  20.224  25.757  1.00  0.00     0.116 C 
BRANCH  27  28
ATOM     28  N   UNL A   1      40.038  19.151  25.797  1.00  0.00    -0.352 N 
ATOM     29  C   UNL A   1      41.390  19.207  26.043  1.00  0.00     0.251 C 
ATOM     30  H   UNL A   1      39.681  18.250  25.620  1.00  0.00     0.163 HD
ATOM     31  O   UNL A   1      42.081  18.203  25.931  1.00  0.00    -0.269 OA
BRANCH  29  32
ATOM     32  C   UNL A   1      42.015  20.500  26.394  1.00  0.00     0.039 A 
ATOM     33  C   UNL A   1      42.450  21.337  25.364  1.00  0.00     0.014 A 
ATOM     34  C   UNL A   1      42.125  20.903  27.727  1.00  0.00     0.014 A 
ATOM     35  C   UNL A   1      42.902  22.623  25.666  1.00  0.00     0.010 A 
ATOM     36  C   UNL A   1      42.495  22.212  28.019  1.00  0.00     0.010 A 
ATOM     37  C   UNL A   1      42.877  23.089  26.991  1.00  0.00    -0.014 A 
BRANCH  37  38
ATOM     38  C   UNL A   1      43.227  24.494  27.324  1.00  0.00     0.031 A 
ATOM     39  C   UNL A   1      44.663  24.936  27.314  1.00  0.00     0.074 A 
ATOM     40  C   UNL A   1      42.259  25.348  27.711  1.00  0.00     0.049 A 
ATOM     41  N   UNL A   1      45.175  26.089  27.661  1.00  0.00    -0.248 NA
ATOM     42  C   UNL A   1      45.658  23.940  26.888  1.00  0.00     0.031 C 
ATOM     43  C   UNL A   1      40.835  25.029  27.814  1.00  0.00     0.029 A 
ATOM     44  N   UNL A   1      42.333  26.662  28.102  1.00  0.00    -0.354 N 
ATOM     45  C   UNL A   1      46.549  25.951  27.511  1.00  0.00     0.074 A 
ATOM     46  C   UNL A   1      46.795  24.587  27.096  1.00  0.00     0.031 C 
ATOM     47  C   UNL A   1      40.165  26.122  28.215  1.00  0.00     0.029 A 
ATOM     48  C   UNL A   1      41.115  27.208  28.433  1.00  0.00     0.049 A 
ATOM     49  H   UNL A   1      43.177  27.167  28.140  1.00  0.00     0.167 HD
ATOM     50  C   UNL A   1      47.516  26.883  27.681  1.00  0.00     0.037 A 
ATOM     51  C   UNL A   1      40.802  28.443  28.869  1.00  0.00     0.037 A 
ATOM     52  C   UNL A   1      47.269  28.247  28.064  1.00  0.00     0.049 A 
ATOM     53  C   UNL A   1      41.895  29.460  29.045  1.00  0.00     0.074 A 
ATOM     54  C   UNL A   1      48.178  29.281  28.205  1.00  0.00     0.029 A 
ATOM     55  N   UNL A   1      46.020  28.768  28.366  1.00  0.00    -0.354 N 
ATOM     56  N   UNL A   1      43.183  29.333  28.840  1.00  0.00    -0.248 NA
ATOM     57  C   UNL A   1      41.489  30.794  29.510  1.00  0.00     0.031 C 
ATOM     58  C   UNL A   1      47.482  30.420  28.625  1.00  0.00     0.029 A 
ATOM     59  C   UNL A   1      46.136  30.105  28.707  1.00  0.00     0.049 A 
ATOM     60  H   UNL A   1      45.176  28.261  28.342  1.00  0.00     0.167 HD
ATOM     61  C   UNL A   1      43.737  30.575  29.122  1.00  0.00     0.074 A 
ATOM     62  C   UNL A   1      42.643  31.445  29.502  1.00  0.00     0.031 C 
ATOM     63  C   UNL A   1      45.036  30.960  29.071  1.00  0.00     0.037 A 
BRANCH  50  64
ATOM     64  C   UNL A   1      48.934  26.454  27.440  1.00  0.00     0.057 A 
ATOM     65  C   UNL A   1      49.514  26.512  26.165  1.00  0.00     0.134 A 
ATOM     66  C   UNL A   1      49.736  26.001  28.494  1.00  0.00     0.134 A 
ATOM     67  F   UNL A   1      48.795  26.924  25.109  1.00  0.00    -0.206 F 
ATOM     68  C   UNL A   1      50.832  26.110  25.943  1.00  0.00     0.040 A 
ATOM     69  C   UNL A   1      51.063  25.621  28.289  1.00  0.00     0.040 A 
ATOM     70  F   UNL A   1      49.245  25.925  29.740  1.00  0.00    -0.206 F 
ATOM     71  C   UNL A   1      51.612  25.669  27.008  1.00  0.00     0.006 A 
ENDBRANCH  50  64
BRANCH  51  72
ATOM     72  C   UNL A   1      39.387  28.800  29.143  1.00  0.00     0.057 A 
ATOM     73  C   UNL A   1      38.578  29.352  28.143  1.00  0.00     0.134 A 
ATOM     74  C   UNL A   1      38.815  28.612  30.406  1.00  0.00     0.134 A 
ATOM     75  F   UNL A   1      39.079  29.573  26.918  1.00  0.00    -0.206 F 
ATOM     76  C   UNL A   1      37.257  29.724  28.392  1.00  0.00     0.040 A 
ATOM     77  C   UNL A   1      37.487  28.958  30.664  1.00  0.00     0.040 A 
ATOM     78  F   UNL A   1      39.534  28.080  31.404  1.00  0.00    -0.206 F 
ATOM     79  C   UNL A   1      36.707  29.524  29.657  1.00  0.00     0.006 A 
ENDBRANCH  51  72
BRANCH  63  80
ATOM     80  C   UNL A   1      45.340  32.391  29.399  1.00  0.00     0.057 A 
ATOM     81  C   UNL A   1      45.686  32.794  30.694  1.00  0.00     0.134 A 
ATOM     82  C   UNL A   1      45.321  33.369  28.397  1.00  0.00     0.134 A 
ATOM     83  F   UNL A   1      45.707  31.908  31.700  1.00  0.00    -0.206 F 
ATOM     84  C   UNL A   1      45.986  34.127  30.986  1.00  0.00     0.040 A 
ATOM     85  C   UNL A   1      45.643  34.699  28.671  1.00  0.00     0.040 A 
ATOM     86  F   UNL A   1      45.005  33.046  27.134  1.00  0.00    -0.206 F 
ATOM     87  C   UNL A   1      45.972  35.081  29.970  1.00  0.00     0.006 A 
ENDBRANCH  63  80
ENDBRANCH  37  38
ENDBRANCH  29  32
ENDBRANCH  27  28
ENDBRANCH  26  27
ENDBRANCH   1  26
TORSDOF 15
ENDMDL
MODEL 3
REMARK VINA RESULT:     -11.3      5.004     10.174
REMARK SMILES CC[C@@](C)([NH3+])C(=O)N1CC[NH+]([C@H](C)C(=O)NCCCCNC(=O)c2ccc(-c3c4nc(c(-c5c(F)cccc5F)c5ccc([nH]5)c(-c5c(F)cccc5F)c5nc(c(-c6c(F)cccc6F)c6ccc3[nH]6)C=C5)C=C4)cc2)CC1
REMARK SMILES IDX 18 1 17 2 16 3 14 4 15 5 12 7 13 8 11 9 6 10 7 11 8 12 9 13
REMARK SMILES IDX 79 14 10 15 78 16 3 18 4 19 2 20 1 21 5 22 19 26 20 27 21 28
REMARK SMILES IDX 22 29 23 31 24 32 25 33 77 34 26 35 76 36 27 37 28 38 29 39
REMARK SMILES IDX 70 40 30 41 75 42 69 43 71 44 31 45 74 46 68 47 67 48 32 50
REMARK SMILES IDX 58 51 41 52 57 53 42 54 45 55 56 56 72 57 43 58 44 59 55 61
REMARK SMILES IDX 73 62 46 63 33 64 34 65 39 66 35 67 36 68 38 69 40 70 37 71
REMARK SMILES IDX 59 72 60 73 65 74 61 75 62 76 64 77 66 78 63 79 47 80 48 81
REMARK SMILES IDX 53 82 49 83 50 84 52 85 54 86 51 87
REMARK H PARENT 16 6 11 17 5 23 5 24 5 25 21 30 71 49 45 60
REMARK Flexibility Score: inf
ROOT
ATOM      1  C   UNL A   1      31.789  30.485  26.857  1.00  0.00     0.023 C 
ENDROOT
BRANCH   1   2
ATOM      2  C   UNL A   1      32.186  29.914  25.503  1.00  0.00     0.116 C 
BRANCH   2   3
ATOM      3  N   UNL A   1      31.237  30.186  24.443  1.00  0.00    -0.351 N 
ATOM      4  C   UNL A   1      30.355  29.354  23.808  1.00  0.00     0.278 C 
ATOM      5  O   UNL A   1      29.495  29.900  23.107  1.00  0.00    -0.268 OA
ATOM      6  H   UNL A   1      31.225  31.118  24.129  1.00  0.00     0.163 HD
BRANCH   4   7
ATOM      7  C   UNL A   1      30.420  27.808  23.923  1.00  0.00     0.271 C 
ATOM      8  C   UNL A   1      29.117  27.123  23.489  1.00  0.00     0.086 C 
BRANCH   7   9
ATOM      9  N   UNL A   1      31.708  27.215  23.452  1.00  0.00    -0.322 N 
ATOM     10  C   UNL A   1      33.141  23.655  22.063  1.00  0.00     0.283 C 
ATOM     11  O   UNL A   1      33.359  23.451  20.860  1.00  0.00    -0.268 OA
ATOM     12  N   UNL A   1      33.270  24.947  22.547  1.00  0.00    -0.326 N 
ATOM     13  C   UNL A   1      33.025  26.052  21.628  1.00  0.00     0.181 C 
ATOM     14  C   UNL A   1      33.478  25.431  23.908  1.00  0.00     0.181 C 
ATOM     15  C   UNL A   1      31.711  26.731  22.061  1.00  0.00     0.284 C 
ATOM     16  C   UNL A   1      32.249  26.219  24.408  1.00  0.00     0.284 C 
ATOM     17  H   UNL A   1      32.354  28.005  23.433  1.00  0.00     0.348 HD
BRANCH  10  18
ATOM     18  C   UNL A   1      32.493  22.506  22.930  1.00  0.00     0.171 C 
ATOM     19  C   UNL A   1      33.548  21.978  23.916  1.00  0.00     0.090 C 
BRANCH  18  20
ATOM     20  C   UNL A   1      31.250  23.046  23.704  1.00  0.00     0.075 C 
ATOM     21  C   UNL A   1      31.184  22.727  25.199  1.00  0.00     0.011 C 
ENDBRANCH  18  20
BRANCH  18  22
ATOM     22  N   UNL A   1      32.010  21.384  22.089  1.00  0.00    -0.345 N 
ATOM     23  H   UNL A   1      31.751  20.598  22.686  1.00  0.00     0.345 HD
ATOM     24  H   UNL A   1      32.750  21.095  21.450  1.00  0.00     0.345 HD
ATOM     25  H   UNL A   1      31.196  21.686  21.554  1.00  0.00     0.345 HD
ENDBRANCH  18  22
ENDBRANCH  10  18
ENDBRANCH   7   9
ENDBRANCH   4   7
ENDBRANCH   2   3
ENDBRANCH   1   2
BRANCH   1  26
ATOM     26  C   UNL A   1      31.554  31.993  26.885  1.00  0.00     0.023 C 
BRANCH  26  27
ATOM     27  C   UNL A   1      32.765  32.848  27.248  1.00  0.00     0.116 C 
BRANCH  27  28
ATOM     28  N   UNL A   1      32.421  34.197  27.676  1.00  0.00    -0.352 N 
ATOM     29  C   UNL A   1      33.017  34.998  28.622  1.00  0.00     0.251 C 
ATOM     30  H   UNL A   1      31.644  34.595  27.219  1.00  0.00     0.163 HD
ATOM     31  O   UNL A   1      32.520  36.076  28.922  1.00  0.00    -0.269 OA
BRANCH  29  32
ATOM     32  C   UNL A   1      34.235  34.528  29.314  1.00  0.00     0.039 A 
ATOM     33  C   UNL A   1      34.105  33.920  30.564  1.00  0.00     0.014 A 
ATOM     34  C   UNL A   1      35.490  34.641  28.711  1.00  0.00     0.014 A 
ATOM     35  C   UNL A   1      35.222  33.333  31.165  1.00  0.00     0.010 A 
ATOM     36  C   UNL A   1      36.581  33.984  29.269  1.00  0.00     0.010 A 
ATOM     37  C   UNL A   1      36.456  33.314  30.496  1.00  0.00    -0.014 A 
BRANCH  37  38
ATOM     38  C   UNL A   1      37.625  32.585  31.051  1.00  0.00     0.031 A 
ATOM     39  C   UNL A   1      38.294  33.073  32.305  1.00  0.00     0.074 A 
ATOM     40  C   UNL A   1      38.131  31.530  30.382  1.00  0.00     0.049 A 
ATOM     41  N   UNL A   1      39.375  32.628  32.893  1.00  0.00    -0.248 NA
ATOM     42  C   UNL A   1      37.684  34.236  32.969  1.00  0.00     0.031 C 
ATOM     43  C   UNL A   1      37.609  30.989  29.127  1.00  0.00     0.029 A 
ATOM     44  N   UNL A   1      39.211  30.729  30.663  1.00  0.00    -0.354 N 
ATOM     45  C   UNL A   1      39.583  33.464  33.982  1.00  0.00     0.074 A 
ATOM     46  C   UNL A   1      38.550  34.475  33.942  1.00  0.00     0.031 C 
ATOM     47  C   UNL A   1      38.351  29.931  28.759  1.00  0.00     0.029 A 
ATOM     48  C   UNL A   1      39.423  29.742  29.730  1.00  0.00     0.049 A 
ATOM     49  H   UNL A   1      39.780  30.850  31.458  1.00  0.00     0.167 HD
ATOM     50  C   UNL A   1      40.534  33.383  34.941  1.00  0.00     0.037 A 
ATOM     51  C   UNL A   1      40.378  28.795  29.663  1.00  0.00     0.037 A 
ATOM     52  C   UNL A   1      41.544  32.359  34.997  1.00  0.00     0.049 A 
ATOM     53  C   UNL A   1      41.420  28.724  30.744  1.00  0.00     0.074 A 
ATOM     54  C   UNL A   1      42.515  32.158  35.962  1.00  0.00     0.029 A 
ATOM     55  N   UNL A   1      41.710  31.362  34.048  1.00  0.00    -0.354 N 
ATOM     56  N   UNL A   1      41.568  29.484  31.802  1.00  0.00    -0.248 NA
ATOM     57  C   UNL A   1      42.428  27.661  30.623  1.00  0.00     0.031 C 
ATOM     58  C   UNL A   1      43.290  31.059  35.578  1.00  0.00     0.029 A 
ATOM     59  C   UNL A   1      42.777  30.552  34.396  1.00  0.00     0.049 A 
ATOM     60  H   UNL A   1      41.151  31.249  33.244  1.00  0.00     0.167 HD
ATOM     61  C   UNL A   1      42.663  28.975  32.487  1.00  0.00     0.074 A 
ATOM     62  C   UNL A   1      43.136  27.834  31.730  1.00  0.00     0.031 C 
ATOM     63  C   UNL A   1      43.227  29.413  33.638  1.00  0.00     0.037 A 
BRANCH  50  64
ATOM     64  C   UNL A   1      40.517  34.429  36.017  1.00  0.00     0.057 A 
ATOM     65  C   UNL A   1      39.782  34.258  37.198  1.00  0.00     0.134 A 
ATOM     66  C   UNL A   1      41.261  35.607  35.884  1.00  0.00     0.134 A 
ATOM     67  F   UNL A   1      39.037  33.156  37.381  1.00  0.00    -0.206 F 
ATOM     68  C   UNL A   1      39.765  35.233  38.196  1.00  0.00     0.040 A 
ATOM     69  C   UNL A   1      41.273  36.578  36.886  1.00  0.00     0.040 A 
ATOM     70  F   UNL A   1      41.991  35.832  34.781  1.00  0.00    -0.206 F 
ATOM     71  C   UNL A   1      40.518  36.395  38.044  1.00  0.00     0.006 A 
ENDBRANCH  50  64
BRANCH  51  72
ATOM     72  C   UNL A   1      40.379  27.816  28.547  1.00  0.00     0.057 A 
ATOM     73  C   UNL A   1      39.682  26.607  28.651  1.00  0.00     0.134 A 
ATOM     74  C   UNL A   1      41.084  28.056  27.362  1.00  0.00     0.134 A 
ATOM     75  F   UNL A   1      39.006  26.314  29.772  1.00  0.00    -0.206 F 
ATOM     76  C   UNL A   1      39.700  25.661  27.626  1.00  0.00     0.040 A 
ATOM     77  C   UNL A   1      41.091  27.128  26.318  1.00  0.00     0.040 A 
ATOM     78  F   UNL A   1      41.765  29.198  27.197  1.00  0.00    -0.206 F 
ATOM     79  C   UNL A   1      40.405  25.923  26.453  1.00  0.00     0.006 A 
ENDBRANCH  51  72
BRANCH  63  80
ATOM     80  C   UNL A   1      44.394  28.636  34.169  1.00  0.00     0.057 A 
ATOM     81  C   UNL A   1      44.224  27.533  35.014  1.00  0.00     0.134 A 
ATOM     82  C   UNL A   1      45.702  28.974  33.798  1.00  0.00     0.134 A 
ATOM     83  F   UNL A   1      42.998  27.167  35.417  1.00  0.00    -0.206 F 
ATOM     84  C   UNL A   1      45.316  26.803  35.489  1.00  0.00     0.040 A 
ATOM     85  C   UNL A   1      46.800  28.238  34.246  1.00  0.00     0.040 A 
ATOM     86  F   UNL A   1      45.932  30.015  32.985  1.00  0.00    -0.206 F 
ATOM     87  C   UNL A   1      46.608  27.152  35.097  1.00  0.00     0.006 A 
ENDBRANCH  63  80
ENDBRANCH  37  38
ENDBRANCH  29  32
ENDBRANCH  27  28
ENDBRANCH  26  27
ENDBRANCH   1  26
TORSDOF 15
ENDMDL
