MODEL 1
REMARK VINA RESULT:     -12.8      0.000      0.000
REMARK SMILES O=C(NCCCCNC(=O)[C@@H]1[C@H](C(=O)Nc2ccccc2Cc2ccccc2)[C@H]2C=C[C@@H]1O2)c1ccc(-c2c3nc(c(-c4c(F)cccc4F)c4ccc([nH]4)c(-c4c(F)cccc4F)c4nc(c(-c5c(F)cccc5F)c5ccc2[nH]5)C=C4)C=C3)cc1
REMARK SMILES IDX 6 1 5 2 4 3 3 4 1 5 2 6 34 8 35 9 87 10 36 11 86 12 37 13
REMARK SMILES IDX 38 14 39 15 80 16 40 17 85 18 79 19 81 20 41 21 84 22 78 23
REMARK SMILES IDX 77 24 42 26 68 27 51 28 67 29 52 30 55 31 66 32 82 33 53 34
REMARK SMILES IDX 54 35 65 37 83 38 56 39 43 40 44 41 49 42 45 43 46 44 48 45
REMARK SMILES IDX 50 46 47 47 69 48 70 49 75 50 71 51 72 52 74 53 76 54 73 55
REMARK SMILES IDX 57 56 58 57 63 58 59 59 60 60 62 61 64 62 61 63 7 64 8 65
REMARK SMILES IDX 9 66 10 68 11 69 12 70 32 71 29 72 31 73 33 74 30 75 13 76
REMARK SMILES IDX 14 77 15 78 16 80 17 81 21 82 18 83 20 84 19 85 22 86 23 87
REMARK SMILES IDX 24 88 28 89 25 90 27 91 26 92
REMARK H PARENT 3 7 81 25 55 36 8 67 15 79
REMARK Flexibility Score: inf
ROOT
ATOM      1  C   UNL A   1      36.485  20.572  25.000  1.00  0.00     0.023 C 
ENDROOT
BRANCH   1   2
ATOM      2  C   UNL A   1      37.788  19.763  24.841  1.00  0.00     0.023 C 
BRANCH   2   3
ATOM      3  C   UNL A   1      38.959  20.217  25.713  1.00  0.00     0.116 C 
BRANCH   3   4
ATOM      4  N   UNL A   1      39.962  19.180  25.834  1.00  0.00    -0.352 N 
ATOM      5  O   UNL A   1      42.038  18.323  25.755  1.00  0.00    -0.269 OA
ATOM      6  C   UNL A   1      41.322  19.298  25.958  1.00  0.00     0.251 C 
ATOM      7  H   UNL A   1      39.619  18.258  25.826  1.00  0.00     0.163 HD
BRANCH   6   8
ATOM      8  C   UNL A   1      41.934  20.589  26.340  1.00  0.00     0.039 A 
ATOM      9  C   UNL A   1      42.263  21.548  25.376  1.00  0.00     0.014 A 
ATOM     10  C   UNL A   1      42.083  20.880  27.698  1.00  0.00     0.014 A 
ATOM     11  C   UNL A   1      42.803  22.774  25.767  1.00  0.00     0.010 A 
ATOM     12  C   UNL A   1      42.572  22.127  28.090  1.00  0.00     0.010 A 
ATOM     13  C   UNL A   1      42.939  23.082  27.129  1.00  0.00    -0.014 A 
BRANCH  13  14
ATOM     14  C   UNL A   1      43.394  24.426  27.566  1.00  0.00     0.031 A 
ATOM     15  C   UNL A   1      42.400  25.469  27.986  1.00  0.00     0.074 A 
ATOM     16  C   UNL A   1      44.704  24.729  27.504  1.00  0.00     0.049 A 
ATOM     17  N   UNL A   1      42.593  26.735  28.259  1.00  0.00    -0.248 NA
ATOM     18  C   UNL A   1      41.001  25.034  28.099  1.00  0.00     0.031 C 
ATOM     19  C   UNL A   1      45.764  23.805  27.099  1.00  0.00     0.029 A 
ATOM     20  N   UNL A   1      45.364  25.907  27.750  1.00  0.00    -0.354 N 
ATOM     21  C   UNL A   1      41.340  27.254  28.550  1.00  0.00     0.074 A 
ATOM     22  C   UNL A   1      40.391  26.171  28.400  1.00  0.00     0.031 C 
ATOM     23  C   UNL A   1      46.938  24.451  27.115  1.00  0.00     0.029 A 
ATOM     24  C   UNL A   1      46.708  25.846  27.475  1.00  0.00     0.049 A 
ATOM     25  H   UNL A   1      44.918  26.716  28.090  1.00  0.00     0.167 HD
ATOM     26  C   UNL A   1      41.014  28.519  28.911  1.00  0.00     0.037 A 
ATOM     27  C   UNL A   1      47.646  26.812  27.470  1.00  0.00     0.037 A 
ATOM     28  C   UNL A   1      41.967  29.589  29.060  1.00  0.00     0.049 A 
ATOM     29  C   UNL A   1      47.260  28.215  27.836  1.00  0.00     0.074 A 
ATOM     30  C   UNL A   1      41.745  30.892  29.469  1.00  0.00     0.029 A 
ATOM     31  N   UNL A   1      43.324  29.482  28.789  1.00  0.00    -0.354 N 
ATOM     32  N   UNL A   1      46.080  28.686  28.155  1.00  0.00    -0.248 NA
ATOM     33  C   UNL A   1      48.332  29.221  27.843  1.00  0.00     0.031 C 
ATOM     34  C   UNL A   1      42.956  31.587  29.395  1.00  0.00     0.029 A 
ATOM     35  C   UNL A   1      43.946  30.703  28.994  1.00  0.00     0.049 A 
ATOM     36  H   UNL A   1      43.779  28.660  28.494  1.00  0.00     0.167 HD
ATOM     37  C   UNL A   1      46.267  30.035  28.427  1.00  0.00     0.074 A 
ATOM     38  C   UNL A   1      47.678  30.306  28.236  1.00  0.00     0.031 C 
ATOM     39  C   UNL A   1      45.353  30.959  28.808  1.00  0.00     0.037 A 
BRANCH  26  40
ATOM     40  C   UNL A   1      39.559  28.819  29.134  1.00  0.00     0.057 A 
ATOM     41  C   UNL A   1      38.719  29.253  28.101  1.00  0.00     0.134 A 
ATOM     42  C   UNL A   1      38.987  28.659  30.404  1.00  0.00     0.134 A 
ATOM     43  F   UNL A   1      39.203  29.436  26.863  1.00  0.00    -0.206 F 
ATOM     44  C   UNL A   1      37.375  29.556  28.329  1.00  0.00     0.040 A 
ATOM     45  C   UNL A   1      37.638  28.931  30.639  1.00  0.00     0.040 A 
ATOM     46  F   UNL A   1      39.730  28.236  31.438  1.00  0.00    -0.206 F 
ATOM     47  C   UNL A   1      36.830  29.391  29.601  1.00  0.00     0.006 A 
ENDBRANCH  26  40
BRANCH  27  48
ATOM     48  C   UNL A   1      49.037  26.466  27.087  1.00  0.00     0.057 A 
ATOM     49  C   UNL A   1      49.949  25.983  28.031  1.00  0.00     0.134 A 
ATOM     50  C   UNL A   1      49.468  26.555  25.757  1.00  0.00     0.134 A 
ATOM     51  F   UNL A   1      49.597  25.890  29.322  1.00  0.00    -0.206 F 
ATOM     52  C   UNL A   1      51.240  25.599  27.667  1.00  0.00     0.040 A 
ATOM     53  C   UNL A   1      50.749  26.152  25.376  1.00  0.00     0.040 A 
ATOM     54  F   UNL A   1      48.637  27.001  24.805  1.00  0.00    -0.206 F 
ATOM     55  C   UNL A   1      51.639  25.673  26.334  1.00  0.00     0.006 A 
ENDBRANCH  27  48
BRANCH  39  56
ATOM     56  C   UNL A   1      45.846  32.348  29.091  1.00  0.00     0.057 A 
ATOM     57  C   UNL A   1      46.360  32.712  30.341  1.00  0.00     0.134 A 
ATOM     58  C   UNL A   1      45.875  33.309  28.072  1.00  0.00     0.134 A 
ATOM     59  F   UNL A   1      46.349  31.843  31.362  1.00  0.00    -0.206 F 
ATOM     60  C   UNL A   1      46.883  33.987  30.569  1.00  0.00     0.040 A 
ATOM     61  C   UNL A   1      46.415  34.578  28.280  1.00  0.00     0.040 A 
ATOM     62  F   UNL A   1      45.402  33.020  26.850  1.00  0.00    -0.206 F 
ATOM     63  C   UNL A   1      46.921  34.920  29.532  1.00  0.00     0.006 A 
ENDBRANCH  39  56
ENDBRANCH  13  14
ENDBRANCH   6   8
ENDBRANCH   3   4
ENDBRANCH   2   3
ENDBRANCH   1   2
BRANCH   1  64
ATOM     64  C   UNL A   1      36.472  21.985  24.385  1.00  0.00     0.116 C 
BRANCH  64  65
ATOM     65  N   UNL A   1      36.169  22.981  25.383  1.00  0.00    -0.356 N 
ATOM     66  C   UNL A   1      35.074  23.746  25.550  1.00  0.00     0.227 C 
ATOM     67  H   UNL A   1      36.878  23.124  26.051  1.00  0.00     0.163 HD
ATOM     68  O   UNL A   1      35.357  24.907  25.851  1.00  0.00    -0.275 OA
BRANCH  66  69
ATOM     69  C   UNL A   1      33.655  23.207  25.410  1.00  0.00     0.127 C 
ATOM     70  C   UNL A   1      32.884  23.763  24.189  1.00  0.00     0.127 C 
ATOM     71  C   UNL A   1      32.638  23.557  26.531  1.00  0.00     0.155 C 
ATOM     72  C   UNL A   1      31.535  24.177  24.751  1.00  0.00     0.155 C 
ATOM     73  C   UNL A   1      31.448  22.640  26.435  1.00  0.00     0.004 C 
ATOM     74  O   UNL A   1      31.968  24.742  26.002  1.00  0.00    -0.365 OA
ATOM     75  C   UNL A   1      30.796  22.992  25.314  1.00  0.00     0.004 C 
BRANCH  70  76
ATOM     76  C   UNL A   1      33.547  24.843  23.365  1.00  0.00     0.231 C 
ATOM     77  O   UNL A   1      34.250  24.430  22.418  1.00  0.00    -0.274 OA
ATOM     78  N   UNL A   1      33.464  26.189  23.429  1.00  0.00    -0.325 N 
ATOM     79  H   UNL A   1      34.034  26.546  22.710  1.00  0.00     0.169 HD
BRANCH  78  80
ATOM     80  C   UNL A   1      32.899  27.302  24.103  1.00  0.00     0.044 A 
ATOM     81  C   UNL A   1      33.876  27.839  24.983  1.00  0.00     0.026 A 
ATOM     82  C   UNL A   1      31.606  27.890  24.142  1.00  0.00    -0.020 A 
ATOM     83  C   UNL A   1      33.653  28.946  25.798  1.00  0.00     0.002 A 
ATOM     84  C   UNL A   1      31.411  29.022  24.982  1.00  0.00     0.006 A 
ATOM     85  C   UNL A   1      32.415  29.549  25.789  1.00  0.00     0.000 A 
BRANCH  82  86
ATOM     86  C   UNL A   1      30.364  27.520  23.367  1.00  0.00     0.073 C 
BRANCH  86  87
ATOM     87  C   UNL A   1      29.433  28.569  22.763  1.00  0.00    -0.044 A 
ATOM     88  C   UNL A   1      29.942  29.623  21.988  1.00  0.00     0.004 A 
ATOM     89  C   UNL A   1      28.078  28.623  23.133  1.00  0.00     0.004 A 
ATOM     90  C   UNL A   1      29.152  30.734  21.672  1.00  0.00     0.000 A 
ATOM     91  C   UNL A   1      27.279  29.720  22.791  1.00  0.00     0.000 A 
ATOM     92  C   UNL A   1      27.823  30.789  22.084  1.00  0.00     0.000 A 
ENDBRANCH  86  87
ENDBRANCH  82  86
ENDBRANCH  78  80
ENDBRANCH  70  76
ENDBRANCH  66  69
ENDBRANCH  64  65
ENDBRANCH   1  64
TORSDOF 15
ENDMDL
MODEL 2
REMARK VINA RESULT:     -12.5      4.724      9.996
REMARK SMILES O=C(NCCCCNC(=O)[C@@H]1[C@H](C(=O)Nc2ccccc2Cc2ccccc2)[C@H]2C=C[C@@H]1O2)c1ccc(-c2c3nc(c(-c4c(F)cccc4F)c4ccc([nH]4)c(-c4c(F)cccc4F)c4nc(c(-c5c(F)cccc5F)c5ccc2[nH]5)C=C4)C=C3)cc1
REMARK SMILES IDX 6 1 5 2 4 3 3 4 1 5 2 6 34 8 35 9 87 10 36 11 86 12 37 13
REMARK SMILES IDX 38 14 39 15 80 16 40 17 85 18 79 19 81 20 41 21 84 22 78 23
REMARK SMILES IDX 77 24 42 26 68 27 51 28 67 29 52 30 55 31 66 32 82 33 53 34
REMARK SMILES IDX 54 35 65 37 83 38 56 39 43 40 44 41 49 42 45 43 46 44 48 45
REMARK SMILES IDX 50 46 47 47 69 48 70 49 75 50 71 51 72 52 74 53 76 54 73 55
REMARK SMILES IDX 57 56 58 57 63 58 59 59 60 60 62 61 64 62 61 63 7 64 8 65
REMARK SMILES IDX 9 66 10 68 11 69 12 70 32 71 29 72 31 73 33 74 30 75 13 76
REMARK SMILES IDX 14 77 15 78 16 80 17 81 21 82 18 83 20 84 19 85 22 86 23 87
REMARK SMILES IDX 24 88 28 89 25 90 27 91 26 92
REMARK H PARENT 3 7 81 25 55 36 8 67 15 79
REMARK Flexibility Score: inf
ROOT
ATOM      1  C   UNL A   1      31.523  31.221  26.421  1.00  0.00     0.023 C 
ENDROOT
BRANCH   1   2
ATOM      2  C   UNL A   1      31.480  32.693  26.876  1.00  0.00     0.023 C 
BRANCH   2   3
ATOM      3  C   UNL A   1      32.834  33.329  27.189  1.00  0.00     0.116 C 
BRANCH   3   4
ATOM      4  N   UNL A   1      32.690  34.481  28.055  1.00  0.00    -0.352 N 
ATOM      5  O   UNL A   1      32.884  35.634  29.974  1.00  0.00    -0.269 OA
ATOM      6  C   UNL A   1      33.335  34.769  29.230  1.00  0.00     0.251 C 
ATOM      7  H   UNL A   1      32.037  35.154  27.757  1.00  0.00     0.163 HD
BRANCH   6   8
ATOM      8  C   UNL A   1      34.571  34.050  29.607  1.00  0.00     0.039 A 
ATOM      9  C   UNL A   1      35.818  34.447  29.115  1.00  0.00     0.014 A 
ATOM     10  C   UNL A   1      34.483  33.025  30.552  1.00  0.00     0.014 A 
ATOM     11  C   UNL A   1      36.973  33.775  29.518  1.00  0.00     0.010 A 
ATOM     12  C   UNL A   1      35.645  32.390  30.995  1.00  0.00     0.010 A 
ATOM     13  C   UNL A   1      36.898  32.757  30.479  1.00  0.00    -0.014 A 
BRANCH  13  14
ATOM     14  C   UNL A   1      38.127  32.116  31.012  1.00  0.00     0.031 A 
ATOM     15  C   UNL A   1      38.781  30.987  30.273  1.00  0.00     0.074 A 
ATOM     16  C   UNL A   1      38.603  32.504  32.210  1.00  0.00     0.049 A 
ATOM     17  N   UNL A   1      39.767  30.212  30.648  1.00  0.00    -0.248 NA
ATOM     18  C   UNL A   1      38.244  30.678  28.940  1.00  0.00     0.031 C 
ATOM     19  C   UNL A   1      38.045  33.580  33.030  1.00  0.00     0.029 A 
ATOM     20  N   UNL A   1      39.644  32.017  32.960  1.00  0.00    -0.354 N 
ATOM     21  C   UNL A   1      39.954  29.308  29.611  1.00  0.00     0.074 A 
ATOM     22  C   UNL A   1      38.963  29.617  28.601  1.00  0.00     0.031 C 
ATOM     23  C   UNL A   1      38.742  33.667  34.172  1.00  0.00     0.029 A 
ATOM     24  C   UNL A   1      39.756  32.618  34.190  1.00  0.00     0.049 A 
ATOM     25  H   UNL A   1      40.250  31.307  32.648  1.00  0.00     0.167 HD
ATOM     26  C   UNL A   1      40.868  28.313  29.514  1.00  0.00     0.037 A 
ATOM     27  C   UNL A   1      40.556  32.332  35.235  1.00  0.00     0.037 A 
ATOM     28  C   UNL A   1      41.851  28.015  30.525  1.00  0.00     0.049 A 
ATOM     29  C   UNL A   1      41.538  31.203  35.124  1.00  0.00     0.074 A 
ATOM     30  C   UNL A   1      42.853  27.062  30.500  1.00  0.00     0.029 A 
ATOM     31  N   UNL A   1      41.944  28.660  31.751  1.00  0.00    -0.354 N 
ATOM     32  N   UNL A   1      41.737  30.383  34.121  1.00  0.00    -0.248 NA
ATOM     33  C   UNL A   1      42.406  30.958  36.284  1.00  0.00     0.031 C 
ATOM     34  C   UNL A   1      43.518  27.093  31.731  1.00  0.00     0.029 A 
ATOM     35  C   UNL A   1      42.968  28.105  32.501  1.00  0.00     0.049 A 
ATOM     36  H   UNL A   1      41.367  29.403  32.044  1.00  0.00     0.167 HD
ATOM     37  C   UNL A   1      42.769  29.542  34.515  1.00  0.00     0.074 A 
ATOM     38  C   UNL A   1      43.154  29.952  35.850  1.00  0.00     0.031 C 
ATOM     39  C   UNL A   1      43.348  28.528  33.827  1.00  0.00     0.037 A 
BRANCH  26  40
ATOM     40  C   UNL A   1      40.822  27.452  28.284  1.00  0.00     0.057 A 
ATOM     41  C   UNL A   1      41.555  27.760  27.131  1.00  0.00     0.134 A 
ATOM     42  C   UNL A   1      40.040  26.290  28.259  1.00  0.00     0.134 A 
ATOM     43  F   UNL A   1      42.317  28.863  27.083  1.00  0.00    -0.206 F 
ATOM     44  C   UNL A   1      41.480  26.966  25.984  1.00  0.00     0.040 A 
ATOM     45  C   UNL A   1      39.980  25.473  27.128  1.00  0.00     0.040 A 
ATOM     46  F   UNL A   1      39.321  25.928  29.332  1.00  0.00    -0.206 F 
ATOM     47  C   UNL A   1      40.694  25.817  25.982  1.00  0.00     0.006 A 
ENDBRANCH  26  40
BRANCH  27  48
ATOM     48  C   UNL A   1      40.435  33.134  36.478  1.00  0.00     0.057 A 
ATOM     49  C   UNL A   1      41.255  34.243  36.706  1.00  0.00     0.134 A 
ATOM     50  C   UNL A   1      39.457  32.843  37.438  1.00  0.00     0.134 A 
ATOM     51  F   UNL A   1      42.218  34.561  35.830  1.00  0.00    -0.206 F 
ATOM     52  C   UNL A   1      41.106  35.037  37.844  1.00  0.00     0.040 A 
ATOM     53  C   UNL A   1      39.282  33.642  38.568  1.00  0.00     0.040 A 
ATOM     54  F   UNL A   1      38.634  31.798  37.270  1.00  0.00    -0.206 F 
ATOM     55  C   UNL A   1      40.111  34.743  38.773  1.00  0.00     0.006 A 
ENDBRANCH  27  48
BRANCH  39  56
ATOM     56  C   UNL A   1      44.492  27.810  34.480  1.00  0.00     0.057 A 
ATOM     57  C   UNL A   1      44.305  26.643  35.229  1.00  0.00     0.134 A 
ATOM     58  C   UNL A   1      45.806  28.257  34.291  1.00  0.00     0.134 A 
ATOM     59  F   UNL A   1      43.070  26.171  35.459  1.00  0.00    -0.206 F 
ATOM     60  C   UNL A   1      45.387  25.945  35.771  1.00  0.00     0.040 A 
ATOM     61  C   UNL A   1      46.896  27.556  34.807  1.00  0.00     0.040 A 
ATOM     62  F   UNL A   1      46.053  29.366  33.578  1.00  0.00    -0.206 F 
ATOM     63  C   UNL A   1      46.688  26.396  35.550  1.00  0.00     0.006 A 
ENDBRANCH  39  56
ENDBRANCH  13  14
ENDBRANCH   6   8
ENDBRANCH   3   4
ENDBRANCH   2   3
ENDBRANCH   1   2
BRANCH   1  64
ATOM     64  C   UNL A   1      32.741  30.394  26.877  1.00  0.00     0.116 C 
BRANCH  64  65
ATOM     65  N   UNL A   1      33.407  29.789  25.751  1.00  0.00    -0.356 N 
ATOM     66  C   UNL A   1      33.028  28.772  24.954  1.00  0.00     0.227 C 
ATOM     67  H   UNL A   1      34.281  30.183  25.528  1.00  0.00     0.163 HD
ATOM     68  O   UNL A   1      33.958  28.006  24.698  1.00  0.00    -0.275 OA
BRANCH  66  69
ATOM     69  C   UNL A   1      31.610  28.626  24.413  1.00  0.00     0.127 C 
ATOM     70  C   UNL A   1      30.682  27.758  25.298  1.00  0.00     0.127 C 
ATOM     71  C   UNL A   1      31.428  27.886  23.058  1.00  0.00     0.155 C 
ATOM     72  C   UNL A   1      30.015  26.804  24.322  1.00  0.00     0.155 C 
ATOM     73  C   UNL A   1      30.060  28.181  22.505  1.00  0.00     0.004 C 
ATOM     74  O   UNL A   1      31.140  26.516  23.472  1.00  0.00    -0.365 OA
ATOM     75  C   UNL A   1      29.188  27.552  23.311  1.00  0.00     0.004 C 
BRANCH  70  76
ATOM     76  C   UNL A   1      31.290  27.065  26.495  1.00  0.00     0.231 C 
ATOM     77  O   UNL A   1      31.341  27.752  27.536  1.00  0.00    -0.274 OA
ATOM     78  N   UNL A   1      31.736  25.801  26.660  1.00  0.00    -0.325 N 
ATOM     79  H   UNL A   1      32.048  25.725  27.591  1.00  0.00     0.169 HD
BRANCH  78  80
ATOM     80  C   UNL A   1      31.942  24.537  26.049  1.00  0.00     0.044 A 
ATOM     81  C   UNL A   1      30.872  23.679  26.421  1.00  0.00     0.026 A 
ATOM     82  C   UNL A   1      32.983  23.966  25.271  1.00  0.00    -0.020 A 
ATOM     83  C   UNL A   1      30.759  22.359  25.991  1.00  0.00     0.002 A 
ATOM     84  C   UNL A   1      32.837  22.615  24.844  1.00  0.00     0.006 A 
ATOM     85  C   UNL A   1      31.743  21.827  25.188  1.00  0.00     0.000 A 
BRANCH  82  86
ATOM     86  C   UNL A   1      34.255  24.602  24.761  1.00  0.00     0.073 C 
BRANCH  86  87
ATOM     87  C   UNL A   1      35.594  23.868  24.761  1.00  0.00    -0.044 A 
ATOM     88  C   UNL A   1      35.970  23.053  23.682  1.00  0.00     0.004 A 
ATOM     89  C   UNL A   1      36.389  23.829  25.920  1.00  0.00     0.004 A 
ATOM     90  C   UNL A   1      37.044  22.162  23.789  1.00  0.00     0.000 A 
ATOM     91  C   UNL A   1      37.482  22.959  26.017  1.00  0.00     0.000 A 
ATOM     92  C   UNL A   1      37.794  22.107  24.962  1.00  0.00     0.000 A 
ENDBRANCH  86  87
ENDBRANCH  82  86
ENDBRANCH  78  80
ENDBRANCH  70  76
ENDBRANCH  66  69
ENDBRANCH  64  65
ENDBRANCH   1  64
TORSDOF 15
ENDMDL
MODEL 3
REMARK VINA RESULT:     -12.5      4.618      9.602
REMARK SMILES O=C(NCCCCNC(=O)[C@@H]1[C@H](C(=O)Nc2ccccc2Cc2ccccc2)[C@H]2C=C[C@@H]1O2)c1ccc(-c2c3nc(c(-c4c(F)cccc4F)c4ccc([nH]4)c(-c4c(F)cccc4F)c4nc(c(-c5c(F)cccc5F)c5ccc2[nH]5)C=C4)C=C3)cc1
REMARK SMILES IDX 6 1 5 2 4 3 3 4 1 5 2 6 34 8 35 9 87 10 36 11 86 12 37 13
REMARK SMILES IDX 38 14 39 15 80 16 40 17 85 18 79 19 81 20 41 21 84 22 78 23
REMARK SMILES IDX 77 24 42 26 68 27 51 28 67 29 52 30 55 31 66 32 82 33 53 34
REMARK SMILES IDX 54 35 65 37 83 38 56 39 43 40 44 41 49 42 45 43 46 44 48 45
REMARK SMILES IDX 50 46 47 47 69 48 70 49 75 50 71 51 72 52 74 53 76 54 73 55
REMARK SMILES IDX 57 56 58 57 63 58 59 59 60 60 62 61 64 62 61 63 7 64 8 65
REMARK SMILES IDX 9 66 10 68 11 69 12 70 32 71 29 72 31 73 33 74 30 75 13 76
REMARK SMILES IDX 14 77 15 78 16 80 17 81 21 82 18 83 20 84 19 85 22 86 23 87
REMARK SMILES IDX 24 88 28 89 25 90 27 91 26 92
REMARK H PARENT 3 7 81 25 55 36 8 67 15 79
REMARK Flexibility Score: inf
ROOT
ATOM      1  C   UNL A   1      31.537  31.299  26.480  1.00  0.00     0.023 C 
ENDROOT
BRANCH   1   2
ATOM      2  C   UNL A   1      31.588  32.813  26.767  1.00  0.00     0.023 C 
BRANCH   2   3
ATOM      3  C   UNL A   1      32.907  33.335  27.335  1.00  0.00     0.116 C 
BRANCH   3   4
ATOM      4  N   UNL A   1      32.760  34.669  27.877  1.00  0.00    -0.352 N 
ATOM      5  O   UNL A   1      32.853  36.252  29.471  1.00  0.00    -0.269 OA
ATOM      6  C   UNL A   1      33.314  35.214  29.007  1.00  0.00     0.251 C 
ATOM      7  H   UNL A   1      32.179  35.273  27.361  1.00  0.00     0.163 HD
BRANCH   6   8
ATOM      8  C   UNL A   1      34.464  34.562  29.670  1.00  0.00     0.039 A 
ATOM      9  C   UNL A   1      34.298  33.810  30.837  1.00  0.00     0.014 A 
ATOM     10  C   UNL A   1      35.714  34.625  29.049  1.00  0.00     0.014 A 
ATOM     11  C   UNL A   1      35.394  33.173  31.420  1.00  0.00     0.010 A 
ATOM     12  C   UNL A   1      36.799  33.943  29.603  1.00  0.00     0.010 A 
ATOM     13  C   UNL A   1      36.649  33.216  30.794  1.00  0.00    -0.014 A 
BRANCH  13  14
ATOM     14  C   UNL A   1      37.798  32.443  31.331  1.00  0.00     0.031 A 
ATOM     15  C   UNL A   1      38.585  32.958  32.499  1.00  0.00     0.074 A 
ATOM     16  C   UNL A   1      38.178  31.313  30.706  1.00  0.00     0.049 A 
ATOM     17  N   UNL A   1      39.698  32.502  33.013  1.00  0.00    -0.248 NA
ATOM     18  C   UNL A   1      38.058  34.156  33.168  1.00  0.00     0.031 C 
ATOM     19  C   UNL A   1      37.501  30.719  29.553  1.00  0.00     0.029 A 
ATOM     20  N   UNL A   1      39.245  30.480  30.934  1.00  0.00    -0.354 N 
ATOM     21  C   UNL A   1      40.020  33.368  34.049  1.00  0.00     0.074 A 
ATOM     22  C   UNL A   1      38.995  34.390  34.075  1.00  0.00     0.031 C 
ATOM     23  C   UNL A   1      38.172  29.624  29.167  1.00  0.00     0.029 A 
ATOM     24  C   UNL A   1      39.355  29.471  30.008  1.00  0.00     0.049 A 
ATOM     25  H   UNL A   1      39.869  30.593  31.686  1.00  0.00     0.167 HD
ATOM     26  C   UNL A   1      41.075  33.313  34.898  1.00  0.00     0.037 A 
ATOM     27  C   UNL A   1      40.321  28.550  29.826  1.00  0.00     0.037 A 
ATOM     28  C   UNL A   1      42.089  32.290  34.864  1.00  0.00     0.049 A 
ATOM     29  C   UNL A   1      41.499  28.527  30.754  1.00  0.00     0.074 A 
ATOM     30  C   UNL A   1      43.168  32.116  35.712  1.00  0.00     0.029 A 
ATOM     31  N   UNL A   1      42.155  31.274  33.921  1.00  0.00    -0.354 N 
ATOM     32  N   UNL A   1      41.771  29.323  31.758  1.00  0.00    -0.248 NA
ATOM     33  C   UNL A   1      42.506  27.480  30.526  1.00  0.00     0.031 C 
ATOM     34  C   UNL A   1      43.917  31.029  35.250  1.00  0.00     0.029 A 
ATOM     35  C   UNL A   1      43.273  30.488  34.149  1.00  0.00     0.049 A 
ATOM     36  H   UNL A   1      41.502  31.131  33.196  1.00  0.00     0.167 HD
ATOM     37  C   UNL A   1      42.963  28.861  32.301  1.00  0.00     0.074 A 
ATOM     38  C   UNL A   1      43.362  27.713  31.512  1.00  0.00     0.031 C 
ATOM     39  C   UNL A   1      43.656  29.342  33.361  1.00  0.00     0.037 A 
BRANCH  26  40
ATOM     40  C   UNL A   1      41.200  34.413  35.913  1.00  0.00     0.057 A 
ATOM     41  C   UNL A   1      40.569  34.352  37.162  1.00  0.00     0.134 A 
ATOM     42  C   UNL A   1      41.977  35.547  35.640  1.00  0.00     0.134 A 
ATOM     43  F   UNL A   1      39.803  33.298  37.485  1.00  0.00    -0.206 F 
ATOM     44  C   UNL A   1      40.670  35.395  38.085  1.00  0.00     0.040 A 
ATOM     45  C   UNL A   1      42.110  36.584  36.566  1.00  0.00     0.040 A 
ATOM     46  F   UNL A   1      42.619  35.668  34.468  1.00  0.00    -0.206 F 
ATOM     47  C   UNL A   1      41.446  36.513  37.789  1.00  0.00     0.006 A 
ENDBRANCH  26  40
BRANCH  27  48
ATOM     48  C   UNL A   1      40.200  27.590  28.701  1.00  0.00     0.057 A 
ATOM     49  C   UNL A   1      40.825  27.832  27.474  1.00  0.00     0.134 A 
ATOM     50  C   UNL A   1      39.506  26.382  28.848  1.00  0.00     0.134 A 
ATOM     51  F   UNL A   1      41.490  28.978  27.270  1.00  0.00    -0.206 F 
ATOM     52  C   UNL A   1      40.766  26.906  26.431  1.00  0.00     0.040 A 
ATOM     53  C   UNL A   1      39.459  25.438  27.822  1.00  0.00     0.040 A 
ATOM     54  F   UNL A   1      38.896  26.089  30.005  1.00  0.00    -0.206 F 
ATOM     55  C   UNL A   1      40.090  25.701  26.608  1.00  0.00     0.006 A 
ENDBRANCH  27  48
BRANCH  39  56
ATOM     56  C   UNL A   1      44.899  28.607  33.768  1.00  0.00     0.057 A 
ATOM     57  C   UNL A   1      46.168  28.992  33.318  1.00  0.00     0.134 A 
ATOM     58  C   UNL A   1      44.828  27.548  34.682  1.00  0.00     0.134 A 
ATOM     59  F   UNL A   1      46.303  29.989  32.431  1.00  0.00    -0.206 F 
ATOM     60  C   UNL A   1      47.324  28.345  33.762  1.00  0.00     0.040 A 
ATOM     61  C   UNL A   1      45.976  26.910  35.150  1.00  0.00     0.040 A 
ATOM     62  F   UNL A   1      43.642  27.136  35.155  1.00  0.00    -0.206 F 
ATOM     63  C   UNL A   1      47.229  27.307  34.690  1.00  0.00     0.006 A 
ENDBRANCH  39  56
ENDBRANCH  13  14
ENDBRANCH   6   8
ENDBRANCH   3   4
ENDBRANCH   2   3
ENDBRANCH   1   2
BRANCH   1  64
ATOM     64  C   UNL A   1      32.716  30.458  27.006  1.00  0.00     0.116 C 
BRANCH  64  65
ATOM     65  N   UNL A   1      33.438  29.843  25.921  1.00  0.00    -0.356 N 
ATOM     66  C   UNL A   1      33.093  28.829  25.104  1.00  0.00     0.227 C 
ATOM     67  H   UNL A   1      34.328  30.226  25.747  1.00  0.00     0.163 HD
ATOM     68  O   UNL A   1      34.027  28.052  24.903  1.00  0.00    -0.275 OA
BRANCH  66  69
ATOM     69  C   UNL A   1      31.707  28.699  24.484  1.00  0.00     0.127 C 
ATOM     70  C   UNL A   1      30.726  27.825  25.303  1.00  0.00     0.127 C 
ATOM     71  C   UNL A   1      31.597  27.979  23.110  1.00  0.00     0.155 C 
ATOM     72  C   UNL A   1      30.110  26.888  24.278  1.00  0.00     0.155 C 
ATOM     73  C   UNL A   1      30.263  28.290  22.486  1.00  0.00     0.004 C 
ATOM     74  O   UNL A   1      31.279  26.606  23.488  1.00  0.00    -0.365 OA
ATOM     75  C   UNL A   1      29.345  27.655  23.233  1.00  0.00     0.004 C 
BRANCH  70  76
ATOM     76  C   UNL A   1      31.263  27.111  26.522  1.00  0.00     0.231 C 
ATOM     77  O   UNL A   1      31.278  27.790  27.570  1.00  0.00    -0.274 OA
ATOM     78  N   UNL A   1      31.676  25.838  26.698  1.00  0.00    -0.325 N 
ATOM     79  H   UNL A   1      31.942  25.750  27.642  1.00  0.00     0.169 HD
BRANCH  78  80
ATOM     80  C   UNL A   1      31.887  24.574  26.088  1.00  0.00     0.044 A 
ATOM     81  C   UNL A   1      30.827  23.709  26.470  1.00  0.00     0.026 A 
ATOM     82  C   UNL A   1      32.926  24.009  25.302  1.00  0.00    -0.020 A 
ATOM     83  C   UNL A   1      30.720  22.388  26.043  1.00  0.00     0.002 A 
ATOM     84  C   UNL A   1      32.786  22.657  24.879  1.00  0.00     0.006 A 
ATOM     85  C   UNL A   1      31.701  21.862  25.232  1.00  0.00     0.000 A 
BRANCH  82  86
ATOM     86  C   UNL A   1      34.189  24.654  24.781  1.00  0.00     0.073 C 
BRANCH  86  87
ATOM     87  C   UNL A   1      35.523  23.913  24.724  1.00  0.00    -0.044 A 
ATOM     88  C   UNL A   1      35.871  23.140  23.605  1.00  0.00     0.004 A 
ATOM     89  C   UNL A   1      36.340  23.821  25.865  1.00  0.00     0.004 A 
ATOM     90  C   UNL A   1      36.942  22.240  23.654  1.00  0.00     0.000 A 
ATOM     91  C   UNL A   1      37.429  22.941  25.903  1.00  0.00     0.000 A 
ATOM     92  C   UNL A   1      37.714  22.131  24.809  1.00  0.00     0.000 A 
ENDBRANCH  86  87
ENDBRANCH  82  86
ENDBRANCH  78  80
ENDBRANCH  70  76
ENDBRANCH  66  69
ENDBRANCH  64  65
ENDBRANCH   1  64
TORSDOF 15
ENDMDL
