MODEL 1
REMARK VINA RESULT:     -12.6      0.000      0.000
REMARK SMILES C[N@H+]1[C@H](C(=O)NCCCCNC(=O)c2ccc(-c3c4nc(c(-c5c(F)cccc5F)c5ccc([nH]5)c(-c5c(F)cccc5F)c5nc(c(-c6c(F)cccc6F)c6ccc3[nH]6)C=C5)C=C4)cc2)C[C@H](C(=O)NCC2(CO)CCCC2)[C@@H]1c1ccccc1F
REMARK SMILES IDX 7 1 6 2 4 3 5 4 3 6 1 7 2 8 81 9 68 11 69 12 82 13 83 14
REMARK SMILES IDX 87 15 84 16 86 17 88 18 85 19 70 20 71 21 72 22 73 24 74 25
REMARK SMILES IDX 77 26 80 27 78 28 79 29 75 30 76 31 8 33 9 34 10 35 11 36
REMARK SMILES IDX 12 37 13 39 14 40 15 41 67 42 16 43 66 44 17 45 18 46 19 47
REMARK SMILES IDX 60 48 20 49 65 50 59 51 61 52 21 53 64 54 58 55 57 56 22 58
REMARK SMILES IDX 48 59 31 60 47 61 32 62 35 63 46 64 62 65 33 66 34 67 45 69
REMARK SMILES IDX 63 70 36 71 23 72 24 73 29 74 25 75 26 76 28 77 30 78 27 79
REMARK SMILES IDX 49 80 50 81 55 82 51 83 52 84 54 85 56 86 53 87 37 88 38 89
REMARK SMILES IDX 43 90 39 91 40 92 42 93 44 94 41 95
REMARK H PARENT 6 5 2 10 72 23 76 32 11 38 61 57 35 68
REMARK Flexibility Score: inf
ROOT
ATOM      1  C   UNL A   1      34.425  21.222  24.992  1.00  0.00     0.116 C 
ENDROOT
BRANCH   1   2
ATOM      2  N   UNL A   1      34.467  21.869  23.698  1.00  0.00    -0.351 N 
ATOM      3  C   UNL A   1      33.718  22.921  23.248  1.00  0.00     0.278 C 
ATOM      4  O   UNL A   1      33.936  23.329  22.102  1.00  0.00    -0.268 OA
ATOM      5  H   UNL A   1      35.119  21.504  23.058  1.00  0.00     0.163 HD
BRANCH   3   6
ATOM      6  C   UNL A   1      32.687  23.636  24.143  1.00  0.00     0.275 C 
ATOM      7  C   UNL A   1      33.976  24.446  26.023  1.00  0.00     0.333 C 
ATOM      8  N   UNL A   1      33.245  24.825  24.816  1.00  0.00    -0.320 N 
ATOM      9  C   UNL A   1      32.109  25.737  25.051  1.00  0.00     0.231 C 
ATOM     10  H   UNL A   1      33.942  25.305  24.247  1.00  0.00     0.349 HD
ATOM     11  C   UNL A   1      31.463  24.119  23.372  1.00  0.00     0.095 C 
ATOM     12  C   UNL A   1      31.227  25.583  23.783  1.00  0.00     0.148 C 
BRANCH   9  13
ATOM     13  C   UNL A   1      32.401  27.171  25.444  1.00  0.00     0.046 A 
ATOM     14  C   UNL A   1      31.524  27.803  26.350  1.00  0.00     0.013 A 
ATOM     15  C   UNL A   1      33.433  27.946  24.898  1.00  0.00     0.132 A 
ATOM     16  C   UNL A   1      31.663  29.158  26.668  1.00  0.00     0.001 A 
ATOM     17  C   UNL A   1      33.582  29.294  25.223  1.00  0.00     0.040 A 
ATOM     18  F   UNL A   1      34.302  27.429  24.017  1.00  0.00    -0.206 F 
ATOM     19  C   UNL A   1      32.691  29.905  26.100  1.00  0.00     0.003 A 
ENDBRANCH   9  13
BRANCH  12  20
ATOM     20  C   UNL A   1      31.476  26.557  22.613  1.00  0.00     0.229 C 
ATOM     21  O   UNL A   1      32.428  26.492  21.838  1.00  0.00    -0.275 OA
ATOM     22  N   UNL A   1      30.605  27.585  22.403  1.00  0.00    -0.355 N 
ATOM     23  H   UNL A   1      30.784  28.124  21.599  1.00  0.00     0.163 HD
BRANCH  22  24
ATOM     24  C   UNL A   1      29.459  28.010  23.177  1.00  0.00     0.125 C 
BRANCH  24  25
ATOM     25  C   UNL A   1      29.087  29.479  22.919  1.00  0.00     0.011 C 
ATOM     26  C   UNL A   1      27.613  29.714  23.288  1.00  0.00     0.011 C 
ATOM     27  C   UNL A   1      29.803  30.436  23.889  1.00  0.00     0.011 C 
ATOM     28  C   UNL A   1      27.505  31.206  23.577  1.00  0.00     0.001 C 
ATOM     29  C   UNL A   1      28.905  31.664  23.983  1.00  0.00     0.001 C 
BRANCH  25  30
ATOM     30  C   UNL A   1      29.346  29.852  21.442  1.00  0.00     0.164 C 
BRANCH  30  31
ATOM     31  O   UNL A   1      30.727  30.106  21.208  1.00  0.00    -0.396 OA
ATOM     32  H   UNL A   1      30.892  31.060  21.242  1.00  0.00     0.210 HD
ENDBRANCH  30  31
ENDBRANCH  25  30
ENDBRANCH  24  25
ENDBRANCH  22  24
ENDBRANCH  12  20
ENDBRANCH   3   6
ENDBRANCH   1   2
BRANCH   1  33
ATOM     33  C   UNL A   1      35.751  21.250  25.735  1.00  0.00     0.023 C 
BRANCH  33  34
ATOM     34  C   UNL A   1      36.980  21.122  24.844  1.00  0.00     0.023 C 
BRANCH  34  35
ATOM     35  C   UNL A   1      38.319  21.277  25.557  1.00  0.00     0.116 C 
BRANCH  35  36
ATOM     36  N   UNL A   1      39.148  20.080  25.504  1.00  0.00    -0.352 N 
ATOM     37  C   UNL A   1      40.456  19.911  25.897  1.00  0.00     0.251 C 
ATOM     38  H   UNL A   1      38.711  19.278  25.135  1.00  0.00     0.163 HD
ATOM     39  O   UNL A   1      41.045  18.854  25.688  1.00  0.00    -0.269 OA
BRANCH  37  40
ATOM     40  C   UNL A   1      41.173  21.034  26.534  1.00  0.00     0.039 A 
ATOM     41  C   UNL A   1      41.841  21.952  25.720  1.00  0.00     0.014 A 
ATOM     42  C   UNL A   1      41.128  21.218  27.918  1.00  0.00     0.014 A 
ATOM     43  C   UNL A   1      42.371  23.114  26.283  1.00  0.00     0.010 A 
ATOM     44  C   UNL A   1      41.594  22.409  28.468  1.00  0.00     0.010 A 
ATOM     45  C   UNL A   1      42.195  23.380  27.652  1.00  0.00    -0.014 A 
BRANCH  45  46
ATOM     46  C   UNL A   1      42.564  24.694  28.235  1.00  0.00     0.031 A 
ATOM     47  C   UNL A   1      41.532  25.768  28.415  1.00  0.00     0.074 A 
ATOM     48  C   UNL A   1      43.858  24.948  28.514  1.00  0.00     0.049 A 
ATOM     49  N   UNL A   1      41.688  27.005  28.812  1.00  0.00    -0.248 NA
ATOM     50  C   UNL A   1      40.144  25.411  28.085  1.00  0.00     0.031 C 
ATOM     51  C   UNL A   1      44.965  24.005  28.337  1.00  0.00     0.029 A 
ATOM     52  N   UNL A   1      44.465  26.084  28.990  1.00  0.00    -0.354 N 
ATOM     53  C   UNL A   1      40.424  27.578  28.768  1.00  0.00     0.074 A 
ATOM     54  C   UNL A   1      39.519  26.567  28.265  1.00  0.00     0.031 C 
ATOM     55  C   UNL A   1      46.111  24.596  28.710  1.00  0.00     0.029 A 
ATOM     56  C   UNL A   1      45.829  25.970  29.112  1.00  0.00     0.049 A 
ATOM     57  H   UNL A   1      43.970  26.903  29.222  1.00  0.00     0.167 HD
ATOM     58  C   UNL A   1      40.052  28.828  29.132  1.00  0.00     0.037 A 
ATOM     59  C   UNL A   1      46.754  26.874  29.485  1.00  0.00     0.037 A 
ATOM     60  C   UNL A   1      40.952  29.828  29.647  1.00  0.00     0.049 A 
ATOM     61  C   UNL A   1      46.317  28.263  29.856  1.00  0.00     0.074 A 
ATOM     62  C   UNL A   1      40.654  31.097  30.112  1.00  0.00     0.029 A 
ATOM     63  N   UNL A   1      42.325  29.674  29.755  1.00  0.00    -0.354 N 
ATOM     64  N   UNL A   1      45.108  28.769  29.881  1.00  0.00    -0.248 NA
ATOM     65  C   UNL A   1      47.372  29.208  30.244  1.00  0.00     0.031 C 
ATOM     66  C   UNL A   1      41.854  31.729  30.456  1.00  0.00     0.029 A 
ATOM     67  C   UNL A   1      42.894  30.838  30.247  1.00  0.00     0.049 A 
ATOM     68  H   UNL A   1      42.823  28.859  29.517  1.00  0.00     0.167 HD
ATOM     69  C   UNL A   1      45.255  30.083  30.302  1.00  0.00     0.074 A 
ATOM     70  C   UNL A   1      46.668  30.292  30.541  1.00  0.00     0.031 C 
ATOM     71  C   UNL A   1      44.304  31.035  30.471  1.00  0.00     0.037 A 
BRANCH  58  72
ATOM     72  C   UNL A   1      38.602  29.189  28.986  1.00  0.00     0.057 A 
ATOM     73  C   UNL A   1      37.716  29.130  30.069  1.00  0.00     0.134 A 
ATOM     74  C   UNL A   1      38.098  29.642  27.761  1.00  0.00     0.134 A 
ATOM     75  F   UNL A   1      38.134  28.695  31.267  1.00  0.00    -0.206 F 
ATOM     76  C   UNL A   1      36.374  29.489  29.933  1.00  0.00     0.040 A 
ATOM     77  C   UNL A   1      36.764  30.027  27.619  1.00  0.00     0.040 A 
ATOM     78  F   UNL A   1      38.895  29.728  26.685  1.00  0.00    -0.206 F 
ATOM     79  C   UNL A   1      35.896  29.946  28.706  1.00  0.00     0.006 A 
ENDBRANCH  58  72
BRANCH  59  80
ATOM     80  C   UNL A   1      48.188  26.497  29.526  1.00  0.00     0.057 A 
ATOM     81  C   UNL A   1      48.746  25.902  30.663  1.00  0.00     0.134 A 
ATOM     82  C   UNL A   1      49.037  26.725  28.436  1.00  0.00     0.134 A 
ATOM     83  F   UNL A   1      47.988  25.678  31.748  1.00  0.00    -0.206 F 
ATOM     84  C   UNL A   1      50.098  25.561  30.722  1.00  0.00     0.040 A 
ATOM     85  C   UNL A   1      50.385  26.367  28.471  1.00  0.00     0.040 A 
ATOM     86  F   UNL A   1      48.563  27.288  27.315  1.00  0.00    -0.206 F 
ATOM     87  C   UNL A   1      50.920  25.789  29.621  1.00  0.00     0.006 A 
ENDBRANCH  59  80
BRANCH  71  88
ATOM     88  C   UNL A   1      44.762  32.382  30.945  1.00  0.00     0.057 A 
ATOM     89  C   UNL A   1      45.058  33.415  30.047  1.00  0.00     0.134 A 
ATOM     90  C   UNL A   1      44.875  32.661  32.313  1.00  0.00     0.134 A 
ATOM     91  F   UNL A   1      44.983  33.206  28.724  1.00  0.00    -0.206 F 
ATOM     92  C   UNL A   1      45.470  34.672  30.492  1.00  0.00     0.040 A 
ATOM     93  C   UNL A   1      45.261  33.921  32.771  1.00  0.00     0.040 A 
ATOM     94  F   UNL A   1      44.599  31.717  33.226  1.00  0.00    -0.206 F 
ATOM     95  C   UNL A   1      45.565  34.929  31.858  1.00  0.00     0.006 A 
ENDBRANCH  71  88
ENDBRANCH  45  46
ENDBRANCH  37  40
ENDBRANCH  35  36
ENDBRANCH  34  35
ENDBRANCH  33  34
ENDBRANCH   1  33
TORSDOF 17
ENDMDL
MODEL 2
REMARK VINA RESULT:     -12.5      0.652      6.027
REMARK SMILES C[N@H+]1[C@H](C(=O)NCCCCNC(=O)c2ccc(-c3c4nc(c(-c5c(F)cccc5F)c5ccc([nH]5)c(-c5c(F)cccc5F)c5nc(c(-c6c(F)cccc6F)c6ccc3[nH]6)C=C5)C=C4)cc2)C[C@H](C(=O)NCC2(CO)CCCC2)[C@@H]1c1ccccc1F
REMARK SMILES IDX 7 1 6 2 4 3 5 4 3 6 1 7 2 8 81 9 68 11 69 12 82 13 83 14
REMARK SMILES IDX 87 15 84 16 86 17 88 18 85 19 70 20 71 21 72 22 73 24 74 25
REMARK SMILES IDX 77 26 80 27 78 28 79 29 75 30 76 31 8 33 9 34 10 35 11 36
REMARK SMILES IDX 12 37 13 39 14 40 15 41 67 42 16 43 66 44 17 45 18 46 19 47
REMARK SMILES IDX 60 48 20 49 65 50 59 51 61 52 21 53 64 54 58 55 57 56 22 58
REMARK SMILES IDX 48 59 31 60 47 61 32 62 35 63 46 64 62 65 33 66 34 67 45 69
REMARK SMILES IDX 63 70 36 71 23 72 24 73 29 74 25 75 26 76 28 77 30 78 27 79
REMARK SMILES IDX 49 80 50 81 55 82 51 83 52 84 54 85 56 86 53 87 37 88 38 89
REMARK SMILES IDX 43 90 39 91 40 92 42 93 44 94 41 95
REMARK H PARENT 6 5 2 10 72 23 76 32 11 38 61 57 35 68
REMARK Flexibility Score: inf
ROOT
ATOM      1  C   UNL A   1      34.521  21.334  25.025  1.00  0.00     0.116 C 
ENDROOT
BRANCH   1   2
ATOM      2  N   UNL A   1      34.572  21.974  23.728  1.00  0.00    -0.351 N 
ATOM      3  C   UNL A   1      33.805  23.002  23.255  1.00  0.00     0.278 C 
ATOM      4  O   UNL A   1      34.036  23.408  22.111  1.00  0.00    -0.268 OA
ATOM      5  H   UNL A   1      35.247  21.622  23.104  1.00  0.00     0.163 HD
BRANCH   3   6
ATOM      6  C   UNL A   1      32.736  23.693  24.124  1.00  0.00     0.275 C 
ATOM      7  C   UNL A   1      33.976  24.625  25.981  1.00  0.00     0.333 C 
ATOM      8  N   UNL A   1      33.232  24.930  24.760  1.00  0.00    -0.320 N 
ATOM      9  C   UNL A   1      32.053  25.792  24.962  1.00  0.00     0.231 C 
ATOM     10  H   UNL A   1      33.909  25.424  24.178  1.00  0.00     0.349 HD
ATOM     11  C   UNL A   1      31.494  24.093  23.334  1.00  0.00     0.095 C 
ATOM     12  C   UNL A   1      31.185  25.556  23.697  1.00  0.00     0.148 C 
BRANCH   9  13
ATOM     13  C   UNL A   1      32.273  27.250  25.310  1.00  0.00     0.046 A 
ATOM     14  C   UNL A   1      33.283  27.953  24.620  1.00  0.00     0.013 A 
ATOM     15  C   UNL A   1      31.605  27.927  26.339  1.00  0.00     0.132 A 
ATOM     16  C   UNL A   1      33.621  29.264  24.967  1.00  0.00     0.001 A 
ATOM     17  C   UNL A   1      31.931  29.241  26.680  1.00  0.00     0.040 A 
ATOM     18  F   UNL A   1      30.643  27.330  27.058  1.00  0.00    -0.206 F 
ATOM     19  C   UNL A   1      32.947  29.907  26.001  1.00  0.00     0.003 A 
ENDBRANCH   9  13
BRANCH  12  20
ATOM     20  C   UNL A   1      31.393  26.502  22.497  1.00  0.00     0.229 C 
ATOM     21  O   UNL A   1      32.316  26.419  21.690  1.00  0.00    -0.275 OA
ATOM     22  N   UNL A   1      30.515  27.527  22.296  1.00  0.00    -0.355 N 
ATOM     23  H   UNL A   1      30.665  28.047  21.474  1.00  0.00     0.163 HD
BRANCH  22  24
ATOM     24  C   UNL A   1      29.397  27.969  23.100  1.00  0.00     0.125 C 
BRANCH  24  25
ATOM     25  C   UNL A   1      29.083  29.461  22.900  1.00  0.00     0.011 C 
ATOM     26  C   UNL A   1      27.613  29.736  23.261  1.00  0.00     0.011 C 
ATOM     27  C   UNL A   1      29.820  30.349  23.919  1.00  0.00     0.011 C 
ATOM     28  C   UNL A   1      27.557  31.217  23.611  1.00  0.00     0.001 C 
ATOM     29  C   UNL A   1      28.966  31.605  24.052  1.00  0.00     0.001 C 
BRANCH  25  30
ATOM     30  C   UNL A   1      29.376  29.885  21.444  1.00  0.00     0.164 C 
BRANCH  30  31
ATOM     31  O   UNL A   1      30.766  30.114  21.241  1.00  0.00    -0.396 OA
ATOM     32  H   UNL A   1      30.973  31.042  21.433  1.00  0.00     0.210 HD
ENDBRANCH  30  31
ENDBRANCH  25  30
ENDBRANCH  24  25
ENDBRANCH  22  24
ENDBRANCH  12  20
ENDBRANCH   3   6
ENDBRANCH   1   2
BRANCH   1  33
ATOM     33  C   UNL A   1      35.847  21.349  25.770  1.00  0.00     0.023 C 
BRANCH  33  34
ATOM     34  C   UNL A   1      37.029  20.821  24.968  1.00  0.00     0.023 C 
BRANCH  34  35
ATOM     35  C   UNL A   1      38.401  21.089  25.579  1.00  0.00     0.116 C 
BRANCH  35  36
ATOM     36  N   UNL A   1      39.276  19.924  25.579  1.00  0.00    -0.352 N 
ATOM     37  C   UNL A   1      40.590  19.824  25.973  1.00  0.00     0.251 C 
ATOM     38  H   UNL A   1      38.869  19.089  25.251  1.00  0.00     0.163 HD
ATOM     39  O   UNL A   1      41.220  18.783  25.811  1.00  0.00    -0.269 OA
BRANCH  37  40
ATOM     40  C   UNL A   1      41.266  21.004  26.552  1.00  0.00     0.039 A 
ATOM     41  C   UNL A   1      41.933  21.883  25.695  1.00  0.00     0.014 A 
ATOM     42  C   UNL A   1      41.181  21.276  27.919  1.00  0.00     0.014 A 
ATOM     43  C   UNL A   1      42.422  23.091  26.193  1.00  0.00     0.010 A 
ATOM     44  C   UNL A   1      41.606  22.511  28.400  1.00  0.00     0.010 A 
ATOM     45  C   UNL A   1      42.205  23.441  27.537  1.00  0.00    -0.014 A 
BRANCH  45  46
ATOM     46  C   UNL A   1      42.530  24.799  28.041  1.00  0.00     0.031 A 
ATOM     47  C   UNL A   1      43.917  25.130  28.508  1.00  0.00     0.074 A 
ATOM     48  C   UNL A   1      41.542  25.707  28.165  1.00  0.00     0.049 A 
ATOM     49  N   UNL A   1      44.360  26.226  29.070  1.00  0.00    -0.248 NA
ATOM     50  C   UNL A   1      44.937  24.084  28.341  1.00  0.00     0.031 C 
ATOM     51  C   UNL A   1      40.141  25.493  27.793  1.00  0.00     0.029 A 
ATOM     52  N   UNL A   1      41.560  26.990  28.656  1.00  0.00    -0.354 N 
ATOM     53  C   UNL A   1      45.703  25.999  29.335  1.00  0.00     0.074 A 
ATOM     54  C   UNL A   1      45.994  24.645  28.912  1.00  0.00     0.031 C 
ATOM     55  C   UNL A   1      39.440  26.605  28.057  1.00  0.00     0.029 A 
ATOM     56  C   UNL A   1      40.327  27.597  28.655  1.00  0.00     0.049 A 
ATOM     57  H   UNL A   1      42.378  27.432  28.978  1.00  0.00     0.167 HD
ATOM     58  C   UNL A   1      46.614  26.848  29.866  1.00  0.00     0.037 A 
ATOM     59  C   UNL A   1      39.948  28.808  29.104  1.00  0.00     0.037 A 
ATOM     60  C   UNL A   1      46.325  28.199  30.273  1.00  0.00     0.049 A 
ATOM     61  C   UNL A   1      40.973  29.720  29.716  1.00  0.00     0.074 A 
ATOM     62  C   UNL A   1      47.199  29.159  30.752  1.00  0.00     0.029 A 
ATOM     63  N   UNL A   1      45.066  28.778  30.256  1.00  0.00    -0.354 N 
ATOM     64  N   UNL A   1      42.256  29.520  29.892  1.00  0.00    -0.248 NA
ATOM     65  C   UNL A   1      40.497  31.024  30.196  1.00  0.00     0.031 C 
ATOM     66  C   UNL A   1      46.460  30.303  31.071  1.00  0.00     0.029 A 
ATOM     67  C   UNL A   1      45.132  30.071  30.750  1.00  0.00     0.049 A 
ATOM     68  H   UNL A   1      44.245  28.335  29.941  1.00  0.00     0.167 HD
ATOM     69  C   UNL A   1      42.743  30.675  30.487  1.00  0.00     0.074 A 
ATOM     70  C   UNL A   1      41.622  31.581  30.624  1.00  0.00     0.031 C 
ATOM     71  C   UNL A   1      44.006  30.959  30.889  1.00  0.00     0.037 A 
BRANCH  58  72
ATOM     72  C   UNL A   1      48.015  26.341  30.040  1.00  0.00     0.057 A 
ATOM     73  C   UNL A   1      48.975  26.466  29.028  1.00  0.00     0.134 A 
ATOM     74  C   UNL A   1      48.421  25.760  31.249  1.00  0.00     0.134 A 
ATOM     75  F   UNL A   1      48.648  27.004  27.843  1.00  0.00    -0.206 F 
ATOM     76  C   UNL A   1      50.284  26.014  29.203  1.00  0.00     0.040 A 
ATOM     77  C   UNL A   1      49.734  25.326  31.445  1.00  0.00     0.040 A 
ATOM     78  F   UNL A   1      47.553  25.616  32.261  1.00  0.00    -0.206 F 
ATOM     79  C   UNL A   1      50.668  25.448  30.418  1.00  0.00     0.006 A 
ENDBRANCH  58  72
BRANCH  59  80
ATOM     80  C   UNL A   1      38.530  29.231  28.993  1.00  0.00     0.057 A 
ATOM     81  C   UNL A   1      38.007  29.693  27.781  1.00  0.00     0.134 A 
ATOM     82  C   UNL A   1      37.665  29.188  30.094  1.00  0.00     0.134 A 
ATOM     83  F   UNL A   1      38.792  29.777  26.696  1.00  0.00    -0.206 F 
ATOM     84  C   UNL A   1      36.680  30.113  27.668  1.00  0.00     0.040 A 
ATOM     85  C   UNL A   1      36.330  29.581  29.991  1.00  0.00     0.040 A 
ATOM     86  F   UNL A   1      38.104  28.751  31.284  1.00  0.00    -0.206 F 
ATOM     87  C   UNL A   1      35.837  30.052  28.776  1.00  0.00     0.006 A 
ENDBRANCH  59  80
BRANCH  71  88
ATOM     88  C   UNL A   1      44.241  32.305  31.507  1.00  0.00     0.057 A 
ATOM     89  C   UNL A   1      44.544  33.428  30.727  1.00  0.00     0.134 A 
ATOM     90  C   UNL A   1      44.131  32.488  32.891  1.00  0.00     0.134 A 
ATOM     91  F   UNL A   1      44.679  33.315  29.397  1.00  0.00    -0.206 F 
ATOM     92  C   UNL A   1      44.748  34.682  31.304  1.00  0.00     0.040 A 
ATOM     93  C   UNL A   1      44.308  33.742  33.477  1.00  0.00     0.040 A 
ATOM     94  F   UNL A   1      43.836  31.454  33.694  1.00  0.00    -0.206 F 
ATOM     95  C   UNL A   1      44.622  34.842  32.682  1.00  0.00     0.006 A 
ENDBRANCH  71  88
ENDBRANCH  45  46
ENDBRANCH  37  40
ENDBRANCH  35  36
ENDBRANCH  34  35
ENDBRANCH  33  34
ENDBRANCH   1  33
TORSDOF 17
ENDMDL
MODEL 3
REMARK VINA RESULT:     -12.4      3.925      9.224
REMARK SMILES C[N@H+]1[C@H](C(=O)NCCCCNC(=O)c2ccc(-c3c4nc(c(-c5c(F)cccc5F)c5ccc([nH]5)c(-c5c(F)cccc5F)c5nc(c(-c6c(F)cccc6F)c6ccc3[nH]6)C=C5)C=C4)cc2)C[C@H](C(=O)NCC2(CO)CCCC2)[C@@H]1c1ccccc1F
REMARK SMILES IDX 7 1 6 2 4 3 5 4 3 6 1 7 2 8 81 9 68 11 69 12 82 13 83 14
REMARK SMILES IDX 87 15 84 16 86 17 88 18 85 19 70 20 71 21 72 22 73 24 74 25
REMARK SMILES IDX 77 26 80 27 78 28 79 29 75 30 76 31 8 33 9 34 10 35 11 36
REMARK SMILES IDX 12 37 13 39 14 40 15 41 67 42 16 43 66 44 17 45 18 46 19 47
REMARK SMILES IDX 60 48 20 49 65 50 59 51 61 52 21 53 64 54 58 55 57 56 22 58
REMARK SMILES IDX 48 59 31 60 47 61 32 62 35 63 46 64 62 65 33 66 34 67 45 69
REMARK SMILES IDX 63 70 36 71 23 72 24 73 29 74 25 75 26 76 28 77 30 78 27 79
REMARK SMILES IDX 49 80 50 81 55 82 51 83 52 84 54 85 56 86 53 87 37 88 38 89
REMARK SMILES IDX 43 90 39 91 40 92 42 93 44 94 41 95
REMARK H PARENT 6 5 2 10 72 23 76 32 11 38 61 57 35 68
REMARK Flexibility Score: inf
ROOT
ATOM      1  C   UNL A   1      30.664  28.392  23.901  1.00  0.00     0.116 C 
ENDROOT
BRANCH   1   2
ATOM      2  N   UNL A   1      30.368  27.553  25.044  1.00  0.00    -0.351 N 
ATOM      3  C   UNL A   1      30.682  26.237  25.237  1.00  0.00     0.278 C 
ATOM      4  O   UNL A   1      30.345  25.720  26.308  1.00  0.00    -0.268 OA
ATOM      5  H   UNL A   1      29.876  27.988  25.776  1.00  0.00     0.163 HD
BRANCH   3   6
ATOM      6  C   UNL A   1      31.491  25.426  24.205  1.00  0.00     0.275 C 
ATOM      7  C   UNL A   1      33.685  26.447  24.219  1.00  0.00     0.333 C 
ATOM      8  N   UNL A   1      32.907  25.267  24.591  1.00  0.00    -0.320 N 
ATOM      9  C   UNL A   1      33.366  24.012  23.965  1.00  0.00     0.231 C 
ATOM     10  H   UNL A   1      33.032  25.198  25.601  1.00  0.00     0.349 HD
ATOM     11  C   UNL A   1      30.947  24.018  23.996  1.00  0.00     0.095 C 
ATOM     12  C   UNL A   1      32.147  23.058  24.084  1.00  0.00     0.148 C 
BRANCH   9  13
ATOM     13  C   UNL A   1      34.680  23.413  24.424  1.00  0.00     0.046 A 
ATOM     14  C   UNL A   1      35.450  22.701  23.481  1.00  0.00     0.013 A 
ATOM     15  C   UNL A   1      35.141  23.437  25.747  1.00  0.00     0.132 A 
ATOM     16  C   UNL A   1      36.614  22.024  23.858  1.00  0.00     0.001 A 
ATOM     17  C   UNL A   1      36.308  22.773  26.124  1.00  0.00     0.040 A 
ATOM     18  F   UNL A   1      34.462  24.076  26.711  1.00  0.00    -0.206 F 
ATOM     19  C   UNL A   1      37.041  22.056  25.183  1.00  0.00     0.003 A 
ENDBRANCH   9  13
BRANCH  12  20
ATOM     20  C   UNL A   1      32.065  22.147  25.325  1.00  0.00     0.229 C 
ATOM     21  O   UNL A   1      31.915  22.546  26.479  1.00  0.00    -0.275 OA
ATOM     22  N   UNL A   1      32.181  20.797  25.171  1.00  0.00    -0.355 N 
ATOM     23  H   UNL A   1      32.050  20.272  25.993  1.00  0.00     0.163 HD
BRANCH  22  24
ATOM     24  C   UNL A   1      32.467  20.013  23.989  1.00  0.00     0.125 C 
BRANCH  24  25
ATOM     25  C   UNL A   1      33.051  18.631  24.327  1.00  0.00     0.011 C 
ATOM     26  C   UNL A   1      32.992  17.726  23.085  1.00  0.00     0.011 C 
ATOM     27  C   UNL A   1      34.566  18.693  24.590  1.00  0.00     0.011 C 
ATOM     28  C   UNL A   1      34.072  16.674  23.305  1.00  0.00     0.001 C 
ATOM     29  C   UNL A   1      35.091  17.301  24.253  1.00  0.00     0.001 C 
BRANCH  25  30
ATOM     30  C   UNL A   1      32.283  17.993  25.505  1.00  0.00     0.164 C 
BRANCH  30  31
ATOM     31  O   UNL A   1      32.796  18.437  26.757  1.00  0.00    -0.396 OA
ATOM     32  H   UNL A   1      33.260  17.706  27.194  1.00  0.00     0.210 HD
ENDBRANCH  30  31
ENDBRANCH  25  30
ENDBRANCH  24  25
ENDBRANCH  22  24
ENDBRANCH  12  20
ENDBRANCH   3   6
ENDBRANCH   1   2
BRANCH   1  33
ATOM     33  C   UNL A   1      31.543  29.588  24.229  1.00  0.00     0.023 C 
BRANCH  33  34
ATOM     34  C   UNL A   1      31.083  30.401  25.432  1.00  0.00     0.023 C 
BRANCH  34  35
ATOM     35  C   UNL A   1      32.191  30.841  26.382  1.00  0.00     0.116 C 
BRANCH  35  36
ATOM     36  N   UNL A   1      32.058  32.219  26.836  1.00  0.00    -0.352 N 
ATOM     37  C   UNL A   1      32.930  32.976  27.583  1.00  0.00     0.251 C 
ATOM     38  H   UNL A   1      31.226  32.673  26.569  1.00  0.00     0.163 HD
ATOM     39  O   UNL A   1      32.618  34.098  27.971  1.00  0.00    -0.269 OA
BRANCH  37  40
ATOM     40  C   UNL A   1      34.239  32.409  27.966  1.00  0.00     0.039 A 
ATOM     41  C   UNL A   1      35.343  33.262  28.048  1.00  0.00     0.014 A 
ATOM     42  C   UNL A   1      34.362  31.060  28.308  1.00  0.00     0.014 A 
ATOM     43  C   UNL A   1      36.543  32.787  28.579  1.00  0.00     0.010 A 
ATOM     44  C   UNL A   1      35.536  30.606  28.902  1.00  0.00     0.010 A 
ATOM     45  C   UNL A   1      36.628  31.472  29.067  1.00  0.00    -0.014 A 
BRANCH  45  46
ATOM     46  C   UNL A   1      37.820  31.005  29.820  1.00  0.00     0.031 A 
ATOM     47  C   UNL A   1      38.784  30.038  29.199  1.00  0.00     0.074 A 
ATOM     48  C   UNL A   1      37.977  31.387  31.103  1.00  0.00     0.049 A 
ATOM     49  N   UNL A   1      39.820  29.446  29.737  1.00  0.00    -0.248 NA
ATOM     50  C   UNL A   1      38.541  29.670  27.797  1.00  0.00     0.031 C 
ATOM     51  C   UNL A   1      37.082  32.285  31.837  1.00  0.00     0.029 A 
ATOM     52  N   UNL A   1      38.938  31.052  32.025  1.00  0.00    -0.354 N 
ATOM     53  C   UNL A   1      40.344  28.627  28.746  1.00  0.00     0.074 A 
ATOM     54  C   UNL A   1      39.488  28.766  27.587  1.00  0.00     0.031 C 
ATOM     55  C   UNL A   1      37.541  32.439  33.088  1.00  0.00     0.029 A 
ATOM     56  C   UNL A   1      38.737  31.620  33.260  1.00  0.00     0.049 A 
ATOM     57  H   UNL A   1      39.698  30.461  31.821  1.00  0.00     0.167 HD
ATOM     58  C   UNL A   1      41.449  27.846  28.794  1.00  0.00     0.037 A 
ATOM     59  C   UNL A   1      39.424  31.483  34.409  1.00  0.00     0.037 A 
ATOM     60  C   UNL A   1      42.309  27.722  29.943  1.00  0.00     0.049 A 
ATOM     61  C   UNL A   1      40.630  30.587  34.443  1.00  0.00     0.074 A 
ATOM     62  C   UNL A   1      43.491  27.014  30.061  1.00  0.00     0.029 A 
ATOM     63  N   UNL A   1      42.072  28.313  31.174  1.00  0.00    -0.354 N 
ATOM     64  N   UNL A   1      41.158  29.876  33.476  1.00  0.00    -0.248 NA
ATOM     65  C   UNL A   1      41.333  30.469  35.727  1.00  0.00     0.031 C 
ATOM     66  C   UNL A   1      43.945  27.136  31.378  1.00  0.00     0.029 A 
ATOM     67  C   UNL A   1      43.068  27.957  32.069  1.00  0.00     0.049 A 
ATOM     68  H   UNL A   1      41.308  28.898  31.383  1.00  0.00     0.167 HD
ATOM     69  C   UNL A   1      42.261  29.242  34.029  1.00  0.00     0.074 A 
ATOM     70  C   UNL A   1      42.339  29.666  35.411  1.00  0.00     0.031 C 
ATOM     71  C   UNL A   1      43.129  28.379  33.446  1.00  0.00     0.037 A 
BRANCH  58  72
ATOM     72  C   UNL A   1      41.796  27.061  27.563  1.00  0.00     0.057 A 
ATOM     73  C   UNL A   1      41.347  25.747  27.377  1.00  0.00     0.134 A 
ATOM     74  C   UNL A   1      42.549  27.639  26.534  1.00  0.00     0.134 A 
ATOM     75  F   UNL A   1      40.630  25.132  28.329  1.00  0.00    -0.206 F 
ATOM     76  C   UNL A   1      41.652  25.028  26.219  1.00  0.00     0.040 A 
ATOM     77  C   UNL A   1      42.839  26.940  25.361  1.00  0.00     0.040 A 
ATOM     78  F   UNL A   1      43.004  28.896  26.646  1.00  0.00    -0.206 F 
ATOM     79  C   UNL A   1      42.395  25.628  25.204  1.00  0.00     0.006 A 
ENDBRANCH  58  72
BRANCH  59  80
ATOM     80  C   UNL A   1      38.989  32.210  35.627  1.00  0.00     0.057 A 
ATOM     81  C   UNL A   1      39.348  33.546  35.837  1.00  0.00     0.134 A 
ATOM     82  C   UNL A   1      38.210  31.590  36.611  1.00  0.00     0.134 A 
ATOM     83  F   UNL A   1      40.111  34.189  34.940  1.00  0.00    -0.206 F 
ATOM     84  C   UNL A   1      38.962  34.236  36.988  1.00  0.00     0.040 A 
ATOM     85  C   UNL A   1      37.796  32.273  37.755  1.00  0.00     0.040 A 
ATOM     86  F   UNL A   1      37.829  30.311  36.468  1.00  0.00    -0.206 F 
ATOM     87  C   UNL A   1      38.179  33.599  37.948  1.00  0.00     0.006 A 
ENDBRANCH  59  80
BRANCH  71  88
ATOM     88  C   UNL A   1      44.241  27.847  34.299  1.00  0.00     0.057 A 
ATOM     89  C   UNL A   1      44.120  26.636  34.991  1.00  0.00     0.134 A 
ATOM     90  C   UNL A   1      45.457  28.534  34.403  1.00  0.00     0.134 A 
ATOM     91  F   UNL A   1      42.976  25.938  34.945  1.00  0.00    -0.206 F 
ATOM     92  C   UNL A   1      45.163  26.136  35.773  1.00  0.00     0.040 A 
ATOM     93  C   UNL A   1      46.516  28.032  35.160  1.00  0.00     0.040 A 
ATOM     94  F   UNL A   1      45.640  29.697  33.758  1.00  0.00    -0.206 F 
ATOM     95  C   UNL A   1      46.368  26.832  35.852  1.00  0.00     0.006 A 
ENDBRANCH  71  88
ENDBRANCH  45  46
ENDBRANCH  37  40
ENDBRANCH  35  36
ENDBRANCH  34  35
ENDBRANCH  33  34
ENDBRANCH   1  33
TORSDOF 17
ENDMDL
