MODEL 1
REMARK VINA RESULT:     -12.0      0.000      0.000
REMARK SMILES Cc1ccc(O)c(C(=O)[C@@H]2[C@@H](C(=O)NCCCCNC(=O)c3ccc(-c4c5nc(c(-c6c(F)cccc6F)c6ccc([nH]6)c(-c6c(F)cccc6F)c6nc(c(-c7c(F)cccc7F)c7ccc4[nH]7)C=C6)C=C5)cc3)[C@H]3C=C[C@@H]2C3)c1
REMARK SMILES IDX 16 1 15 2 14 3 12 4 13 5 11 7 10 8 79 9 76 10 78 11 80 12
REMARK SMILES IDX 77 13 8 14 9 15 7 16 1 17 2 18 3 19 81 20 4 21 5 22 6 23
REMARK SMILES IDX 17 25 18 26 19 27 20 28 21 30 22 31 23 32 75 33 24 34 74 35
REMARK SMILES IDX 25 36 26 37 27 38 68 39 28 40 73 41 67 42 69 43 29 44 72 45
REMARK SMILES IDX 66 46 65 47 30 49 56 50 39 51 55 52 40 53 43 54 54 55 70 56
REMARK SMILES IDX 41 57 42 58 53 60 71 61 44 62 31 63 32 64 37 65 33 66 34 67
REMARK SMILES IDX 36 68 38 69 35 70 57 71 58 72 63 73 59 74 60 75 62 76 64 77
REMARK SMILES IDX 61 78 45 79 46 80 51 81 47 82 48 83 50 84 52 85 49 86
REMARK H PARENT 14 6 6 24 19 29 69 48 43 59
REMARK Flexibility Score: inf
ROOT
ATOM      1  C   UNL A   1      37.354  22.111  24.621  1.00  0.00     0.023 C 
ENDROOT
BRANCH   1   2
ATOM      2  C   UNL A   1      36.921  23.018  25.771  1.00  0.00     0.116 C 
BRANCH   2   3
ATOM      3  N   UNL A   1      35.898  22.406  26.593  1.00  0.00    -0.356 N 
ATOM      4  C   UNL A   1      34.546  22.382  26.548  1.00  0.00     0.224 C 
ATOM      5  O   UNL A   1      33.995  21.762  27.468  1.00  0.00    -0.275 OA
ATOM      6  H   UNL A   1      36.266  21.895  27.350  1.00  0.00     0.163 HD
BRANCH   4   7
ATOM      7  C   UNL A   1      33.656  23.081  25.525  1.00  0.00     0.097 C 
ATOM      8  C   UNL A   1      32.117  22.993  25.646  1.00  0.00     0.081 C 
ATOM      9  C   UNL A   1      31.689  22.704  24.175  1.00  0.00     0.024 C 
ATOM     10  C   UNL A   1      33.931  22.677  24.045  1.00  0.00     0.025 C 
ATOM     11  C   UNL A   1      32.117  21.280  23.845  1.00  0.00    -0.027 C 
ATOM     12  C   UNL A   1      32.775  23.370  23.318  1.00  0.00     0.017 C 
ATOM     13  C   UNL A   1      33.458  21.280  23.750  1.00  0.00    -0.027 C 
BRANCH   8  14
ATOM     14  C   UNL A   1      31.457  24.158  26.401  1.00  0.00     0.171 C 
ATOM     15  O   UNL A   1      30.756  23.934  27.394  1.00  0.00    -0.294 OA
BRANCH  14  16
ATOM     16  C   UNL A   1      31.517  25.568  25.948  1.00  0.00     0.060 A 
ATOM     17  C   UNL A   1      34.002  28.429  25.893  1.00  0.00     0.044 C 
ATOM     18  C   UNL A   1      32.741  27.645  25.678  1.00  0.00    -0.050 A 
ATOM     19  C   UNL A   1      31.730  28.127  24.841  1.00  0.00     0.007 A 
ATOM     20  C   UNL A   1      32.571  26.403  26.300  1.00  0.00     0.019 A 
ATOM     21  C   UNL A   1      30.587  27.360  24.608  1.00  0.00     0.047 A 
ATOM     22  C   UNL A   1      30.487  26.082  25.152  1.00  0.00     0.126 A 
BRANCH  22  23
ATOM     23  O   UNL A   1      29.345  25.380  24.876  1.00  0.00    -0.507 OA
ATOM     24  H   UNL A   1      29.340  24.747  24.185  1.00  0.00     0.293 HD
ENDBRANCH  22  23
ENDBRANCH  14  16
ENDBRANCH   8  14
ENDBRANCH   4   7
ENDBRANCH   2   3
ENDBRANCH   1   2
BRANCH   1  25
ATOM     25  C   UNL A   1      37.879  20.746  25.035  1.00  0.00     0.023 C 
BRANCH  25  26
ATOM     26  C   UNL A   1      39.073  20.768  25.976  1.00  0.00     0.116 C 
BRANCH  26  27
ATOM     27  N   UNL A   1      40.002  19.658  25.806  1.00  0.00    -0.352 N 
ATOM     28  C   UNL A   1      41.358  19.650  26.062  1.00  0.00     0.251 C 
ATOM     29  H   UNL A   1      39.617  18.817  25.469  1.00  0.00     0.163 HD
ATOM     30  O   UNL A   1      42.044  18.671  25.829  1.00  0.00    -0.269 OA
BRANCH  28  31
ATOM     31  C   UNL A   1      41.962  20.894  26.579  1.00  0.00     0.039 A 
ATOM     32  C   UNL A   1      42.380  21.867  25.670  1.00  0.00     0.014 A 
ATOM     33  C   UNL A   1      41.970  21.143  27.953  1.00  0.00     0.014 A 
ATOM     34  C   UNL A   1      42.722  23.135  26.140  1.00  0.00     0.010 A 
ATOM     35  C   UNL A   1      42.220  22.429  28.408  1.00  0.00     0.010 A 
ATOM     36  C   UNL A   1      42.594  23.439  27.506  1.00  0.00    -0.014 A 
BRANCH  36  37
ATOM     37  C   UNL A   1      42.850  24.806  28.021  1.00  0.00     0.031 A 
ATOM     38  C   UNL A   1      44.243  25.198  28.424  1.00  0.00     0.074 A 
ATOM     39  C   UNL A   1      41.823  25.658  28.206  1.00  0.00     0.049 A 
ATOM     40  N   UNL A   1      44.662  26.303  28.984  1.00  0.00    -0.248 NA
ATOM     41  C   UNL A   1      45.301  24.197  28.206  1.00  0.00     0.031 C 
ATOM     42  C   UNL A   1      40.416  25.372  27.916  1.00  0.00     0.029 A 
ATOM     43  N   UNL A   1      41.805  26.940  28.695  1.00  0.00    -0.354 N 
ATOM     44  C   UNL A   1      46.020  26.119  29.206  1.00  0.00     0.074 A 
ATOM     45  C   UNL A   1      46.344  24.777  28.777  1.00  0.00     0.031 C 
ATOM     46  C   UNL A   1      39.677  26.455  28.206  1.00  0.00     0.029 A 
ATOM     47  C   UNL A   1      40.550  27.499  28.732  1.00  0.00     0.049 A 
ATOM     48  H   UNL A   1      42.614  27.414  28.992  1.00  0.00     0.167 HD
ATOM     49  C   UNL A   1      46.924  26.999  29.696  1.00  0.00     0.037 A 
ATOM     50  C   UNL A   1      40.153  28.718  29.144  1.00  0.00     0.037 A 
ATOM     51  C   UNL A   1      46.608  28.347  30.079  1.00  0.00     0.049 A 
ATOM     52  C   UNL A   1      41.180  29.690  29.655  1.00  0.00     0.074 A 
ATOM     53  C   UNL A   1      47.462  29.343  30.518  1.00  0.00     0.029 A 
ATOM     54  N   UNL A   1      45.332  28.892  30.061  1.00  0.00    -0.354 N 
ATOM     55  N   UNL A   1      42.474  29.527  29.792  1.00  0.00    -0.248 NA
ATOM     56  C   UNL A   1      40.694  31.016  30.061  1.00  0.00     0.031 C 
ATOM     57  C   UNL A   1      46.699  30.482  30.794  1.00  0.00     0.029 A 
ATOM     58  C   UNL A   1      45.374  30.206  30.492  1.00  0.00     0.049 A 
ATOM     59  H   UNL A   1      44.518  28.414  29.783  1.00  0.00     0.167 HD
ATOM     60  C   UNL A   1      42.960  30.735  30.275  1.00  0.00     0.074 A 
ATOM     61  C   UNL A   1      41.823  31.626  30.393  1.00  0.00     0.031 C 
ATOM     62  C   UNL A   1      44.232  31.077  30.591  1.00  0.00     0.037 A 
BRANCH  49  63
ATOM     63  C   UNL A   1      48.341  26.526  29.828  1.00  0.00     0.057 A 
ATOM     64  C   UNL A   1      49.286  26.739  28.815  1.00  0.00     0.134 A 
ATOM     65  C   UNL A   1      48.769  25.860  30.982  1.00  0.00     0.134 A 
ATOM     66  F   UNL A   1      48.934  27.356  27.676  1.00  0.00    -0.206 F 
ATOM     67  C   UNL A   1      50.598  26.281  28.933  1.00  0.00     0.040 A 
ATOM     68  C   UNL A   1      50.087  25.421  31.123  1.00  0.00     0.040 A 
ATOM     69  F   UNL A   1      47.916  25.626  31.991  1.00  0.00    -0.206 F 
ATOM     70  C   UNL A   1      51.004  25.625  30.093  1.00  0.00     0.006 A 
ENDBRANCH  49  63
BRANCH  50  71
ATOM     71  C   UNL A   1      38.722  29.104  29.056  1.00  0.00     0.057 A 
ATOM     72  C   UNL A   1      38.173  29.560  27.851  1.00  0.00     0.134 A 
ATOM     73  C   UNL A   1      37.874  29.040  30.168  1.00  0.00     0.134 A 
ATOM     74  F   UNL A   1      38.942  29.660  26.756  1.00  0.00    -0.206 F 
ATOM     75  C   UNL A   1      36.838  29.954  27.757  1.00  0.00     0.040 A 
ATOM     76  C   UNL A   1      36.531  29.411  30.083  1.00  0.00     0.040 A 
ATOM     77  F   UNL A   1      38.337  28.606  31.349  1.00  0.00    -0.206 F 
ATOM     78  C   UNL A   1      36.011  29.876  28.876  1.00  0.00     0.006 A 
ENDBRANCH  50  71
BRANCH  62  79
ATOM     79  C   UNL A   1      44.467  32.481  31.063  1.00  0.00     0.057 A 
ATOM     80  C   UNL A   1      44.721  33.526  30.168  1.00  0.00     0.134 A 
ATOM     81  C   UNL A   1      44.392  32.794  32.426  1.00  0.00     0.134 A 
ATOM     82  F   UNL A   1      44.817  33.287  28.852  1.00  0.00    -0.206 F 
ATOM     83  C   UNL A   1      44.909  34.835  30.614  1.00  0.00     0.040 A 
ATOM     84  C   UNL A   1      44.556  34.103  32.881  1.00  0.00     0.040 A 
ATOM     85  F   UNL A   1      44.144  31.838  33.332  1.00  0.00    -0.206 F 
ATOM     86  C   UNL A   1      44.821  35.127  31.975  1.00  0.00     0.006 A 
ENDBRANCH  62  79
ENDBRANCH  36  37
ENDBRANCH  28  31
ENDBRANCH  26  27
ENDBRANCH  25  26
ENDBRANCH   1  25
TORSDOF 14
ENDMDL
MODEL 2
REMARK VINA RESULT:     -12.0      4.406      9.009
REMARK SMILES Cc1ccc(O)c(C(=O)[C@@H]2[C@@H](C(=O)NCCCCNC(=O)c3ccc(-c4c5nc(c(-c6c(F)cccc6F)c6ccc([nH]6)c(-c6c(F)cccc6F)c6nc(c(-c7c(F)cccc7F)c7ccc4[nH]7)C=C6)C=C5)cc3)[C@H]3C=C[C@@H]2C3)c1
REMARK SMILES IDX 16 1 15 2 14 3 12 4 13 5 11 7 10 8 79 9 76 10 78 11 80 12
REMARK SMILES IDX 77 13 8 14 9 15 7 16 1 17 2 18 3 19 81 20 4 21 5 22 6 23
REMARK SMILES IDX 17 25 18 26 19 27 20 28 21 30 22 31 23 32 75 33 24 34 74 35
REMARK SMILES IDX 25 36 26 37 27 38 68 39 28 40 73 41 67 42 69 43 29 44 72 45
REMARK SMILES IDX 66 46 65 47 30 49 56 50 39 51 55 52 40 53 43 54 54 55 70 56
REMARK SMILES IDX 41 57 42 58 53 60 71 61 44 62 31 63 32 64 37 65 33 66 34 67
REMARK SMILES IDX 36 68 38 69 35 70 57 71 58 72 63 73 59 74 60 75 62 76 64 77
REMARK SMILES IDX 61 78 45 79 46 80 51 81 47 82 48 83 50 84 52 85 49 86
REMARK H PARENT 14 6 6 24 19 29 69 48 43 59
REMARK Flexibility Score: inf
ROOT
ATOM      1  C   UNL A   1      31.469  30.374  25.729  1.00  0.00     0.023 C 
ENDROOT
BRANCH   1   2
ATOM      2  C   UNL A   1      32.717  29.516  25.929  1.00  0.00     0.116 C 
BRANCH   2   3
ATOM      3  N   UNL A   1      33.570  29.514  24.758  1.00  0.00    -0.356 N 
ATOM      4  C   UNL A   1      33.785  28.634  23.753  1.00  0.00     0.224 C 
ATOM      5  O   UNL A   1      34.638  28.975  22.923  1.00  0.00    -0.275 OA
ATOM      6  H   UNL A   1      34.112  30.331  24.676  1.00  0.00     0.163 HD
BRANCH   4   7
ATOM      7  C   UNL A   1      33.129  27.267  23.584  1.00  0.00     0.097 C 
ATOM      8  C   UNL A   1      31.672  27.042  24.050  1.00  0.00     0.081 C 
ATOM      9  C   UNL A   1      31.772  25.671  24.785  1.00  0.00     0.024 C 
ATOM     10  C   UNL A   1      33.910  26.088  24.239  1.00  0.00     0.025 C 
ATOM     11  C   UNL A   1      32.545  25.898  26.077  1.00  0.00    -0.027 C 
ATOM     12  C   UNL A   1      32.918  24.934  24.075  1.00  0.00     0.017 C 
ATOM     13  C   UNL A   1      33.826  26.128  25.739  1.00  0.00    -0.027 C 
BRANCH   8  14
ATOM     14  C   UNL A   1      30.604  27.229  22.960  1.00  0.00     0.171 C 
ATOM     15  O   UNL A   1      30.703  26.627  21.886  1.00  0.00    -0.294 OA
BRANCH  14  16
ATOM     16  C   UNL A   1      29.482  28.191  23.068  1.00  0.00     0.060 A 
ATOM     17  C   UNL A   1      28.790  31.842  22.324  1.00  0.00     0.044 C 
ATOM     18  C   UNL A   1      28.578  30.421  22.752  1.00  0.00    -0.050 A 
ATOM     19  C   UNL A   1      27.293  29.930  23.001  1.00  0.00     0.007 A 
ATOM     20  C   UNL A   1      29.671  29.557  22.886  1.00  0.00     0.019 A 
ATOM     21  C   UNL A   1      27.108  28.590  23.344  1.00  0.00     0.047 A 
ATOM     22  C   UNL A   1      28.198  27.723  23.369  1.00  0.00     0.126 A 
BRANCH  22  23
ATOM     23  O   UNL A   1      27.945  26.421  23.703  1.00  0.00    -0.507 OA
ATOM     24  H   UNL A   1      27.193  26.207  24.219  1.00  0.00     0.293 HD
ENDBRANCH  22  23
ENDBRANCH  14  16
ENDBRANCH   8  14
ENDBRANCH   4   7
ENDBRANCH   2   3
ENDBRANCH   1   2
BRANCH   1  25
ATOM     25  C   UNL A   1      31.352  31.573  26.656  1.00  0.00     0.023 C 
BRANCH  25  26
ATOM     26  C   UNL A   1      32.439  32.624  26.498  1.00  0.00     0.116 C 
BRANCH  26  27
ATOM     27  N   UNL A   1      32.267  33.805  27.334  1.00  0.00    -0.352 N 
ATOM     28  C   UNL A   1      33.093  34.242  28.351  1.00  0.00     0.251 C 
ATOM     29  H   UNL A   1      31.471  34.355  27.153  1.00  0.00     0.163 HD
ATOM     30  O   UNL A   1      32.816  35.222  29.019  1.00  0.00    -0.269 OA
BRANCH  28  31
ATOM     31  C   UNL A   1      34.302  33.445  28.638  1.00  0.00     0.039 A 
ATOM     32  C   UNL A   1      35.539  34.090  28.680  1.00  0.00     0.014 A 
ATOM     33  C   UNL A   1      34.178  32.104  29.009  1.00  0.00     0.014 A 
ATOM     34  C   UNL A   1      36.645  33.408  29.186  1.00  0.00     0.010 A 
ATOM     35  C   UNL A   1      35.256  31.460  29.597  1.00  0.00     0.010 A 
ATOM     36  C   UNL A   1      36.499  32.107  29.696  1.00  0.00    -0.014 A 
BRANCH  36  37
ATOM     37  C   UNL A   1      37.632  31.395  30.335  1.00  0.00     0.031 A 
ATOM     38  C   UNL A   1      37.983  31.691  31.765  1.00  0.00     0.074 A 
ATOM     39  C   UNL A   1      38.393  30.553  29.607  1.00  0.00     0.049 A 
ATOM     40  N   UNL A   1      38.988  31.253  32.477  1.00  0.00    -0.248 NA
ATOM     41  C   UNL A   1      37.109  32.638  32.477  1.00  0.00     0.031 C 
ATOM     42  C   UNL A   1      38.196  30.234  28.192  1.00  0.00     0.029 A 
ATOM     43  N   UNL A   1      39.497  29.819  29.961  1.00  0.00    -0.354 N 
ATOM     44  C   UNL A   1      38.880  31.888  33.707  1.00  0.00     0.074 A 
ATOM     45  C   UNL A   1      37.750  32.786  33.625  1.00  0.00     0.031 C 
ATOM     46  C   UNL A   1      39.128  29.348  27.806  1.00  0.00     0.029 A 
ATOM     47  C   UNL A   1      40.008  29.062  28.934  1.00  0.00     0.049 A 
ATOM     48  H   UNL A   1      39.886  29.832  30.864  1.00  0.00     0.167 HD
ATOM     49  C   UNL A   1      39.637  31.718  34.816  1.00  0.00     0.037 A 
ATOM     50  C   UNL A   1      41.067  28.230  28.910  1.00  0.00     0.037 A 
ATOM     51  C   UNL A   1      40.731  30.792  34.910  1.00  0.00     0.049 A 
ATOM     52  C   UNL A   1      41.873  28.033  30.163  1.00  0.00     0.074 A 
ATOM     53  C   UNL A   1      41.515  30.489  36.008  1.00  0.00     0.029 A 
ATOM     54  N   UNL A   1      41.191  30.010  33.860  1.00  0.00    -0.354 N 
ATOM     55  N   UNL A   1      41.716  28.588  31.341  1.00  0.00    -0.248 NA
ATOM     56  C   UNL A   1      42.998  27.092  30.087  1.00  0.00     0.031 C 
ATOM     57  C   UNL A   1      42.469  29.545  35.617  1.00  0.00     0.029 A 
ATOM     58  C   UNL A   1      42.256  29.234  34.283  1.00  0.00     0.049 A 
ATOM     59  H   UNL A   1      40.816  30.008  32.950  1.00  0.00     0.167 HD
ATOM     60  C   UNL A   1      42.704  28.044  32.152  1.00  0.00     0.074 A 
ATOM     61  C   UNL A   1      43.446  27.106  31.335  1.00  0.00     0.031 C 
ATOM     62  C   UNL A   1      42.972  28.298  33.455  1.00  0.00     0.037 A 
BRANCH  49  63
ATOM     63  C   UNL A   1      39.289  32.546  36.018  1.00  0.00     0.057 A 
ATOM     64  C   UNL A   1      38.429  32.070  37.016  1.00  0.00     0.134 A 
ATOM     65  C   UNL A   1      39.827  33.827  36.185  1.00  0.00     0.134 A 
ATOM     66  F   UNL A   1      37.866  30.857  36.907  1.00  0.00    -0.206 F 
ATOM     67  C   UNL A   1      38.093  32.850  38.123  1.00  0.00     0.040 A 
ATOM     68  C   UNL A   1      39.520  34.607  37.301  1.00  0.00     0.040 A 
ATOM     69  F   UNL A   1      40.660  34.342  35.268  1.00  0.00    -0.206 F 
ATOM     70  C   UNL A   1      38.644  34.121  38.271  1.00  0.00     0.006 A 
ENDBRANCH  49  63
BRANCH  50  71
ATOM     71  C   UNL A   1      41.406  27.492  27.667  1.00  0.00     0.057 A 
ATOM     72  C   UNL A   1      42.220  28.071  26.687  1.00  0.00     0.134 A 
ATOM     73  C   UNL A   1      40.920  26.202  27.423  1.00  0.00     0.134 A 
ATOM     74  F   UNL A   1      42.701  29.312  26.857  1.00  0.00    -0.206 F 
ATOM     75  C   UNL A   1      42.526  27.403  25.500  1.00  0.00     0.040 A 
ATOM     76  C   UNL A   1      41.236  25.513  26.250  1.00  0.00     0.040 A 
ATOM     77  F   UNL A   1      40.141  25.589  28.325  1.00  0.00    -0.206 F 
ATOM     78  C   UNL A   1      42.036  26.118  25.281  1.00  0.00     0.006 A 
ENDBRANCH  50  71
BRANCH  62  79
ATOM     79  C   UNL A   1      44.092  27.527  34.086  1.00  0.00     0.057 A 
ATOM     80  C   UNL A   1      45.401  28.021  34.120  1.00  0.00     0.134 A 
ATOM     81  C   UNL A   1      43.846  26.295  34.707  1.00  0.00     0.134 A 
ATOM     82  F   UNL A   1      45.702  29.188  33.532  1.00  0.00    -0.206 F 
ATOM     83  C   UNL A   1      46.431  27.309  34.735  1.00  0.00     0.040 A 
ATOM     84  C   UNL A   1      44.864  25.586  35.345  1.00  0.00     0.040 A 
ATOM     85  F   UNL A   1      42.611  25.771  34.716  1.00  0.00    -0.206 F 
ATOM     86  C   UNL A   1      46.162  26.090  35.356  1.00  0.00     0.006 A 
ENDBRANCH  62  79
ENDBRANCH  36  37
ENDBRANCH  28  31
ENDBRANCH  26  27
ENDBRANCH  25  26
ENDBRANCH   1  25
TORSDOF 14
ENDMDL
MODEL 3
REMARK VINA RESULT:     -12.0      0.495      6.248
REMARK SMILES Cc1ccc(O)c(C(=O)[C@@H]2[C@@H](C(=O)NCCCCNC(=O)c3ccc(-c4c5nc(c(-c6c(F)cccc6F)c6ccc([nH]6)c(-c6c(F)cccc6F)c6nc(c(-c7c(F)cccc7F)c7ccc4[nH]7)C=C6)C=C5)cc3)[C@H]3C=C[C@@H]2C3)c1
REMARK SMILES IDX 16 1 15 2 14 3 12 4 13 5 11 7 10 8 79 9 76 10 78 11 80 12
REMARK SMILES IDX 77 13 8 14 9 15 7 16 1 17 2 18 3 19 81 20 4 21 5 22 6 23
REMARK SMILES IDX 17 25 18 26 19 27 20 28 21 30 22 31 23 32 75 33 24 34 74 35
REMARK SMILES IDX 25 36 26 37 27 38 68 39 28 40 73 41 67 42 69 43 29 44 72 45
REMARK SMILES IDX 66 46 65 47 30 49 56 50 39 51 55 52 40 53 43 54 54 55 70 56
REMARK SMILES IDX 41 57 42 58 53 60 71 61 44 62 31 63 32 64 37 65 33 66 34 67
REMARK SMILES IDX 36 68 38 69 35 70 57 71 58 72 63 73 59 74 60 75 62 76 64 77
REMARK SMILES IDX 61 78 45 79 46 80 51 81 47 82 48 83 50 84 52 85 49 86
REMARK H PARENT 14 6 6 24 19 29 69 48 43 59
REMARK Flexibility Score: inf
ROOT
ATOM      1  C   UNL A   1      37.082  22.588  24.410  1.00  0.00     0.023 C 
ENDROOT
BRANCH   1   2
ATOM      2  C   UNL A   1      36.711  23.645  25.449  1.00  0.00     0.116 C 
BRANCH   2   3
ATOM      3  N   UNL A   1      35.882  23.103  26.506  1.00  0.00    -0.356 N 
ATOM      4  C   UNL A   1      34.557  22.859  26.629  1.00  0.00     0.224 C 
ATOM      5  O   UNL A   1      34.201  22.408  27.727  1.00  0.00    -0.275 OA
ATOM      6  H   UNL A   1      36.395  22.859  27.310  1.00  0.00     0.163 HD
BRANCH   4   7
ATOM      7  C   UNL A   1      33.479  23.136  25.587  1.00  0.00     0.097 C 
ATOM      8  C   UNL A   1      31.996  22.830  25.904  1.00  0.00     0.081 C 
ATOM      9  C   UNL A   1      31.521  22.129  24.595  1.00  0.00     0.024 C 
ATOM     10  C   UNL A   1      33.712  22.438  24.213  1.00  0.00     0.025 C 
ATOM     11  C   UNL A   1      32.180  20.758  24.543  1.00  0.00    -0.027 C 
ATOM     12  C   UNL A   1      32.396  22.738  23.489  1.00  0.00     0.017 C 
ATOM     13  C   UNL A   1      33.487  20.954  24.296  1.00  0.00    -0.027 C 
BRANCH   8  14
ATOM     14  C   UNL A   1      31.189  24.018  26.451  1.00  0.00     0.171 C 
ATOM     15  O   UNL A   1      30.280  23.827  27.266  1.00  0.00    -0.294 OA
BRANCH  14  16
ATOM     16  C   UNL A   1      31.359  25.412  25.978  1.00  0.00     0.060 A 
ATOM     17  C   UNL A   1      33.773  28.296  26.449  1.00  0.00     0.044 C 
ATOM     18  C   UNL A   1      32.609  27.492  25.951  1.00  0.00    -0.050 A 
ATOM     19  C   UNL A   1      31.841  27.935  24.870  1.00  0.00     0.007 A 
ATOM     20  C   UNL A   1      32.290  26.271  26.554  1.00  0.00     0.019 A 
ATOM     21  C   UNL A   1      30.796  27.148  24.383  1.00  0.00     0.047 A 
ATOM     22  C   UNL A   1      30.563  25.888  24.930  1.00  0.00     0.126 A 
BRANCH  22  23
ATOM     23  O   UNL A   1      29.530  25.165  24.399  1.00  0.00    -0.507 OA
ATOM     24  H   UNL A   1      29.682  24.299  24.076  1.00  0.00     0.293 HD
ENDBRANCH  22  23
ENDBRANCH  14  16
ENDBRANCH   8  14
ENDBRANCH   4   7
ENDBRANCH   2   3
ENDBRANCH   1   2
BRANCH   1  25
ATOM     25  C   UNL A   1      37.532  21.251  24.979  1.00  0.00     0.023 C 
BRANCH  25  26
ATOM     26  C   UNL A   1      38.842  21.282  25.750  1.00  0.00     0.116 C 
BRANCH  26  27
ATOM     27  N   UNL A   1      39.613  20.047  25.686  1.00  0.00    -0.352 N 
ATOM     28  C   UNL A   1      40.925  19.855  26.068  1.00  0.00     0.251 C 
ATOM     29  H   UNL A   1      39.143  19.258  25.331  1.00  0.00     0.163 HD
ATOM     30  O   UNL A   1      41.482  18.782  25.917  1.00  0.00    -0.269 OA
BRANCH  28  31
ATOM     31  C   UNL A   1      41.653  21.016  26.616  1.00  0.00     0.039 A 
ATOM     32  C   UNL A   1      42.183  21.957  25.731  1.00  0.00     0.014 A 
ATOM     33  C   UNL A   1      41.672  21.236  27.995  1.00  0.00     0.014 A 
ATOM     34  C   UNL A   1      42.654  23.171  26.231  1.00  0.00     0.010 A 
ATOM     35  C   UNL A   1      42.053  22.479  28.479  1.00  0.00     0.010 A 
ATOM     36  C   UNL A   1      42.543  23.460  27.602  1.00  0.00    -0.014 A 
BRANCH  36  37
ATOM     37  C   UNL A   1      42.939  24.781  28.148  1.00  0.00     0.031 A 
ATOM     38  C   UNL A   1      41.887  25.825  28.398  1.00  0.00     0.074 A 
ATOM     39  C   UNL A   1      44.241  25.069  28.335  1.00  0.00     0.049 A 
ATOM     40  N   UNL A   1      42.030  27.067  28.779  1.00  0.00    -0.248 NA
ATOM     41  C   UNL A   1      40.491  25.430  28.148  1.00  0.00     0.031 C 
ATOM     42  C   UNL A   1      45.361  24.165  28.065  1.00  0.00     0.029 A 
ATOM     43  N   UNL A   1      44.845  26.215  28.787  1.00  0.00    -0.354 N 
ATOM     44  C   UNL A   1      40.751  27.606  28.789  1.00  0.00     0.074 A 
ATOM     45  C   UNL A   1      39.852  26.575  28.319  1.00  0.00     0.031 C 
ATOM     46  C   UNL A   1      46.511  24.780  28.383  1.00  0.00     0.029 A 
ATOM     47  C   UNL A   1      46.215  26.130  28.848  1.00  0.00     0.049 A 
ATOM     48  H   UNL A   1      44.344  27.023  29.044  1.00  0.00     0.167 HD
ATOM     49  C   UNL A   1      40.354  28.839  29.182  1.00  0.00     0.037 A 
ATOM     50  C   UNL A   1      47.127  27.042  29.236  1.00  0.00     0.037 A 
ATOM     51  C   UNL A   1      41.244  29.845  29.691  1.00  0.00     0.049 A 
ATOM     52  C   UNL A   1      46.661  28.394  29.699  1.00  0.00     0.074 A 
ATOM     53  C   UNL A   1      40.936  31.100  30.185  1.00  0.00     0.029 A 
ATOM     54  N   UNL A   1      42.622  29.706  29.779  1.00  0.00    -0.354 N 
ATOM     55  N   UNL A   1      45.439  28.866  29.771  1.00  0.00    -0.248 NA
ATOM     56  C   UNL A   1      47.696  29.338  30.141  1.00  0.00     0.031 C 
ATOM     57  C   UNL A   1      42.130  31.733  30.545  1.00  0.00     0.029 A 
ATOM     58  C   UNL A   1      43.178  30.857  30.308  1.00  0.00     0.049 A 
ATOM     59  H   UNL A   1      43.127  28.907  29.505  1.00  0.00     0.167 HD
ATOM     60  C   UNL A   1      45.556  30.149  30.289  1.00  0.00     0.074 A 
ATOM     61  C   UNL A   1      46.968  30.376  30.526  1.00  0.00     0.031 C 
ATOM     62  C   UNL A   1      44.585  31.057  30.546  1.00  0.00     0.037 A 
BRANCH  49  63
ATOM     63  C   UNL A   1      38.891  29.152  29.086  1.00  0.00     0.057 A 
ATOM     64  C   UNL A   1      38.043  29.059  30.198  1.00  0.00     0.134 A 
ATOM     65  C   UNL A   1      38.324  29.562  27.874  1.00  0.00     0.134 A 
ATOM     66  F   UNL A   1      38.521  28.654  31.385  1.00  0.00    -0.206 F 
ATOM     67  C   UNL A   1      36.679  29.332  30.102  1.00  0.00     0.040 A 
ATOM     68  C   UNL A   1      36.965  29.866  27.771  1.00  0.00     0.040 A 
ATOM     69  F   UNL A   1      39.080  29.676  26.772  1.00  0.00    -0.206 F 
ATOM     70  C   UNL A   1      36.137  29.744  28.886  1.00  0.00     0.006 A 
ENDBRANCH  49  63
BRANCH  50  71
ATOM     71  C   UNL A   1      48.571  26.697  29.241  1.00  0.00     0.057 A 
ATOM     72  C   UNL A   1      49.152  26.051  30.339  1.00  0.00     0.134 A 
ATOM     73  C   UNL A   1      49.405  27.010  28.161  1.00  0.00     0.134 A 
ATOM     74  F   UNL A   1      48.406  25.742  31.411  1.00  0.00    -0.206 F 
ATOM     75  C   UNL A   1      50.513  25.744  30.373  1.00  0.00     0.040 A 
ATOM     76  C   UNL A   1      50.764  26.689  28.172  1.00  0.00     0.040 A 
ATOM     77  F   UNL A   1      48.909  27.622  27.077  1.00  0.00    -0.206 F 
ATOM     78  C   UNL A   1      51.323  26.061  29.284  1.00  0.00     0.006 A 
ENDBRANCH  50  71
BRANCH  62  79
ATOM     79  C   UNL A   1      45.010  32.364  31.143  1.00  0.00     0.057 A 
ATOM     80  C   UNL A   1      45.326  33.470  30.347  1.00  0.00     0.134 A 
ATOM     81  C   UNL A   1      45.060  32.528  32.534  1.00  0.00     0.134 A 
ATOM     82  F   UNL A   1      45.309  33.373  29.009  1.00  0.00    -0.206 F 
ATOM     83  C   UNL A   1      45.692  34.693  30.913  1.00  0.00     0.040 A 
ATOM     84  C   UNL A   1      45.403  33.751  33.110  1.00  0.00     0.040 A 
ATOM     85  F   UNL A   1      44.761  31.508  33.351  1.00  0.00    -0.206 F 
ATOM     86  C   UNL A   1      45.725  34.836  32.299  1.00  0.00     0.006 A 
ENDBRANCH  62  79
ENDBRANCH  36  37
ENDBRANCH  28  31
ENDBRANCH  26  27
ENDBRANCH  25  26
ENDBRANCH   1  25
TORSDOF 14
ENDMDL
