MODEL 1
REMARK VINA RESULT:     -12.4      0.000      0.000
REMARK SMILES CC1CCN(C(=O)Nc2nccnc2C(=O)NCCCCNC(=O)c2ccc(-c3c4nc(c(-c5c(F)cccc5F)c5ccc([nH]5)c(-c5c(F)cccc5F)c5nc(c(-c6c(F)cccc6F)c6ccc3[nH]6)C=C5)C=C4)cc2)CC1
REMARK SMILES IDX 20 1 19 2 18 3 17 4 15 5 16 6 14 8 9 9 10 10 11 11 13 12
REMARK SMILES IDX 12 13 8 14 1 15 2 16 3 17 80 18 4 19 79 20 5 21 6 22 7 23
REMARK SMILES IDX 21 25 22 26 23 27 24 29 25 30 26 31 78 32 27 33 77 34 28 35
REMARK SMILES IDX 29 36 30 37 71 38 31 39 76 40 70 41 72 42 32 43 75 44 69 45
REMARK SMILES IDX 68 46 33 48 59 49 42 50 58 51 43 52 46 53 57 54 73 55 44 56
REMARK SMILES IDX 45 57 56 59 74 60 47 61 34 62 35 63 40 64 36 65 37 66 39 67
REMARK SMILES IDX 41 68 38 69 60 70 61 71 66 72 62 73 63 74 65 75 67 76 64 77
REMARK SMILES IDX 48 78 49 79 54 80 50 81 51 82 53 83 55 84 52 85
REMARK H PARENT 17 7 8 24 22 28 72 47 46 58
REMARK Flexibility Score: inf
ROOT
ATOM      1  C   UNL A   1      31.403  32.133  26.520  1.00  0.00     0.023 C 
ENDROOT
BRANCH   1   2
ATOM      2  C   UNL A   1      31.616  30.679  26.107  1.00  0.00     0.023 C 
BRANCH   2   3
ATOM      3  C   UNL A   1      31.861  29.676  27.227  1.00  0.00     0.116 C 
BRANCH   3   4
ATOM      4  N   UNL A   1      32.813  28.625  26.971  1.00  0.00    -0.351 N 
ATOM      5  C   UNL A   1      32.748  27.529  26.131  1.00  0.00     0.273 C 
ATOM      6  O   UNL A   1      33.781  26.855  26.063  1.00  0.00    -0.267 OA
ATOM      7  H   UNL A   1      33.652  28.699  27.482  1.00  0.00     0.163 HD
BRANCH   5   8
ATOM      8  C   UNL A   1      31.538  27.065  25.353  1.00  0.00     0.170 A 
ATOM      9  C   UNL A   1      30.769  25.909  25.549  1.00  0.00     0.165 A 
ATOM     10  N   UNL A   1      29.643  25.665  24.817  1.00  0.00    -0.235 NA
ATOM     11  C   UNL A   1      29.318  26.569  23.871  1.00  0.00     0.133 A 
ATOM     12  N   UNL A   1      31.195  27.954  24.363  1.00  0.00    -0.246 NA
ATOM     13  C   UNL A   1      30.087  27.686  23.640  1.00  0.00     0.132 A 
BRANCH   9  14
ATOM     14  N   UNL A   1      31.017  24.983  26.550  1.00  0.00    -0.290 N 
ATOM     15  C   UNL A   1      32.152  20.547  22.791  1.00  0.00     0.008 C 
ATOM     16  C   UNL A   1      32.914  21.663  23.502  1.00  0.00    -0.011 C 
ATOM     17  C   UNL A   1      33.147  21.285  24.982  1.00  0.00     0.025 C 
ATOM     18  C   UNL A   1      32.170  23.007  23.346  1.00  0.00     0.025 C 
ATOM     19  C   UNL A   1      33.636  22.466  25.819  1.00  0.00     0.121 C 
ATOM     20  C   UNL A   1      32.822  24.070  24.222  1.00  0.00     0.121 C 
ATOM     21  N   UNL A   1      32.747  23.607  25.605  1.00  0.00    -0.324 N 
ATOM     22  C   UNL A   1      31.806  23.878  26.572  1.00  0.00     0.323 C 
ATOM     23  O   UNL A   1      31.762  23.228  27.624  1.00  0.00    -0.248 OA
ATOM     24  H   UNL A   1      30.537  25.156  27.392  1.00  0.00     0.173 HD
ENDBRANCH   9  14
ENDBRANCH   5   8
ENDBRANCH   3   4
ENDBRANCH   2   3
ENDBRANCH   1   2
BRANCH   1  25
ATOM     25  C   UNL A   1      32.552  32.826  27.248  1.00  0.00     0.116 C 
BRANCH  25  26
ATOM     26  N   UNL A   1      32.284  34.203  27.636  1.00  0.00    -0.352 N 
ATOM     27  C   UNL A   1      32.929  35.031  28.531  1.00  0.00     0.251 C 
ATOM     28  H   UNL A   1      31.513  34.613  27.181  1.00  0.00     0.163 HD
ATOM     29  O   UNL A   1      32.493  36.155  28.751  1.00  0.00    -0.269 OA
BRANCH  27  30
ATOM     30  C   UNL A   1      34.117  34.558  29.280  1.00  0.00     0.039 A 
ATOM     31  C   UNL A   1      33.936  34.070  30.578  1.00  0.00     0.014 A 
ATOM     32  C   UNL A   1      35.395  34.579  28.722  1.00  0.00     0.014 A 
ATOM     33  C   UNL A   1      35.010  33.492  31.262  1.00  0.00     0.010 A 
ATOM     34  C   UNL A   1      36.441  33.916  29.362  1.00  0.00     0.010 A 
ATOM     35  C   UNL A   1      36.257  33.350  30.632  1.00  0.00    -0.014 A 
BRANCH  35  36
ATOM     36  C   UNL A   1      37.368  32.591  31.267  1.00  0.00     0.031 A 
ATOM     37  C   UNL A   1      37.938  33.036  32.587  1.00  0.00     0.074 A 
ATOM     38  C   UNL A   1      37.927  31.553  30.613  1.00  0.00     0.049 A 
ATOM     39  N   UNL A   1      38.976  32.573  33.238  1.00  0.00    -0.248 NA
ATOM     40  C   UNL A   1      37.273  34.171  33.246  1.00  0.00     0.031 C 
ATOM     41  C   UNL A   1      37.513  31.054  29.299  1.00  0.00     0.029 A 
ATOM     42  N   UNL A   1      38.978  30.739  30.956  1.00  0.00    -0.354 N 
ATOM     43  C   UNL A   1      39.102  33.373  34.366  1.00  0.00     0.074 A 
ATOM     44  C   UNL A   1      38.067  34.381  34.286  1.00  0.00     0.031 C 
ATOM     45  C   UNL A   1      38.283  30.009  28.959  1.00  0.00     0.029 A 
ATOM     46  C   UNL A   1      39.272  29.786  30.010  1.00  0.00     0.049 A 
ATOM     47  H   UNL A   1      39.474  30.827  31.802  1.00  0.00     0.167 HD
ATOM     48  C   UNL A   1      39.982  33.265  35.390  1.00  0.00     0.037 A 
ATOM     49  C   UNL A   1      40.235  28.845  29.983  1.00  0.00     0.037 A 
ATOM     50  C   UNL A   1      40.988  32.240  35.490  1.00  0.00     0.049 A 
ATOM     51  C   UNL A   1      41.189  28.734  31.139  1.00  0.00     0.074 A 
ATOM     52  C   UNL A   1      41.885  32.011  36.519  1.00  0.00     0.029 A 
ATOM     53  N   UNL A   1      41.225  31.270  34.529  1.00  0.00    -0.354 N 
ATOM     54  N   UNL A   1      41.254  29.460  32.228  1.00  0.00    -0.248 NA
ATOM     55  C   UNL A   1      42.199  27.668  31.067  1.00  0.00     0.031 C 
ATOM     56  C   UNL A   1      42.687  30.921  36.166  1.00  0.00     0.029 A 
ATOM     57  C   UNL A   1      42.263  30.447  34.935  1.00  0.00     0.049 A 
ATOM     58  H   UNL A   1      40.729  31.179  33.683  1.00  0.00     0.167 HD
ATOM     59  C   UNL A   1      42.292  28.925  32.980  1.00  0.00     0.074 A 
ATOM     60  C   UNL A   1      42.818  27.804  32.229  1.00  0.00     0.031 C 
ATOM     61  C   UNL A   1      42.767  29.327  34.183  1.00  0.00     0.037 A 
BRANCH  48  62
ATOM     62  C   UNL A   1      39.884  34.276  36.494  1.00  0.00     0.057 A 
ATOM     63  C   UNL A   1      40.551  35.506  36.426  1.00  0.00     0.134 A 
ATOM     64  C   UNL A   1      39.089  34.033  37.621  1.00  0.00     0.134 A 
ATOM     65  F   UNL A   1      41.338  35.796  35.379  1.00  0.00    -0.206 F 
ATOM     66  C   UNL A   1      40.453  36.447  37.453  1.00  0.00     0.040 A 
ATOM     67  C   UNL A   1      38.963  34.977  38.641  1.00  0.00     0.040 A 
ATOM     68  F   UNL A   1      38.418  32.878  37.745  1.00  0.00    -0.206 F 
ATOM     69  C   UNL A   1      39.651  36.186  38.562  1.00  0.00     0.006 A 
ENDBRANCH  48  62
BRANCH  49  70
ATOM     70  C   UNL A   1      40.336  27.915  28.831  1.00  0.00     0.057 A 
ATOM     71  C   UNL A   1      39.656  26.691  28.831  1.00  0.00     0.134 A 
ATOM     72  C   UNL A   1      41.123  28.214  27.713  1.00  0.00     0.134 A 
ATOM     73  F   UNL A   1      38.902  26.339  29.884  1.00  0.00    -0.206 F 
ATOM     74  C   UNL A   1      39.771  25.789  27.773  1.00  0.00     0.040 A 
ATOM     75  C   UNL A   1      41.228  27.332  26.636  1.00  0.00     0.040 A 
ATOM     76  F   UNL A   1      41.794  29.374  27.648  1.00  0.00    -0.206 F 
ATOM     77  C   UNL A   1      40.556  26.111  26.668  1.00  0.00     0.006 A 
ENDBRANCH  49  70
BRANCH  61  78
ATOM     78  C   UNL A   1      43.887  28.529  34.781  1.00  0.00     0.057 A 
ATOM     79  C   UNL A   1      45.230  28.866  34.569  1.00  0.00     0.134 A 
ATOM     80  C   UNL A   1      43.616  27.434  35.612  1.00  0.00     0.134 A 
ATOM     81  F   UNL A   1      45.555  29.894  33.771  1.00  0.00    -0.206 F 
ATOM     82  C   UNL A   1      46.265  28.129  35.146  1.00  0.00     0.040 A 
ATOM     83  C   UNL A   1      44.642  26.706  36.214  1.00  0.00     0.040 A 
ATOM     84  F   UNL A   1      42.352  27.065  35.862  1.00  0.00    -0.206 F 
ATOM     85  C   UNL A   1      45.971  27.049  35.978  1.00  0.00     0.006 A 
ENDBRANCH  61  78
ENDBRANCH  35  36
ENDBRANCH  27  30
ENDBRANCH  25  26
ENDBRANCH   1  25
TORSDOF 12
ENDMDL
MODEL 2
REMARK VINA RESULT:     -12.3      4.379      9.486
REMARK SMILES CC1CCN(C(=O)Nc2nccnc2C(=O)NCCCCNC(=O)c2ccc(-c3c4nc(c(-c5c(F)cccc5F)c5ccc([nH]5)c(-c5c(F)cccc5F)c5nc(c(-c6c(F)cccc6F)c6ccc3[nH]6)C=C5)C=C4)cc2)CC1
REMARK SMILES IDX 20 1 19 2 18 3 17 4 15 5 16 6 14 8 9 9 10 10 11 11 13 12
REMARK SMILES IDX 12 13 8 14 1 15 2 16 3 17 80 18 4 19 79 20 5 21 6 22 7 23
REMARK SMILES IDX 21 25 22 26 23 27 24 29 25 30 26 31 78 32 27 33 77 34 28 35
REMARK SMILES IDX 29 36 30 37 71 38 31 39 76 40 70 41 72 42 32 43 75 44 69 45
REMARK SMILES IDX 68 46 33 48 59 49 42 50 58 51 43 52 46 53 57 54 73 55 44 56
REMARK SMILES IDX 45 57 56 59 74 60 47 61 34 62 35 63 40 64 36 65 37 66 39 67
REMARK SMILES IDX 41 68 38 69 60 70 61 71 66 72 62 73 63 74 65 75 67 76 64 77
REMARK SMILES IDX 48 78 49 79 54 80 50 81 51 82 53 83 55 84 52 85
REMARK H PARENT 17 7 8 24 22 28 72 47 46 58
REMARK Flexibility Score: inf
ROOT
ATOM      1  C   UNL A   1      37.797  20.428  24.660  1.00  0.00     0.023 C 
ENDROOT
BRANCH   1   2
ATOM      2  C   UNL A   1      36.414  19.875  24.994  1.00  0.00     0.023 C 
BRANCH   2   3
ATOM      3  C   UNL A   1      35.352  20.885  25.407  1.00  0.00     0.116 C 
BRANCH   3   4
ATOM      4  N   UNL A   1      35.726  22.277  25.388  1.00  0.00    -0.351 N 
ATOM      5  C   UNL A   1      34.956  23.422  25.474  1.00  0.00     0.273 C 
ATOM      6  O   UNL A   1      35.591  24.481  25.526  1.00  0.00    -0.267 OA
ATOM      7  H   UNL A   1      36.692  22.440  25.299  1.00  0.00     0.163 HD
BRANCH   5   8
ATOM      8  C   UNL A   1      33.446  23.493  25.454  1.00  0.00     0.170 A 
ATOM      9  C   UNL A   1      32.611  23.961  24.428  1.00  0.00     0.165 A 
ATOM     10  N   UNL A   1      31.252  23.881  24.519  1.00  0.00    -0.235 NA
ATOM     11  C   UNL A   1      30.742  23.361  25.655  1.00  0.00     0.133 A 
ATOM     12  N   UNL A   1      32.896  22.994  26.609  1.00  0.00    -0.246 NA
ATOM     13  C   UNL A   1      31.549  22.938  26.685  1.00  0.00     0.132 A 
BRANCH   9  14
ATOM     14  N   UNL A   1      33.080  24.438  23.215  1.00  0.00    -0.290 N 
ATOM     15  C   UNL A   1      30.166  29.582  23.600  1.00  0.00     0.008 C 
ATOM     16  C   UNL A   1      31.521  29.005  24.005  1.00  0.00    -0.011 C 
ATOM     17  C   UNL A   1      32.450  28.919  22.772  1.00  0.00     0.025 C 
ATOM     18  C   UNL A   1      31.338  27.640  24.702  1.00  0.00     0.025 C 
ATOM     19  C   UNL A   1      33.702  28.086  23.039  1.00  0.00     0.121 C 
ATOM     20  C   UNL A   1      32.694  26.978  24.920  1.00  0.00     0.121 C 
ATOM     21  N   UNL A   1      33.311  26.799  23.609  1.00  0.00    -0.324 N 
ATOM     22  C   UNL A   1      33.296  25.704  22.775  1.00  0.00     0.323 C 
ATOM     23  O   UNL A   1      33.675  25.789  21.600  1.00  0.00    -0.248 OA
ATOM     24  H   UNL A   1      33.293  23.737  22.557  1.00  0.00     0.173 HD
ENDBRANCH   9  14
ENDBRANCH   5   8
ENDBRANCH   3   4
ENDBRANCH   2   3
ENDBRANCH   1   2
BRANCH   1  25
ATOM     25  C   UNL A   1      38.808  20.509  25.802  1.00  0.00     0.116 C 
BRANCH  25  26
ATOM     26  N   UNL A   1      39.870  19.515  25.746  1.00  0.00    -0.352 N 
ATOM     27  C   UNL A   1      41.204  19.599  26.086  1.00  0.00     0.251 C 
ATOM     28  H   UNL A   1      39.588  18.634  25.409  1.00  0.00     0.163 HD
ATOM     29  O   UNL A   1      41.946  18.641  25.901  1.00  0.00    -0.269 OA
BRANCH  27  30
ATOM     30  C   UNL A   1      41.772  20.858  26.622  1.00  0.00     0.039 A 
ATOM     31  C   UNL A   1      42.270  21.803  25.719  1.00  0.00     0.014 A 
ATOM     32  C   UNL A   1      41.809  21.124  27.990  1.00  0.00     0.014 A 
ATOM     33  C   UNL A   1      42.688  23.055  26.179  1.00  0.00     0.010 A 
ATOM     34  C   UNL A   1      42.133  22.404  28.439  1.00  0.00     0.010 A 
ATOM     35  C   UNL A   1      42.559  23.390  27.537  1.00  0.00    -0.014 A 
BRANCH  35  36
ATOM     36  C   UNL A   1      42.836  24.767  28.029  1.00  0.00     0.031 A 
ATOM     37  C   UNL A   1      44.226  25.162  28.445  1.00  0.00     0.074 A 
ATOM     38  C   UNL A   1      41.817  25.636  28.187  1.00  0.00     0.049 A 
ATOM     39  N   UNL A   1      44.638  26.274  29.003  1.00  0.00    -0.248 NA
ATOM     40  C   UNL A   1      45.288  24.165  28.238  1.00  0.00     0.031 C 
ATOM     41  C   UNL A   1      40.411  25.363  27.879  1.00  0.00     0.029 A 
ATOM     42  N   UNL A   1      41.804  26.924  28.662  1.00  0.00    -0.354 N 
ATOM     43  C   UNL A   1      45.996  26.100  29.233  1.00  0.00     0.074 A 
ATOM     44  C   UNL A   1      46.329  24.759  28.802  1.00  0.00     0.031 C 
ATOM     45  C   UNL A   1      39.678  26.454  28.152  1.00  0.00     0.029 A 
ATOM     46  C   UNL A   1      40.552  27.491  28.690  1.00  0.00     0.049 A 
ATOM     47  H   UNL A   1      42.616  27.399  28.955  1.00  0.00     0.167 HD
ATOM     48  C   UNL A   1      46.893  26.983  29.735  1.00  0.00     0.037 A 
ATOM     49  C   UNL A   1      40.149  28.706  29.111  1.00  0.00     0.037 A 
ATOM     50  C   UNL A   1      46.572  28.330  30.128  1.00  0.00     0.049 A 
ATOM     51  C   UNL A   1      41.166  29.675  29.647  1.00  0.00     0.074 A 
ATOM     52  C   UNL A   1      47.423  29.319  30.588  1.00  0.00     0.029 A 
ATOM     53  N   UNL A   1      45.299  28.877  30.101  1.00  0.00    -0.354 N 
ATOM     54  N   UNL A   1      42.458  29.515  29.800  1.00  0.00    -0.248 NA
ATOM     55  C   UNL A   1      40.670  30.995  30.061  1.00  0.00     0.031 C 
ATOM     56  C   UNL A   1      46.660  30.457  30.871  1.00  0.00     0.029 A 
ATOM     57  C   UNL A   1      45.339  30.188  30.549  1.00  0.00     0.049 A 
ATOM     58  H   UNL A   1      44.486  28.405  29.808  1.00  0.00     0.167 HD
ATOM     59  C   UNL A   1      42.931  30.720  30.303  1.00  0.00     0.074 A 
ATOM     60  C   UNL A   1      41.791  31.605  30.416  1.00  0.00     0.031 C 
ATOM     61  C   UNL A   1      44.198  31.061  30.644  1.00  0.00     0.037 A 
BRANCH  48  62
ATOM     62  C   UNL A   1      48.315  26.522  29.870  1.00  0.00     0.057 A 
ATOM     63  C   UNL A   1      49.263  26.759  28.867  1.00  0.00     0.134 A 
ATOM     64  C   UNL A   1      48.748  25.865  31.028  1.00  0.00     0.134 A 
ATOM     65  F   UNL A   1      48.910  27.373  27.728  1.00  0.00    -0.206 F 
ATOM     66  C   UNL A   1      50.586  26.333  28.999  1.00  0.00     0.040 A 
ATOM     67  C   UNL A   1      50.074  25.458  31.182  1.00  0.00     0.040 A 
ATOM     68  F   UNL A   1      47.892  25.614  32.030  1.00  0.00    -0.206 F 
ATOM     69  C   UNL A   1      50.996  25.686  30.163  1.00  0.00     0.006 A 
ENDBRANCH  48  62
BRANCH  49  70
ATOM     70  C   UNL A   1      38.717  29.087  29.024  1.00  0.00     0.057 A 
ATOM     71  C   UNL A   1      38.164  29.539  27.820  1.00  0.00     0.134 A 
ATOM     72  C   UNL A   1      37.873  29.026  30.139  1.00  0.00     0.134 A 
ATOM     73  F   UNL A   1      38.929  29.639  26.722  1.00  0.00    -0.206 F 
ATOM     74  C   UNL A   1      36.829  29.937  27.731  1.00  0.00     0.040 A 
ATOM     75  C   UNL A   1      36.530  29.398  30.059  1.00  0.00     0.040 A 
ATOM     76  F   UNL A   1      38.340  28.594  31.319  1.00  0.00    -0.206 F 
ATOM     77  C   UNL A   1      36.007  29.863  28.854  1.00  0.00     0.006 A 
ENDBRANCH  49  70
BRANCH  61  78
ATOM     78  C   UNL A   1      44.424  32.460  31.133  1.00  0.00     0.057 A 
ATOM     79  C   UNL A   1      44.683  33.518  30.252  1.00  0.00     0.134 A 
ATOM     80  C   UNL A   1      44.342  32.758  32.499  1.00  0.00     0.134 A 
ATOM     81  F   UNL A   1      44.788  33.294  28.934  1.00  0.00    -0.206 F 
ATOM     82  C   UNL A   1      44.872  34.821  30.715  1.00  0.00     0.040 A 
ATOM     83  C   UNL A   1      44.505  34.061  32.971  1.00  0.00     0.040 A 
ATOM     84  F   UNL A   1      44.090  31.792  33.393  1.00  0.00    -0.206 F 
ATOM     85  C   UNL A   1      44.775  35.096  32.078  1.00  0.00     0.006 A 
ENDBRANCH  61  78
ENDBRANCH  35  36
ENDBRANCH  27  30
ENDBRANCH  25  26
ENDBRANCH   1  25
TORSDOF 12
ENDMDL
MODEL 3
REMARK VINA RESULT:     -12.3      0.512      6.217
REMARK SMILES CC1CCN(C(=O)Nc2nccnc2C(=O)NCCCCNC(=O)c2ccc(-c3c4nc(c(-c5c(F)cccc5F)c5ccc([nH]5)c(-c5c(F)cccc5F)c5nc(c(-c6c(F)cccc6F)c6ccc3[nH]6)C=C5)C=C4)cc2)CC1
REMARK SMILES IDX 20 1 19 2 18 3 17 4 15 5 16 6 14 8 9 9 10 10 11 11 13 12
REMARK SMILES IDX 12 13 8 14 1 15 2 16 3 17 80 18 4 19 79 20 5 21 6 22 7 23
REMARK SMILES IDX 21 25 22 26 23 27 24 29 25 30 26 31 78 32 27 33 77 34 28 35
REMARK SMILES IDX 29 36 30 37 71 38 31 39 76 40 70 41 72 42 32 43 75 44 69 45
REMARK SMILES IDX 68 46 33 48 59 49 42 50 58 51 43 52 46 53 57 54 73 55 44 56
REMARK SMILES IDX 45 57 56 59 74 60 47 61 34 62 35 63 40 64 36 65 37 66 39 67
REMARK SMILES IDX 41 68 38 69 60 70 61 71 66 72 62 73 63 74 65 75 67 76 64 77
REMARK SMILES IDX 48 78 49 79 54 80 50 81 51 82 53 83 55 84 52 85
REMARK H PARENT 17 7 8 24 22 28 72 47 46 58
REMARK Flexibility Score: inf
ROOT
ATOM      1  C   UNL A   1      31.616  31.776  26.879  1.00  0.00     0.023 C 
ENDROOT
BRANCH   1   2
ATOM      2  C   UNL A   1      31.955  30.440  26.224  1.00  0.00     0.023 C 
BRANCH   2   3
ATOM      3  C   UNL A   1      31.940  29.211  27.122  1.00  0.00     0.116 C 
BRANCH   3   4
ATOM      4  N   UNL A   1      33.003  28.253  26.944  1.00  0.00    -0.351 N 
ATOM      5  C   UNL A   1      33.085  27.131  26.140  1.00  0.00     0.273 C 
ATOM      6  O   UNL A   1      34.183  26.563  26.139  1.00  0.00    -0.267 OA
ATOM      7  H   UNL A   1      33.806  28.427  27.486  1.00  0.00     0.163 HD
BRANCH   5   8
ATOM      8  C   UNL A   1      31.964  26.524  25.328  1.00  0.00     0.170 A 
ATOM      9  C   UNL A   1      31.230  25.359  25.594  1.00  0.00     0.165 A 
ATOM     10  N   UNL A   1      30.179  24.980  24.810  1.00  0.00    -0.235 NA
ATOM     11  C   UNL A   1      29.895  25.758  23.746  1.00  0.00     0.133 A 
ATOM     12  N   UNL A   1      31.667  27.281  24.221  1.00  0.00    -0.246 NA
ATOM     13  C   UNL A   1      30.634  26.880  23.449  1.00  0.00     0.132 A 
BRANCH   9  14
ATOM     14  N   UNL A   1      31.433  24.562  26.710  1.00  0.00    -0.290 N 
ATOM     15  C   UNL A   1      32.377  19.626  23.572  1.00  0.00     0.008 C 
ATOM     16  C   UNL A   1      33.187  20.790  24.138  1.00  0.00    -0.011 C 
ATOM     17  C   UNL A   1      33.398  20.600  25.657  1.00  0.00     0.025 C 
ATOM     18  C   UNL A   1      32.505  22.134  23.802  1.00  0.00     0.025 C 
ATOM     19  C   UNL A   1      33.938  21.857  26.336  1.00  0.00     0.121 C 
ATOM     20  C   UNL A   1      33.202  23.273  24.537  1.00  0.00     0.121 C 
ATOM     21  N   UNL A   1      33.102  22.999  25.968  1.00  0.00    -0.324 N 
ATOM     22  C   UNL A   1      32.171  23.436  26.883  1.00  0.00     0.323 C 
ATOM     23  O   UNL A   1      32.095  22.932  28.010  1.00  0.00    -0.248 OA
ATOM     24  H   UNL A   1      30.959  24.865  27.518  1.00  0.00     0.173 HD
ENDBRANCH   9  14
ENDBRANCH   5   8
ENDBRANCH   3   4
ENDBRANCH   2   3
ENDBRANCH   1   2
BRANCH   1  25
ATOM     25  C   UNL A   1      32.786  32.680  27.261  1.00  0.00     0.116 C 
BRANCH  25  26
ATOM     26  N   UNL A   1      32.412  34.041  27.618  1.00  0.00    -0.352 N 
ATOM     27  C   UNL A   1      32.982  34.932  28.503  1.00  0.00     0.251 C 
ATOM     28  H   UNL A   1      31.618  34.384  27.146  1.00  0.00     0.163 HD
ATOM     29  O   UNL A   1      32.461  36.024  28.696  1.00  0.00    -0.269 OA
BRANCH  27  30
ATOM     30  C   UNL A   1      34.192  34.563  29.276  1.00  0.00     0.039 A 
ATOM     31  C   UNL A   1      34.030  34.078  30.578  1.00  0.00     0.014 A 
ATOM     32  C   UNL A   1      35.472  34.675  28.736  1.00  0.00     0.014 A 
ATOM     33  C   UNL A   1      35.135  33.595  31.285  1.00  0.00     0.010 A 
ATOM     34  C   UNL A   1      36.557  34.105  29.400  1.00  0.00     0.010 A 
ATOM     35  C   UNL A   1      36.398  33.542  30.675  1.00  0.00    -0.014 A 
BRANCH  35  36
ATOM     36  C   UNL A   1      37.555  32.881  31.336  1.00  0.00     0.031 A 
ATOM     37  C   UNL A   1      38.225  31.696  30.695  1.00  0.00     0.074 A 
ATOM     38  C   UNL A   1      37.948  33.291  32.559  1.00  0.00     0.049 A 
ATOM     39  N   UNL A   1      39.169  30.923  31.170  1.00  0.00    -0.248 NA
ATOM     40  C   UNL A   1      37.748  31.311  29.357  1.00  0.00     0.031 C 
ATOM     41  C   UNL A   1      37.348  34.388  33.322  1.00  0.00     0.029 A 
ATOM     42  N   UNL A   1      38.938  32.820  33.386  1.00  0.00    -0.354 N 
ATOM     43  C   UNL A   1      39.381  29.949  30.202  1.00  0.00     0.074 A 
ATOM     44  C   UNL A   1      38.434  30.198  29.137  1.00  0.00     0.031 C 
ATOM     45  C   UNL A   1      37.994  34.520  34.491  1.00  0.00     0.029 A 
ATOM     46  C   UNL A   1      39.028  33.494  34.581  1.00  0.00     0.049 A 
ATOM     47  H   UNL A   1      39.530  32.071  33.147  1.00  0.00     0.167 HD
ATOM     48  C   UNL A   1      40.298  28.951  30.188  1.00  0.00     0.037 A 
ATOM     49  C   UNL A   1      39.844  33.304  35.636  1.00  0.00     0.037 A 
ATOM     50  C   UNL A   1      41.266  28.725  31.228  1.00  0.00     0.049 A 
ATOM     51  C   UNL A   1      40.864  32.201  35.588  1.00  0.00     0.074 A 
ATOM     52  C   UNL A   1      42.276  27.779  31.275  1.00  0.00     0.029 A 
ATOM     53  N   UNL A   1      41.349  29.457  32.402  1.00  0.00    -0.354 N 
ATOM     54  N   UNL A   1      41.093  31.328  34.638  1.00  0.00    -0.248 NA
ATOM     55  C   UNL A   1      41.746  32.063  36.757  1.00  0.00     0.031 C 
ATOM     56  C   UNL A   1      42.950  27.917  32.492  1.00  0.00     0.029 A 
ATOM     57  C   UNL A   1      42.385  28.975  33.186  1.00  0.00     0.049 A 
ATOM     58  H   UNL A   1      40.759  30.207  32.644  1.00  0.00     0.167 HD
ATOM     59  C   UNL A   1      42.157  30.554  35.082  1.00  0.00     0.074 A 
ATOM     60  C   UNL A   1      42.539  31.070  36.380  1.00  0.00     0.031 C 
ATOM     61  C   UNL A   1      42.762  29.508  34.469  1.00  0.00     0.037 A 
BRANCH  48  62
ATOM     62  C   UNL A   1      40.305  28.037  28.997  1.00  0.00     0.057 A 
ATOM     63  C   UNL A   1      41.039  28.339  27.843  1.00  0.00     0.134 A 
ATOM     64  C   UNL A   1      39.598  26.829  29.017  1.00  0.00     0.134 A 
ATOM     65  F   UNL A   1      41.729  29.487  27.756  1.00  0.00    -0.206 F 
ATOM     66  C   UNL A   1      41.048  27.484  26.740  1.00  0.00     0.040 A 
ATOM     67  C   UNL A   1      39.621  25.954  27.930  1.00  0.00     0.040 A 
ATOM     68  F   UNL A   1      38.881  26.476  30.094  1.00  0.00    -0.206 F 
ATOM     69  C   UNL A   1      40.342  26.284  26.784  1.00  0.00     0.006 A 
ENDBRANCH  48  62
BRANCH  49  70
ATOM     70  C   UNL A   1      39.747  34.190  36.823  1.00  0.00     0.057 A 
ATOM     71  C   UNL A   1      38.965  33.831  37.927  1.00  0.00     0.134 A 
ATOM     72  C   UNL A   1      40.415  35.418  36.878  1.00  0.00     0.134 A 
ATOM     73  F   UNL A   1      38.284  32.675  37.924  1.00  0.00    -0.206 F 
ATOM     74  C   UNL A   1      38.833  34.670  39.035  1.00  0.00     0.040 A 
ATOM     75  C   UNL A   1      40.312  36.257  37.990  1.00  0.00     0.040 A 
ATOM     76  F   UNL A   1      41.187  35.816  35.856  1.00  0.00    -0.206 F 
ATOM     77  C   UNL A   1      39.512  35.886  39.069  1.00  0.00     0.006 A 
ENDBRANCH  49  70
BRANCH  61  78
ATOM     78  C   UNL A   1      43.924  28.877  35.176  1.00  0.00     0.057 A 
ATOM     79  C   UNL A   1      43.754  27.822  36.081  1.00  0.00     0.134 A 
ATOM     80  C   UNL A   1      45.233  29.305  34.917  1.00  0.00     0.134 A 
ATOM     81  F   UNL A   1      42.525  27.376  36.383  1.00  0.00    -0.206 F 
ATOM     82  C   UNL A   1      44.844  27.227  36.720  1.00  0.00     0.040 A 
ATOM     83  C   UNL A   1      46.331  28.702  35.531  1.00  0.00     0.040 A 
ATOM     84  F   UNL A   1      45.464  30.305  34.056  1.00  0.00    -0.206 F 
ATOM     85  C   UNL A   1      46.138  27.663  36.438  1.00  0.00     0.006 A 
ENDBRANCH  61  78
ENDBRANCH  35  36
ENDBRANCH  27  30
ENDBRANCH  25  26
ENDBRANCH   1  25
TORSDOF 12
ENDMDL
