MODEL 1
REMARK VINA RESULT:      -9.7      0.000      0.000
REMARK SMILES O=C(NCCCCNC(=O)[C@H]1CC(=O)N(c2cccc(OC(F)(F)F)c2)C1)c1ccc(-c2c3nc(c(-c4c(F)cccc4F)c4ccc([nH]4)c(-c4c(F)cccc4F)c4nc(c(-c5c(F)cccc5F)c5ccc2[nH]5)C=C4)C=C3)cc1
REMARK SMILES IDX 6 1 5 2 4 3 3 4 1 5 2 6 28 8 29 9 81 10 30 11 80 12 31 13
REMARK SMILES IDX 32 14 33 15 74 16 34 17 79 18 73 19 75 20 35 21 78 22 72 23
REMARK SMILES IDX 71 24 36 26 62 27 45 28 61 29 46 30 49 31 60 32 76 33 47 34
REMARK SMILES IDX 48 35 59 37 77 38 50 39 37 40 38 41 43 42 39 43 40 44 42 45
REMARK SMILES IDX 44 46 41 47 63 48 64 49 69 50 65 51 66 52 68 53 70 54 67 55
REMARK SMILES IDX 51 56 52 57 57 58 53 59 54 60 56 61 58 62 55 63 7 64 8 65
REMARK SMILES IDX 9 66 10 68 11 69 12 70 27 71 13 72 15 73 14 74 16 75 17 76
REMARK SMILES IDX 26 77 18 78 20 79 19 80 21 81 22 82 23 83 24 84 25 85
REMARK H PARENT 3 7 75 25 49 36 8 67
REMARK Flexibility Score: inf
ROOT
ATOM      1  C   UNL A   1      33.527  34.785  32.968  1.00  0.00     0.023 C 
ENDROOT
BRANCH   1   2
ATOM      2  C   UNL A   1      33.067  36.014  32.190  1.00  0.00     0.023 C 
BRANCH   2   3
ATOM      3  C   UNL A   1      33.664  36.160  30.797  1.00  0.00     0.116 C 
BRANCH   3   4
ATOM      4  N   UNL A   1      32.859  35.537  29.754  1.00  0.00    -0.352 N 
ATOM      5  O   UNL A   1      32.389  34.182  28.009  1.00  0.00    -0.269 OA
ATOM      6  C   UNL A   1      33.159  34.489  28.914  1.00  0.00     0.251 C 
ATOM      7  H   UNL A   1      31.963  35.925  29.632  1.00  0.00     0.163 HD
BRANCH   6   8
ATOM      8  C   UNL A   1      34.433  33.755  29.076  1.00  0.00     0.039 A 
ATOM      9  C   UNL A   1      34.592  32.838  30.114  1.00  0.00     0.014 A 
ATOM     10  C   UNL A   1      35.494  34.018  28.206  1.00  0.00     0.014 A 
ATOM     11  C   UNL A   1      35.860  32.362  30.417  1.00  0.00     0.010 A 
ATOM     12  C   UNL A   1      36.744  33.434  28.439  1.00  0.00     0.010 A 
ATOM     13  C   UNL A   1      36.953  32.646  29.582  1.00  0.00    -0.014 A 
BRANCH  13  14
ATOM     14  C   UNL A   1      38.286  32.080  29.922  1.00  0.00     0.031 A 
ATOM     15  C   UNL A   1      38.742  30.757  29.366  1.00  0.00     0.074 A 
ATOM     16  C   UNL A   1      39.114  32.803  30.701  1.00  0.00     0.049 A 
ATOM     17  N   UNL A   1      39.895  30.152  29.521  1.00  0.00    -0.248 NA
ATOM     18  C   UNL A   1      37.786  30.009  28.538  1.00  0.00     0.031 C 
ATOM     19  C   UNL A   1      38.786  34.097  31.306  1.00  0.00     0.029 A 
ATOM     20  N   UNL A   1      40.409  32.577  31.092  1.00  0.00    -0.354 N 
ATOM     21  C   UNL A   1      39.792  28.947  28.836  1.00  0.00     0.074 A 
ATOM     22  C   UNL A   1      38.455  28.892  28.286  1.00  0.00     0.031 C 
ATOM     23  C   UNL A   1      39.867  34.578  31.932  1.00  0.00     0.029 A 
ATOM     24  C   UNL A   1      40.941  33.598  31.841  1.00  0.00     0.049 A 
ATOM     25  H   UNL A   1      40.909  31.760  30.858  1.00  0.00     0.167 HD
ATOM     26  C   UNL A   1      40.729  27.980  28.676  1.00  0.00     0.037 A 
ATOM     27  C   UNL A   1      42.155  33.728  32.407  1.00  0.00     0.037 A 
ATOM     28  C   UNL A   1      42.066  28.047  29.211  1.00  0.00     0.049 A 
ATOM     29  C   UNL A   1      43.161  32.629  32.234  1.00  0.00     0.074 A 
ATOM     30  C   UNL A   1      43.101  27.139  29.065  1.00  0.00     0.029 A 
ATOM     31  N   UNL A   1      42.553  29.079  30.001  1.00  0.00    -0.354 N 
ATOM     32  N   UNL A   1      43.060  31.516  31.550  1.00  0.00    -0.248 NA
ATOM     33  C   UNL A   1      44.449  32.805  32.915  1.00  0.00     0.031 C 
ATOM     34  C   UNL A   1      44.191  27.591  29.816  1.00  0.00     0.029 A 
ATOM     35  C   UNL A   1      43.862  28.815  30.375  1.00  0.00     0.049 A 
ATOM     36  H   UNL A   1      42.043  29.882  30.258  1.00  0.00     0.167 HD
ATOM     37  C   UNL A   1      44.282  30.871  31.693  1.00  0.00     0.074 A 
ATOM     38  C   UNL A   1      45.112  31.730  32.515  1.00  0.00     0.031 C 
ATOM     39  C   UNL A   1      44.680  29.678  31.188  1.00  0.00     0.037 A 
BRANCH  26  40
ATOM     40  C   UNL A   1      40.335  26.744  27.913  1.00  0.00     0.057 A 
ATOM     41  C   UNL A   1      40.772  26.500  26.604  1.00  0.00     0.134 A 
ATOM     42  C   UNL A   1      39.540  25.761  28.517  1.00  0.00     0.134 A 
ATOM     43  F   UNL A   1      41.529  27.402  25.962  1.00  0.00    -0.206 F 
ATOM     44  C   UNL A   1      40.410  25.340  25.916  1.00  0.00     0.040 A 
ATOM     45  C   UNL A   1      39.196  24.583  27.850  1.00  0.00     0.040 A 
ATOM     46  F   UNL A   1      39.094  25.921  29.772  1.00  0.00    -0.206 F 
ATOM     47  C   UNL A   1      39.625  24.374  26.542  1.00  0.00     0.006 A 
ENDBRANCH  26  40
BRANCH  27  48
ATOM     48  C   UNL A   1      42.481  34.947  33.188  1.00  0.00     0.057 A 
ATOM     49  C   UNL A   1      43.068  36.062  32.580  1.00  0.00     0.134 A 
ATOM     50  C   UNL A   1      42.215  35.027  34.561  1.00  0.00     0.134 A 
ATOM     51  F   UNL A   1      43.359  36.041  31.271  1.00  0.00    -0.206 F 
ATOM     52  C   UNL A   1      43.399  37.203  33.311  1.00  0.00     0.040 A 
ATOM     53  C   UNL A   1      42.510  36.173  35.298  1.00  0.00     0.040 A 
ATOM     54  F   UNL A   1      41.644  33.997  35.202  1.00  0.00    -0.206 F 
ATOM     55  C   UNL A   1      43.114  37.263  34.674  1.00  0.00     0.006 A 
ENDBRANCH  27  48
BRANCH  39  56
ATOM     56  C   UNL A   1      46.094  29.257  31.470  1.00  0.00     0.057 A 
ATOM     57  C   UNL A   1      46.435  28.495  32.596  1.00  0.00     0.134 A 
ATOM     58  C   UNL A   1      47.128  29.612  30.595  1.00  0.00     0.134 A 
ATOM     59  F   UNL A   1      45.495  28.133  33.483  1.00  0.00    -0.206 F 
ATOM     60  C   UNL A   1      47.758  28.134  32.859  1.00  0.00     0.040 A 
ATOM     61  C   UNL A   1      48.449  29.229  30.829  1.00  0.00     0.040 A 
ATOM     62  F   UNL A   1      46.871  30.334  29.493  1.00  0.00    -0.206 F 
ATOM     63  C   UNL A   1      48.768  28.496  31.970  1.00  0.00     0.006 A 
ENDBRANCH  39  56
ENDBRANCH  13  14
ENDBRANCH   6   8
ENDBRANCH   3   4
ENDBRANCH   2   3
ENDBRANCH   1   2
BRANCH   1  64
ATOM     64  C   UNL A   1      34.936  34.870  33.550  1.00  0.00     0.116 C 
BRANCH  64  65
ATOM     65  N   UNL A   1      35.038  34.315  34.888  1.00  0.00    -0.356 N 
ATOM     66  C   UNL A   1      36.106  33.846  35.583  1.00  0.00     0.225 C 
ATOM     67  H   UNL A   1      34.184  34.272  35.375  1.00  0.00     0.163 HD
ATOM     68  O   UNL A   1      35.921  33.557  36.769  1.00  0.00    -0.275 OA
BRANCH  66  69
ATOM     69  C   UNL A   1      37.471  33.629  34.960  1.00  0.00     0.107 C 
ATOM     70  C   UNL A   1      38.518  33.226  35.983  1.00  0.00     0.116 C 
ATOM     71  C   UNL A   1      37.511  32.596  33.849  1.00  0.00     0.139 C 
ATOM     72  C   UNL A   1      39.126  31.958  35.451  1.00  0.00     0.227 C 
ATOM     73  N   UNL A   1      38.483  31.610  34.261  1.00  0.00    -0.311 N 
ATOM     74  O   UNL A   1      40.033  31.376  36.023  1.00  0.00    -0.274 OA
BRANCH  73  75
ATOM     75  C   UNL A   1      38.679  30.396  33.550  1.00  0.00     0.047 A 
ATOM     76  C   UNL A   1      37.588  29.654  33.082  1.00  0.00     0.026 A 
ATOM     77  C   UNL A   1      39.973  29.887  33.340  1.00  0.00     0.073 A 
ATOM     78  C   UNL A   1      37.784  28.454  32.395  1.00  0.00     0.006 A 
ATOM     79  C   UNL A   1      40.175  28.662  32.700  1.00  0.00     0.131 A 
ATOM     80  C   UNL A   1      39.074  27.961  32.208  1.00  0.00     0.047 A 
BRANCH  79  81
ATOM     81  O   UNL A   1      41.379  28.046  32.500  1.00  0.00    -0.406 OA
BRANCH  81  82
ATOM     82  C   UNL A   1      42.148  27.716  33.646  1.00  0.00     0.573 C 
ATOM     83  F   UNL A   1      41.355  27.327  34.666  1.00  0.00    -0.132 F 
ATOM     84  F   UNL A   1      43.048  26.746  33.373  1.00  0.00    -0.132 F 
ATOM     85  F   UNL A   1      42.828  28.815  34.041  1.00  0.00    -0.132 F 
ENDBRANCH  81  82
ENDBRANCH  79  81
ENDBRANCH  73  75
ENDBRANCH  66  69
ENDBRANCH  64  65
ENDBRANCH   1  64
TORSDOF 14
ENDMDL
MODEL 2
REMARK VINA RESULT:      -9.2      5.249     10.852
REMARK SMILES O=C(NCCCCNC(=O)[C@H]1CC(=O)N(c2cccc(OC(F)(F)F)c2)C1)c1ccc(-c2c3nc(c(-c4c(F)cccc4F)c4ccc([nH]4)c(-c4c(F)cccc4F)c4nc(c(-c5c(F)cccc5F)c5ccc2[nH]5)C=C4)C=C3)cc1
REMARK SMILES IDX 6 1 5 2 4 3 3 4 1 5 2 6 28 8 29 9 81 10 30 11 80 12 31 13
REMARK SMILES IDX 32 14 33 15 74 16 34 17 79 18 73 19 75 20 35 21 78 22 72 23
REMARK SMILES IDX 71 24 36 26 62 27 45 28 61 29 46 30 49 31 60 32 76 33 47 34
REMARK SMILES IDX 48 35 59 37 77 38 50 39 37 40 38 41 43 42 39 43 40 44 42 45
REMARK SMILES IDX 44 46 41 47 63 48 64 49 69 50 65 51 66 52 68 53 70 54 67 55
REMARK SMILES IDX 51 56 52 57 57 58 53 59 54 60 56 61 58 62 55 63 7 64 8 65
REMARK SMILES IDX 9 66 10 68 11 69 12 70 27 71 13 72 15 73 14 74 16 75 17 76
REMARK SMILES IDX 26 77 18 78 20 79 19 80 21 81 22 82 23 83 24 84 25 85
REMARK H PARENT 3 7 75 25 49 36 8 67
REMARK Flexibility Score: inf
ROOT
ATOM      1  C   UNL A   1      36.233  20.782  25.181  1.00  0.00     0.023 C 
ENDROOT
BRANCH   1   2
ATOM      2  C   UNL A   1      37.609  20.302  24.729  1.00  0.00     0.023 C 
BRANCH   2   3
ATOM      3  C   UNL A   1      38.741  20.559  25.714  1.00  0.00     0.116 C 
BRANCH   3   4
ATOM      4  N   UNL A   1      39.763  19.521  25.705  1.00  0.00    -0.352 N 
ATOM      5  O   UNL A   1      41.832  18.626  25.852  1.00  0.00    -0.269 OA
ATOM      6  C   UNL A   1      41.096  19.590  26.042  1.00  0.00     0.251 C 
ATOM      7  H   UNL A   1      39.453  18.633  25.413  1.00  0.00     0.163 HD
BRANCH   6   8
ATOM      8  C   UNL A   1      41.652  20.842  26.597  1.00  0.00     0.039 A 
ATOM      9  C   UNL A   1      41.676  21.055  27.975  1.00  0.00     0.014 A 
ATOM     10  C   UNL A   1      42.116  21.834  25.729  1.00  0.00     0.014 A 
ATOM     11  C   UNL A   1      41.947  22.324  28.466  1.00  0.00     0.010 A 
ATOM     12  C   UNL A   1      42.511  23.075  26.239  1.00  0.00     0.010 A 
ATOM     13  C   UNL A   1      42.374  23.351  27.609  1.00  0.00    -0.014 A 
BRANCH  13  14
ATOM     14  C   UNL A   1      42.694  24.685  28.185  1.00  0.00     0.031 A 
ATOM     15  C   UNL A   1      44.109  25.081  28.512  1.00  0.00     0.074 A 
ATOM     16  C   UNL A   1      41.691  25.568  28.361  1.00  0.00     0.049 A 
ATOM     17  N   UNL A   1      44.560  26.224  28.966  1.00  0.00    -0.248 NA
ATOM     18  C   UNL A   1      45.155  24.066  28.314  1.00  0.00     0.031 C 
ATOM     19  C   UNL A   1      40.276  25.301  28.089  1.00  0.00     0.029 A 
ATOM     20  N   UNL A   1      41.705  26.874  28.778  1.00  0.00    -0.354 N 
ATOM     21  C   UNL A   1      45.930  26.058  29.134  1.00  0.00     0.074 A 
ATOM     22  C   UNL A   1      46.235  24.694  28.758  1.00  0.00     0.031 C 
ATOM     23  C   UNL A   1      39.572  26.424  28.279  1.00  0.00     0.029 A 
ATOM     24  C   UNL A   1      40.467  27.468  28.761  1.00  0.00     0.049 A 
ATOM     25  H   UNL A   1      42.525  27.342  29.062  1.00  0.00     0.167 HD
ATOM     26  C   UNL A   1      46.849  26.962  29.556  1.00  0.00     0.037 A 
ATOM     27  C   UNL A   1      40.086  28.710  29.108  1.00  0.00     0.037 A 
ATOM     28  C   UNL A   1      46.543  28.325  29.912  1.00  0.00     0.049 A 
ATOM     29  C   UNL A   1      41.121  29.679  29.596  1.00  0.00     0.074 A 
ATOM     30  C   UNL A   1      47.411  29.329  30.309  1.00  0.00     0.029 A 
ATOM     31  N   UNL A   1      45.269  28.875  29.923  1.00  0.00    -0.354 N 
ATOM     32  N   UNL A   1      42.417  29.518  29.709  1.00  0.00    -0.248 NA
ATOM     33  C   UNL A   1      40.640  31.003  30.007  1.00  0.00     0.031 C 
ATOM     34  C   UNL A   1      46.656  30.466  30.617  1.00  0.00     0.029 A 
ATOM     35  C   UNL A   1      45.325  30.194  30.348  1.00  0.00     0.049 A 
ATOM     36  H   UNL A   1      44.447  28.399  29.666  1.00  0.00     0.167 HD
ATOM     37  C   UNL A   1      42.911  30.729  30.176  1.00  0.00     0.074 A 
ATOM     38  C   UNL A   1      41.774  31.619  30.307  1.00  0.00     0.031 C 
ATOM     39  C   UNL A   1      44.189  31.073  30.469  1.00  0.00     0.037 A 
BRANCH  26  40
ATOM     40  C   UNL A   1      48.275  26.501  29.686  1.00  0.00     0.057 A 
ATOM     41  C   UNL A   1      49.215  26.673  28.661  1.00  0.00     0.134 A 
ATOM     42  C   UNL A   1      48.725  25.913  30.876  1.00  0.00     0.134 A 
ATOM     43  F   UNL A   1      48.852  27.221  27.492  1.00  0.00    -0.206 F 
ATOM     44  C   UNL A   1      50.540  26.254  28.804  1.00  0.00     0.040 A 
ATOM     45  C   UNL A   1      50.054  25.517  31.043  1.00  0.00     0.040 A 
ATOM     46  F   UNL A   1      47.884  25.726  31.904  1.00  0.00    -0.206 F 
ATOM     47  C   UNL A   1      50.964  25.680  30.001  1.00  0.00     0.006 A 
ENDBRANCH  26  40
BRANCH  27  48
ATOM     48  C   UNL A   1      38.659  29.104  29.005  1.00  0.00     0.057 A 
ATOM     49  C   UNL A   1      38.116  29.549  27.794  1.00  0.00     0.134 A 
ATOM     50  C   UNL A   1      37.803  29.047  30.112  1.00  0.00     0.134 A 
ATOM     51  F   UNL A   1      38.888  29.640  26.701  1.00  0.00    -0.206 F 
ATOM     52  C   UNL A   1      36.781  29.943  27.693  1.00  0.00     0.040 A 
ATOM     53  C   UNL A   1      36.459  29.406  30.018  1.00  0.00     0.040 A 
ATOM     54  F   UNL A   1      38.259  28.619  31.299  1.00  0.00    -0.206 F 
ATOM     55  C   UNL A   1      35.947  29.866  28.806  1.00  0.00     0.006 A 
ENDBRANCH  27  48
BRANCH  39  56
ATOM     56  C   UNL A   1      44.430  32.487  30.911  1.00  0.00     0.057 A 
ATOM     57  C   UNL A   1      44.424  32.859  32.262  1.00  0.00     0.134 A 
ATOM     58  C   UNL A   1      44.679  33.492  29.967  1.00  0.00     0.134 A 
ATOM     59  F   UNL A   1      44.177  31.949  33.216  1.00  0.00    -0.206 F 
ATOM     60  C   UNL A   1      44.624  34.184  32.656  1.00  0.00     0.040 A 
ATOM     61  C   UNL A   1      44.913  34.813  30.349  1.00  0.00     0.040 A 
ATOM     62  F   UNL A   1      44.707  33.205  28.657  1.00  0.00    -0.206 F 
ATOM     63  C   UNL A   1      44.875  35.164  31.698  1.00  0.00     0.006 A 
ENDBRANCH  39  56
ENDBRANCH  13  14
ENDBRANCH   6   8
ENDBRANCH   3   4
ENDBRANCH   2   3
ENDBRANCH   1   2
BRANCH   1  64
ATOM     64  C   UNL A   1      36.183  22.210  25.718  1.00  0.00     0.116 C 
BRANCH  64  65
ATOM     65  N   UNL A   1      35.445  22.330  26.963  1.00  0.00    -0.356 N 
ATOM     66  C   UNL A   1      34.149  22.651  27.207  1.00  0.00     0.225 C 
ATOM     67  H   UNL A   1      35.978  22.145  27.769  1.00  0.00     0.163 HD
ATOM     68  O   UNL A   1      33.753  22.541  28.371  1.00  0.00    -0.275 OA
BRANCH  66  69
ATOM     69  C   UNL A   1      33.207  23.169  26.138  1.00  0.00     0.107 C 
ATOM     70  C   UNL A   1      31.748  23.014  26.527  1.00  0.00     0.116 C 
ATOM     71  C   UNL A   1      33.414  24.622  25.752  1.00  0.00     0.139 C 
ATOM     72  C   UNL A   1      31.147  24.383  26.375  1.00  0.00     0.227 C 
ATOM     73  N   UNL A   1      32.147  25.277  25.984  1.00  0.00    -0.311 N 
ATOM     74  O   UNL A   1      29.966  24.608  26.582  1.00  0.00    -0.274 OA
BRANCH  73  75
ATOM     75  C   UNL A   1      31.994  26.686  25.891  1.00  0.00     0.047 A 
ATOM     76  C   UNL A   1      32.101  27.496  27.028  1.00  0.00     0.026 A 
ATOM     77  C   UNL A   1      31.683  27.295  24.663  1.00  0.00     0.073 A 
ATOM     78  C   UNL A   1      31.937  28.880  26.934  1.00  0.00     0.006 A 
ATOM     79  C   UNL A   1      31.465  28.672  24.571  1.00  0.00     0.131 A 
ATOM     80  C   UNL A   1      31.618  29.463  25.709  1.00  0.00     0.047 A 
BRANCH  79  81
ATOM     81  O   UNL A   1      31.098  29.357  23.446  1.00  0.00    -0.406 OA
BRANCH  81  82
ATOM     82  C   UNL A   1      29.712  29.457  23.159  1.00  0.00     0.573 C 
ATOM     83  F   UNL A   1      29.505  29.697  21.847  1.00  0.00    -0.132 F 
ATOM     84  F   UNL A   1      29.052  28.337  23.527  1.00  0.00    -0.132 F 
ATOM     85  F   UNL A   1      29.199  30.492  23.860  1.00  0.00    -0.132 F 
ENDBRANCH  81  82
ENDBRANCH  79  81
ENDBRANCH  73  75
ENDBRANCH  66  69
ENDBRANCH  64  65
ENDBRANCH   1  64
TORSDOF 14
ENDMDL
MODEL 3
REMARK VINA RESULT:      -9.2      4.546      9.561
REMARK SMILES O=C(NCCCCNC(=O)[C@H]1CC(=O)N(c2cccc(OC(F)(F)F)c2)C1)c1ccc(-c2c3nc(c(-c4c(F)cccc4F)c4ccc([nH]4)c(-c4c(F)cccc4F)c4nc(c(-c5c(F)cccc5F)c5ccc2[nH]5)C=C4)C=C3)cc1
REMARK SMILES IDX 6 1 5 2 4 3 3 4 1 5 2 6 28 8 29 9 81 10 30 11 80 12 31 13
REMARK SMILES IDX 32 14 33 15 74 16 34 17 79 18 73 19 75 20 35 21 78 22 72 23
REMARK SMILES IDX 71 24 36 26 62 27 45 28 61 29 46 30 49 31 60 32 76 33 47 34
REMARK SMILES IDX 48 35 59 37 77 38 50 39 37 40 38 41 43 42 39 43 40 44 42 45
REMARK SMILES IDX 44 46 41 47 63 48 64 49 69 50 65 51 66 52 68 53 70 54 67 55
REMARK SMILES IDX 51 56 52 57 57 58 53 59 54 60 56 61 58 62 55 63 7 64 8 65
REMARK SMILES IDX 9 66 10 68 11 69 12 70 27 71 13 72 15 73 14 74 16 75 17 76
REMARK SMILES IDX 26 77 18 78 20 79 19 80 21 81 22 82 23 83 24 84 25 85
REMARK H PARENT 3 7 75 25 49 36 8 67
REMARK Flexibility Score: inf
ROOT
ATOM      1  C   UNL A   1      31.649  30.335  25.601  1.00  0.00     0.023 C 
ENDROOT
BRANCH   1   2
ATOM      2  C   UNL A   1      31.461  31.410  26.668  1.00  0.00     0.023 C 
BRANCH   2   3
ATOM      3  C   UNL A   1      32.719  32.183  27.038  1.00  0.00     0.116 C 
BRANCH   3   4
ATOM      4  N   UNL A   1      32.464  33.578  27.370  1.00  0.00    -0.352 N 
ATOM      5  O   UNL A   1      32.633  35.516  28.520  1.00  0.00    -0.269 OA
ATOM      6  C   UNL A   1      33.073  34.392  28.299  1.00  0.00     0.251 C 
ATOM      7  H   UNL A   1      31.745  34.006  26.851  1.00  0.00     0.163 HD
BRANCH   6   8
ATOM      8  C   UNL A   1      34.237  33.894  29.063  1.00  0.00     0.039 A 
ATOM      9  C   UNL A   1      35.530  34.281  28.713  1.00  0.00     0.014 A 
ATOM     10  C   UNL A   1      34.038  32.997  30.116  1.00  0.00     0.014 A 
ATOM     11  C   UNL A   1      36.616  33.608  29.255  1.00  0.00     0.010 A 
ATOM     12  C   UNL A   1      35.140  32.413  30.750  1.00  0.00     0.010 A 
ATOM     13  C   UNL A   1      36.439  32.670  30.286  1.00  0.00    -0.014 A 
BRANCH  13  14
ATOM     14  C   UNL A   1      37.636  32.004  30.867  1.00  0.00     0.031 A 
ATOM     15  C   UNL A   1      38.091  32.293  32.272  1.00  0.00     0.074 A 
ATOM     16  C   UNL A   1      38.283  31.082  30.127  1.00  0.00     0.049 A 
ATOM     17  N   UNL A   1      39.079  31.756  32.945  1.00  0.00    -0.248 NA
ATOM     18  C   UNL A   1      37.353  33.322  33.020  1.00  0.00     0.031 C 
ATOM     19  C   UNL A   1      37.943  30.718  28.749  1.00  0.00     0.029 A 
ATOM     20  N   UNL A   1      39.337  30.261  30.433  1.00  0.00    -0.354 N 
ATOM     21  C   UNL A   1      39.099  32.397  34.178  1.00  0.00     0.074 A 
ATOM     22  C   UNL A   1      38.040  33.384  34.153  1.00  0.00     0.031 C 
ATOM     23  C   UNL A   1      38.725  29.704  28.355  1.00  0.00     0.029 A 
ATOM     24  C   UNL A   1      39.672  29.397  29.419  1.00  0.00     0.049 A 
ATOM     25  H   UNL A   1      39.810  30.288  31.298  1.00  0.00     0.167 HD
ATOM     26  C   UNL A   1      39.920  32.178  35.235  1.00  0.00     0.037 A 
ATOM     27  C   UNL A   1      40.643  28.469  29.343  1.00  0.00     0.037 A 
ATOM     28  C   UNL A   1      40.962  31.182  35.262  1.00  0.00     0.049 A 
ATOM     29  C   UNL A   1      41.552  28.268  30.519  1.00  0.00     0.074 A 
ATOM     30  C   UNL A   1      41.816  30.854  36.301  1.00  0.00     0.029 A 
ATOM     31  N   UNL A   1      41.297  30.356  34.198  1.00  0.00    -0.354 N 
ATOM     32  N   UNL A   1      41.530  28.854  31.691  1.00  0.00    -0.248 NA
ATOM     33  C   UNL A   1      42.622  27.277  30.360  1.00  0.00     0.031 C 
ATOM     34  C   UNL A   1      42.705  29.874  35.846  1.00  0.00     0.029 A 
ATOM     35  C   UNL A   1      42.364  29.542  34.546  1.00  0.00     0.049 A 
ATOM     36  H   UNL A   1      40.843  30.349  33.324  1.00  0.00     0.167 HD
ATOM     37  C   UNL A   1      42.564  28.283  32.420  1.00  0.00     0.074 A 
ATOM     38  C   UNL A   1      43.180  27.291  31.561  1.00  0.00     0.031 C 
ATOM     39  C   UNL A   1      42.966  28.554  33.686  1.00  0.00     0.037 A 
BRANCH  26  40
ATOM     40  C   UNL A   1      39.748  33.052  36.447  1.00  0.00     0.057 A 
ATOM     41  C   UNL A   1      40.452  34.252  36.612  1.00  0.00     0.134 A 
ATOM     42  C   UNL A   1      38.827  32.706  37.447  1.00  0.00     0.134 A 
ATOM     43  F   UNL A   1      41.355  34.641  35.700  1.00  0.00    -0.206 F 
ATOM     44  C   UNL A   1      40.268  35.060  37.737  1.00  0.00     0.040 A 
ATOM     45  C   UNL A   1      38.613  33.520  38.561  1.00  0.00     0.040 A 
ATOM     46  F   UNL A   1      38.110  31.577  37.351  1.00  0.00    -0.206 F 
ATOM     47  C   UNL A   1      39.341  34.698  38.712  1.00  0.00     0.006 A 
ENDBRANCH  26  40
BRANCH  27  48
ATOM     48  C   UNL A   1      40.801  27.662  28.107  1.00  0.00     0.057 A 
ATOM     49  C   UNL A   1      40.172  26.420  27.968  1.00  0.00     0.134 A 
ATOM     50  C   UNL A   1      41.585  28.111  27.037  1.00  0.00     0.134 A 
ATOM     51  F   UNL A   1      39.420  25.929  28.963  1.00  0.00    -0.206 F 
ATOM     52  C   UNL A   1      40.334  25.644  26.820  1.00  0.00     0.040 A 
ATOM     53  C   UNL A   1      41.729  27.361  25.871  1.00  0.00     0.040 A 
ATOM     54  F   UNL A   1      42.206  29.298  27.103  1.00  0.00    -0.206 F 
ATOM     55  C   UNL A   1      41.110  26.117  25.764  1.00  0.00     0.006 A 
ENDBRANCH  27  48
BRANCH  39  56
ATOM     56  C   UNL A   1      44.094  27.729  34.234  1.00  0.00     0.057 A 
ATOM     57  C   UNL A   1      45.428  28.156  34.175  1.00  0.00     0.134 A 
ATOM     58  C   UNL A   1      43.839  26.491  34.838  1.00  0.00     0.134 A 
ATOM     59  F   UNL A   1      45.743  29.324  33.597  1.00  0.00    -0.206 F 
ATOM     60  C   UNL A   1      46.469  27.365  34.666  1.00  0.00     0.040 A 
ATOM     61  C   UNL A   1      44.867  25.707  35.361  1.00  0.00     0.040 A 
ATOM     62  F   UNL A   1      42.585  26.025  34.935  1.00  0.00    -0.206 F 
ATOM     63  C   UNL A   1      46.189  26.140  35.266  1.00  0.00     0.006 A 
ENDBRANCH  39  56
ENDBRANCH  13  14
ENDBRANCH   6   8
ENDBRANCH   3   4
ENDBRANCH   2   3
ENDBRANCH   1   2
BRANCH   1  64
ATOM     64  C   UNL A   1      32.845  29.409  25.811  1.00  0.00     0.116 C 
BRANCH  64  65
ATOM     65  N   UNL A   1      33.719  29.330  24.655  1.00  0.00    -0.356 N 
ATOM     66  C   UNL A   1      33.783  28.429  23.641  1.00  0.00     0.225 C 
ATOM     67  H   UNL A   1      34.380  30.057  24.595  1.00  0.00     0.163 HD
ATOM     68  O   UNL A   1      34.546  28.689  22.706  1.00  0.00    -0.275 OA
BRANCH  66  69
ATOM     69  C   UNL A   1      33.005  27.128  23.637  1.00  0.00     0.107 C 
ATOM     70  C   UNL A   1      32.804  26.576  22.237  1.00  0.00     0.116 C 
ATOM     71  C   UNL A   1      33.613  26.016  24.472  1.00  0.00     0.139 C 
ATOM     72  C   UNL A   1      33.318  25.165  22.288  1.00  0.00     0.227 C 
ATOM     73  N   UNL A   1      33.818  24.909  23.568  1.00  0.00    -0.311 N 
ATOM     74  O   UNL A   1      33.277  24.417  21.325  1.00  0.00    -0.274 OA
BRANCH  73  75
ATOM     75  C   UNL A   1      34.523  23.737  23.951  1.00  0.00     0.047 A 
ATOM     76  C   UNL A   1      35.881  23.584  23.643  1.00  0.00     0.026 A 
ATOM     77  C   UNL A   1      33.863  22.683  24.607  1.00  0.00     0.073 A 
ATOM     78  C   UNL A   1      36.568  22.425  24.010  1.00  0.00     0.006 A 
ATOM     79  C   UNL A   1      34.531  21.499  24.930  1.00  0.00     0.131 A 
ATOM     80  C   UNL A   1      35.892  21.387  24.649  1.00  0.00     0.047 A 
BRANCH  79  81
ATOM     81  O   UNL A   1      33.975  20.392  25.508  1.00  0.00    -0.406 OA
BRANCH  81  82
ATOM     82  C   UNL A   1      33.434  19.402  24.647  1.00  0.00     0.573 C 
ATOM     83  F   UNL A   1      34.387  18.536  24.246  1.00  0.00    -0.132 F 
ATOM     84  F   UNL A   1      32.428  18.726  25.245  1.00  0.00    -0.132 F 
ATOM     85  F   UNL A   1      32.931  20.011  23.550  1.00  0.00    -0.132 F 
ENDBRANCH  81  82
ENDBRANCH  79  81
ENDBRANCH  73  75
ENDBRANCH  66  69
ENDBRANCH  64  65
ENDBRANCH   1  64
TORSDOF 14
ENDMDL
