MODEL 1
REMARK VINA RESULT:     -12.8      0.000      0.000
REMARK SMILES COC(=O)c1ccc([C@H]2CC(=O)Nc3c(C(=O)NCCCCNC(=O)c4ccc(-c5c6nc(c(-c7c(F)cccc7F)c7ccc([nH]7)c(-c7c(F)cccc7F)c7nc(c(-c8c(F)cccc8F)c8ccc5[nH]8)C=C7)C=C6)cc4)cn(-c4ccccc4)c32)cc1
REMARK SMILES IDX 20 1 19 2 18 3 16 4 17 5 15 7 9 8 10 9 88 10 11 11 14 12
REMARK SMILES IDX 81 13 12 14 13 15 80 16 8 18 5 19 6 20 90 21 7 22 89 23 3 24
REMARK SMILES IDX 4 25 2 26 1 27 82 28 83 29 87 30 84 31 86 32 85 33 21 34
REMARK SMILES IDX 22 35 23 36 24 37 25 39 26 40 27 41 79 42 28 43 78 44 29 45
REMARK SMILES IDX 30 46 31 47 72 48 32 49 77 50 71 51 73 52 33 53 76 54 70 55
REMARK SMILES IDX 69 56 34 58 60 59 43 60 59 61 44 62 47 63 58 64 74 65 45 66
REMARK SMILES IDX 46 67 57 69 75 70 48 71 35 72 36 73 41 74 37 75 38 76 40 77
REMARK SMILES IDX 42 78 39 79 61 80 62 81 67 82 63 83 64 84 66 85 68 86 65 87
REMARK SMILES IDX 49 88 50 89 55 90 51 91 52 92 54 93 56 94 53 95
REMARK H PARENT 18 6 13 17 23 38 73 57 47 68
REMARK Flexibility Score: inf
ROOT
ATOM      1  C   UNL A   1      38.934  22.230  26.371  1.00  0.00     0.023 C 
ENDROOT
BRANCH   1   2
ATOM      2  C   UNL A   1      37.675  22.955  25.877  1.00  0.00     0.116 C 
BRANCH   2   3
ATOM      3  N   UNL A   1      37.546  22.884  24.444  1.00  0.00    -0.352 N 
ATOM      4  C   UNL A   1      36.555  23.203  23.557  1.00  0.00     0.254 C 
ATOM      5  O   UNL A   1      36.883  23.070  22.372  1.00  0.00    -0.269 OA
ATOM      6  H   UNL A   1      38.351  22.525  24.005  1.00  0.00     0.163 HD
BRANCH   4   7
ATOM      7  C   UNL A   1      35.199  23.670  23.896  1.00  0.00     0.081 A 
ATOM      8  C   UNL A   1      31.498  24.286  23.978  1.00  0.00     0.078 C 
ATOM      9  C   UNL A   1      31.046  23.215  22.977  1.00  0.00     0.115 C 
ATOM     10  C   UNL A   1      32.996  24.243  24.185  1.00  0.00     0.055 A 
ATOM     11  C   UNL A   1      31.935  22.009  22.880  1.00  0.00     0.225 C 
ATOM     12  C   UNL A   1      33.843  23.280  23.665  1.00  0.00     0.076 A 
ATOM     13  N   UNL A   1      33.764  25.147  24.895  1.00  0.00    -0.317 N 
ATOM     14  O   UNL A   1      31.508  20.912  22.520  1.00  0.00    -0.275 OA
ATOM     15  N   UNL A   1      33.274  22.188  23.059  1.00  0.00    -0.324 N 
ATOM     16  C   UNL A   1      35.078  24.862  24.617  1.00  0.00     0.107 A 
ATOM     17  H   UNL A   1      33.877  21.483  22.729  1.00  0.00     0.170 HD
BRANCH   8  18
ATOM     18  C   UNL A   1      30.919  25.616  23.484  1.00  0.00    -0.038 A 
ATOM     19  C   UNL A   1      29.838  28.105  22.714  1.00  0.00     0.060 A 
ATOM     20  C   UNL A   1      29.156  27.295  23.625  1.00  0.00     0.016 A 
ATOM     21  C   UNL A   1      31.025  27.646  22.140  1.00  0.00     0.016 A 
ATOM     22  C   UNL A   1      29.699  26.068  24.017  1.00  0.00     0.005 A 
ATOM     23  C   UNL A   1      31.533  26.394  22.490  1.00  0.00     0.005 A 
BRANCH  19  24
ATOM     24  C   UNL A   1      29.281  29.449  22.402  1.00  0.00     0.337 C 
ATOM     25  O   UNL A   1      28.883  29.779  21.305  1.00  0.00    -0.246 OA
BRANCH  24  26
ATOM     26  O   UNL A   1      29.290  30.222  23.521  1.00  0.00    -0.465 OA
ATOM     27  C   UNL A   1      28.282  31.231  23.538  1.00  0.00     0.282 C 
ENDBRANCH  24  26
ENDBRANCH  19  24
ENDBRANCH   8  18
BRANCH  13  28
ATOM     28  C   UNL A   1      33.311  26.267  25.640  1.00  0.00     0.045 A 
ATOM     29  C   UNL A   1      32.320  26.108  26.614  1.00  0.00     0.026 A 
ATOM     30  C   UNL A   1      33.759  27.547  25.288  1.00  0.00     0.026 A 
ATOM     31  C   UNL A   1      31.718  27.233  27.177  1.00  0.00     0.002 A 
ATOM     32  C   UNL A   1      33.126  28.666  25.831  1.00  0.00     0.002 A 
ATOM     33  C   UNL A   1      32.100  28.510  26.763  1.00  0.00     0.000 A 
ENDBRANCH  13  28
ENDBRANCH   4   7
ENDBRANCH   2   3
ENDBRANCH   1   2
BRANCH   1  34
ATOM     34  C   UNL A   1      39.340  21.015  25.524  1.00  0.00     0.023 C 
BRANCH  34  35
ATOM     35  C   UNL A   1      39.690  19.771  26.340  1.00  0.00     0.116 C 
BRANCH  35  36
ATOM     36  N   UNL A   1      40.939  19.143  25.916  1.00  0.00    -0.352 N 
ATOM     37  C   UNL A   1      42.149  19.763  25.672  1.00  0.00     0.251 C 
ATOM     38  H   UNL A   1      40.916  18.167  25.791  1.00  0.00     0.163 HD
ATOM     39  O   UNL A   1      42.970  19.276  24.906  1.00  0.00    -0.269 OA
BRANCH  37  40
ATOM     40  C   UNL A   1      42.446  21.021  26.377  1.00  0.00     0.039 A 
ATOM     41  C   UNL A   1      42.763  22.188  25.679  1.00  0.00     0.014 A 
ATOM     42  C   UNL A   1      42.372  21.012  27.771  1.00  0.00     0.014 A 
ATOM     43  C   UNL A   1      42.924  23.372  26.395  1.00  0.00     0.010 A 
ATOM     44  C   UNL A   1      42.416  22.198  28.463  1.00  0.00     0.010 A 
ATOM     45  C   UNL A   1      42.728  23.374  27.788  1.00  0.00    -0.014 A 
BRANCH  45  46
ATOM     46  C   UNL A   1      42.649  24.635  28.523  1.00  0.00     0.031 A 
ATOM     47  C   UNL A   1      41.381  25.377  28.276  1.00  0.00     0.074 A 
ATOM     48  C   UNL A   1      43.513  24.978  29.507  1.00  0.00     0.049 A 
ATOM     49  N   UNL A   1      41.236  26.507  27.667  1.00  0.00    -0.248 NA
ATOM     50  C   UNL A   1      40.104  24.708  28.587  1.00  0.00     0.031 C 
ATOM     51  C   UNL A   1      44.617  24.180  30.052  1.00  0.00     0.029 A 
ATOM     52  N   UNL A   1      43.528  26.081  30.310  1.00  0.00    -0.354 N 
ATOM     53  C   UNL A   1      39.878  26.808  27.745  1.00  0.00     0.074 A 
ATOM     54  C   UNL A   1      39.218  25.585  28.111  1.00  0.00     0.031 C 
ATOM     55  C   UNL A   1      45.033  24.711  31.224  1.00  0.00     0.029 A 
ATOM     56  C   UNL A   1      44.345  25.971  31.438  1.00  0.00     0.049 A 
ATOM     57  H   UNL A   1      43.005  26.890  30.110  1.00  0.00     0.167 HD
ATOM     58  C   UNL A   1      39.464  28.104  27.800  1.00  0.00     0.037 A 
ATOM     59  C   UNL A   1      44.434  26.846  32.474  1.00  0.00     0.037 A 
ATOM     60  C   UNL A   1      40.511  28.990  27.346  1.00  0.00     0.049 A 
ATOM     61  C   UNL A   1      43.868  28.133  32.012  1.00  0.00     0.074 A 
ATOM     62  C   UNL A   1      41.247  29.125  26.184  1.00  0.00     0.029 A 
ATOM     63  N   UNL A   1      41.211  29.671  28.310  1.00  0.00    -0.354 N 
ATOM     64  N   UNL A   1      44.434  28.896  31.122  1.00  0.00    -0.248 NA
ATOM     65  C   UNL A   1      42.445  28.348  32.211  1.00  0.00     0.031 C 
ATOM     66  C   UNL A   1      42.565  29.460  26.618  1.00  0.00     0.029 A 
ATOM     67  C   UNL A   1      42.542  29.600  28.006  1.00  0.00     0.049 A 
ATOM     68  H   UNL A   1      40.821  30.134  29.087  1.00  0.00     0.167 HD
ATOM     69  C   UNL A   1      43.385  29.333  30.329  1.00  0.00     0.074 A 
ATOM     70  C   UNL A   1      42.178  29.045  31.104  1.00  0.00     0.031 C 
ATOM     71  C   UNL A   1      43.585  29.603  29.005  1.00  0.00     0.037 A 
BRANCH  58  72
ATOM     72  C   UNL A   1      38.332  28.598  28.684  1.00  0.00     0.057 A 
ATOM     73  C   UNL A   1      37.443  29.561  28.166  1.00  0.00     0.134 A 
ATOM     74  C   UNL A   1      38.263  28.427  30.083  1.00  0.00     0.134 A 
ATOM     75  F   UNL A   1      37.403  29.823  26.851  1.00  0.00    -0.206 F 
ATOM     76  C   UNL A   1      36.638  30.364  28.984  1.00  0.00     0.040 A 
ATOM     77  C   UNL A   1      37.426  29.190  30.903  1.00  0.00     0.040 A 
ATOM     78  F   UNL A   1      39.062  27.593  30.756  1.00  0.00    -0.206 F 
ATOM     79  C   UNL A   1      36.637  30.188  30.361  1.00  0.00     0.006 A 
ENDBRANCH  58  72
BRANCH  59  80
ATOM     80  C   UNL A   1      44.713  26.617  33.913  1.00  0.00     0.057 A 
ATOM     81  C   UNL A   1      45.883  27.117  34.511  1.00  0.00     0.134 A 
ATOM     82  C   UNL A   1      43.707  26.193  34.796  1.00  0.00     0.134 A 
ATOM     83  F   UNL A   1      46.890  27.579  33.756  1.00  0.00    -0.206 F 
ATOM     84  C   UNL A   1      46.025  27.234  35.901  1.00  0.00     0.040 A 
ATOM     85  C   UNL A   1      43.838  26.299  36.187  1.00  0.00     0.040 A 
ATOM     86  F   UNL A   1      42.526  25.754  34.337  1.00  0.00    -0.206 F 
ATOM     87  C   UNL A   1      44.992  26.839  36.744  1.00  0.00     0.006 A 
ENDBRANCH  59  80
BRANCH  71  88
ATOM     88  C   UNL A   1      45.005  29.717  28.519  1.00  0.00     0.057 A 
ATOM     89  C   UNL A   1      45.789  28.646  28.060  1.00  0.00     0.134 A 
ATOM     90  C   UNL A   1      45.565  30.995  28.414  1.00  0.00     0.134 A 
ATOM     91  F   UNL A   1      45.310  27.395  28.026  1.00  0.00    -0.206 F 
ATOM     92  C   UNL A   1      47.087  28.835  27.574  1.00  0.00     0.040 A 
ATOM     93  C   UNL A   1      46.844  31.203  27.895  1.00  0.00     0.040 A 
ATOM     94  F   UNL A   1      44.858  32.074  28.785  1.00  0.00    -0.206 F 
ATOM     95  C   UNL A   1      47.616  30.119  27.487  1.00  0.00     0.006 A 
ENDBRANCH  71  88
ENDBRANCH  45  46
ENDBRANCH  37  40
ENDBRANCH  35  36
ENDBRANCH  34  35
ENDBRANCH   1  34
TORSDOF 15
ENDMDL
MODEL 2
REMARK VINA RESULT:     -12.4      2.096      5.845
REMARK SMILES COC(=O)c1ccc([C@H]2CC(=O)Nc3c(C(=O)NCCCCNC(=O)c4ccc(-c5c6nc(c(-c7c(F)cccc7F)c7ccc([nH]7)c(-c7c(F)cccc7F)c7nc(c(-c8c(F)cccc8F)c8ccc5[nH]8)C=C7)C=C6)cc4)cn(-c4ccccc4)c32)cc1
REMARK SMILES IDX 20 1 19 2 18 3 16 4 17 5 15 7 9 8 10 9 88 10 11 11 14 12
REMARK SMILES IDX 81 13 12 14 13 15 80 16 8 18 5 19 6 20 90 21 7 22 89 23 3 24
REMARK SMILES IDX 4 25 2 26 1 27 82 28 83 29 87 30 84 31 86 32 85 33 21 34
REMARK SMILES IDX 22 35 23 36 24 37 25 39 26 40 27 41 79 42 28 43 78 44 29 45
REMARK SMILES IDX 30 46 31 47 72 48 32 49 77 50 71 51 73 52 33 53 76 54 70 55
REMARK SMILES IDX 69 56 34 58 60 59 43 60 59 61 44 62 47 63 58 64 74 65 45 66
REMARK SMILES IDX 46 67 57 69 75 70 48 71 35 72 36 73 41 74 37 75 38 76 40 77
REMARK SMILES IDX 42 78 39 79 61 80 62 81 67 82 63 83 64 84 66 85 68 86 65 87
REMARK SMILES IDX 49 88 50 89 55 90 51 91 52 92 54 93 56 94 53 95
REMARK H PARENT 18 6 13 17 23 38 73 57 47 68
REMARK Flexibility Score: inf
ROOT
ATOM      1  C   UNL A   1      38.996  23.643  26.768  1.00  0.00     0.023 C 
ENDROOT
BRANCH   1   2
ATOM      2  C   UNL A   1      37.541  23.714  26.285  1.00  0.00     0.116 C 
BRANCH   2   3
ATOM      3  N   UNL A   1      37.428  23.401  24.884  1.00  0.00    -0.352 N 
ATOM      4  C   UNL A   1      36.431  23.524  23.955  1.00  0.00     0.254 C 
ATOM      5  O   UNL A   1      36.775  23.212  22.808  1.00  0.00    -0.269 OA
ATOM      6  H   UNL A   1      38.252  23.012  24.510  1.00  0.00     0.163 HD
BRANCH   4   7
ATOM      7  C   UNL A   1      35.052  23.977  24.211  1.00  0.00     0.081 A 
ATOM      8  C   UNL A   1      31.347  24.554  24.069  1.00  0.00     0.078 C 
ATOM      9  C   UNL A   1      30.967  23.477  23.045  1.00  0.00     0.115 C 
ATOM     10  C   UNL A   1      32.830  24.527  24.365  1.00  0.00     0.055 A 
ATOM     11  C   UNL A   1      31.873  22.280  23.004  1.00  0.00     0.225 C 
ATOM     12  C   UNL A   1      33.717  23.572  23.899  1.00  0.00     0.076 A 
ATOM     13  N   UNL A   1      33.544  25.440  25.118  1.00  0.00    -0.317 N 
ATOM     14  O   UNL A   1      31.479  21.178  22.622  1.00  0.00    -0.275 OA
ATOM     15  N   UNL A   1      33.196  22.473  23.263  1.00  0.00    -0.324 N 
ATOM     16  C   UNL A   1      34.876  25.168  24.920  1.00  0.00     0.107 A 
ATOM     17  H   UNL A   1      33.826  21.774  22.971  1.00  0.00     0.170 HD
BRANCH   8  18
ATOM     18  C   UNL A   1      30.785  25.877  23.538  1.00  0.00    -0.038 A 
ATOM     19  C   UNL A   1      29.715  28.349  22.698  1.00  0.00     0.060 A 
ATOM     20  C   UNL A   1      28.950  27.482  23.484  1.00  0.00     0.016 A 
ATOM     21  C   UNL A   1      30.987  27.954  22.280  1.00  0.00     0.016 A 
ATOM     22  C   UNL A   1      29.486  26.264  23.912  1.00  0.00     0.005 A 
ATOM     23  C   UNL A   1      31.494  26.711  22.661  1.00  0.00     0.005 A 
BRANCH  19  24
ATOM     24  C   UNL A   1      29.149  29.679  22.352  1.00  0.00     0.337 C 
ATOM     25  O   UNL A   1      28.818  30.003  21.231  1.00  0.00    -0.246 OA
BRANCH  24  26
ATOM     26  O   UNL A   1      29.064  30.449  23.469  1.00  0.00    -0.465 OA
ATOM     27  C   UNL A   1      27.973  31.368  23.462  1.00  0.00     0.282 C 
ENDBRANCH  24  26
ENDBRANCH  19  24
ENDBRANCH   8  18
BRANCH  13  28
ATOM     28  C   UNL A   1      33.036  26.556  25.833  1.00  0.00     0.045 A 
ATOM     29  C   UNL A   1      31.992  26.388  26.748  1.00  0.00     0.026 A 
ATOM     30  C   UNL A   1      33.489  27.841  25.504  1.00  0.00     0.026 A 
ATOM     31  C   UNL A   1      31.346  27.507  27.272  1.00  0.00     0.002 A 
ATOM     32  C   UNL A   1      32.812  28.954  26.006  1.00  0.00     0.002 A 
ATOM     33  C   UNL A   1      31.736  28.787  26.877  1.00  0.00     0.000 A 
ENDBRANCH  13  28
ENDBRANCH   4   7
ENDBRANCH   2   3
ENDBRANCH   1   2
BRANCH   1  34
ATOM     34  C   UNL A   1      39.679  22.289  26.526  1.00  0.00     0.023 C 
BRANCH  34  35
ATOM     35  C   UNL A   1      41.048  22.151  27.190  1.00  0.00     0.116 C 
BRANCH  35  36
ATOM     36  N   UNL A   1      42.146  22.090  26.228  1.00  0.00    -0.352 N 
ATOM     37  C   UNL A   1      42.719  23.142  25.541  1.00  0.00     0.251 C 
ATOM     38  H   UNL A   1      42.521  21.197  26.049  1.00  0.00     0.163 HD
ATOM     39  O   UNL A   1      43.274  22.972  24.463  1.00  0.00    -0.269 OA
BRANCH  37  40
ATOM     40  C   UNL A   1      42.672  24.483  26.149  1.00  0.00     0.039 A 
ATOM     41  C   UNL A   1      41.847  25.485  25.635  1.00  0.00     0.014 A 
ATOM     42  C   UNL A   1      43.463  24.709  27.277  1.00  0.00     0.014 A 
ATOM     43  C   UNL A   1      41.761  26.696  26.318  1.00  0.00     0.010 A 
ATOM     44  C   UNL A   1      43.290  25.856  28.012  1.00  0.00     0.010 A 
ATOM     45  C   UNL A   1      42.470  26.868  27.520  1.00  0.00    -0.014 A 
BRANCH  45  46
ATOM     46  C   UNL A   1      42.209  28.022  28.377  1.00  0.00     0.031 A 
ATOM     47  C   UNL A   1      43.239  29.091  28.248  1.00  0.00     0.074 A 
ATOM     48  C   UNL A   1      41.040  28.215  29.031  1.00  0.00     0.049 A 
ATOM     49  N   UNL A   1      44.090  29.477  29.140  1.00  0.00    -0.248 NA
ATOM     50  C   UNL A   1      43.471  29.686  26.918  1.00  0.00     0.031 C 
ATOM     51  C   UNL A   1      39.834  27.381  28.979  1.00  0.00     0.029 A 
ATOM     52  N   UNL A   1      40.637  29.260  29.810  1.00  0.00    -0.354 N 
ATOM     53  C   UNL A   1      44.792  30.533  28.564  1.00  0.00     0.074 A 
ATOM     54  C   UNL A   1      44.529  30.465  27.153  1.00  0.00     0.031 C 
ATOM     55  C   UNL A   1      38.783  28.061  29.492  1.00  0.00     0.029 A 
ATOM     56  C   UNL A   1      39.263  29.308  30.057  1.00  0.00     0.049 A 
ATOM     57  H   UNL A   1      41.265  29.928  30.169  1.00  0.00     0.167 HD
ATOM     58  C   UNL A   1      45.271  31.544  29.341  1.00  0.00     0.037 A 
ATOM     59  C   UNL A   1      38.575  30.309  30.667  1.00  0.00     0.037 A 
ATOM     60  C   UNL A   1      45.327  31.135  30.726  1.00  0.00     0.049 A 
ATOM     61  C   UNL A   1      39.557  31.125  31.415  1.00  0.00     0.074 A 
ATOM     62  C   UNL A   1      45.944  30.115  31.423  1.00  0.00     0.029 A 
ATOM     63  N   UNL A   1      44.340  31.607  31.554  1.00  0.00    -0.354 N 
ATOM     64  N   UNL A   1      40.188  30.709  32.475  1.00  0.00    -0.248 NA
ATOM     65  C   UNL A   1      40.170  32.241  30.717  1.00  0.00     0.031 C 
ATOM     66  C   UNL A   1      44.995  29.717  32.413  1.00  0.00     0.029 A 
ATOM     67  C   UNL A   1      43.895  30.570  32.327  1.00  0.00     0.049 A 
ATOM     68  H   UNL A   1      44.009  32.534  31.588  1.00  0.00     0.167 HD
ATOM     69  C   UNL A   1      41.483  31.170  32.306  1.00  0.00     0.074 A 
ATOM     70  C   UNL A   1      41.389  32.188  31.259  1.00  0.00     0.031 C 
ATOM     71  C   UNL A   1      42.539  30.470  32.814  1.00  0.00     0.037 A 
BRANCH  58  72
ATOM     72  C   UNL A   1      45.238  33.010  28.945  1.00  0.00     0.057 A 
ATOM     73  C   UNL A   1      46.413  33.774  29.091  1.00  0.00     0.134 A 
ATOM     74  C   UNL A   1      44.065  33.768  28.743  1.00  0.00     0.134 A 
ATOM     75  F   UNL A   1      47.600  33.181  29.288  1.00  0.00    -0.206 F 
ATOM     76  C   UNL A   1      46.403  35.174  29.144  1.00  0.00     0.040 A 
ATOM     77  C   UNL A   1      44.053  35.166  28.744  1.00  0.00     0.040 A 
ATOM     78  F   UNL A   1      42.852  33.218  28.631  1.00  0.00    -0.206 F 
ATOM     79  C   UNL A   1      45.216  35.875  28.983  1.00  0.00     0.006 A 
ENDBRANCH  58  72
BRANCH  59  80
ATOM     80  C   UNL A   1      37.189  30.797  30.460  1.00  0.00     0.057 A 
ATOM     81  C   UNL A   1      36.390  31.188  31.549  1.00  0.00     0.134 A 
ATOM     82  C   UNL A   1      36.734  31.193  29.192  1.00  0.00     0.134 A 
ATOM     83  F   UNL A   1      36.755  30.889  32.803  1.00  0.00    -0.206 F 
ATOM     84  C   UNL A   1      35.236  31.968  31.390  1.00  0.00     0.040 A 
ATOM     85  C   UNL A   1      35.579  31.968  29.020  1.00  0.00     0.040 A 
ATOM     86  F   UNL A   1      37.447  30.927  28.089  1.00  0.00    -0.206 F 
ATOM     87  C   UNL A   1      34.836  32.375  30.122  1.00  0.00     0.006 A 
ENDBRANCH  59  80
BRANCH  71  88
ATOM     88  C   UNL A   1      42.245  29.381  33.811  1.00  0.00     0.057 A 
ATOM     89  C   UNL A   1      41.997  28.037  33.488  1.00  0.00     0.134 A 
ATOM     90  C   UNL A   1      42.320  29.696  35.172  1.00  0.00     0.134 A 
ATOM     91  F   UNL A   1      42.002  27.613  32.217  1.00  0.00    -0.206 F 
ATOM     92  C   UNL A   1      41.781  27.068  34.473  1.00  0.00     0.040 A 
ATOM     93  C   UNL A   1      42.144  28.732  36.167  1.00  0.00     0.040 A 
ATOM     94  F   UNL A   1      42.602  30.950  35.561  1.00  0.00    -0.206 F 
ATOM     95  C   UNL A   1      41.859  27.415  35.818  1.00  0.00     0.006 A 
ENDBRANCH  71  88
ENDBRANCH  45  46
ENDBRANCH  37  40
ENDBRANCH  35  36
ENDBRANCH  34  35
ENDBRANCH   1  34
TORSDOF 15
ENDMDL
MODEL 3
REMARK VINA RESULT:     -12.4      2.258      5.908
REMARK SMILES COC(=O)c1ccc([C@H]2CC(=O)Nc3c(C(=O)NCCCCNC(=O)c4ccc(-c5c6nc(c(-c7c(F)cccc7F)c7ccc([nH]7)c(-c7c(F)cccc7F)c7nc(c(-c8c(F)cccc8F)c8ccc5[nH]8)C=C7)C=C6)cc4)cn(-c4ccccc4)c32)cc1
REMARK SMILES IDX 20 1 19 2 18 3 16 4 17 5 15 7 9 8 10 9 88 10 11 11 14 12
REMARK SMILES IDX 81 13 12 14 13 15 80 16 8 18 5 19 6 20 90 21 7 22 89 23 3 24
REMARK SMILES IDX 4 25 2 26 1 27 82 28 83 29 87 30 84 31 86 32 85 33 21 34
REMARK SMILES IDX 22 35 23 36 24 37 25 39 26 40 27 41 79 42 28 43 78 44 29 45
REMARK SMILES IDX 30 46 31 47 72 48 32 49 77 50 71 51 73 52 33 53 76 54 70 55
REMARK SMILES IDX 69 56 34 58 60 59 43 60 59 61 44 62 47 63 58 64 74 65 45 66
REMARK SMILES IDX 46 67 57 69 75 70 48 71 35 72 36 73 41 74 37 75 38 76 40 77
REMARK SMILES IDX 42 78 39 79 61 80 62 81 67 82 63 83 64 84 66 85 68 86 65 87
REMARK SMILES IDX 49 88 50 89 55 90 51 91 52 92 54 93 56 94 53 95
REMARK H PARENT 18 6 13 17 23 38 73 57 47 68
REMARK Flexibility Score: inf
ROOT
ATOM      1  C   UNL A   1      35.831  21.231  24.698  1.00  0.00     0.023 C 
ENDROOT
BRANCH   1   2
ATOM      2  C   UNL A   1      34.543  20.496  25.095  1.00  0.00     0.116 C 
BRANCH   2   3
ATOM      3  N   UNL A   1      33.588  20.474  24.017  1.00  0.00    -0.352 N 
ATOM      4  C   UNL A   1      32.729  21.395  23.483  1.00  0.00     0.254 C 
ATOM      5  O   UNL A   1      32.128  20.994  22.479  1.00  0.00    -0.269 OA
ATOM      6  H   UNL A   1      33.544  19.602  23.562  1.00  0.00     0.163 HD
BRANCH   4   7
ATOM      7  C   UNL A   1      32.485  22.756  23.992  1.00  0.00     0.081 A 
ATOM      8  C   UNL A   1      31.012  25.805  25.609  1.00  0.00     0.078 C 
ATOM      9  C   UNL A   1      29.843  25.149  26.356  1.00  0.00     0.115 C 
ATOM     10  C   UNL A   1      31.838  24.772  24.875  1.00  0.00     0.055 A 
ATOM     11  C   UNL A   1      30.055  23.716  26.752  1.00  0.00     0.225 C 
ATOM     12  C   UNL A   1      31.667  23.402  24.971  1.00  0.00     0.076 A 
ATOM     13  N   UNL A   1      32.869  25.012  23.985  1.00  0.00    -0.317 N 
ATOM     14  O   UNL A   1      29.473  23.213  27.713  1.00  0.00    -0.275 OA
ATOM     15  N   UNL A   1      30.803  22.932  25.927  1.00  0.00    -0.324 N 
ATOM     16  C   UNL A   1      33.163  23.814  23.380  1.00  0.00     0.107 A 
ATOM     17  H   UNL A   1      30.717  21.955  26.023  1.00  0.00     0.170 HD
BRANCH   8  18
ATOM     18  C   UNL A   1      30.409  26.925  24.755  1.00  0.00    -0.038 A 
ATOM     19  C   UNL A   1      29.435  29.029  23.147  1.00  0.00     0.060 A 
ATOM     20  C   UNL A   1      30.382  29.286  24.143  1.00  0.00     0.016 A 
ATOM     21  C   UNL A   1      28.930  27.736  22.997  1.00  0.00     0.016 A 
ATOM     22  C   UNL A   1      30.874  28.240  24.930  1.00  0.00     0.005 A 
ATOM     23  C   UNL A   1      29.381  26.708  23.825  1.00  0.00     0.005 A 
BRANCH  19  24
ATOM     24  C   UNL A   1      29.014  30.147  22.262  1.00  0.00     0.337 C 
ATOM     25  O   UNL A   1      28.807  30.028  21.073  1.00  0.00    -0.246 OA
BRANCH  24  26
ATOM     26  O   UNL A   1      28.902  31.292  22.987  1.00  0.00    -0.465 OA
ATOM     27  C   UNL A   1      28.724  32.466  22.198  1.00  0.00     0.282 C 
ENDBRANCH  24  26
ENDBRANCH  19  24
ENDBRANCH   8  18
BRANCH  13  28
ATOM     28  C   UNL A   1      33.422  26.268  23.622  1.00  0.00     0.045 A 
ATOM     29  C   UNL A   1      34.020  27.078  24.592  1.00  0.00     0.026 A 
ATOM     30  C   UNL A   1      33.231  26.747  22.319  1.00  0.00     0.026 A 
ATOM     31  C   UNL A   1      34.353  28.397  24.282  1.00  0.00     0.002 A 
ATOM     32  C   UNL A   1      33.534  28.078  22.029  1.00  0.00     0.002 A 
ATOM     33  C   UNL A   1      34.082  28.904  23.011  1.00  0.00     0.000 A 
ENDBRANCH  13  28
ENDBRANCH   4   7
ENDBRANCH   2   3
ENDBRANCH   1   2
BRANCH   1  34
ATOM     34  C   UNL A   1      36.106  22.508  25.505  1.00  0.00     0.023 C 
BRANCH  34  35
ATOM     35  C   UNL A   1      37.577  22.919  25.545  1.00  0.00     0.116 C 
BRANCH  35  36
ATOM     36  N   UNL A   1      38.410  21.991  26.306  1.00  0.00    -0.352 N 
ATOM     37  C   UNL A   1      39.650  22.240  26.861  1.00  0.00     0.251 C 
ATOM     38  H   UNL A   1      38.047  21.085  26.437  1.00  0.00     0.163 HD
ATOM     39  O   UNL A   1      40.452  21.336  27.057  1.00  0.00    -0.269 OA
BRANCH  37  40
ATOM     40  C   UNL A   1      39.982  23.623  27.242  1.00  0.00     0.039 A 
ATOM     41  C   UNL A   1      39.028  24.641  27.186  1.00  0.00     0.014 A 
ATOM     42  C   UNL A   1      41.279  23.875  27.691  1.00  0.00     0.014 A 
ATOM     43  C   UNL A   1      39.369  25.903  27.664  1.00  0.00     0.010 A 
ATOM     44  C   UNL A   1      41.578  25.085  28.268  1.00  0.00     0.010 A 
ATOM     45  C   UNL A   1      40.641  26.114  28.225  1.00  0.00    -0.014 A 
BRANCH  45  46
ATOM     46  C   UNL A   1      40.937  27.348  28.951  1.00  0.00     0.031 A 
ATOM     47  C   UNL A   1      42.159  28.040  28.453  1.00  0.00     0.074 A 
ATOM     48  C   UNL A   1      40.071  27.930  29.813  1.00  0.00     0.049 A 
ATOM     49  N   UNL A   1      43.279  28.206  29.075  1.00  0.00    -0.248 NA
ATOM     50  C   UNL A   1      42.208  28.446  27.036  1.00  0.00     0.031 C 
ATOM     51  C   UNL A   1      38.707  27.502  30.142  1.00  0.00     0.029 A 
ATOM     52  N   UNL A   1      40.185  29.098  30.509  1.00  0.00    -0.354 N 
ATOM     53  C   UNL A   1      44.081  28.958  28.220  1.00  0.00     0.074 A 
ATOM     54  C   UNL A   1      43.465  28.879  26.924  1.00  0.00     0.031 C 
ATOM     55  C   UNL A   1      38.052  28.503  30.774  1.00  0.00     0.029 A 
ATOM     56  C   UNL A   1      38.987  29.579  31.042  1.00  0.00     0.049 A 
ATOM     57  H   UNL A   1      41.044  29.564  30.626  1.00  0.00     0.167 HD
ATOM     58  C   UNL A   1      45.002  29.824  28.726  1.00  0.00     0.037 A 
ATOM     59  C   UNL A   1      38.782  30.780  31.645  1.00  0.00     0.037 A 
ATOM     60  C   UNL A   1      45.286  29.510  30.108  1.00  0.00     0.049 A 
ATOM     61  C   UNL A   1      40.108  31.305  32.040  1.00  0.00     0.074 A 
ATOM     62  C   UNL A   1      45.747  28.398  30.787  1.00  0.00     0.029 A 
ATOM     63  N   UNL A   1      44.711  30.314  31.059  1.00  0.00    -0.354 N 
ATOM     64  N   UNL A   1      40.841  30.788  32.982  1.00  0.00    -0.248 NA
ATOM     65  C   UNL A   1      40.814  32.133  31.077  1.00  0.00     0.031 C 
ATOM     66  C   UNL A   1      45.004  28.375  32.006  1.00  0.00     0.029 A 
ATOM     67  C   UNL A   1      44.201  29.516  32.046  1.00  0.00     0.049 A 
ATOM     68  H   UNL A   1      44.672  31.298  31.036  1.00  0.00     0.167 HD
ATOM     69  C   UNL A   1      42.129  30.820  32.471  1.00  0.00     0.074 A 
ATOM     70  C   UNL A   1      42.065  31.746  31.341  1.00  0.00     0.031 C 
ATOM     71  C   UNL A   1      43.039  29.866  32.828  1.00  0.00     0.037 A 
BRANCH  58  72
ATOM     72  C   UNL A   1      45.284  31.200  28.149  1.00  0.00     0.057 A 
ATOM     73  C   UNL A   1      44.209  32.097  27.991  1.00  0.00     0.134 A 
ATOM     74  C   UNL A   1      46.460  31.564  27.459  1.00  0.00     0.134 A 
ATOM     75  F   UNL A   1      43.031  31.873  28.593  1.00  0.00    -0.206 F 
ATOM     76  C   UNL A   1      44.265  33.200  27.129  1.00  0.00     0.040 A 
ATOM     77  C   UNL A   1      46.541  32.691  26.636  1.00  0.00     0.040 A 
ATOM     78  F   UNL A   1      47.565  30.812  27.455  1.00  0.00    -0.206 F 
ATOM     79  C   UNL A   1      45.432  33.493  26.437  1.00  0.00     0.006 A 
ENDBRANCH  58  72
BRANCH  59  80
ATOM     80  C   UNL A   1      37.583  31.653  31.681  1.00  0.00     0.057 A 
ATOM     81  C   UNL A   1      36.970  32.089  30.493  1.00  0.00     0.134 A 
ATOM     82  C   UNL A   1      36.828  31.812  32.854  1.00  0.00     0.134 A 
ATOM     83  F   UNL A   1      37.594  31.950  29.315  1.00  0.00    -0.206 F 
ATOM     84  C   UNL A   1      35.668  32.607  30.467  1.00  0.00     0.040 A 
ATOM     85  C   UNL A   1      35.527  32.333  32.842  1.00  0.00     0.040 A 
ATOM     86  F   UNL A   1      37.288  31.376  34.035  1.00  0.00    -0.206 F 
ATOM     87  C   UNL A   1      34.935  32.714  31.644  1.00  0.00     0.006 A 
ENDBRANCH  59  80
BRANCH  71  88
ATOM     88  C   UNL A   1      42.710  28.988  34.005  1.00  0.00     0.057 A 
ATOM     89  C   UNL A   1      41.926  27.824  33.949  1.00  0.00     0.134 A 
ATOM     90  C   UNL A   1      43.308  29.283  35.235  1.00  0.00     0.134 A 
ATOM     91  F   UNL A   1      41.390  27.399  32.797  1.00  0.00    -0.206 F 
ATOM     92  C   UNL A   1      41.705  27.027  35.077  1.00  0.00     0.040 A 
ATOM     93  C   UNL A   1      43.127  28.477  36.360  1.00  0.00     0.040 A 
ATOM     94  F   UNL A   1      44.112  30.351  35.355  1.00  0.00    -0.206 F 
ATOM     95  C   UNL A   1      42.311  27.352  36.287  1.00  0.00     0.006 A 
ENDBRANCH  71  88
ENDBRANCH  45  46
ENDBRANCH  37  40
ENDBRANCH  35  36
ENDBRANCH  34  35
ENDBRANCH   1  34
TORSDOF 15
ENDMDL
