MODEL 1
REMARK VINA RESULT:     -13.0      0.000      0.000
REMARK SMILES Cc1ccc(C(=O)N2CCC3(CCC(=O)N(CC(=O)NCCCCNC(=O)c4ccc(-c5c6nc(c(-c7c(F)cccc7F)c7ccc([nH]7)c(-c7c(F)cccc7F)c7nc(c(-c8c(F)cccc8F)c8ccc5[nH]8)C=C7)C=C6)cc4)C3)CC2)cc1O
REMARK SMILES IDX 22 1 21 2 20 3 18 4 19 5 17 7 16 8 6 9 7 10 8 11 9 12 84 13
REMARK SMILES IDX 10 14 83 15 11 16 12 17 82 18 13 19 14 20 15 21 5 22 1 23
REMARK SMILES IDX 2 24 3 25 86 26 4 27 85 28 87 29 23 31 24 32 25 33 26 34
REMARK SMILES IDX 27 36 28 37 29 38 81 39 30 40 80 41 31 42 32 43 33 44 74 45
REMARK SMILES IDX 34 46 79 47 73 48 75 49 35 50 78 51 72 52 71 53 36 55 62 56
REMARK SMILES IDX 45 57 61 58 46 59 49 60 60 61 76 62 47 63 48 64 59 66 77 67
REMARK SMILES IDX 50 68 37 69 38 70 43 71 39 72 40 73 42 74 44 75 41 76 63 77
REMARK SMILES IDX 64 78 69 79 65 80 66 81 68 82 70 83 67 84 51 85 52 86 57 87
REMARK SMILES IDX 53 88 54 89 56 90 58 91 55 92
REMARK H PARENT 20 6 87 30 25 35 75 54 49 65
REMARK Flexibility Score: inf
ROOT
ATOM      1  C   UNL A   1      39.759  21.950  26.390  1.00  0.00     0.023 C 
ENDROOT
BRANCH   1   2
ATOM      2  C   UNL A   1      38.480  22.774  26.298  1.00  0.00     0.116 C 
BRANCH   2   3
ATOM      3  N   UNL A   1      37.990  22.859  24.945  1.00  0.00    -0.355 N 
ATOM      4  C   UNL A   1      37.082  22.066  24.308  1.00  0.00     0.239 C 
ATOM      5  O   UNL A   1      36.650  22.467  23.224  1.00  0.00    -0.273 OA
ATOM      6  H   UNL A   1      38.363  23.593  24.405  1.00  0.00     0.163 HD
BRANCH   4   7
ATOM      7  C   UNL A   1      36.470  20.845  25.009  1.00  0.00     0.219 C 
BRANCH   7   8
ATOM      8  N   UNL A   1      35.060  20.897  25.416  1.00  0.00    -0.333 N 
ATOM      9  C   UNL A   1      32.107  26.506  24.386  1.00  0.00     0.253 C 
ATOM     10  O   UNL A   1      31.838  26.805  23.222  1.00  0.00    -0.269 OA
ATOM     11  N   UNL A   1      32.169  25.178  24.797  1.00  0.00    -0.339 N 
ATOM     12  C   UNL A   1      32.477  24.170  23.795  1.00  0.00     0.120 C 
ATOM     13  C   UNL A   1      31.736  24.658  26.089  1.00  0.00     0.120 C 
ATOM     14  C   UNL A   1      33.615  23.302  24.314  1.00  0.00     0.030 C 
ATOM     15  C   UNL A   1      32.783  23.708  26.681  1.00  0.00     0.030 C 
ATOM     16  C   UNL A   1      33.291  22.635  25.676  1.00  0.00    -0.008 C 
ATOM     17  C   UNL A   1      32.259  21.496  25.563  1.00  0.00     0.019 C 
ATOM     18  C   UNL A   1      34.573  21.999  26.235  1.00  0.00     0.127 C 
ATOM     19  C   UNL A   1      32.752  20.331  24.718  1.00  0.00     0.101 C 
ATOM     20  C   UNL A   1      34.210  19.941  24.889  1.00  0.00     0.223 C 
ATOM     21  O   UNL A   1      34.621  18.876  24.435  1.00  0.00    -0.275 OA
BRANCH   9  22
ATOM     22  C   UNL A   1      32.520  27.604  25.311  1.00  0.00     0.043 A 
ATOM     23  C   UNL A   1      33.988  31.064  27.461  1.00  0.00     0.048 C 
ATOM     24  C   UNL A   1      33.441  29.872  26.733  1.00  0.00    -0.009 A 
ATOM     25  C   UNL A   1      34.142  28.661  26.783  1.00  0.00     0.008 A 
ATOM     26  C   UNL A   1      32.277  29.929  25.959  1.00  0.00     0.119 A 
ATOM     27  C   UNL A   1      33.699  27.549  26.061  1.00  0.00     0.014 A 
ATOM     28  C   UNL A   1      31.811  28.810  25.268  1.00  0.00     0.060 A 
BRANCH  26  29
ATOM     29  O   UNL A   1      31.553  31.076  25.803  1.00  0.00    -0.508 OA
ATOM     30  H   UNL A   1      30.669  31.033  25.492  1.00  0.00     0.293 HD
ENDBRANCH  26  29
ENDBRANCH   9  22
ENDBRANCH   7   8
ENDBRANCH   4   7
ENDBRANCH   2   3
ENDBRANCH   1   2
BRANCH   1  31
ATOM     31  C   UNL A   1      40.628  22.260  27.611  1.00  0.00     0.023 C 
BRANCH  31  32
ATOM     32  C   UNL A   1      41.875  23.090  27.331  1.00  0.00     0.116 C 
BRANCH  32  33
ATOM     33  N   UNL A   1      41.759  23.913  26.136  1.00  0.00    -0.352 N 
ATOM     34  C   UNL A   1      41.489  25.257  26.038  1.00  0.00     0.251 C 
ATOM     35  H   UNL A   1      41.892  23.443  25.282  1.00  0.00     0.163 HD
ATOM     36  O   UNL A   1      41.310  25.770  24.938  1.00  0.00    -0.269 OA
BRANCH  34  37
ATOM     37  C   UNL A   1      41.376  26.071  27.265  1.00  0.00     0.039 A 
ATOM     38  C   UNL A   1      42.387  26.991  27.556  1.00  0.00     0.014 A 
ATOM     39  C   UNL A   1      40.268  25.952  28.108  1.00  0.00     0.014 A 
ATOM     40  C   UNL A   1      42.250  27.841  28.655  1.00  0.00     0.010 A 
ATOM     41  C   UNL A   1      40.099  26.848  29.159  1.00  0.00     0.010 A 
ATOM     42  C   UNL A   1      41.087  27.803  29.441  1.00  0.00    -0.014 A 
BRANCH  42  43
ATOM     43  C   UNL A   1      40.878  28.774  30.545  1.00  0.00     0.031 A 
ATOM     44  C   UNL A   1      41.682  28.674  31.810  1.00  0.00     0.074 A 
ATOM     45  C   UNL A   1      39.908  29.702  30.435  1.00  0.00     0.049 A 
ATOM     46  N   UNL A   1      41.608  29.401  32.896  1.00  0.00    -0.248 NA
ATOM     47  C   UNL A   1      42.680  27.596  31.876  1.00  0.00     0.031 C 
ATOM     48  C   UNL A   1      39.013  29.857  29.287  1.00  0.00     0.029 A 
ATOM     49  N   UNL A   1      39.502  30.680  31.308  1.00  0.00    -0.354 N 
ATOM     50  C   UNL A   1      42.533  28.860  33.778  1.00  0.00     0.074 A 
ATOM     51  C   UNL A   1      43.121  27.712  33.120  1.00  0.00     0.031 C 
ATOM     52  C   UNL A   1      38.177  30.882  29.518  1.00  0.00     0.029 A 
ATOM     53  C   UNL A   1      38.453  31.434  30.841  1.00  0.00     0.049 A 
ATOM     54  H   UNL A   1      39.924  30.828  32.186  1.00  0.00     0.167 HD
ATOM     55  C   UNL A   1      42.877  29.292  35.014  1.00  0.00     0.037 A 
ATOM     56  C   UNL A   1      37.783  32.450  31.416  1.00  0.00     0.037 A 
ATOM     57  C   UNL A   1      42.307  30.447  35.656  1.00  0.00     0.049 A 
ATOM     58  C   UNL A   1      38.194  32.924  32.780  1.00  0.00     0.074 A 
ATOM     59  C   UNL A   1      42.651  31.018  36.869  1.00  0.00     0.029 A 
ATOM     60  N   UNL A   1      41.265  31.203  35.140  1.00  0.00    -0.354 N 
ATOM     61  N   UNL A   1      39.138  32.463  33.565  1.00  0.00    -0.248 NA
ATOM     62  C   UNL A   1      37.454  34.065  33.336  1.00  0.00     0.031 C 
ATOM     63  C   UNL A   1      41.783  32.088  37.110  1.00  0.00     0.029 A 
ATOM     64  C   UNL A   1      40.932  32.217  36.025  1.00  0.00     0.049 A 
ATOM     65  H   UNL A   1      40.826  31.043  34.273  1.00  0.00     0.167 HD
ATOM     66  C   UNL A   1      39.119  33.266  34.697  1.00  0.00     0.074 A 
ATOM     67  C   UNL A   1      38.081  34.256  34.489  1.00  0.00     0.031 C 
ATOM     68  C   UNL A   1      39.891  33.191  35.808  1.00  0.00     0.037 A 
BRANCH  55  69
ATOM     69  C   UNL A   1      43.917  28.502  35.756  1.00  0.00     0.057 A 
ATOM     70  C   UNL A   1      45.288  28.755  35.607  1.00  0.00     0.134 A 
ATOM     71  C   UNL A   1      43.544  27.488  36.647  1.00  0.00     0.134 A 
ATOM     72  F   UNL A   1      45.716  29.706  34.762  1.00  0.00    -0.206 F 
ATOM     73  C   UNL A   1      46.249  28.006  36.290  1.00  0.00     0.040 A 
ATOM     74  C   UNL A   1      44.493  26.752  37.357  1.00  0.00     0.040 A 
ATOM     75  F   UNL A   1      42.249  27.196  36.844  1.00  0.00    -0.206 F 
ATOM     76  C   UNL A   1      45.851  27.005  37.173  1.00  0.00     0.006 A 
ENDBRANCH  55  69
BRANCH  56  77
ATOM     77  C   UNL A   1      36.668  33.101  30.684  1.00  0.00     0.057 A 
ATOM     78  C   UNL A   1      36.914  33.992  29.635  1.00  0.00     0.134 A 
ATOM     79  C   UNL A   1      35.331  32.831  31.002  1.00  0.00     0.134 A 
ATOM     80  F   UNL A   1      38.174  34.303  29.295  1.00  0.00    -0.206 F 
ATOM     81  C   UNL A   1      35.873  34.602  28.933  1.00  0.00     0.040 A 
ATOM     82  C   UNL A   1      34.280  33.415  30.295  1.00  0.00     0.040 A 
ATOM     83  F   UNL A   1      35.030  31.977  31.992  1.00  0.00    -0.206 F 
ATOM     84  C   UNL A   1      34.550  34.308  29.260  1.00  0.00     0.006 A 
ENDBRANCH  56  77
BRANCH  68  85
ATOM     85  C   UNL A   1      39.656  34.217  36.878  1.00  0.00     0.057 A 
ATOM     86  C   UNL A   1      38.866  33.944  38.003  1.00  0.00     0.134 A 
ATOM     87  C   UNL A   1      40.255  35.480  36.801  1.00  0.00     0.134 A 
ATOM     88  F   UNL A   1      38.253  32.757  38.131  1.00  0.00    -0.206 F 
ATOM     89  C   UNL A   1      38.663  34.899  39.001  1.00  0.00     0.040 A 
ATOM     90  C   UNL A   1      40.081  36.434  37.804  1.00  0.00     0.040 A 
ATOM     91  F   UNL A   1      41.031  35.804  35.754  1.00  0.00    -0.206 F 
ATOM     92  C   UNL A   1      39.278  36.146  38.906  1.00  0.00     0.006 A 
ENDBRANCH  68  85
ENDBRANCH  42  43
ENDBRANCH  34  37
ENDBRANCH  32  33
ENDBRANCH  31  32
ENDBRANCH   1  31
TORSDOF 14
ENDMDL
MODEL 2
REMARK VINA RESULT:     -13.0      4.148      9.350
REMARK SMILES Cc1ccc(C(=O)N2CCC3(CCC(=O)N(CC(=O)NCCCCNC(=O)c4ccc(-c5c6nc(c(-c7c(F)cccc7F)c7ccc([nH]7)c(-c7c(F)cccc7F)c7nc(c(-c8c(F)cccc8F)c8ccc5[nH]8)C=C7)C=C6)cc4)C3)CC2)cc1O
REMARK SMILES IDX 22 1 21 2 20 3 18 4 19 5 17 7 16 8 6 9 7 10 8 11 9 12 84 13
REMARK SMILES IDX 10 14 83 15 11 16 12 17 82 18 13 19 14 20 15 21 5 22 1 23
REMARK SMILES IDX 2 24 3 25 86 26 4 27 85 28 87 29 23 31 24 32 25 33 26 34
REMARK SMILES IDX 27 36 28 37 29 38 81 39 30 40 80 41 31 42 32 43 33 44 74 45
REMARK SMILES IDX 34 46 79 47 73 48 75 49 35 50 78 51 72 52 71 53 36 55 62 56
REMARK SMILES IDX 45 57 61 58 46 59 49 60 60 61 76 62 47 63 48 64 59 66 77 67
REMARK SMILES IDX 50 68 37 69 38 70 43 71 39 72 40 73 42 74 44 75 41 76 63 77
REMARK SMILES IDX 64 78 69 79 65 80 66 81 68 82 70 83 67 84 51 85 52 86 57 87
REMARK SMILES IDX 53 88 54 89 56 90 58 91 55 92
REMARK H PARENT 20 6 87 30 25 35 75 54 49 65
REMARK Flexibility Score: inf
ROOT
ATOM      1  C   UNL A   1      34.032  28.142  24.690  1.00  0.00     0.023 C 
ENDROOT
BRANCH   1   2
ATOM      2  C   UNL A   1      33.687  28.494  23.247  1.00  0.00     0.116 C 
BRANCH   2   3
ATOM      3  N   UNL A   1      33.835  27.363  22.367  1.00  0.00    -0.355 N 
ATOM      4  C   UNL A   1      32.871  26.603  21.774  1.00  0.00     0.239 C 
ATOM      5  O   UNL A   1      33.234  25.831  20.883  1.00  0.00    -0.273 OA
ATOM      6  H   UNL A   1      34.763  27.102  22.165  1.00  0.00     0.163 HD
BRANCH   4   7
ATOM      7  C   UNL A   1      31.383  26.856  22.053  1.00  0.00     0.219 C 
BRANCH   7   8
ATOM      8  N   UNL A   1      30.783  26.282  23.264  1.00  0.00    -0.333 N 
ATOM      9  C   UNL A   1      34.197  21.632  26.085  1.00  0.00     0.253 C 
ATOM     10  O   UNL A   1      35.223  21.958  26.683  1.00  0.00    -0.269 OA
ATOM     11  N   UNL A   1      33.117  22.502  25.970  1.00  0.00    -0.339 N 
ATOM     12  C   UNL A   1      33.384  23.929  26.041  1.00  0.00     0.120 C 
ATOM     13  C   UNL A   1      31.707  22.130  26.013  1.00  0.00     0.120 C 
ATOM     14  C   UNL A   1      32.725  24.606  24.846  1.00  0.00     0.030 C 
ATOM     15  C   UNL A   1      30.923  22.814  24.887  1.00  0.00     0.030 C 
ATOM     16  C   UNL A   1      31.199  24.340  24.771  1.00  0.00    -0.008 C 
ATOM     17  C   UNL A   1      30.397  25.098  25.848  1.00  0.00     0.019 C 
ATOM     18  C   UNL A   1      30.675  24.838  23.416  1.00  0.00     0.127 C 
ATOM     19  C   UNL A   1      30.491  26.610  25.702  1.00  0.00     0.101 C 
ATOM     20  C   UNL A   1      30.452  27.156  24.285  1.00  0.00     0.223 C 
ATOM     21  O   UNL A   1      30.280  28.357  24.092  1.00  0.00    -0.275 OA
BRANCH   9  22
ATOM     22  C   UNL A   1      34.201  20.332  25.349  1.00  0.00     0.043 A 
ATOM     23  C   UNL A   1      34.188  16.284  23.812  1.00  0.00     0.048 C 
ATOM     24  C   UNL A   1      34.161  17.696  24.317  1.00  0.00    -0.009 A 
ATOM     25  C   UNL A   1      35.361  18.411  24.410  1.00  0.00     0.008 A 
ATOM     26  C   UNL A   1      32.986  18.319  24.752  1.00  0.00     0.119 A 
ATOM     27  C   UNL A   1      35.382  19.704  24.942  1.00  0.00     0.014 A 
ATOM     28  C   UNL A   1      32.998  19.623  25.248  1.00  0.00     0.060 A 
BRANCH  26  29
ATOM     29  O   UNL A   1      31.775  17.688  24.753  1.00  0.00    -0.508 OA
ATOM     30  H   UNL A   1      31.642  16.927  24.221  1.00  0.00     0.293 HD
ENDBRANCH  26  29
ENDBRANCH   9  22
ENDBRANCH   7   8
ENDBRANCH   4   7
ENDBRANCH   2   3
ENDBRANCH   1   2
BRANCH   1  31
ATOM     31  C   UNL A   1      33.276  28.959  25.742  1.00  0.00     0.023 C 
BRANCH  31  32
ATOM     32  C   UNL A   1      33.872  28.928  27.144  1.00  0.00     0.116 C 
BRANCH  32  33
ATOM     33  N   UNL A   1      33.820  30.216  27.819  1.00  0.00    -0.352 N 
ATOM     34  C   UNL A   1      34.786  30.832  28.577  1.00  0.00     0.251 C 
ATOM     35  H   UNL A   1      32.976  30.713  27.720  1.00  0.00     0.163 HD
ATOM     36  O   UNL A   1      34.529  31.872  29.174  1.00  0.00    -0.269 OA
BRANCH  34  37
ATOM     37  C   UNL A   1      36.122  30.215  28.700  1.00  0.00     0.039 A 
ATOM     38  C   UNL A   1      36.983  30.253  27.600  1.00  0.00     0.014 A 
ATOM     39  C   UNL A   1      36.537  29.629  29.898  1.00  0.00     0.014 A 
ATOM     40  C   UNL A   1      38.285  29.767  27.726  1.00  0.00     0.010 A 
ATOM     41  C   UNL A   1      37.856  29.212  30.045  1.00  0.00     0.010 A 
ATOM     42  C   UNL A   1      38.744  29.280  28.961  1.00  0.00    -0.014 A 
BRANCH  42  43
ATOM     43  C   UNL A   1      40.158  28.862  29.140  1.00  0.00     0.031 A 
ATOM     44  C   UNL A   1      41.168  29.817  29.708  1.00  0.00     0.074 A 
ATOM     45  C   UNL A   1      40.545  27.643  28.720  1.00  0.00     0.049 A 
ATOM     46  N   UNL A   1      42.453  29.645  29.896  1.00  0.00    -0.248 NA
ATOM     47  C   UNL A   1      40.678  31.150  30.088  1.00  0.00     0.031 C 
ATOM     48  C   UNL A   1      39.675  26.650  28.088  1.00  0.00     0.029 A 
ATOM     49  N   UNL A   1      41.776  27.036  28.746  1.00  0.00    -0.354 N 
ATOM     50  C   UNL A   1      42.926  30.851  30.397  1.00  0.00     0.074 A 
ATOM     51  C   UNL A   1      41.801  31.762  30.436  1.00  0.00     0.031 C 
ATOM     52  C   UNL A   1      40.394  25.552  27.804  1.00  0.00     0.029 A 
ATOM     53  C   UNL A   1      41.780  25.775  28.203  1.00  0.00     0.049 A 
ATOM     54  H   UNL A   1      42.580  27.464  29.121  1.00  0.00     0.167 HD
ATOM     55  C   UNL A   1      44.178  31.164  30.806  1.00  0.00     0.037 A 
ATOM     56  C   UNL A   1      42.788  24.898  28.036  1.00  0.00     0.037 A 
ATOM     57  C   UNL A   1      45.288  30.249  30.787  1.00  0.00     0.049 A 
ATOM     58  C   UNL A   1      44.165  25.260  28.515  1.00  0.00     0.074 A 
ATOM     59  C   UNL A   1      46.574  30.442  31.262  1.00  0.00     0.029 A 
ATOM     60  N   UNL A   1      45.248  28.969  30.255  1.00  0.00    -0.354 N 
ATOM     61  N   UNL A   1      44.578  26.370  29.077  1.00  0.00    -0.248 NA
ATOM     62  C   UNL A   1      45.213  24.245  28.345  1.00  0.00     0.031 C 
ATOM     63  C   UNL A   1      47.325  29.298  30.971  1.00  0.00     0.029 A 
ATOM     64  C   UNL A   1      46.494  28.372  30.362  1.00  0.00     0.049 A 
ATOM     65  H   UNL A   1      44.451  28.547  29.859  1.00  0.00     0.167 HD
ATOM     66  C   UNL A   1      45.927  26.182  29.344  1.00  0.00     0.074 A 
ATOM     67  C   UNL A   1      46.258  24.843  28.900  1.00  0.00     0.031 C 
ATOM     68  C   UNL A   1      46.812  27.040  29.907  1.00  0.00     0.037 A 
BRANCH  55  69
ATOM     69  C   UNL A   1      44.412  32.562  31.305  1.00  0.00     0.057 A 
ATOM     70  C   UNL A   1      44.765  33.609  30.442  1.00  0.00     0.134 A 
ATOM     71  C   UNL A   1      44.263  32.869  32.663  1.00  0.00     0.134 A 
ATOM     72  F   UNL A   1      44.935  33.381  29.131  1.00  0.00    -0.206 F 
ATOM     73  C   UNL A   1      44.994  34.902  30.917  1.00  0.00     0.040 A 
ATOM     74  C   UNL A   1      44.461  34.164  33.145  1.00  0.00     0.040 A 
ATOM     75  F   UNL A   1      43.920  31.917  33.544  1.00  0.00    -0.206 F 
ATOM     76  C   UNL A   1      44.837  35.183  32.272  1.00  0.00     0.006 A 
ENDBRANCH  55  69
BRANCH  56  77
ATOM     77  C   UNL A   1      42.518  23.581  27.407  1.00  0.00     0.057 A 
ATOM     78  C   UNL A   1      42.617  23.407  26.023  1.00  0.00     0.134 A 
ATOM     79  C   UNL A   1      42.177  22.461  28.176  1.00  0.00     0.134 A 
ATOM     80  F   UNL A   1      42.924  24.446  25.232  1.00  0.00    -0.206 F 
ATOM     81  C   UNL A   1      42.376  22.171  25.422  1.00  0.00     0.040 A 
ATOM     82  C   UNL A   1      41.956  21.214  27.592  1.00  0.00     0.040 A 
ATOM     83  F   UNL A   1      42.076  22.562  29.510  1.00  0.00    -0.206 F 
ATOM     84  C   UNL A   1      42.051  21.068  26.209  1.00  0.00     0.006 A 
ENDBRANCH  56  77
BRANCH  68  85
ATOM     85  C   UNL A   1      48.220  26.553  30.092  1.00  0.00     0.057 A 
ATOM     86  C   UNL A   1      49.212  26.777  29.128  1.00  0.00     0.134 A 
ATOM     87  C   UNL A   1      48.595  25.883  31.263  1.00  0.00     0.134 A 
ATOM     88  F   UNL A   1      48.914  27.402  27.979  1.00  0.00    -0.206 F 
ATOM     89  C   UNL A   1      50.522  26.332  29.313  1.00  0.00     0.040 A 
ATOM     90  C   UNL A   1      49.908  25.455  31.471  1.00  0.00     0.040 A 
ATOM     91  F   UNL A   1      47.696  25.642  32.230  1.00  0.00    -0.206 F 
ATOM     92  C   UNL A   1      50.874  25.675  30.491  1.00  0.00     0.006 A 
ENDBRANCH  68  85
ENDBRANCH  42  43
ENDBRANCH  34  37
ENDBRANCH  32  33
ENDBRANCH  31  32
ENDBRANCH   1  31
TORSDOF 14
ENDMDL
MODEL 3
REMARK VINA RESULT:     -12.9      4.430     10.218
REMARK SMILES Cc1ccc(C(=O)N2CCC3(CCC(=O)N(CC(=O)NCCCCNC(=O)c4ccc(-c5c6nc(c(-c7c(F)cccc7F)c7ccc([nH]7)c(-c7c(F)cccc7F)c7nc(c(-c8c(F)cccc8F)c8ccc5[nH]8)C=C7)C=C6)cc4)C3)CC2)cc1O
REMARK SMILES IDX 22 1 21 2 20 3 18 4 19 5 17 7 16 8 6 9 7 10 8 11 9 12 84 13
REMARK SMILES IDX 10 14 83 15 11 16 12 17 82 18 13 19 14 20 15 21 5 22 1 23
REMARK SMILES IDX 2 24 3 25 86 26 4 27 85 28 87 29 23 31 24 32 25 33 26 34
REMARK SMILES IDX 27 36 28 37 29 38 81 39 30 40 80 41 31 42 32 43 33 44 74 45
REMARK SMILES IDX 34 46 79 47 73 48 75 49 35 50 78 51 72 52 71 53 36 55 62 56
REMARK SMILES IDX 45 57 61 58 46 59 49 60 60 61 76 62 47 63 48 64 59 66 77 67
REMARK SMILES IDX 50 68 37 69 38 70 43 71 39 72 40 73 42 74 44 75 41 76 63 77
REMARK SMILES IDX 64 78 69 79 65 80 66 81 68 82 70 83 67 84 51 85 52 86 57 87
REMARK SMILES IDX 53 88 54 89 56 90 58 91 55 92
REMARK H PARENT 20 6 87 30 25 35 75 54 49 65
REMARK Flexibility Score: inf
ROOT
ATOM      1  C   UNL A   1      35.001  34.046  29.052  1.00  0.00     0.023 C 
ENDROOT
BRANCH   1   2
ATOM      2  C   UNL A   1      34.584  32.995  28.028  1.00  0.00     0.116 C 
BRANCH   2   3
ATOM      3  N   UNL A   1      35.603  31.994  27.838  1.00  0.00    -0.355 N 
ATOM      4  C   UNL A   1      35.463  30.653  27.638  1.00  0.00     0.239 C 
ATOM      5  O   UNL A   1      36.466  30.032  27.274  1.00  0.00    -0.273 OA
ATOM      6  H   UNL A   1      36.531  32.325  27.856  1.00  0.00     0.163 HD
BRANCH   4   7
ATOM      7  C   UNL A   1      34.078  29.991  27.653  1.00  0.00     0.219 C 
BRANCH   7   8
ATOM      8  N   UNL A   1      33.457  29.623  26.374  1.00  0.00    -0.333 N 
ATOM      9  C   UNL A   1      32.734  23.318  25.386  1.00  0.00     0.253 C 
ATOM     10  O   UNL A   1      31.867  22.734  26.037  1.00  0.00    -0.269 OA
ATOM     11  N   UNL A   1      32.606  24.664  25.053  1.00  0.00    -0.339 N 
ATOM     12  C   UNL A   1      31.782  25.501  25.910  1.00  0.00     0.120 C 
ATOM     13  C   UNL A   1      33.029  25.282  23.801  1.00  0.00     0.120 C 
ATOM     14  C   UNL A   1      32.582  26.740  26.290  1.00  0.00     0.030 C 
ATOM     15  C   UNL A   1      33.790  26.587  24.060  1.00  0.00     0.030 C 
ATOM     16  C   UNL A   1      33.073  27.541  25.057  1.00  0.00    -0.008 C 
ATOM     17  C   UNL A   1      31.941  28.296  24.333  1.00  0.00     0.019 C 
ATOM     18  C   UNL A   1      34.071  28.610  25.526  1.00  0.00     0.127 C 
ATOM     19  C   UNL A   1      31.292  29.364  25.201  1.00  0.00     0.101 C 
ATOM     20  C   UNL A   1      32.223  30.176  26.083  1.00  0.00     0.223 C 
ATOM     21  O   UNL A   1      31.821  31.204  26.624  1.00  0.00    -0.275 OA
BRANCH   9  22
ATOM     22  C   UNL A   1      34.004  22.586  25.097  1.00  0.00     0.043 A 
ATOM     23  C   UNL A   1      37.673  20.296  24.897  1.00  0.00     0.048 C 
ATOM     24  C   UNL A   1      36.387  21.068  24.932  1.00  0.00    -0.009 A 
ATOM     25  C   UNL A   1      36.432  22.465  25.027  1.00  0.00     0.008 A 
ATOM     26  C   UNL A   1      35.134  20.447  24.926  1.00  0.00     0.119 A 
ATOM     27  C   UNL A   1      35.254  23.210  25.133  1.00  0.00     0.014 A 
ATOM     28  C   UNL A   1      33.955  21.191  24.992  1.00  0.00     0.060 A 
BRANCH  26  29
ATOM     29  O   UNL A   1      34.985  19.090  24.892  1.00  0.00    -0.508 OA
ATOM     30  H   UNL A   1      35.740  18.537  24.830  1.00  0.00     0.293 HD
ENDBRANCH  26  29
ENDBRANCH   9  22
ENDBRANCH   7   8
ENDBRANCH   4   7
ENDBRANCH   2   3
ENDBRANCH   1   2
BRANCH   1  31
ATOM     31  C   UNL A   1      34.399  33.850  30.446  1.00  0.00     0.023 C 
BRANCH  31  32
ATOM     32  C   UNL A   1      34.744  32.531  31.126  1.00  0.00     0.116 C 
BRANCH  32  33
ATOM     33  N   UNL A   1      35.148  32.689  32.515  1.00  0.00    -0.352 N 
ATOM     34  C   UNL A   1      36.290  32.245  33.137  1.00  0.00     0.251 C 
ATOM     35  H   UNL A   1      34.516  33.182  33.086  1.00  0.00     0.163 HD
ATOM     36  O   UNL A   1      36.416  32.366  34.351  1.00  0.00    -0.269 OA
BRANCH  34  37
ATOM     37  C   UNL A   1      37.346  31.586  32.342  1.00  0.00     0.039 A 
ATOM     38  C   UNL A   1      37.396  31.823  30.966  1.00  0.00     0.014 A 
ATOM     39  C   UNL A   1      38.298  30.764  32.950  1.00  0.00     0.014 A 
ATOM     40  C   UNL A   1      38.445  31.293  30.213  1.00  0.00     0.010 A 
ATOM     41  C   UNL A   1      39.381  30.297  32.213  1.00  0.00     0.010 A 
ATOM     42  C   UNL A   1      39.467  30.560  30.837  1.00  0.00    -0.014 A 
BRANCH  42  43
ATOM     43  C   UNL A   1      40.646  30.083  30.070  1.00  0.00     0.031 A 
ATOM     44  C   UNL A   1      41.775  31.020  29.747  1.00  0.00     0.074 A 
ATOM     45  C   UNL A   1      40.662  28.822  29.598  1.00  0.00     0.049 A 
ATOM     46  N   UNL A   1      42.861  30.796  29.051  1.00  0.00    -0.248 NA
ATOM     47  C   UNL A   1      41.654  32.398  30.246  1.00  0.00     0.031 C 
ATOM     48  C   UNL A   1      39.595  27.836  29.784  1.00  0.00     0.029 A 
ATOM     49  N   UNL A   1      41.602  28.157  28.853  1.00  0.00    -0.354 N 
ATOM     50  C   UNL A   1      43.542  32.006  29.014  1.00  0.00     0.074 A 
ATOM     51  C   UNL A   1      42.723  32.972  29.714  1.00  0.00     0.031 C 
ATOM     52  C   UNL A   1      39.949  26.688  29.185  1.00  0.00     0.029 A 
ATOM     53  C   UNL A   1      41.250  26.865  28.547  1.00  0.00     0.049 A 
ATOM     54  H   UNL A   1      42.450  28.567  28.565  1.00  0.00     0.167 HD
ATOM     55  C   UNL A   1      44.749  32.280  28.465  1.00  0.00     0.037 A 
ATOM     56  C   UNL A   1      41.897  25.930  27.827  1.00  0.00     0.037 A 
ATOM     57  C   UNL A   1      45.570  31.311  27.790  1.00  0.00     0.049 A 
ATOM     58  C   UNL A   1      43.243  26.251  27.243  1.00  0.00     0.074 A 
ATOM     59  C   UNL A   1      46.847  31.468  27.278  1.00  0.00     0.029 A 
ATOM     60  N   UNL A   1      45.192  30.003  27.523  1.00  0.00    -0.354 N 
ATOM     61  N   UNL A   1      43.921  27.372  27.298  1.00  0.00    -0.248 NA
ATOM     62  C   UNL A   1      43.919  25.176  26.505  1.00  0.00     0.031 C 
ATOM     63  C   UNL A   1      47.220  30.272  26.657  1.00  0.00     0.029 A 
ATOM     64  C   UNL A   1      46.198  29.352  26.826  1.00  0.00     0.049 A 
ATOM     65  H   UNL A   1      44.336  29.598  27.790  1.00  0.00     0.167 HD
ATOM     66  C   UNL A   1      45.108  27.134  26.620  1.00  0.00     0.074 A 
ATOM     67  C   UNL A   1      45.066  25.754  26.178  1.00  0.00     0.031 C 
ATOM     68  C   UNL A   1      46.140  27.980  26.385  1.00  0.00     0.037 A 
BRANCH  55  69
ATOM     69  C   UNL A   1      45.249  33.693  28.569  1.00  0.00     0.057 A 
ATOM     70  C   UNL A   1      44.913  34.672  27.623  1.00  0.00     0.134 A 
ATOM     71  C   UNL A   1      46.062  34.086  29.640  1.00  0.00     0.134 A 
ATOM     72  F   UNL A   1      44.147  34.360  26.566  1.00  0.00    -0.206 F 
ATOM     73  C   UNL A   1      45.394  35.978  27.720  1.00  0.00     0.040 A 
ATOM     74  C   UNL A   1      46.524  35.397  29.764  1.00  0.00     0.040 A 
ATOM     75  F   UNL A   1      46.417  33.203  30.586  1.00  0.00    -0.206 F 
ATOM     76  C   UNL A   1      46.198  36.345  28.797  1.00  0.00     0.006 A 
ENDBRANCH  55  69
BRANCH  56  77
ATOM     77  C   UNL A   1      41.283  24.591  27.642  1.00  0.00     0.057 A 
ATOM     78  C   UNL A   1      40.251  24.389  26.720  1.00  0.00     0.134 A 
ATOM     79  C   UNL A   1      41.728  23.479  28.368  1.00  0.00     0.134 A 
ATOM     80  F   UNL A   1      39.771  25.419  26.008  1.00  0.00    -0.206 F 
ATOM     81  C   UNL A   1      39.674  23.132  26.531  1.00  0.00     0.040 A 
ATOM     82  C   UNL A   1      41.177  22.212  28.173  1.00  0.00     0.040 A 
ATOM     83  F   UNL A   1      42.722  23.606  29.260  1.00  0.00    -0.206 F 
ATOM     84  C   UNL A   1      40.143  22.037  27.256  1.00  0.00     0.006 A 
ENDBRANCH  56  77
BRANCH  68  85
ATOM     85  C   UNL A   1      47.318  27.435  25.631  1.00  0.00     0.057 A 
ATOM     86  C   UNL A   1      47.436  27.578  24.242  1.00  0.00     0.134 A 
ATOM     87  C   UNL A   1      48.362  26.791  26.305  1.00  0.00     0.134 A 
ATOM     88  F   UNL A   1      46.464  28.174  23.535  1.00  0.00    -0.206 F 
ATOM     89  C   UNL A   1      48.540  27.079  23.549  1.00  0.00     0.040 A 
ATOM     90  C   UNL A   1      49.484  26.311  25.627  1.00  0.00     0.040 A 
ATOM     91  F   UNL A   1      48.316  26.628  27.637  1.00  0.00    -0.206 F 
ATOM     92  C   UNL A   1      49.572  26.450  24.244  1.00  0.00     0.006 A 
ENDBRANCH  68  85
ENDBRANCH  42  43
ENDBRANCH  34  37
ENDBRANCH  32  33
ENDBRANCH  31  32
ENDBRANCH   1  31
TORSDOF 14
ENDMDL
