MODEL 1
REMARK VINA RESULT:     -13.1      0.000      0.000
REMARK SMILES O=C(NCCCCNC(=O)c1ccc([C@@H]2CC(O)=Nc3c2ncn3-c2cccc(Cl)c2)cc1)c1ccc(-c2c3nc(c(-c4c(F)cccc4F)c4ccc([nH]4)c(-c4c(F)cccc4F)c4nc(c(-c5c(F)cccc5F)c5ccc2[nH]5)C=C4)C=C3)cc1
REMARK SMILES IDX 5 1 4 2 3 3 1 4 2 5 34 7 35 8 87 9 36 10 86 11 37 12 38 13
REMARK SMILES IDX 39 14 80 15 40 16 85 17 79 18 81 19 41 20 84 21 78 22 77 23
REMARK SMILES IDX 42 25 68 26 51 27 67 28 52 29 55 30 66 31 82 32 53 33 54 34
REMARK SMILES IDX 65 36 83 37 56 38 43 39 44 40 49 41 45 42 46 43 48 44 50 45
REMARK SMILES IDX 47 46 69 47 70 48 75 49 71 50 72 51 74 52 76 53 73 54 57 55
REMARK SMILES IDX 58 56 63 57 59 58 60 59 62 60 64 61 61 62 6 63 7 64 8 65
REMARK SMILES IDX 9 66 10 68 11 69 12 70 33 71 13 72 32 73 14 74 15 75 16 76
REMARK SMILES IDX 21 77 17 78 20 79 22 80 19 81 24 82 23 83 18 84 25 86 26 87
REMARK SMILES IDX 31 88 27 89 29 90 28 91 30 92
REMARK H PARENT 3 6 81 24 55 35 8 67 18 85
REMARK Flexibility Score: inf
ROOT
ATOM      1  C   UNL A   1      33.507  28.237  26.751  1.00  0.00     0.023 C 
ENDROOT
BRANCH   1   2
ATOM      2  C   UNL A   1      34.840  28.953  26.955  1.00  0.00     0.116 C 
BRANCH   2   3
ATOM      3  N   UNL A   1      35.030  29.516  28.276  1.00  0.00    -0.352 N 
ATOM      4  O   UNL A   1      35.863  30.487  30.071  1.00  0.00    -0.269 OA
ATOM      5  C   UNL A   1      36.111  29.842  29.048  1.00  0.00     0.251 C 
ATOM      6  H   UNL A   1      34.176  29.712  28.726  1.00  0.00     0.163 HD
BRANCH   5   7
ATOM      7  C   UNL A   1      37.523  29.438  28.790  1.00  0.00     0.039 A 
ATOM      8  C   UNL A   1      38.274  29.739  27.655  1.00  0.00     0.014 A 
ATOM      9  C   UNL A   1      38.135  28.676  29.810  1.00  0.00     0.014 A 
ATOM     10  C   UNL A   1      39.575  29.246  27.519  1.00  0.00     0.010 A 
ATOM     11  C   UNL A   1      39.433  28.185  29.680  1.00  0.00     0.010 A 
ATOM     12  C   UNL A   1      40.151  28.454  28.522  1.00  0.00    -0.014 A 
BRANCH  12  13
ATOM     13  C   UNL A   1      41.573  28.117  28.413  1.00  0.00     0.031 A 
ATOM     14  C   UNL A   1      41.838  26.839  27.688  1.00  0.00     0.074 A 
ATOM     15  C   UNL A   1      42.604  28.914  28.768  1.00  0.00     0.049 A 
ATOM     16  N   UNL A   1      42.390  25.763  28.145  1.00  0.00    -0.248 NA
ATOM     17  C   UNL A   1      41.331  26.711  26.313  1.00  0.00     0.031 C 
ATOM     18  C   UNL A   1      42.554  30.313  29.193  1.00  0.00     0.029 A 
ATOM     19  N   UNL A   1      43.947  28.651  28.738  1.00  0.00    -0.354 N 
ATOM     20  C   UNL A   1      42.467  24.879  27.068  1.00  0.00     0.074 A 
ATOM     21  C   UNL A   1      41.678  25.458  26.014  1.00  0.00     0.031 C 
ATOM     22  C   UNL A   1      43.806  30.830  29.181  1.00  0.00     0.029 A 
ATOM     23  C   UNL A   1      44.758  29.773  28.879  1.00  0.00     0.049 A 
ATOM     24  H   UNL A   1      44.309  27.743  28.625  1.00  0.00     0.167 HD
ATOM     25  C   UNL A   1      43.353  23.844  27.064  1.00  0.00     0.037 A 
ATOM     26  C   UNL A   1      46.106  29.838  28.720  1.00  0.00     0.037 A 
ATOM     27  C   UNL A   1      43.806  23.543  28.398  1.00  0.00     0.049 A 
ATOM     28  C   UNL A   1      46.645  28.463  28.824  1.00  0.00     0.074 A 
ATOM     29  C   UNL A   1      43.197  23.166  29.579  1.00  0.00     0.029 A 
ATOM     30  N   UNL A   1      45.071  23.941  28.747  1.00  0.00    -0.354 N 
ATOM     31  N   UNL A   1      46.708  27.779  29.929  1.00  0.00    -0.248 NA
ATOM     32  C   UNL A   1      46.771  27.687  27.600  1.00  0.00     0.031 C 
ATOM     33  C   UNL A   1      43.943  23.819  30.604  1.00  0.00     0.029 A 
ATOM     34  C   UNL A   1      44.993  24.503  29.991  1.00  0.00     0.049 A 
ATOM     35  H   UNL A   1      45.885  23.841  28.202  1.00  0.00     0.167 HD
ATOM     36  C   UNL A   1      46.418  26.481  29.548  1.00  0.00     0.074 A 
ATOM     37  C   UNL A   1      46.579  26.464  28.096  1.00  0.00     0.031 C 
ATOM     38  C   UNL A   1      45.799  25.623  30.410  1.00  0.00     0.037 A 
BRANCH  25  39
ATOM     39  C   UNL A   1      44.111  23.370  25.840  1.00  0.00     0.057 A 
ATOM     40  C   UNL A   1      44.146  21.990  25.554  1.00  0.00     0.134 A 
ATOM     41  C   UNL A   1      45.054  24.143  25.135  1.00  0.00     0.134 A 
ATOM     42  F   UNL A   1      43.297  21.138  26.149  1.00  0.00    -0.206 F 
ATOM     43  C   UNL A   1      45.120  21.415  24.727  1.00  0.00     0.040 A 
ATOM     44  C   UNL A   1      45.998  23.585  24.268  1.00  0.00     0.040 A 
ATOM     45  F   UNL A   1      45.186  25.462  25.315  1.00  0.00    -0.206 F 
ATOM     46  C   UNL A   1      46.061  22.213  24.093  1.00  0.00     0.006 A 
ENDBRANCH  25  39
BRANCH  26  47
ATOM     47  C   UNL A   1      46.967  30.951  28.250  1.00  0.00     0.057 A 
ATOM     48  C   UNL A   1      46.788  31.525  26.980  1.00  0.00     0.134 A 
ATOM     49  C   UNL A   1      47.776  31.675  29.141  1.00  0.00     0.134 A 
ATOM     50  F   UNL A   1      46.005  30.934  26.067  1.00  0.00    -0.206 F 
ATOM     51  C   UNL A   1      47.348  32.763  26.631  1.00  0.00     0.040 A 
ATOM     52  C   UNL A   1      48.346  32.907  28.803  1.00  0.00     0.040 A 
ATOM     53  F   UNL A   1      47.961  31.255  30.401  1.00  0.00    -0.206 F 
ATOM     54  C   UNL A   1      48.119  33.465  27.551  1.00  0.00     0.006 A 
ENDBRANCH  26  47
BRANCH  38  55
ATOM     55  C   UNL A   1      45.742  25.996  31.863  1.00  0.00     0.057 A 
ATOM     56  C   UNL A   1      46.781  25.788  32.781  1.00  0.00     0.134 A 
ATOM     57  C   UNL A   1      44.633  26.720  32.315  1.00  0.00     0.134 A 
ATOM     58  F   UNL A   1      47.926  25.193  32.419  1.00  0.00    -0.206 F 
ATOM     59  C   UNL A   1      46.696  26.241  34.102  1.00  0.00     0.040 A 
ATOM     60  C   UNL A   1      44.552  27.212  33.618  1.00  0.00     0.040 A 
ATOM     61  F   UNL A   1      43.621  27.001  31.477  1.00  0.00    -0.206 F 
ATOM     62  C   UNL A   1      45.581  26.963  34.521  1.00  0.00     0.006 A 
ENDBRANCH  38  55
ENDBRANCH  12  13
ENDBRANCH   5   7
ENDBRANCH   2   3
ENDBRANCH   1   2
BRANCH   1  63
ATOM     63  C   UNL A   1      32.436  29.030  25.992  1.00  0.00     0.023 C 
BRANCH  63  64
ATOM     64  C   UNL A   1      32.209  28.640  24.532  1.00  0.00     0.116 C 
BRANCH  64  65
ATOM     65  N   UNL A   1      30.818  28.353  24.228  1.00  0.00    -0.352 N 
ATOM     66  C   UNL A   1      30.225  27.171  23.843  1.00  0.00     0.251 C 
ATOM     67  H   UNL A   1      30.206  29.120  24.311  1.00  0.00     0.163 HD
ATOM     68  O   UNL A   1      29.049  27.159  23.512  1.00  0.00    -0.269 OA
BRANCH  66  69
ATOM     69  C   UNL A   1      31.010  25.916  23.803  1.00  0.00     0.039 A 
ATOM     70  C   UNL A   1      31.246  25.243  25.003  1.00  0.00     0.014 A 
ATOM     71  C   UNL A   1      31.547  25.424  22.610  1.00  0.00     0.014 A 
ATOM     72  C   UNL A   1      31.956  24.041  24.998  1.00  0.00     0.005 A 
ATOM     73  C   UNL A   1      32.247  24.215  22.603  1.00  0.00     0.005 A 
ATOM     74  C   UNL A   1      32.452  23.501  23.797  1.00  0.00    -0.038 A 
BRANCH  74  75
ATOM     75  C   UNL A   1      33.221  22.191  23.836  1.00  0.00     0.081 C 
ATOM     76  C   UNL A   1      32.780  21.280  25.005  1.00  0.00     0.111 C 
ATOM     77  C   UNL A   1      34.662  22.537  23.927  1.00  0.00     0.093 A 
ATOM     78  C   UNL A   1      33.807  21.110  26.112  1.00  0.00     0.188 C 
ATOM     79  C   UNL A   1      35.440  22.103  24.978  1.00  0.00     0.164 A 
ATOM     80  N   UNL A   1      35.378  23.315  23.058  1.00  0.00    -0.238 NA
ATOM     81  N   UNL A   1      35.059  21.437  26.093  1.00  0.00    -0.198 NA
ATOM     82  N   UNL A   1      36.698  22.622  24.739  1.00  0.00    -0.283 N 
ATOM     83  C   UNL A   1      36.579  23.388  23.596  1.00  0.00     0.206 A 
BRANCH  78  84
ATOM     84  O   UNL A   1      33.328  20.501  27.216  1.00  0.00    -0.496 OA
ATOM     85  H   UNL A   1      32.462  20.693  27.517  1.00  0.00     0.294 HD
ENDBRANCH  78  84
BRANCH  82  86
ATOM     86  C   UNL A   1      37.869  22.413  25.503  1.00  0.00     0.050 A 
ATOM     87  C   UNL A   1      38.355  23.424  26.340  1.00  0.00     0.027 A 
ATOM     88  C   UNL A   1      38.533  21.182  25.418  1.00  0.00     0.047 A 
ATOM     89  C   UNL A   1      39.484  23.179  27.127  1.00  0.00     0.004 A 
ATOM     90  C   UNL A   1      39.686  20.971  26.169  1.00  0.00     0.043 A 
ATOM     91  C   UNL A   1      40.154  21.958  27.036  1.00  0.00     0.020 A 
ATOM     92  Cl  UNL A   1      40.549  19.490  26.013  1.00  0.00    -0.084 Cl
ENDBRANCH  82  86
ENDBRANCH  74  75
ENDBRANCH  66  69
ENDBRANCH  64  65
ENDBRANCH  63  64
ENDBRANCH   1  63
TORSDOF 14
ENDMDL
MODEL 2
REMARK VINA RESULT:     -12.9      2.337      6.610
REMARK SMILES O=C(NCCCCNC(=O)c1ccc([C@@H]2CC(O)=Nc3c2ncn3-c2cccc(Cl)c2)cc1)c1ccc(-c2c3nc(c(-c4c(F)cccc4F)c4ccc([nH]4)c(-c4c(F)cccc4F)c4nc(c(-c5c(F)cccc5F)c5ccc2[nH]5)C=C4)C=C3)cc1
REMARK SMILES IDX 5 1 4 2 3 3 1 4 2 5 34 7 35 8 87 9 36 10 86 11 37 12 38 13
REMARK SMILES IDX 39 14 80 15 40 16 85 17 79 18 81 19 41 20 84 21 78 22 77 23
REMARK SMILES IDX 42 25 68 26 51 27 67 28 52 29 55 30 66 31 82 32 53 33 54 34
REMARK SMILES IDX 65 36 83 37 56 38 43 39 44 40 49 41 45 42 46 43 48 44 50 45
REMARK SMILES IDX 47 46 69 47 70 48 75 49 71 50 72 51 74 52 76 53 73 54 57 55
REMARK SMILES IDX 58 56 63 57 59 58 60 59 62 60 64 61 61 62 6 63 7 64 8 65
REMARK SMILES IDX 9 66 10 68 11 69 12 70 33 71 13 72 32 73 14 74 15 75 16 76
REMARK SMILES IDX 21 77 17 78 20 79 22 80 19 81 24 82 23 83 18 84 25 86 26 87
REMARK SMILES IDX 31 88 27 89 29 90 28 91 30 92
REMARK H PARENT 3 6 81 24 55 35 8 67 18 85
REMARK Flexibility Score: inf
ROOT
ATOM      1  C   UNL A   1      33.036  28.887  27.414  1.00  0.00     0.023 C 
ENDROOT
BRANCH   1   2
ATOM      2  C   UNL A   1      34.429  29.220  26.886  1.00  0.00     0.116 C 
BRANCH   2   3
ATOM      3  N   UNL A   1      34.996  30.448  27.405  1.00  0.00    -0.352 N 
ATOM      4  O   UNL A   1      36.370  32.051  28.041  1.00  0.00    -0.269 OA
ATOM      5  C   UNL A   1      36.231  30.840  27.845  1.00  0.00     0.251 C 
ATOM      6  H   UNL A   1      34.335  31.176  27.452  1.00  0.00     0.163 HD
BRANCH   5   7
ATOM      7  C   UNL A   1      37.376  29.936  28.155  1.00  0.00     0.039 A 
ATOM      8  C   UNL A   1      37.515  29.142  29.292  1.00  0.00     0.014 A 
ATOM      9  C   UNL A   1      38.404  29.902  27.189  1.00  0.00     0.014 A 
ATOM     10  C   UNL A   1      38.673  28.381  29.483  1.00  0.00     0.010 A 
ATOM     11  C   UNL A   1      39.559  29.143  27.373  1.00  0.00     0.010 A 
ATOM     12  C   UNL A   1      39.704  28.394  28.534  1.00  0.00    -0.014 A 
BRANCH  12  13
ATOM     13  C   UNL A   1      40.809  27.443  28.692  1.00  0.00     0.031 A 
ATOM     14  C   UNL A   1      41.543  27.580  29.985  1.00  0.00     0.074 A 
ATOM     15  C   UNL A   1      41.091  26.414  27.865  1.00  0.00     0.049 A 
ATOM     16  N   UNL A   1      42.784  27.897  30.168  1.00  0.00    -0.248 NA
ATOM     17  C   UNL A   1      40.772  27.448  31.231  1.00  0.00     0.031 C 
ATOM     18  C   UNL A   1      40.303  25.927  26.733  1.00  0.00     0.029 A 
ATOM     19  N   UNL A   1      42.125  25.519  27.924  1.00  0.00    -0.354 N 
ATOM     20  C   UNL A   1      43.002  27.829  31.544  1.00  0.00     0.074 A 
ATOM     21  C   UNL A   1      41.707  27.690  32.152  1.00  0.00     0.031 C 
ATOM     22  C   UNL A   1      40.773  24.718  26.346  1.00  0.00     0.029 A 
ATOM     23  C   UNL A   1      41.970  24.403  27.108  1.00  0.00     0.049 A 
ATOM     24  H   UNL A   1      42.914  25.655  28.497  1.00  0.00     0.167 HD
ATOM     25  C   UNL A   1      44.257  27.678  32.054  1.00  0.00     0.037 A 
ATOM     26  C   UNL A   1      42.743  23.285  27.088  1.00  0.00     0.037 A 
ATOM     27  C   UNL A   1      45.259  28.050  31.088  1.00  0.00     0.049 A 
ATOM     28  C   UNL A   1      44.037  23.613  27.731  1.00  0.00     0.074 A 
ATOM     29  C   UNL A   1      45.562  29.196  30.380  1.00  0.00     0.029 A 
ATOM     30  N   UNL A   1      45.953  27.041  30.470  1.00  0.00    -0.354 N 
ATOM     31  N   UNL A   1      44.949  24.374  27.200  1.00  0.00    -0.248 NA
ATOM     32  C   UNL A   1      44.160  23.392  29.163  1.00  0.00     0.031 C 
ATOM     33  C   UNL A   1      46.009  28.737  29.106  1.00  0.00     0.029 A 
ATOM     34  C   UNL A   1      46.009  27.342  29.138  1.00  0.00     0.049 A 
ATOM     35  H   UNL A   1      46.340  26.248  30.906  1.00  0.00     0.167 HD
ATOM     36  C   UNL A   1      45.467  25.086  28.269  1.00  0.00     0.074 A 
ATOM     37  C   UNL A   1      45.028  24.361  29.459  1.00  0.00     0.031 C 
ATOM     38  C   UNL A   1      45.957  26.347  28.095  1.00  0.00     0.037 A 
BRANCH  25  39
ATOM     39  C   UNL A   1      44.593  26.829  33.264  1.00  0.00     0.057 A 
ATOM     40  C   UNL A   1      45.345  27.402  34.310  1.00  0.00     0.134 A 
ATOM     41  C   UNL A   1      44.502  25.424  33.303  1.00  0.00     0.134 A 
ATOM     42  F   UNL A   1      45.506  28.731  34.397  1.00  0.00    -0.206 F 
ATOM     43  C   UNL A   1      46.047  26.631  35.245  1.00  0.00     0.040 A 
ATOM     44  C   UNL A   1      45.157  24.647  34.263  1.00  0.00     0.040 A 
ATOM     45  F   UNL A   1      43.862  24.715  32.366  1.00  0.00    -0.206 F 
ATOM     46  C   UNL A   1      45.967  25.246  35.213  1.00  0.00     0.006 A 
ENDBRANCH  25  39
BRANCH  26  47
ATOM     47  C   UNL A   1      42.393  21.878  26.777  1.00  0.00     0.057 A 
ATOM     48  C   UNL A   1      43.127  21.134  25.837  1.00  0.00     0.134 A 
ATOM     49  C   UNL A   1      41.533  21.139  27.606  1.00  0.00     0.134 A 
ATOM     50  F   UNL A   1      44.004  21.737  25.022  1.00  0.00    -0.206 F 
ATOM     51  C   UNL A   1      43.039  19.737  25.753  1.00  0.00     0.040 A 
ATOM     52  C   UNL A   1      41.430  19.745  27.528  1.00  0.00     0.040 A 
ATOM     53  F   UNL A   1      40.834  21.736  28.582  1.00  0.00    -0.206 F 
ATOM     54  C   UNL A   1      42.198  19.037  26.611  1.00  0.00     0.006 A 
ENDBRANCH  26  47
BRANCH  38  55
ATOM     55  C   UNL A   1      46.230  26.814  26.695  1.00  0.00     0.057 A 
ATOM     56  C   UNL A   1      45.318  27.521  25.897  1.00  0.00     0.134 A 
ATOM     57  C   UNL A   1      47.525  26.655  26.187  1.00  0.00     0.134 A 
ATOM     58  F   UNL A   1      44.085  27.811  26.335  1.00  0.00    -0.206 F 
ATOM     59  C   UNL A   1      45.669  28.004  24.632  1.00  0.00     0.040 A 
ATOM     60  C   UNL A   1      47.899  27.167  24.943  1.00  0.00     0.040 A 
ATOM     61  F   UNL A   1      48.466  26.034  26.915  1.00  0.00    -0.206 F 
ATOM     62  C   UNL A   1      46.966  27.834  24.155  1.00  0.00     0.006 A 
ENDBRANCH  38  55
ENDBRANCH  12  13
ENDBRANCH   5   7
ENDBRANCH   2   3
ENDBRANCH   1   2
BRANCH   1  63
ATOM     63  C   UNL A   1      31.886  29.710  26.821  1.00  0.00     0.023 C 
BRANCH  63  64
ATOM     64  C   UNL A   1      32.063  30.182  25.378  1.00  0.00     0.116 C 
BRANCH  64  65
ATOM     65  N   UNL A   1      31.042  29.669  24.482  1.00  0.00    -0.352 N 
ATOM     66  C   UNL A   1      30.833  28.386  24.027  1.00  0.00     0.251 C 
ATOM     67  H   UNL A   1      30.401  30.339  24.150  1.00  0.00     0.163 HD
ATOM     68  O   UNL A   1      29.985  28.173  23.174  1.00  0.00    -0.269 OA
BRANCH  66  69
ATOM     69  C   UNL A   1      31.645  27.262  24.549  1.00  0.00     0.039 A 
ATOM     70  C   UNL A   1      32.891  27.021  23.968  1.00  0.00     0.014 A 
ATOM     71  C   UNL A   1      31.174  26.426  25.565  1.00  0.00     0.014 A 
ATOM     72  C   UNL A   1      33.696  25.989  24.455  1.00  0.00     0.005 A 
ATOM     73  C   UNL A   1      31.984  25.402  26.060  1.00  0.00     0.005 A 
ATOM     74  C   UNL A   1      33.262  25.176  25.518  1.00  0.00    -0.038 A 
BRANCH  74  75
ATOM     75  C   UNL A   1      34.169  24.062  26.017  1.00  0.00     0.081 C 
ATOM     76  C   UNL A   1      35.559  24.084  25.342  1.00  0.00     0.111 C 
ATOM     77  C   UNL A   1      33.460  22.782  25.766  1.00  0.00     0.093 A 
ATOM     78  C   UNL A   1      35.832  22.932  24.390  1.00  0.00     0.188 C 
ATOM     79  C   UNL A   1      34.014  21.796  24.979  1.00  0.00     0.164 A 
ATOM     80  N   UNL A   1      32.219  22.426  26.220  1.00  0.00    -0.238 NA
ATOM     81  N   UNL A   1      35.155  21.838  24.251  1.00  0.00    -0.198 NA
ATOM     82  N   UNL A   1      33.082  20.778  24.959  1.00  0.00    -0.283 N 
ATOM     83  C   UNL A   1      32.000  21.242  25.680  1.00  0.00     0.206 A 
BRANCH  78  84
ATOM     84  O   UNL A   1      36.948  23.084  23.649  1.00  0.00    -0.496 OA
ATOM     85  H   UNL A   1      37.587  23.725  23.892  1.00  0.00     0.294 HD
ENDBRANCH  78  84
BRANCH  82  86
ATOM     86  C   UNL A   1      33.205  19.516  24.333  1.00  0.00     0.050 A 
ATOM     87  C   UNL A   1      32.488  19.234  23.165  1.00  0.00     0.027 A 
ATOM     88  C   UNL A   1      34.058  18.554  24.891  1.00  0.00     0.047 A 
ATOM     89  C   UNL A   1      32.664  18.001  22.531  1.00  0.00     0.004 A 
ATOM     90  C   UNL A   1      34.184  17.311  24.277  1.00  0.00     0.043 A 
ATOM     91  C   UNL A   1      33.505  17.037  23.091  1.00  0.00     0.020 A 
ATOM     92  Cl  UNL A   1      35.171  16.098  24.997  1.00  0.00    -0.084 Cl
ENDBRANCH  82  86
ENDBRANCH  74  75
ENDBRANCH  66  69
ENDBRANCH  64  65
ENDBRANCH  63  64
ENDBRANCH   1  63
TORSDOF 14
ENDMDL
MODEL 3
REMARK VINA RESULT:     -12.8      2.123      6.055
REMARK SMILES O=C(NCCCCNC(=O)c1ccc([C@@H]2CC(O)=Nc3c2ncn3-c2cccc(Cl)c2)cc1)c1ccc(-c2c3nc(c(-c4c(F)cccc4F)c4ccc([nH]4)c(-c4c(F)cccc4F)c4nc(c(-c5c(F)cccc5F)c5ccc2[nH]5)C=C4)C=C3)cc1
REMARK SMILES IDX 5 1 4 2 3 3 1 4 2 5 34 7 35 8 87 9 36 10 86 11 37 12 38 13
REMARK SMILES IDX 39 14 80 15 40 16 85 17 79 18 81 19 41 20 84 21 78 22 77 23
REMARK SMILES IDX 42 25 68 26 51 27 67 28 52 29 55 30 66 31 82 32 53 33 54 34
REMARK SMILES IDX 65 36 83 37 56 38 43 39 44 40 49 41 45 42 46 43 48 44 50 45
REMARK SMILES IDX 47 46 69 47 70 48 75 49 71 50 72 51 74 52 76 53 73 54 57 55
REMARK SMILES IDX 58 56 63 57 59 58 60 59 62 60 64 61 61 62 6 63 7 64 8 65
REMARK SMILES IDX 9 66 10 68 11 69 12 70 33 71 13 72 32 73 14 74 15 75 16 76
REMARK SMILES IDX 21 77 17 78 20 79 22 80 19 81 24 82 23 83 18 84 25 86 26 87
REMARK SMILES IDX 31 88 27 89 29 90 28 91 30 92
REMARK H PARENT 3 6 81 24 55 35 8 67 18 85
REMARK Flexibility Score: inf
ROOT
ATOM      1  C   UNL A   1      33.263  28.983  25.892  1.00  0.00     0.023 C 
ENDROOT
BRANCH   1   2
ATOM      2  C   UNL A   1      32.994  29.586  27.269  1.00  0.00     0.116 C 
BRANCH   2   3
ATOM      3  N   UNL A   1      33.479  30.940  27.443  1.00  0.00    -0.352 N 
ATOM      4  O   UNL A   1      34.737  32.747  27.560  1.00  0.00    -0.269 OA
ATOM      5  C   UNL A   1      34.704  31.516  27.647  1.00  0.00     0.251 C 
ATOM      6  H   UNL A   1      32.755  31.606  27.406  1.00  0.00     0.163 HD
BRANCH   5   7
ATOM      7  C   UNL A   1      35.957  30.797  28.015  1.00  0.00     0.039 A 
ATOM      8  C   UNL A   1      36.192  29.429  27.889  1.00  0.00     0.014 A 
ATOM      9  C   UNL A   1      36.990  31.604  28.540  1.00  0.00     0.014 A 
ATOM     10  C   UNL A   1      37.399  28.877  28.328  1.00  0.00     0.010 A 
ATOM     11  C   UNL A   1      38.197  31.060  28.976  1.00  0.00     0.010 A 
ATOM     12  C   UNL A   1      38.396  29.687  28.889  1.00  0.00    -0.014 A 
BRANCH  12  13
ATOM     13  C   UNL A   1      39.707  29.091  29.163  1.00  0.00     0.031 A 
ATOM     14  C   UNL A   1      40.054  29.035  30.614  1.00  0.00     0.074 A 
ATOM     15  C   UNL A   1      40.504  28.484  28.258  1.00  0.00     0.049 A 
ATOM     16  N   UNL A   1      41.032  29.622  31.222  1.00  0.00    -0.248 NA
ATOM     17  C   UNL A   1      39.136  28.319  31.514  1.00  0.00     0.031 C 
ATOM     18  C   UNL A   1      40.198  28.157  26.865  1.00  0.00     0.029 A 
ATOM     19  N   UNL A   1      41.752  27.948  28.430  1.00  0.00    -0.354 N 
ATOM     20  C   UNL A   1      40.965  29.209  32.553  1.00  0.00     0.074 A 
ATOM     21  C   UNL A   1      39.707  28.529  32.701  1.00  0.00     0.031 C 
ATOM     22  C   UNL A   1      41.138  27.308  26.387  1.00  0.00     0.029 A 
ATOM     23  C   UNL A   1      42.180  27.133  27.387  1.00  0.00     0.049 A 
ATOM     24  H   UNL A   1      42.301  28.124  29.228  1.00  0.00     0.167 HD
ATOM     25  C   UNL A   1      42.053  29.276  33.371  1.00  0.00     0.037 A 
ATOM     26  C   UNL A   1      43.286  26.343  27.360  1.00  0.00     0.037 A 
ATOM     27  C   UNL A   1      43.037  30.192  32.851  1.00  0.00     0.049 A 
ATOM     28  C   UNL A   1      44.211  26.817  28.414  1.00  0.00     0.074 A 
ATOM     29  C   UNL A   1      43.055  31.534  32.529  1.00  0.00     0.029 A 
ATOM     30  N   UNL A   1      44.158  29.659  32.268  1.00  0.00    -0.354 N 
ATOM     31  N   UNL A   1      44.882  27.930  28.357  1.00  0.00    -0.248 NA
ATOM     32  C   UNL A   1      44.099  26.221  29.735  1.00  0.00     0.031 C 
ATOM     33  C   UNL A   1      43.894  31.627  31.380  1.00  0.00     0.029 A 
ATOM     34  C   UNL A   1      44.383  30.349  31.111  1.00  0.00     0.049 A 
ATOM     35  H   UNL A   1      44.701  28.916  32.620  1.00  0.00     0.167 HD
ATOM     36  C   UNL A   1      44.876  28.404  29.658  1.00  0.00     0.074 A 
ATOM     37  C   UNL A   1      44.483  27.260  30.478  1.00  0.00     0.031 C 
ATOM     38  C   UNL A   1      44.910  29.743  29.913  1.00  0.00     0.037 A 
BRANCH  25  39
ATOM     39  C   UNL A   1      42.406  28.235  34.415  1.00  0.00     0.057 A 
ATOM     40  C   UNL A   1      42.750  26.936  33.991  1.00  0.00     0.134 A 
ATOM     41  C   UNL A   1      42.114  28.351  35.788  1.00  0.00     0.134 A 
ATOM     42  F   UNL A   1      43.059  26.686  32.709  1.00  0.00    -0.206 F 
ATOM     43  C   UNL A   1      42.689  25.824  34.840  1.00  0.00     0.040 A 
ATOM     44  C   UNL A   1      42.100  27.255  36.656  1.00  0.00     0.040 A 
ATOM     45  F   UNL A   1      41.730  29.503  36.350  1.00  0.00    -0.206 F 
ATOM     46  C   UNL A   1      42.347  25.980  36.176  1.00  0.00     0.006 A 
ENDBRANCH  25  39
BRANCH  26  47
ATOM     47  C   UNL A   1      43.532  25.057  26.664  1.00  0.00     0.057 A 
ATOM     48  C   UNL A   1      42.810  23.898  26.995  1.00  0.00     0.134 A 
ATOM     49  C   UNL A   1      44.257  25.004  25.462  1.00  0.00     0.134 A 
ATOM     50  F   UNL A   1      42.056  23.855  28.103  1.00  0.00    -0.206 F 
ATOM     51  C   UNL A   1      42.779  22.770  26.162  1.00  0.00     0.040 A 
ATOM     52  C   UNL A   1      44.241  23.883  24.625  1.00  0.00     0.040 A 
ATOM     53  F   UNL A   1      44.928  26.076  25.014  1.00  0.00    -0.206 F 
ATOM     54  C   UNL A   1      43.486  22.767  24.965  1.00  0.00     0.006 A 
ENDBRANCH  26  47
BRANCH  38  55
ATOM     55  C   UNL A   1      45.288  30.668  28.792  1.00  0.00     0.057 A 
ATOM     56  C   UNL A   1      44.403  31.131  27.807  1.00  0.00     0.134 A 
ATOM     57  C   UNL A   1      46.576  31.218  28.796  1.00  0.00     0.134 A 
ATOM     58  F   UNL A   1      43.122  30.741  27.779  1.00  0.00    -0.206 F 
ATOM     59  C   UNL A   1      44.801  32.062  26.842  1.00  0.00     0.040 A 
ATOM     60  C   UNL A   1      46.973  32.177  27.863  1.00  0.00     0.040 A 
ATOM     61  F   UNL A   1      47.461  30.860  29.740  1.00  0.00    -0.206 F 
ATOM     62  C   UNL A   1      46.088  32.594  26.874  1.00  0.00     0.006 A 
ENDBRANCH  38  55
ENDBRANCH  12  13
ENDBRANCH   5   7
ENDBRANCH   2   3
ENDBRANCH   1   2
BRANCH   1  63
ATOM     63  C   UNL A   1      32.533  29.651  24.720  1.00  0.00     0.023 C 
BRANCH  63  64
ATOM     64  C   UNL A   1      31.040  29.916  24.912  1.00  0.00     0.116 C 
BRANCH  64  65
ATOM     65  N   UNL A   1      30.306  29.973  23.660  1.00  0.00    -0.352 N 
ATOM     66  C   UNL A   1      29.987  28.964  22.779  1.00  0.00     0.251 C 
ATOM     67  H   UNL A   1      29.988  30.869  23.403  1.00  0.00     0.163 HD
ATOM     68  O   UNL A   1      29.464  29.234  21.708  1.00  0.00    -0.269 OA
BRANCH  66  69
ATOM     69  C   UNL A   1      30.296  27.554  23.108  1.00  0.00     0.039 A 
ATOM     70  C   UNL A   1      31.189  26.862  22.288  1.00  0.00     0.014 A 
ATOM     71  C   UNL A   1      29.686  26.901  24.182  1.00  0.00     0.014 A 
ATOM     72  C   UNL A   1      31.526  25.540  22.586  1.00  0.00     0.005 A 
ATOM     73  C   UNL A   1      30.032  25.582  24.487  1.00  0.00     0.005 A 
ATOM     74  C   UNL A   1      30.965  24.887  23.699  1.00  0.00    -0.038 A 
BRANCH  74  75
ATOM     75  C   UNL A   1      31.358  23.447  23.988  1.00  0.00     0.081 C 
ATOM     76  C   UNL A   1      30.988  23.009  25.422  1.00  0.00     0.111 C 
ATOM     77  C   UNL A   1      32.819  23.340  23.744  1.00  0.00     0.093 A 
ATOM     78  C   UNL A   1      32.168  22.783  26.353  1.00  0.00     0.188 C 
ATOM     79  C   UNL A   1      33.685  22.936  24.735  1.00  0.00     0.164 A 
ATOM     80  N   UNL A   1      33.484  23.638  22.585  1.00  0.00    -0.238 NA
ATOM     81  N   UNL A   1      33.420  22.692  26.040  1.00  0.00    -0.198 NA
ATOM     82  N   UNL A   1      34.940  22.970  24.160  1.00  0.00    -0.283 N 
ATOM     83  C   UNL A   1      34.755  23.454  22.880  1.00  0.00     0.206 A 
BRANCH  78  84
ATOM     84  O   UNL A   1      31.824  22.621  27.647  1.00  0.00    -0.496 OA
ATOM     85  H   UNL A   1      31.690  21.759  27.990  1.00  0.00     0.294 HD
ENDBRANCH  78  84
BRANCH  82  86
ATOM     86  C   UNL A   1      36.165  22.586  24.754  1.00  0.00     0.050 A 
ATOM     87  C   UNL A   1      36.604  21.261  24.672  1.00  0.00     0.027 A 
ATOM     88  C   UNL A   1      36.935  23.550  25.420  1.00  0.00     0.047 A 
ATOM     89  C   UNL A   1      37.843  20.913  25.220  1.00  0.00     0.004 A 
ATOM     90  C   UNL A   1      38.142  23.178  26.005  1.00  0.00     0.043 A 
ATOM     91  C   UNL A   1      38.607  21.868  25.893  1.00  0.00     0.020 A 
ATOM     92  Cl  UNL A   1      39.057  24.337  26.889  1.00  0.00    -0.084 Cl
ENDBRANCH  82  86
ENDBRANCH  74  75
ENDBRANCH  66  69
ENDBRANCH  64  65
ENDBRANCH  63  64
ENDBRANCH   1  63
TORSDOF 14
ENDMDL
