MODEL 1
REMARK VINA RESULT:     -13.0      0.000      0.000
REMARK SMILES CCc1ccc2[nH]c(C(=O)c3cc(C)ccn3)c(CC(=O)NCCCCNC(=O)c3ccc(-c4c5nc(c(-c6c(F)cccc6F)c6ccc([nH]6)c(-c6c(F)cccc6F)c6nc(c(-c7c(F)cccc7F)c7ccc4[nH]7)C=C6)C=C5)cc3)c2c1
REMARK SMILES IDX 24 1 23 2 22 3 20 4 21 5 19 7 18 8 3 9 4 10 85 11 5 12 84 13
REMARK SMILES IDX 6 14 7 15 8 16 2 18 1 19 9 20 10 21 11 22 12 23 17 24 13 25
REMARK SMILES IDX 16 26 14 27 15 28 25 29 26 30 27 31 28 32 29 34 30 35 31 36
REMARK SMILES IDX 83 37 32 38 82 39 33 40 34 41 35 42 76 43 36 44 81 45 75 46
REMARK SMILES IDX 77 47 37 48 80 49 74 50 73 51 38 53 64 54 47 55 63 56 48 57
REMARK SMILES IDX 51 58 62 59 78 60 49 61 50 62 61 64 79 65 52 66 39 67 40 68
REMARK SMILES IDX 45 69 41 70 42 71 44 72 46 73 43 74 65 75 66 76 71 77 67 78
REMARK SMILES IDX 68 79 70 80 72 81 69 82 53 83 54 84 59 85 55 86 56 87 58 88
REMARK SMILES IDX 60 89 57 90
REMARK H PARENT 22 6 7 17 27 33 77 52 51 63
REMARK Flexibility Score: inf
ROOT
ATOM      1  C   UNL A   1      31.830  30.652  26.306  1.00  0.00     0.023 C 
ENDROOT
BRANCH   1   2
ATOM      2  C   UNL A   1      33.268  30.191  26.539  1.00  0.00     0.116 C 
BRANCH   2   3
ATOM      3  N   UNL A   1      33.788  29.406  25.442  1.00  0.00    -0.356 N 
ATOM      4  C   UNL A   1      33.609  28.081  25.157  1.00  0.00     0.224 C 
ATOM      5  O   UNL A   1      33.987  27.702  24.044  1.00  0.00    -0.275 OA
ATOM      6  H   UNL A   1      34.355  29.898  24.806  1.00  0.00     0.163 HD
BRANCH   4   7
ATOM      7  C   UNL A   1      32.853  27.151  26.101  1.00  0.00     0.138 C 
BRANCH   7   8
ATOM      8  C   UNL A   1      31.619  26.508  25.523  1.00  0.00    -0.002 A 
ATOM      9  C   UNL A   1      29.416  28.840  23.405  1.00  0.00    -0.048 A 
ATOM     10  C   UNL A   1      28.388  27.914  23.215  1.00  0.00     0.006 A 
ATOM     11  C   UNL A   1      30.562  28.462  24.126  1.00  0.00     0.014 A 
ATOM     12  C   UNL A   1      28.474  26.612  23.724  1.00  0.00     0.027 A 
ATOM     13  C   UNL A   1      30.661  27.165  24.677  1.00  0.00     0.004 A 
ATOM     14  C   UNL A   1      29.620  26.273  24.452  1.00  0.00     0.046 A 
ATOM     15  N   UNL A   1      29.956  25.099  25.079  1.00  0.00    -0.352 N 
ATOM     16  C   UNL A   1      31.196  25.187  25.679  1.00  0.00     0.093 A 
ATOM     17  H   UNL A   1      29.385  24.297  25.099  1.00  0.00     0.167 HD
BRANCH   9  18
ATOM     18  C   UNL A   1      29.289  30.252  22.887  1.00  0.00     0.032 C 
ATOM     19  C   UNL A   1      28.074  30.961  23.471  1.00  0.00     0.009 C 
ENDBRANCH   9  18
BRANCH  16  20
ATOM     20  C   UNL A   1      31.877  24.094  26.365  1.00  0.00     0.227 C 
ATOM     21  O   UNL A   1      31.535  23.673  27.470  1.00  0.00    -0.285 OA
BRANCH  20  22
ATOM     22  C   UNL A   1      33.081  23.480  25.742  1.00  0.00     0.113 A 
ATOM     23  C   UNL A   1      34.348  23.942  26.083  1.00  0.00     0.036 A 
ATOM     24  N   UNL A   1      32.854  22.468  24.868  1.00  0.00    -0.253 NA
ATOM     25  C   UNL A   1      35.456  23.331  25.493  1.00  0.00    -0.047 A 
ATOM     26  C   UNL A   1      33.941  21.871  24.342  1.00  0.00     0.112 A 
ATOM     27  C   UNL A   1      36.852  23.776  25.810  1.00  0.00     0.044 C 
ATOM     28  C   UNL A   1      35.243  22.265  24.614  1.00  0.00     0.023 A 
ENDBRANCH  20  22
ENDBRANCH  16  20
ENDBRANCH   7   8
ENDBRANCH   4   7
ENDBRANCH   2   3
ENDBRANCH   1   2
BRANCH   1  29
ATOM     29  C   UNL A   1      31.541  32.101  26.705  1.00  0.00     0.023 C 
BRANCH  29  30
ATOM     30  C   UNL A   1      32.727  32.883  27.257  1.00  0.00     0.116 C 
BRANCH  30  31
ATOM     31  N   UNL A   1      32.393  34.244  27.646  1.00  0.00    -0.352 N 
ATOM     32  C   UNL A   1      32.986  35.041  28.593  1.00  0.00     0.251 C 
ATOM     33  H   UNL A   1      31.636  34.649  27.164  1.00  0.00     0.163 HD
ATOM     34  O   UNL A   1      32.509  36.142  28.860  1.00  0.00    -0.269 OA
BRANCH  32  35
ATOM     35  C   UNL A   1      34.178  34.560  29.327  1.00  0.00     0.039 A 
ATOM     36  C   UNL A   1      34.000  33.997  30.595  1.00  0.00     0.014 A 
ATOM     37  C   UNL A   1      35.457  34.649  28.772  1.00  0.00     0.014 A 
ATOM     38  C   UNL A   1      35.095  33.463  31.276  1.00  0.00     0.010 A 
ATOM     39  C   UNL A   1      36.538  34.060  29.425  1.00  0.00     0.010 A 
ATOM     40  C   UNL A   1      36.367  33.458  30.680  1.00  0.00    -0.014 A 
BRANCH  40  41
ATOM     41  C   UNL A   1      37.524  32.814  31.351  1.00  0.00     0.031 A 
ATOM     42  C   UNL A   1      38.185  31.611  30.740  1.00  0.00     0.074 A 
ATOM     43  C   UNL A   1      37.937  33.275  32.548  1.00  0.00     0.049 A 
ATOM     44  N   UNL A   1      39.167  30.882  31.207  1.00  0.00    -0.248 NA
ATOM     45  C   UNL A   1      37.658  31.154  29.445  1.00  0.00     0.031 C 
ATOM     46  C   UNL A   1      37.347  34.403  33.271  1.00  0.00     0.029 A 
ATOM     47  N   UNL A   1      38.948  32.845  33.371  1.00  0.00    -0.354 N 
ATOM     48  C   UNL A   1      39.364  29.873  30.273  1.00  0.00     0.074 A 
ATOM     49  C   UNL A   1      38.373  30.057  29.236  1.00  0.00     0.031 C 
ATOM     50  C   UNL A   1      38.019  34.588  34.420  1.00  0.00     0.029 A 
ATOM     51  C   UNL A   1      39.065  33.576  34.527  1.00  0.00     0.049 A 
ATOM     52  H   UNL A   1      39.533  32.084  33.152  1.00  0.00     0.167 HD
ATOM     53  C   UNL A   1      40.301  28.894  30.271  1.00  0.00     0.037 A 
ATOM     54  C   UNL A   1      39.918  33.444  35.560  1.00  0.00     0.037 A 
ATOM     55  C   UNL A   1      41.304  28.725  31.288  1.00  0.00     0.049 A 
ATOM     56  C   UNL A   1      40.953  32.356  35.528  1.00  0.00     0.074 A 
ATOM     57  C   UNL A   1      42.332  27.801  31.342  1.00  0.00     0.029 A 
ATOM     58  N   UNL A   1      41.404  29.501  32.433  1.00  0.00    -0.354 N 
ATOM     59  N   UNL A   1      41.171  31.449  34.606  1.00  0.00    -0.248 NA
ATOM     60  C   UNL A   1      41.867  32.277  36.676  1.00  0.00     0.031 C 
ATOM     61  C   UNL A   1      43.036  27.996  32.535  1.00  0.00     0.029 A 
ATOM     62  C   UNL A   1      42.469  29.067  33.207  1.00  0.00     0.049 A 
ATOM     63  H   UNL A   1      40.808  30.249  32.662  1.00  0.00     0.167 HD
ATOM     64  C   UNL A   1      42.258  30.709  35.051  1.00  0.00     0.074 A 
ATOM     65  C   UNL A   1      42.664  31.280  36.318  1.00  0.00     0.031 C 
ATOM     66  C   UNL A   1      42.865  29.651  34.462  1.00  0.00     0.037 A 
BRANCH  53  67
ATOM     67  C   UNL A   1      40.285  27.931  29.121  1.00  0.00     0.057 A 
ATOM     68  C   UNL A   1      39.498  26.772  29.142  1.00  0.00     0.134 A 
ATOM     69  C   UNL A   1      41.039  28.180  27.967  1.00  0.00     0.134 A 
ATOM     70  F   UNL A   1      38.763  26.470  30.223  1.00  0.00    -0.206 F 
ATOM     71  C   UNL A   1      39.481  25.881  28.068  1.00  0.00     0.040 A 
ATOM     72  C   UNL A   1      41.012  27.309  26.877  1.00  0.00     0.040 A 
ATOM     73  F   UNL A   1      41.810  29.274  27.879  1.00  0.00    -0.206 F 
ATOM     74  C   UNL A   1      40.235  26.153  26.928  1.00  0.00     0.006 A 
ENDBRANCH  53  67
BRANCH  54  75
ATOM     75  C   UNL A   1      39.850  34.388  36.703  1.00  0.00     0.057 A 
ATOM     76  C   UNL A   1      39.116  34.073  37.852  1.00  0.00     0.134 A 
ATOM     77  C   UNL A   1      40.508  35.623  36.673  1.00  0.00     0.134 A 
ATOM     78  F   UNL A   1      38.450  32.912  37.930  1.00  0.00    -0.206 F 
ATOM     79  C   UNL A   1      39.025  34.960  38.926  1.00  0.00     0.040 A 
ATOM     80  C   UNL A   1      40.442  36.510  37.747  1.00  0.00     0.040 A 
ATOM     81  F   UNL A   1      41.232  35.978  35.601  1.00  0.00    -0.206 F 
ATOM     82  C   UNL A   1      39.693  36.182  38.875  1.00  0.00     0.006 A 
ENDBRANCH  54  75
BRANCH  66  83
ATOM     83  C   UNL A   1      44.050  29.064  35.167  1.00  0.00     0.057 A 
ATOM     84  C   UNL A   1      45.355  29.501  34.905  1.00  0.00     0.134 A 
ATOM     85  C   UNL A   1      43.881  28.071  36.139  1.00  0.00     0.134 A 
ATOM     86  F   UNL A   1      45.584  30.440  33.975  1.00  0.00    -0.206 F 
ATOM     87  C   UNL A   1      46.452  28.955  35.573  1.00  0.00     0.040 A 
ATOM     88  C   UNL A   1      44.969  27.534  36.830  1.00  0.00     0.040 A 
ATOM     89  F   UNL A   1      42.657  27.613  36.441  1.00  0.00    -0.206 F 
ATOM     90  C   UNL A   1      46.260  27.973  36.542  1.00  0.00     0.006 A 
ENDBRANCH  66  83
ENDBRANCH  40  41
ENDBRANCH  32  35
ENDBRANCH  30  31
ENDBRANCH  29  30
ENDBRANCH   1  29
TORSDOF 15
ENDMDL
MODEL 2
REMARK VINA RESULT:     -13.0      0.535      6.032
REMARK SMILES CCc1ccc2[nH]c(C(=O)c3cc(C)ccn3)c(CC(=O)NCCCCNC(=O)c3ccc(-c4c5nc(c(-c6c(F)cccc6F)c6ccc([nH]6)c(-c6c(F)cccc6F)c6nc(c(-c7c(F)cccc7F)c7ccc4[nH]7)C=C6)C=C5)cc3)c2c1
REMARK SMILES IDX 24 1 23 2 22 3 20 4 21 5 19 7 18 8 3 9 4 10 85 11 5 12 84 13
REMARK SMILES IDX 6 14 7 15 8 16 2 18 1 19 9 20 10 21 11 22 12 23 17 24 13 25
REMARK SMILES IDX 16 26 14 27 15 28 25 29 26 30 27 31 28 32 29 34 30 35 31 36
REMARK SMILES IDX 83 37 32 38 82 39 33 40 34 41 35 42 76 43 36 44 81 45 75 46
REMARK SMILES IDX 77 47 37 48 80 49 74 50 73 51 38 53 64 54 47 55 63 56 48 57
REMARK SMILES IDX 51 58 62 59 78 60 49 61 50 62 61 64 79 65 52 66 39 67 40 68
REMARK SMILES IDX 45 69 41 70 42 71 44 72 46 73 43 74 65 75 66 76 71 77 67 78
REMARK SMILES IDX 68 79 70 80 72 81 69 82 53 83 54 84 59 85 55 86 56 87 58 88
REMARK SMILES IDX 60 89 57 90
REMARK H PARENT 22 6 7 17 27 33 77 52 51 63
REMARK Flexibility Score: inf
ROOT
ATOM      1  C   UNL A   1      31.622  30.800  25.982  1.00  0.00     0.023 C 
ENDROOT
BRANCH   1   2
ATOM      2  C   UNL A   1      32.957  30.173  26.381  1.00  0.00     0.116 C 
BRANCH   2   3
ATOM      3  N   UNL A   1      33.591  29.467  25.289  1.00  0.00    -0.356 N 
ATOM      4  C   UNL A   1      33.582  28.133  24.992  1.00  0.00     0.224 C 
ATOM      5  O   UNL A   1      34.025  27.813  23.884  1.00  0.00    -0.275 OA
ATOM      6  H   UNL A   1      34.105  30.031  24.668  1.00  0.00     0.163 HD
BRANCH   4   7
ATOM      7  C   UNL A   1      32.929  27.109  25.915  1.00  0.00     0.138 C 
BRANCH   7   8
ATOM      8  C   UNL A   1      31.646  26.505  25.404  1.00  0.00    -0.002 A 
ATOM      9  C   UNL A   1      29.499  28.849  23.242  1.00  0.00    -0.048 A 
ATOM     10  C   UNL A   1      28.420  27.970  23.126  1.00  0.00     0.006 A 
ATOM     11  C   UNL A   1      30.646  28.445  23.946  1.00  0.00     0.014 A 
ATOM     12  C   UNL A   1      28.455  26.691  23.694  1.00  0.00     0.027 A 
ATOM     13  C   UNL A   1      30.696  27.172  24.556  1.00  0.00     0.004 A 
ATOM     14  C   UNL A   1      29.605  26.326  24.403  1.00  0.00     0.046 A 
ATOM     15  N   UNL A   1      29.900  25.166  25.076  1.00  0.00    -0.352 N 
ATOM     16  C   UNL A   1      31.161  25.216  25.635  1.00  0.00     0.093 A 
ATOM     17  H   UNL A   1      29.289  24.397  25.151  1.00  0.00     0.167 HD
BRANCH   9  18
ATOM     18  C   UNL A   1      29.428  30.240  22.661  1.00  0.00     0.032 C 
ATOM     19  C   UNL A   1      28.551  31.160  23.501  1.00  0.00     0.009 C 
ENDBRANCH   9  18
BRANCH  16  20
ATOM     20  C   UNL A   1      31.807  24.122  26.353  1.00  0.00     0.227 C 
ATOM     21  O   UNL A   1      31.454  23.747  27.470  1.00  0.00    -0.285 OA
BRANCH  20  22
ATOM     22  C   UNL A   1      32.987  23.450  25.746  1.00  0.00     0.113 A 
ATOM     23  C   UNL A   1      34.271  23.866  26.086  1.00  0.00     0.036 A 
ATOM     24  N   UNL A   1      32.723  22.433  24.888  1.00  0.00    -0.253 NA
ATOM     25  C   UNL A   1      35.356  23.200  25.512  1.00  0.00    -0.047 A 
ATOM     26  C   UNL A   1      33.788  21.784  24.377  1.00  0.00     0.112 A 
ATOM     27  C   UNL A   1      36.767  23.594  25.829  1.00  0.00     0.044 C 
ATOM     28  C   UNL A   1      35.103  22.129  24.650  1.00  0.00     0.023 A 
ENDBRANCH  20  22
ENDBRANCH  16  20
ENDBRANCH   7   8
ENDBRANCH   4   7
ENDBRANCH   2   3
ENDBRANCH   1   2
BRANCH   1  29
ATOM     29  C   UNL A   1      31.377  32.207  26.532  1.00  0.00     0.023 C 
BRANCH  29  30
ATOM     30  C   UNL A   1      32.577  32.875  27.193  1.00  0.00     0.116 C 
BRANCH  30  31
ATOM     31  N   UNL A   1      32.306  34.229  27.651  1.00  0.00    -0.352 N 
ATOM     32  C   UNL A   1      32.958  34.961  28.612  1.00  0.00     0.251 C 
ATOM     33  H   UNL A   1      31.551  34.682  27.213  1.00  0.00     0.163 HD
ATOM     34  O   UNL A   1      32.531  36.066  28.942  1.00  0.00    -0.269 OA
BRANCH  32  35
ATOM     35  C   UNL A   1      34.153  34.406  29.285  1.00  0.00     0.039 A 
ATOM     36  C   UNL A   1      33.978  33.687  30.472  1.00  0.00     0.014 A 
ATOM     37  C   UNL A   1      35.432  34.578  28.751  1.00  0.00     0.014 A 
ATOM     38  C   UNL A   1      35.078  33.084  31.086  1.00  0.00     0.010 A 
ATOM     39  C   UNL A   1      36.518  33.924  29.330  1.00  0.00     0.010 A 
ATOM     40  C   UNL A   1      36.351  33.168  30.499  1.00  0.00    -0.014 A 
BRANCH  40  41
ATOM     41  C   UNL A   1      37.514  32.458  31.090  1.00  0.00     0.031 A 
ATOM     42  C   UNL A   1      38.138  32.951  32.364  1.00  0.00     0.074 A 
ATOM     43  C   UNL A   1      38.049  31.406  30.440  1.00  0.00     0.049 A 
ATOM     44  N   UNL A   1      39.190  32.499  32.998  1.00  0.00    -0.248 NA
ATOM     45  C   UNL A   1      37.511  34.121  32.998  1.00  0.00     0.031 C 
ATOM     46  C   UNL A   1      37.567  30.861  29.170  1.00  0.00     0.029 A 
ATOM     47  N   UNL A   1      39.122  30.611  30.758  1.00  0.00    -0.354 N 
ATOM     48  C   UNL A   1      39.360  33.336  34.093  1.00  0.00     0.074 A 
ATOM     49  C   UNL A   1      38.331  34.349  34.014  1.00  0.00     0.031 C 
ATOM     50  C   UNL A   1      38.329  29.809  28.826  1.00  0.00     0.029 A 
ATOM     51  C   UNL A   1      39.368  29.625  29.835  1.00  0.00     0.049 A 
ATOM     52  H   UNL A   1      39.663  30.737  31.570  1.00  0.00     0.167 HD
ATOM     53  C   UNL A   1      40.279  33.254  35.085  1.00  0.00     0.037 A 
ATOM     54  C   UNL A   1      40.326  28.680  29.803  1.00  0.00     0.037 A 
ATOM     55  C   UNL A   1      41.286  32.232  35.179  1.00  0.00     0.049 A 
ATOM     56  C   UNL A   1      41.327  28.606  30.922  1.00  0.00     0.074 A 
ATOM     57  C   UNL A   1      42.223  32.031  36.178  1.00  0.00     0.029 A 
ATOM     58  N   UNL A   1      41.489  31.236  34.236  1.00  0.00    -0.354 N 
ATOM     59  N   UNL A   1      41.435  29.364  31.986  1.00  0.00    -0.248 NA
ATOM     60  C   UNL A   1      42.335  27.539  30.838  1.00  0.00     0.031 C 
ATOM     61  C   UNL A   1      43.014  30.933  35.824  1.00  0.00     0.029 A 
ATOM     62  C   UNL A   1      42.546  30.426  34.623  1.00  0.00     0.049 A 
ATOM     63  H   UNL A   1      40.962  31.121  33.413  1.00  0.00     0.167 HD
ATOM     64  C   UNL A   1      42.504  28.853  32.709  1.00  0.00     0.074 A 
ATOM     65  C   UNL A   1      43.004  27.712  31.970  1.00  0.00     0.031 C 
ATOM     66  C   UNL A   1      43.026  29.290  33.880  1.00  0.00     0.037 A 
BRANCH  53  67
ATOM     67  C   UNL A   1      40.227  34.302  36.157  1.00  0.00     0.057 A 
ATOM     68  C   UNL A   1      40.987  35.477  36.074  1.00  0.00     0.134 A 
ATOM     69  C   UNL A   1      39.387  34.152  37.267  1.00  0.00     0.134 A 
ATOM     70  F   UNL A   1      41.820  35.676  35.042  1.00  0.00    -0.206 F 
ATOM     71  C   UNL A   1      40.932  36.453  37.070  1.00  0.00     0.040 A 
ATOM     72  C   UNL A   1      39.305  35.132  38.257  1.00  0.00     0.040 A 
ATOM     73  F   UNL A   1      38.629  33.054  37.404  1.00  0.00    -0.206 F 
ATOM     74  C   UNL A   1      40.083  36.285  38.163  1.00  0.00     0.006 A 
ENDBRANCH  53  67
BRANCH  54  75
ATOM     75  C   UNL A   1      40.368  27.704  28.687  1.00  0.00     0.057 A 
ATOM     76  C   UNL A   1      39.641  26.509  28.750  1.00  0.00     0.134 A 
ATOM     77  C   UNL A   1      41.135  27.935  27.540  1.00  0.00     0.134 A 
ATOM     78  F   UNL A   1      38.903  26.224  29.833  1.00  0.00    -0.206 F 
ATOM     79  C   UNL A   1      39.689  25.571  27.718  1.00  0.00     0.040 A 
ATOM     80  C   UNL A   1      41.175  27.015  26.492  1.00  0.00     0.040 A 
ATOM     81  F   UNL A   1      41.849  29.065  27.419  1.00  0.00    -0.206 F 
ATOM     82  C   UNL A   1      40.455  25.825  26.583  1.00  0.00     0.006 A 
ENDBRANCH  54  75
BRANCH  66  83
ATOM     83  C   UNL A   1      44.175  28.514  34.449  1.00  0.00     0.057 A 
ATOM     84  C   UNL A   1      45.504  28.865  34.186  1.00  0.00     0.134 A 
ATOM     85  C   UNL A   1      43.948  27.420  35.292  1.00  0.00     0.134 A 
ATOM     86  F   UNL A   1      45.788  29.895  33.374  1.00  0.00    -0.206 F 
ATOM     87  C   UNL A   1      46.569  28.143  34.727  1.00  0.00     0.040 A 
ATOM     88  C   UNL A   1      45.004  26.703  35.858  1.00  0.00     0.040 A 
ATOM     89  F   UNL A   1      42.697  27.035  35.589  1.00  0.00    -0.206 F 
ATOM     90  C   UNL A   1      46.319  27.061  35.570  1.00  0.00     0.006 A 
ENDBRANCH  66  83
ENDBRANCH  40  41
ENDBRANCH  32  35
ENDBRANCH  30  31
ENDBRANCH  29  30
ENDBRANCH   1  29
TORSDOF 15
ENDMDL
MODEL 3
REMARK VINA RESULT:     -12.9      1.141      3.755
REMARK SMILES CCc1ccc2[nH]c(C(=O)c3cc(C)ccn3)c(CC(=O)NCCCCNC(=O)c3ccc(-c4c5nc(c(-c6c(F)cccc6F)c6ccc([nH]6)c(-c6c(F)cccc6F)c6nc(c(-c7c(F)cccc7F)c7ccc4[nH]7)C=C6)C=C5)cc3)c2c1
REMARK SMILES IDX 24 1 23 2 22 3 20 4 21 5 19 7 18 8 3 9 4 10 85 11 5 12 84 13
REMARK SMILES IDX 6 14 7 15 8 16 2 18 1 19 9 20 10 21 11 22 12 23 17 24 13 25
REMARK SMILES IDX 16 26 14 27 15 28 25 29 26 30 27 31 28 32 29 34 30 35 31 36
REMARK SMILES IDX 83 37 32 38 82 39 33 40 34 41 35 42 76 43 36 44 81 45 75 46
REMARK SMILES IDX 77 47 37 48 80 49 74 50 73 51 38 53 64 54 47 55 63 56 48 57
REMARK SMILES IDX 51 58 62 59 78 60 49 61 50 62 61 64 79 65 52 66 39 67 40 68
REMARK SMILES IDX 45 69 41 70 42 71 44 72 46 73 43 74 65 75 66 76 71 77 67 78
REMARK SMILES IDX 68 79 70 80 72 81 69 82 53 83 54 84 59 85 55 86 56 87 58 88
REMARK SMILES IDX 60 89 57 90
REMARK H PARENT 22 6 7 17 27 33 77 52 51 63
REMARK Flexibility Score: inf
ROOT
ATOM      1  C   UNL A   1      31.692  30.638  26.118  1.00  0.00     0.023 C 
ENDROOT
BRANCH   1   2
ATOM      2  C   UNL A   1      32.105  29.701  27.251  1.00  0.00     0.116 C 
BRANCH   2   3
ATOM      3  N   UNL A   1      31.494  28.394  27.146  1.00  0.00    -0.356 N 
ATOM      4  C   UNL A   1      32.020  27.220  26.684  1.00  0.00     0.224 C 
ATOM      5  O   UNL A   1      31.359  26.199  26.898  1.00  0.00    -0.275 OA
ATOM      6  H   UNL A   1      30.560  28.343  27.452  1.00  0.00     0.163 HD
BRANCH   4   7
ATOM      7  C   UNL A   1      33.415  27.152  26.070  1.00  0.00     0.138 C 
BRANCH   7   8
ATOM      8  C   UNL A   1      33.527  26.329  24.812  1.00  0.00    -0.002 A 
ATOM      9  C   UNL A   1      34.567  22.669  25.356  1.00  0.00    -0.048 A 
ATOM     10  C   UNL A   1      34.676  22.359  23.998  1.00  0.00     0.006 A 
ATOM     11  C   UNL A   1      34.150  23.955  25.740  1.00  0.00     0.014 A 
ATOM     12  C   UNL A   1      34.374  23.302  23.008  1.00  0.00     0.027 A 
ATOM     13  C   UNL A   1      33.870  24.935  24.762  1.00  0.00     0.004 A 
ATOM     14  C   UNL A   1      33.979  24.579  23.423  1.00  0.00     0.046 A 
ATOM     15  N   UNL A   1      33.654  25.689  22.685  1.00  0.00    -0.352 N 
ATOM     16  C   UNL A   1      33.307  26.749  23.499  1.00  0.00     0.093 A 
ATOM     17  H   UNL A   1      33.669  25.726  21.701  1.00  0.00     0.167 HD
BRANCH   9  18
ATOM     18  C   UNL A   1      34.938  21.655  26.411  1.00  0.00     0.032 C 
ATOM     19  C   UNL A   1      34.024  21.745  27.627  1.00  0.00     0.009 C 
ENDBRANCH   9  18
BRANCH  16  20
ATOM     20  C   UNL A   1      32.841  28.051  23.031  1.00  0.00     0.227 C 
ATOM     21  O   UNL A   1      33.600  28.977  22.745  1.00  0.00    -0.285 OA
BRANCH  20  22
ATOM     22  C   UNL A   1      31.379  28.311  22.941  1.00  0.00     0.113 A 
ATOM     23  C   UNL A   1      30.477  27.378  23.443  1.00  0.00     0.036 A 
ATOM     24  N   UNL A   1      31.013  29.487  22.372  1.00  0.00    -0.253 NA
ATOM     25  C   UNL A   1      29.113  27.663  23.358  1.00  0.00    -0.047 A 
ATOM     26  C   UNL A   1      29.693  29.754  22.336  1.00  0.00     0.112 A 
ATOM     27  C   UNL A   1      28.083  26.704  23.876  1.00  0.00     0.044 C 
ATOM     28  C   UNL A   1      28.719  28.884  22.804  1.00  0.00     0.023 A 
ENDBRANCH  20  22
ENDBRANCH  16  20
ENDBRANCH   7   8
ENDBRANCH   4   7
ENDBRANCH   2   3
ENDBRANCH   1   2
BRANCH   1  29
ATOM     29  C   UNL A   1      31.446  32.090  26.535  1.00  0.00     0.023 C 
BRANCH  29  30
ATOM     30  C   UNL A   1      32.598  32.771  27.264  1.00  0.00     0.116 C 
BRANCH  30  31
ATOM     31  N   UNL A   1      32.324  34.156  27.614  1.00  0.00    -0.352 N 
ATOM     32  C   UNL A   1      32.956  34.955  28.535  1.00  0.00     0.251 C 
ATOM     33  H   UNL A   1      31.582  34.578  27.124  1.00  0.00     0.163 HD
ATOM     34  O   UNL A   1      32.527  36.083  28.771  1.00  0.00    -0.269 OA
BRANCH  32  35
ATOM     35  C   UNL A   1      34.130  34.445  29.277  1.00  0.00     0.039 A 
ATOM     36  C   UNL A   1      33.922  33.822  30.511  1.00  0.00     0.014 A 
ATOM     37  C   UNL A   1      35.423  34.568  28.762  1.00  0.00     0.014 A 
ATOM     38  C   UNL A   1      35.002  33.261  31.196  1.00  0.00     0.010 A 
ATOM     39  C   UNL A   1      36.490  33.954  29.415  1.00  0.00     0.010 A 
ATOM     40  C   UNL A   1      36.289  33.291  30.635  1.00  0.00    -0.014 A 
BRANCH  40  41
ATOM     41  C   UNL A   1      37.432  32.622  31.306  1.00  0.00     0.031 A 
ATOM     42  C   UNL A   1      38.134  31.470  30.645  1.00  0.00     0.074 A 
ATOM     43  C   UNL A   1      37.795  33.012  32.544  1.00  0.00     0.049 A 
ATOM     44  N   UNL A   1      39.110  30.727  31.100  1.00  0.00    -0.248 NA
ATOM     45  C   UNL A   1      37.661  31.089  29.306  1.00  0.00     0.031 C 
ATOM     46  C   UNL A   1      37.162  34.084  33.314  1.00  0.00     0.029 A 
ATOM     47  N   UNL A   1      38.783  32.545  33.374  1.00  0.00    -0.354 N 
ATOM     48  C   UNL A   1      39.357  29.782  30.112  1.00  0.00     0.074 A 
ATOM     49  C   UNL A   1      38.400  30.018  29.053  1.00  0.00     0.031 C 
ATOM     50  C   UNL A   1      37.789  34.204  34.496  1.00  0.00     0.029 A 
ATOM     51  C   UNL A   1      38.847  33.202  34.578  1.00  0.00     0.049 A 
ATOM     52  H   UNL A   1      39.388  31.808  33.130  1.00  0.00     0.167 HD
ATOM     53  C   UNL A   1      40.309  28.818  30.083  1.00  0.00     0.037 A 
ATOM     54  C   UNL A   1      39.665  33.016  35.631  1.00  0.00     0.037 A 
ATOM     55  C   UNL A   1      41.278  28.599  31.123  1.00  0.00     0.049 A 
ATOM     56  C   UNL A   1      40.718  31.947  35.567  1.00  0.00     0.074 A 
ATOM     57  C   UNL A   1      42.318  27.687  31.156  1.00  0.00     0.029 A 
ATOM     58  N   UNL A   1      41.325  29.302  32.317  1.00  0.00    -0.354 N 
ATOM     59  N   UNL A   1      40.983  31.104  34.599  1.00  0.00    -0.248 NA
ATOM     60  C   UNL A   1      41.592  31.808  36.741  1.00  0.00     0.031 C 
ATOM     61  C   UNL A   1      42.976  27.816  32.384  1.00  0.00     0.029 A 
ATOM     62  C   UNL A   1      42.368  28.834  33.100  1.00  0.00     0.049 A 
ATOM     63  H   UNL A   1      40.709  30.025  32.572  1.00  0.00     0.167 HD
ATOM     64  C   UNL A   1      42.066  30.352  35.035  1.00  0.00     0.074 A 
ATOM     65  C   UNL A   1      42.418  30.847  36.350  1.00  0.00     0.031 C 
ATOM     66  C   UNL A   1      42.710  29.342  34.404  1.00  0.00     0.037 A 
BRANCH  53  67
ATOM     67  C   UNL A   1      40.350  27.930  28.874  1.00  0.00     0.057 A 
ATOM     68  C   UNL A   1      39.626  26.731  28.817  1.00  0.00     0.134 A 
ATOM     69  C   UNL A   1      41.093  28.292  27.744  1.00  0.00     0.134 A 
ATOM     70  F   UNL A   1      38.904  26.323  29.871  1.00  0.00    -0.206 F 
ATOM     71  C   UNL A   1      39.661  25.911  27.689  1.00  0.00     0.040 A 
ATOM     72  C   UNL A   1      41.117  27.491  26.601  1.00  0.00     0.040 A 
ATOM     73  F   UNL A   1      41.804  29.429  27.730  1.00  0.00    -0.206 F 
ATOM     74  C   UNL A   1      40.404  26.294  26.574  1.00  0.00     0.006 A 
ENDBRANCH  53  67
BRANCH  54  75
ATOM     75  C   UNL A   1      39.542  33.885  36.827  1.00  0.00     0.057 A 
ATOM     76  C   UNL A   1      38.779  33.484  37.930  1.00  0.00     0.134 A 
ATOM     77  C   UNL A   1      40.174  35.131  36.896  1.00  0.00     0.134 A 
ATOM     78  F   UNL A   1      38.135  32.307  37.914  1.00  0.00    -0.206 F 
ATOM     79  C   UNL A   1      38.635  34.300  39.054  1.00  0.00     0.040 A 
ATOM     80  C   UNL A   1      40.055  35.947  38.021  1.00  0.00     0.040 A 
ATOM     81  F   UNL A   1      40.923  35.568  35.873  1.00  0.00    -0.206 F 
ATOM     82  C   UNL A   1      39.278  35.534  39.102  1.00  0.00     0.006 A 
ENDBRANCH  54  75
BRANCH  66  83
ATOM     83  C   UNL A   1      43.879  28.728  35.113  1.00  0.00     0.057 A 
ATOM     84  C   UNL A   1      43.730  27.626  35.962  1.00  0.00     0.134 A 
ATOM     85  C   UNL A   1      45.173  29.228  34.919  1.00  0.00     0.134 A 
ATOM     86  F   UNL A   1      42.515  27.109  36.199  1.00  0.00    -0.206 F 
ATOM     87  C   UNL A   1      44.825  27.054  36.612  1.00  0.00     0.040 A 
ATOM     88  C   UNL A   1      46.279  28.651  35.545  1.00  0.00     0.040 A 
ATOM     89  F   UNL A   1      45.384  30.279  34.112  1.00  0.00    -0.206 F 
ATOM     90  C   UNL A   1      46.105  27.564  36.399  1.00  0.00     0.006 A 
ENDBRANCH  66  83
ENDBRANCH  40  41
ENDBRANCH  32  35
ENDBRANCH  30  31
ENDBRANCH  29  30
ENDBRANCH   1  29
TORSDOF 15
ENDMDL
