MODEL 1
REMARK VINA RESULT:     -12.6      0.000      0.000
REMARK SMILES Cc1cccc([C@H](Cc2nc(C(C)(C)C)cs2)C(=O)NCCCCNC(=O)c2ccc(-c3c4nc(c(-c5c(F)cccc5F)c5ccc([nH]5)c(-c5c(F)cccc5F)c5nc(c(-c6c(F)cccc6F)c6ccc3[nH]6)C=C5)C=C4)cc2)c1
REMARK SMILES IDX 22 1 21 2 20 3 18 4 19 5 7 7 6 8 1 9 2 10 3 11 82 12 4 13
REMARK SMILES IDX 5 14 8 15 9 16 10 17 17 18 11 19 16 20 12 21 13 22 14 23
REMARK SMILES IDX 15 24 23 25 24 26 25 27 26 28 27 30 28 31 29 32 81 33 30 34
REMARK SMILES IDX 80 35 31 36 32 37 33 38 74 39 34 40 79 41 73 42 75 43 35 44
REMARK SMILES IDX 78 45 72 46 71 47 36 49 62 50 45 51 61 52 46 53 49 54 60 55
REMARK SMILES IDX 76 56 47 57 48 58 59 60 77 61 50 62 37 63 38 64 43 65 39 66
REMARK SMILES IDX 40 67 42 68 44 69 41 70 63 71 64 72 69 73 65 74 66 75 68 76
REMARK SMILES IDX 70 77 67 78 51 79 52 80 57 81 53 82 54 83 56 84 58 85 55 86
REMARK H PARENT 20 6 25 29 75 48 49 59
REMARK Flexibility Score: inf
ROOT
ATOM      1  C   UNL A   1      32.353  30.868  26.648  1.00  0.00     0.023 C 
ENDROOT
BRANCH   1   2
ATOM      2  C   UNL A   1      32.881  29.533  26.123  1.00  0.00     0.116 C 
BRANCH   2   3
ATOM      3  N   UNL A   1      33.271  29.545  24.726  1.00  0.00    -0.356 N 
ATOM      4  C   UNL A   1      32.710  28.966  23.628  1.00  0.00     0.227 C 
ATOM      5  O   UNL A   1      33.155  29.317  22.528  1.00  0.00    -0.274 OA
ATOM      6  H   UNL A   1      34.086  30.064  24.539  1.00  0.00     0.163 HD
BRANCH   4   7
ATOM      7  C   UNL A   1      31.586  27.916  23.700  1.00  0.00     0.115 C 
BRANCH   7   8
ATOM      8  C   UNL A   1      30.209  28.578  23.624  1.00  0.00    -0.035 A 
ATOM      9  C   UNL A   1      28.656  32.046  23.324  1.00  0.00     0.044 C 
ATOM     10  C   UNL A   1      28.790  30.553  23.393  1.00  0.00    -0.051 A 
ATOM     11  C   UNL A   1      27.710  29.740  23.041  1.00  0.00     0.003 A 
ATOM     12  C   UNL A   1      30.006  29.960  23.760  1.00  0.00     0.008 A 
ATOM     13  C   UNL A   1      27.859  28.356  23.010  1.00  0.00     0.001 A 
ATOM     14  C   UNL A   1      29.103  27.783  23.274  1.00  0.00     0.004 A 
ENDBRANCH   7   8
BRANCH   7  15
ATOM     15  C   UNL A   1      31.815  26.864  24.798  1.00  0.00     0.086 C 
BRANCH  15  16
ATOM     16  C   UNL A   1      32.705  25.715  24.391  1.00  0.00     0.094 A 
ATOM     17  N   UNL A   1      33.470  25.063  25.243  1.00  0.00    -0.246 NA
ATOM     18  S   UNL A   1      32.775  25.139  22.774  1.00  0.00    -0.127 S 
ATOM     19  C   UNL A   1      34.218  24.087  24.597  1.00  0.00     0.057 A 
ATOM     20  C   UNL A   1      33.998  24.031  23.231  1.00  0.00     0.091 A 
BRANCH  19  21
ATOM     21  C   UNL A   1      35.159  23.202  25.406  1.00  0.00     0.005 C 
ATOM     22  C   UNL A   1      34.490  22.799  26.737  1.00  0.00     0.017 C 
ATOM     23  C   UNL A   1      35.512  21.928  24.615  1.00  0.00     0.017 C 
ATOM     24  C   UNL A   1      36.475  23.935  25.743  1.00  0.00     0.017 C 
ENDBRANCH  19  21
ENDBRANCH  15  16
ENDBRANCH   7  15
ENDBRANCH   4   7
ENDBRANCH   2   3
ENDBRANCH   1   2
BRANCH   1  25
ATOM     25  C   UNL A   1      33.266  31.593  27.630  1.00  0.00     0.023 C 
BRANCH  25  26
ATOM     26  C   UNL A   1      34.643  30.963  27.780  1.00  0.00     0.116 C 
BRANCH  26  27
ATOM     27  N   UNL A   1      35.613  31.768  28.508  1.00  0.00    -0.352 N 
ATOM     28  C   UNL A   1      36.819  31.401  29.092  1.00  0.00     0.251 C 
ATOM     29  H   UNL A   1      35.379  32.720  28.600  1.00  0.00     0.163 HD
ATOM     30  O   UNL A   1      37.460  32.225  29.722  1.00  0.00    -0.269 OA
BRANCH  28  31
ATOM     31  C   UNL A   1      37.405  30.057  28.820  1.00  0.00     0.039 A 
ATOM     32  C   UNL A   1      37.494  29.159  29.892  1.00  0.00     0.014 A 
ATOM     33  C   UNL A   1      38.059  29.767  27.629  1.00  0.00     0.014 A 
ATOM     34  C   UNL A   1      38.458  28.153  29.866  1.00  0.00     0.010 A 
ATOM     35  C   UNL A   1      39.095  28.857  27.645  1.00  0.00     0.010 A 
ATOM     36  C   UNL A   1      39.346  28.107  28.796  1.00  0.00    -0.014 A 
BRANCH  36  37
ATOM     37  C   UNL A   1      40.642  27.435  28.850  1.00  0.00     0.031 A 
ATOM     38  C   UNL A   1      40.764  25.994  28.556  1.00  0.00     0.074 A 
ATOM     39  C   UNL A   1      41.751  28.189  29.022  1.00  0.00     0.049 A 
ATOM     40  N   UNL A   1      41.786  25.270  28.863  1.00  0.00    -0.248 NA
ATOM     41  C   UNL A   1      39.704  25.242  27.898  1.00  0.00     0.031 C 
ATOM     42  C   UNL A   1      43.140  27.797  28.800  1.00  0.00     0.029 A 
ATOM     43  N   UNL A   1      41.842  29.442  29.650  1.00  0.00    -0.354 N 
ATOM     44  C   UNL A   1      41.649  24.054  28.231  1.00  0.00     0.074 A 
ATOM     45  C   UNL A   1      40.314  24.074  27.680  1.00  0.00     0.031 C 
ATOM     46  C   UNL A   1      43.933  28.597  29.530  1.00  0.00     0.029 A 
ATOM     47  C   UNL A   1      43.070  29.426  30.354  1.00  0.00     0.049 A 
ATOM     48  H   UNL A   1      41.189  30.177  29.609  1.00  0.00     0.167 HD
ATOM     49  C   UNL A   1      42.724  23.216  28.153  1.00  0.00     0.037 A 
ATOM     50  C   UNL A   1      43.079  29.452  31.719  1.00  0.00     0.037 A 
ATOM     51  C   UNL A   1      43.861  23.735  28.913  1.00  0.00     0.049 A 
ATOM     52  C   UNL A   1      43.644  28.208  32.374  1.00  0.00     0.074 A 
ATOM     53  C   UNL A   1      45.003  24.446  28.585  1.00  0.00     0.029 A 
ATOM     54  N   UNL A   1      43.758  23.799  30.291  1.00  0.00    -0.354 N 
ATOM     55  N   UNL A   1      44.052  27.150  31.729  1.00  0.00    -0.248 NA
ATOM     56  C   UNL A   1      43.700  28.028  33.827  1.00  0.00     0.031 C 
ATOM     57  C   UNL A   1      45.547  24.992  29.784  1.00  0.00     0.029 A 
ATOM     58  C   UNL A   1      44.740  24.601  30.837  1.00  0.00     0.049 A 
ATOM     59  H   UNL A   1      43.070  23.330  30.817  1.00  0.00     0.167 HD
ATOM     60  C   UNL A   1      44.344  26.160  32.626  1.00  0.00     0.074 A 
ATOM     61  C   UNL A   1      44.126  26.758  33.929  1.00  0.00     0.031 C 
ATOM     62  C   UNL A   1      44.696  24.898  32.256  1.00  0.00     0.037 A 
BRANCH  49  63
ATOM     63  C   UNL A   1      42.819  22.047  27.198  1.00  0.00     0.057 A 
ATOM     64  C   UNL A   1      42.002  20.912  27.368  1.00  0.00     0.134 A 
ATOM     65  C   UNL A   1      43.723  21.947  26.126  1.00  0.00     0.134 A 
ATOM     66  F   UNL A   1      41.010  20.885  28.268  1.00  0.00    -0.206 F 
ATOM     67  C   UNL A   1      42.161  19.735  26.622  1.00  0.00     0.040 A 
ATOM     68  C   UNL A   1      43.935  20.758  25.411  1.00  0.00     0.040 A 
ATOM     69  F   UNL A   1      44.397  23.010  25.674  1.00  0.00    -0.206 F 
ATOM     70  C   UNL A   1      43.161  19.639  25.669  1.00  0.00     0.006 A 
ENDBRANCH  49  63
BRANCH  50  71
ATOM     71  C   UNL A   1      41.989  30.289  32.285  1.00  0.00     0.057 A 
ATOM     72  C   UNL A   1      40.824  29.655  32.751  1.00  0.00     0.134 A 
ATOM     73  C   UNL A   1      42.207  31.604  32.702  1.00  0.00     0.134 A 
ATOM     74  F   UNL A   1      40.546  28.396  32.377  1.00  0.00    -0.206 F 
ATOM     75  C   UNL A   1      39.981  30.255  33.689  1.00  0.00     0.040 A 
ATOM     76  C   UNL A   1      41.361  32.223  33.628  1.00  0.00     0.040 A 
ATOM     77  F   UNL A   1      43.306  32.269  32.317  1.00  0.00    -0.206 F 
ATOM     78  C   UNL A   1      40.269  31.533  34.155  1.00  0.00     0.006 A 
ENDBRANCH  50  71
BRANCH  62  79
ATOM     79  C   UNL A   1      45.034  23.840  33.255  1.00  0.00     0.057 A 
ATOM     80  C   UNL A   1      44.077  22.922  33.704  1.00  0.00     0.134 A 
ATOM     81  C   UNL A   1      46.288  23.795  33.886  1.00  0.00     0.134 A 
ATOM     82  F   UNL A   1      42.842  22.904  33.177  1.00  0.00    -0.206 F 
ATOM     83  C   UNL A   1      44.354  22.003  34.720  1.00  0.00     0.040 A 
ATOM     84  C   UNL A   1      46.566  22.909  34.929  1.00  0.00     0.040 A 
ATOM     85  F   UNL A   1      47.290  24.601  33.501  1.00  0.00    -0.206 F 
ATOM     86  C   UNL A   1      45.597  22.006  35.347  1.00  0.00     0.006 A 
ENDBRANCH  62  79
ENDBRANCH  36  37
ENDBRANCH  28  31
ENDBRANCH  26  27
ENDBRANCH  25  26
ENDBRANCH   1  25
TORSDOF 15
ENDMDL
MODEL 2
REMARK VINA RESULT:     -12.5      3.991      9.576
REMARK SMILES Cc1cccc([C@H](Cc2nc(C(C)(C)C)cs2)C(=O)NCCCCNC(=O)c2ccc(-c3c4nc(c(-c5c(F)cccc5F)c5ccc([nH]5)c(-c5c(F)cccc5F)c5nc(c(-c6c(F)cccc6F)c6ccc3[nH]6)C=C5)C=C4)cc2)c1
REMARK SMILES IDX 22 1 21 2 20 3 18 4 19 5 7 7 6 8 1 9 2 10 3 11 82 12 4 13
REMARK SMILES IDX 5 14 8 15 9 16 10 17 17 18 11 19 16 20 12 21 13 22 14 23
REMARK SMILES IDX 15 24 23 25 24 26 25 27 26 28 27 30 28 31 29 32 81 33 30 34
REMARK SMILES IDX 80 35 31 36 32 37 33 38 74 39 34 40 79 41 73 42 75 43 35 44
REMARK SMILES IDX 78 45 72 46 71 47 36 49 62 50 45 51 61 52 46 53 49 54 60 55
REMARK SMILES IDX 76 56 47 57 48 58 59 60 77 61 50 62 37 63 38 64 43 65 39 66
REMARK SMILES IDX 40 67 42 68 44 69 41 70 63 71 64 72 69 73 65 74 66 75 68 76
REMARK SMILES IDX 70 77 67 78 51 79 52 80 57 81 53 82 54 83 56 84 58 85 55 86
REMARK H PARENT 20 6 25 29 75 48 49 59
REMARK Flexibility Score: inf
ROOT
ATOM      1  C   UNL A   1      37.556  21.295  25.374  1.00  0.00     0.023 C 
ENDROOT
BRANCH   1   2
ATOM      2  C   UNL A   1      36.854  22.653  25.329  1.00  0.00     0.116 C 
BRANCH   2   3
ATOM      3  N   UNL A   1      35.880  22.864  26.383  1.00  0.00    -0.356 N 
ATOM      4  C   UNL A   1      34.542  23.115  26.337  1.00  0.00     0.227 C 
ATOM      5  O   UNL A   1      33.929  23.050  27.409  1.00  0.00    -0.274 OA
ATOM      6  H   UNL A   1      36.252  22.816  27.293  1.00  0.00     0.163 HD
BRANCH   4   7
ATOM      7  C   UNL A   1      33.788  23.474  25.044  1.00  0.00     0.115 C 
BRANCH   7   8
ATOM      8  C   UNL A   1      33.364  22.215  24.285  1.00  0.00    -0.035 A 
ATOM      9  C   UNL A   1      32.775  18.500  24.906  1.00  0.00     0.044 C 
ATOM     10  C   UNL A   1      32.826  19.833  24.217  1.00  0.00    -0.051 A 
ATOM     11  C   UNL A   1      32.166  20.013  22.999  1.00  0.00     0.003 A 
ATOM     12  C   UNL A   1      33.488  20.918  24.808  1.00  0.00     0.008 A 
ATOM     13  C   UNL A   1      32.129  21.272  22.405  1.00  0.00     0.001 A 
ATOM     14  C   UNL A   1      32.700  22.366  23.055  1.00  0.00     0.004 A 
ENDBRANCH   7   8
BRANCH   7  15
ATOM     15  C   UNL A   1      34.467  24.598  24.243  1.00  0.00     0.086 C 
BRANCH  15  16
ATOM     16  C   UNL A   1      33.802  25.947  24.366  1.00  0.00     0.094 A 
ATOM     17  N   UNL A   1      33.687  26.588  25.511  1.00  0.00    -0.246 NA
ATOM     18  S   UNL A   1      33.161  26.779  23.007  1.00  0.00    -0.127 S 
ATOM     19  C   UNL A   1      32.995  27.781  25.348  1.00  0.00     0.057 A 
ATOM     20  C   UNL A   1      32.587  28.013  24.045  1.00  0.00     0.091 A 
BRANCH  19  21
ATOM     21  C   UNL A   1      32.766  28.688  26.551  1.00  0.00     0.005 C 
ATOM     22  C   UNL A   1      31.779  28.024  27.532  1.00  0.00     0.017 C 
ATOM     23  C   UNL A   1      34.096  28.959  27.281  1.00  0.00     0.017 C 
ATOM     24  C   UNL A   1      32.169  30.047  26.128  1.00  0.00     0.017 C 
ENDBRANCH  19  21
ENDBRANCH  15  16
ENDBRANCH   7  15
ENDBRANCH   4   7
ENDBRANCH   2   3
ENDBRANCH   1   2
BRANCH   1  25
ATOM     25  C   UNL A   1      39.037  21.335  25.731  1.00  0.00     0.023 C 
BRANCH  25  26
ATOM     26  C   UNL A   1      39.441  22.534  26.576  1.00  0.00     0.116 C 
BRANCH  26  27
ATOM     27  N   UNL A   1      40.841  22.920  26.468  1.00  0.00    -0.352 N 
ATOM     28  C   UNL A   1      41.422  24.182  26.486  1.00  0.00     0.251 C 
ATOM     29  H   UNL A   1      41.473  22.172  26.369  1.00  0.00     0.163 HD
ATOM     30  O   UNL A   1      42.623  24.295  26.311  1.00  0.00    -0.269 OA
BRANCH  28  31
ATOM     31  C   UNL A   1      40.614  25.375  26.870  1.00  0.00     0.039 A 
ATOM     32  C   UNL A   1      40.807  26.553  26.136  1.00  0.00     0.014 A 
ATOM     33  C   UNL A   1      39.873  25.414  28.044  1.00  0.00     0.014 A 
ATOM     34  C   UNL A   1      40.523  27.783  26.726  1.00  0.00     0.010 A 
ATOM     35  C   UNL A   1      39.705  26.625  28.683  1.00  0.00     0.010 A 
ATOM     36  C   UNL A   1      40.107  27.806  28.054  1.00  0.00    -0.014 A 
BRANCH  36  37
ATOM     37  C   UNL A   1      40.213  28.982  28.913  1.00  0.00     0.031 A 
ATOM     38  C   UNL A   1      39.122  29.973  28.984  1.00  0.00     0.074 A 
ATOM     39  C   UNL A   1      41.262  29.067  29.762  1.00  0.00     0.049 A 
ATOM     40  N   UNL A   1      39.244  31.162  29.468  1.00  0.00    -0.248 NA
ATOM     41  C   UNL A   1      37.784  29.694  28.479  1.00  0.00     0.031 C 
ATOM     42  C   UNL A   1      41.415  29.961  30.906  1.00  0.00     0.029 A 
ATOM     43  N   UNL A   1      42.526  28.473  29.617  1.00  0.00    -0.354 N 
ATOM     44  C   UNL A   1      37.984  31.705  29.584  1.00  0.00     0.074 A 
ATOM     45  C   UNL A   1      37.115  30.765  28.914  1.00  0.00     0.031 C 
ATOM     46  C   UNL A   1      42.724  30.103  31.168  1.00  0.00     0.029 A 
ATOM     47  C   UNL A   1      43.452  29.424  30.111  1.00  0.00     0.049 A 
ATOM     48  H   UNL A   1      42.727  27.582  29.250  1.00  0.00     0.167 HD
ATOM     49  C   UNL A   1      37.808  32.832  30.335  1.00  0.00     0.037 A 
ATOM     50  C   UNL A   1      44.341  30.020  29.263  1.00  0.00     0.037 A 
ATOM     51  C   UNL A   1      39.087  33.368  30.800  1.00  0.00     0.049 A 
ATOM     52  C   UNL A   1      44.159  31.516  29.103  1.00  0.00     0.074 A 
ATOM     53  C   UNL A   1      39.803  33.277  31.982  1.00  0.00     0.029 A 
ATOM     54  N   UNL A   1      39.963  33.885  29.864  1.00  0.00    -0.354 N 
ATOM     55  N   UNL A   1      43.212  32.213  29.668  1.00  0.00    -0.248 NA
ATOM     56  C   UNL A   1      44.986  32.328  28.207  1.00  0.00     0.031 C 
ATOM     57  C   UNL A   1      41.143  33.688  31.722  1.00  0.00     0.029 A 
ATOM     58  C   UNL A   1      41.232  34.038  30.387  1.00  0.00     0.049 A 
ATOM     59  H   UNL A   1      39.714  34.117  28.941  1.00  0.00     0.167 HD
ATOM     60  C   UNL A   1      43.243  33.492  29.184  1.00  0.00     0.074 A 
ATOM     61  C   UNL A   1      44.380  33.525  28.285  1.00  0.00     0.031 C 
ATOM     62  C   UNL A   1      42.313  34.434  29.504  1.00  0.00     0.037 A 
BRANCH  49  63
ATOM     63  C   UNL A   1      36.465  33.312  30.839  1.00  0.00     0.057 A 
ATOM     64  C   UNL A   1      35.577  33.992  29.982  1.00  0.00     0.134 A 
ATOM     65  C   UNL A   1      36.005  33.189  32.161  1.00  0.00     0.134 A 
ATOM     66  F   UNL A   1      35.808  34.098  28.667  1.00  0.00    -0.206 F 
ATOM     67  C   UNL A   1      34.399  34.606  30.431  1.00  0.00     0.040 A 
ATOM     68  C   UNL A   1      34.861  33.847  32.639  1.00  0.00     0.040 A 
ATOM     69  F   UNL A   1      36.599  32.373  33.039  1.00  0.00    -0.206 F 
ATOM     70  C   UNL A   1      34.059  34.574  31.773  1.00  0.00     0.006 A 
ENDBRANCH  49  63
BRANCH  50  71
ATOM     71  C   UNL A   1      44.821  29.104  28.195  1.00  0.00     0.057 A 
ATOM     72  C   UNL A   1      45.795  28.143  28.517  1.00  0.00     0.134 A 
ATOM     73  C   UNL A   1      44.108  28.915  27.009  1.00  0.00     0.134 A 
ATOM     74  F   UNL A   1      46.525  28.271  29.636  1.00  0.00    -0.206 F 
ATOM     75  C   UNL A   1      45.962  26.980  27.761  1.00  0.00     0.040 A 
ATOM     76  C   UNL A   1      44.280  27.764  26.233  1.00  0.00     0.040 A 
ATOM     77  F   UNL A   1      43.149  29.779  26.643  1.00  0.00    -0.206 F 
ATOM     78  C   UNL A   1      45.179  26.774  26.632  1.00  0.00     0.006 A 
ENDBRANCH  50  71
BRANCH  62  79
ATOM     79  C   UNL A   1      42.383  35.831  28.982  1.00  0.00     0.057 A 
ATOM     80  C   UNL A   1      41.750  36.202  27.789  1.00  0.00     0.134 A 
ATOM     81  C   UNL A   1      43.190  36.806  29.590  1.00  0.00     0.134 A 
ATOM     82  F   UNL A   1      40.977  35.329  27.123  1.00  0.00    -0.206 F 
ATOM     83  C   UNL A   1      41.903  37.475  27.236  1.00  0.00     0.040 A 
ATOM     84  C   UNL A   1      43.384  38.069  29.028  1.00  0.00     0.040 A 
ATOM     85  F   UNL A   1      43.806  36.569  30.759  1.00  0.00    -0.206 F 
ATOM     86  C   UNL A   1      42.736  38.409  27.847  1.00  0.00     0.006 A 
ENDBRANCH  62  79
ENDBRANCH  36  37
ENDBRANCH  28  31
ENDBRANCH  26  27
ENDBRANCH  25  26
ENDBRANCH   1  25
TORSDOF 15
ENDMDL
MODEL 3
REMARK VINA RESULT:     -12.4      1.466      2.103
REMARK SMILES Cc1cccc([C@H](Cc2nc(C(C)(C)C)cs2)C(=O)NCCCCNC(=O)c2ccc(-c3c4nc(c(-c5c(F)cccc5F)c5ccc([nH]5)c(-c5c(F)cccc5F)c5nc(c(-c6c(F)cccc6F)c6ccc3[nH]6)C=C5)C=C4)cc2)c1
REMARK SMILES IDX 22 1 21 2 20 3 18 4 19 5 7 7 6 8 1 9 2 10 3 11 82 12 4 13
REMARK SMILES IDX 5 14 8 15 9 16 10 17 17 18 11 19 16 20 12 21 13 22 14 23
REMARK SMILES IDX 15 24 23 25 24 26 25 27 26 28 27 30 28 31 29 32 81 33 30 34
REMARK SMILES IDX 80 35 31 36 32 37 33 38 74 39 34 40 79 41 73 42 75 43 35 44
REMARK SMILES IDX 78 45 72 46 71 47 36 49 62 50 45 51 61 52 46 53 49 54 60 55
REMARK SMILES IDX 76 56 47 57 48 58 59 60 77 61 50 62 37 63 38 64 43 65 39 66
REMARK SMILES IDX 40 67 42 68 44 69 41 70 63 71 64 72 69 73 65 74 66 75 68 76
REMARK SMILES IDX 70 77 67 78 51 79 52 80 57 81 53 82 54 83 56 84 58 85 55 86
REMARK H PARENT 20 6 25 29 75 48 49 59
REMARK Flexibility Score: inf
ROOT
ATOM      1  C   UNL A   1      31.807  29.813  26.509  1.00  0.00     0.023 C 
ENDROOT
BRANCH   1   2
ATOM      2  C   UNL A   1      32.302  28.372  26.641  1.00  0.00     0.116 C 
BRANCH   2   3
ATOM      3  N   UNL A   1      31.252  27.389  26.830  1.00  0.00    -0.356 N 
ATOM      4  C   UNL A   1      30.814  26.374  26.034  1.00  0.00     0.227 C 
ATOM      5  O   UNL A   1      30.029  25.567  26.548  1.00  0.00    -0.274 OA
ATOM      6  H   UNL A   1      30.773  27.470  27.686  1.00  0.00     0.163 HD
BRANCH   4   7
ATOM      7  C   UNL A   1      31.235  26.203  24.564  1.00  0.00     0.115 C 
BRANCH   7   8
ATOM      8  C   UNL A   1      30.630  27.301  23.686  1.00  0.00    -0.035 A 
ATOM      9  C   UNL A   1      27.296  29.051  23.094  1.00  0.00     0.044 C 
ATOM     10  C   UNL A   1      28.755  28.710  23.005  1.00  0.00    -0.051 A 
ATOM     11  C   UNL A   1      29.642  29.601  22.395  1.00  0.00     0.003 A 
ATOM     12  C   UNL A   1      29.250  27.529  23.573  1.00  0.00     0.008 A 
ATOM     13  C   UNL A   1      31.008  29.336  22.396  1.00  0.00     0.001 A 
ATOM     14  C   UNL A   1      31.499  28.209  23.057  1.00  0.00     0.004 A 
ENDBRANCH   7   8
BRANCH   7  15
ATOM     15  C   UNL A   1      31.124  24.750  24.071  1.00  0.00     0.086 C 
BRANCH  15  16
ATOM     16  C   UNL A   1      32.153  23.810  24.652  1.00  0.00     0.094 A 
ATOM     17  N   UNL A   1      33.436  23.886  24.366  1.00  0.00    -0.246 NA
ATOM     18  S   UNL A   1      31.735  22.571  25.766  1.00  0.00    -0.127 S 
ATOM     19  C   UNL A   1      34.149  22.875  24.998  1.00  0.00     0.057 A 
ATOM     20  C   UNL A   1      33.360  22.033  25.762  1.00  0.00     0.091 A 
BRANCH  19  21
ATOM     21  C   UNL A   1      35.660  22.792  24.814  1.00  0.00     0.005 C 
ATOM     22  C   UNL A   1      36.013  22.855  23.313  1.00  0.00     0.017 C 
ATOM     23  C   UNL A   1      36.356  23.958  25.543  1.00  0.00     0.017 C 
ATOM     24  C   UNL A   1      36.226  21.471  25.376  1.00  0.00     0.017 C 
ENDBRANCH  19  21
ENDBRANCH  15  16
ENDBRANCH   7  15
ENDBRANCH   4   7
ENDBRANCH   2   3
ENDBRANCH   1   2
BRANCH   1  25
ATOM     25  C   UNL A   1      32.828  30.890  26.858  1.00  0.00     0.023 C 
BRANCH  25  26
ATOM     26  C   UNL A   1      34.132  30.350  27.426  1.00  0.00     0.116 C 
BRANCH  26  27
ATOM     27  N   UNL A   1      34.804  31.231  28.371  1.00  0.00    -0.352 N 
ATOM     28  C   UNL A   1      35.930  31.009  29.153  1.00  0.00     0.251 C 
ATOM     29  H   UNL A   1      34.399  32.123  28.469  1.00  0.00     0.163 HD
ATOM     30  O   UNL A   1      36.297  31.864  29.940  1.00  0.00    -0.269 OA
BRANCH  28  31
ATOM     31  C   UNL A   1      36.775  29.801  28.925  1.00  0.00     0.039 A 
ATOM     32  C   UNL A   1      36.992  28.945  30.013  1.00  0.00     0.014 A 
ATOM     33  C   UNL A   1      37.520  29.633  27.764  1.00  0.00     0.014 A 
ATOM     34  C   UNL A   1      38.132  28.145  30.040  1.00  0.00     0.010 A 
ATOM     35  C   UNL A   1      38.711  28.942  27.834  1.00  0.00     0.010 A 
ATOM     36  C   UNL A   1      39.055  28.263  29.005  1.00  0.00    -0.014 A 
BRANCH  36  37
ATOM     37  C   UNL A   1      40.452  27.855  29.119  1.00  0.00     0.031 A 
ATOM     38  C   UNL A   1      40.921  26.578  28.545  1.00  0.00     0.074 A 
ATOM     39  C   UNL A   1      41.343  28.739  29.623  1.00  0.00     0.049 A 
ATOM     40  N   UNL A   1      42.037  26.007  28.848  1.00  0.00    -0.248 NA
ATOM     41  C   UNL A   1      40.132  25.823  27.581  1.00  0.00     0.031 C 
ATOM     42  C   UNL A   1      42.799  28.682  29.546  1.00  0.00     0.029 A 
ATOM     43  N   UNL A   1      41.085  29.795  30.512  1.00  0.00    -0.354 N 
ATOM     44  C   UNL A   1      42.242  24.978  27.956  1.00  0.00     0.074 A 
ATOM     45  C   UNL A   1      41.005  24.880  27.216  1.00  0.00     0.031 C 
ATOM     46  C   UNL A   1      43.311  29.414  30.548  1.00  0.00     0.029 A 
ATOM     47  C   UNL A   1      42.201  29.840  31.382  1.00  0.00     0.049 A 
ATOM     48  H   UNL A   1      40.295  30.382  30.527  1.00  0.00     0.167 HD
ATOM     49  C   UNL A   1      43.477  24.403  27.871  1.00  0.00     0.037 A 
ATOM     50  C   UNL A   1      42.052  29.535  32.705  1.00  0.00     0.037 A 
ATOM     51  C   UNL A   1      44.381  24.925  28.896  1.00  0.00     0.049 A 
ATOM     52  C   UNL A   1      42.801  28.298  33.158  1.00  0.00     0.074 A 
ATOM     53  C   UNL A   1      45.367  25.898  28.914  1.00  0.00     0.029 A 
ATOM     54  N   UNL A   1      44.114  24.631  30.221  1.00  0.00    -0.354 N 
ATOM     55  N   UNL A   1      43.501  27.526  32.375  1.00  0.00    -0.248 NA
ATOM     56  C   UNL A   1      42.734  27.783  34.529  1.00  0.00     0.031 C 
ATOM     57  C   UNL A   1      45.641  26.227  30.274  1.00  0.00     0.029 A 
ATOM     58  C   UNL A   1      44.829  25.447  31.076  1.00  0.00     0.049 A 
ATOM     59  H   UNL A   1      43.492  23.928  30.517  1.00  0.00     0.167 HD
ATOM     60  C   UNL A   1      43.902  26.419  33.072  1.00  0.00     0.074 A 
ATOM     61  C   UNL A   1      43.415  26.630  34.422  1.00  0.00     0.031 C 
ATOM     62  C   UNL A   1      44.563  25.375  32.501  1.00  0.00     0.037 A 
BRANCH  49  63
ATOM     63  C   UNL A   1      43.933  23.541  26.714  1.00  0.00     0.057 A 
ATOM     64  C   UNL A   1      43.403  22.248  26.529  1.00  0.00     0.134 A 
ATOM     65  C   UNL A   1      44.922  23.894  25.781  1.00  0.00     0.134 A 
ATOM     66  F   UNL A   1      42.374  21.797  27.258  1.00  0.00    -0.206 F 
ATOM     67  C   UNL A   1      43.904  21.344  25.582  1.00  0.00     0.040 A 
ATOM     68  C   UNL A   1      45.475  22.982  24.868  1.00  0.00     0.040 A 
ATOM     69  F   UNL A   1      45.355  25.154  25.658  1.00  0.00    -0.206 F 
ATOM     70  C   UNL A   1      44.975  21.694  24.777  1.00  0.00     0.006 A 
ENDBRANCH  49  63
BRANCH  50  71
ATOM     71  C   UNL A   1      40.748  29.988  33.257  1.00  0.00     0.057 A 
ATOM     72  C   UNL A   1      40.577  31.353  33.548  1.00  0.00     0.134 A 
ATOM     73  C   UNL A   1      39.594  29.207  33.162  1.00  0.00     0.134 A 
ATOM     74  F   UNL A   1      41.644  32.157  33.667  1.00  0.00    -0.206 F 
ATOM     75  C   UNL A   1      39.311  31.939  33.614  1.00  0.00     0.040 A 
ATOM     76  C   UNL A   1      38.321  29.780  33.245  1.00  0.00     0.040 A 
ATOM     77  F   UNL A   1      39.676  27.902  32.868  1.00  0.00    -0.206 F 
ATOM     78  C   UNL A   1      38.178  31.156  33.429  1.00  0.00     0.006 A 
ENDBRANCH  50  71
BRANCH  62  79
ATOM     79  C   UNL A   1      45.013  24.189  33.289  1.00  0.00     0.057 A 
ATOM     80  C   UNL A   1      44.147  23.125  33.573  1.00  0.00     0.134 A 
ATOM     81  C   UNL A   1      46.281  24.142  33.891  1.00  0.00     0.134 A 
ATOM     82  F   UNL A   1      42.907  23.095  33.062  1.00  0.00    -0.206 F 
ATOM     83  C   UNL A   1      44.525  22.067  34.404  1.00  0.00     0.040 A 
ATOM     84  C   UNL A   1      46.657  23.111  34.755  1.00  0.00     0.040 A 
ATOM     85  F   UNL A   1      47.202  25.088  33.650  1.00  0.00    -0.206 F 
ATOM     86  C   UNL A   1      45.778  22.067  35.011  1.00  0.00     0.006 A 
ENDBRANCH  62  79
ENDBRANCH  36  37
ENDBRANCH  28  31
ENDBRANCH  26  27
ENDBRANCH  25  26
ENDBRANCH   1  25
TORSDOF 15
ENDMDL
