MODEL 1
REMARK VINA RESULT:     -12.4      0.000      0.000
REMARK SMILES NC(=O)c1cc(NC(=O)/C=C\C(=O)NCCCCNC(=O)c2ccc(-c3c4nc(c(-c5c(F)cccc5F)c5ccc([nH]5)c(-c5c(F)cccc5F)c5nc(c(-c6c(F)cccc6F)c6ccc3[nH]6)C=C5)C=C4)cc2)ccc1N1CCOCC1
REMARK SMILES IDX 16 1 15 2 14 3 12 4 13 5 11 7 10 8 8 9 7 10 9 12 6 13 4 14
REMARK SMILES IDX 5 15 78 16 77 17 76 18 2 19 1 20 3 23 79 24 80 25 84 26
REMARK SMILES IDX 81 27 83 28 82 29 17 30 18 31 19 32 20 33 21 35 22 36 23 37
REMARK SMILES IDX 75 38 24 39 74 40 25 41 26 42 27 43 68 44 28 45 73 46 67 47
REMARK SMILES IDX 69 48 29 49 72 50 66 51 65 52 30 54 56 55 39 56 55 57 40 58
REMARK SMILES IDX 43 59 54 60 70 61 41 62 42 63 53 65 71 66 44 67 31 68 32 69
REMARK SMILES IDX 37 70 33 71 34 72 36 73 38 74 35 75 57 76 58 77 63 78 59 79
REMARK SMILES IDX 60 80 62 81 64 82 61 83 45 84 46 85 51 86 47 87 48 88 50 89
REMARK SMILES IDX 52 90 49 91
REMARK H PARENT 14 6 7 11 1 21 1 22 19 34 69 53 43 64
REMARK Flexibility Score: inf
ROOT
ATOM      1  C   UNL A   1      31.391  30.858  26.134  1.00  0.00     0.023 C 
ENDROOT
BRANCH   1   2
ATOM      2  C   UNL A   1      32.476  30.019  26.798  1.00  0.00     0.116 C 
BRANCH   2   3
ATOM      3  N   UNL A   1      33.575  29.633  25.940  1.00  0.00    -0.353 N 
ATOM      4  C   UNL A   1      33.698  28.479  25.238  1.00  0.00     0.244 C 
ATOM      5  O   UNL A   1      34.244  28.489  24.139  1.00  0.00    -0.270 OA
ATOM      6  H   UNL A   1      34.312  30.279  25.857  1.00  0.00     0.163 HD
BRANCH   4   7
ATOM      7  C   UNL A   1      33.144  27.216  25.756  1.00  0.00     0.077 C 
ATOM      8  C   UNL A   1      32.700  26.161  25.057  1.00  0.00     0.077 C 
BRANCH   8   9
ATOM      9  C   UNL A   1      32.759  25.847  23.609  1.00  0.00     0.248 C 
ATOM     10  N   UNL A   1      32.172  26.600  22.644  1.00  0.00    -0.322 N 
ATOM     11  H   UNL A   1      32.556  26.466  21.748  1.00  0.00     0.170 HD
ATOM     12  O   UNL A   1      33.440  24.876  23.269  1.00  0.00    -0.270 OA
BRANCH  10  13
ATOM     13  C   UNL A   1      31.127  27.527  22.676  1.00  0.00     0.042 A 
ATOM     14  C   UNL A   1      28.836  28.197  23.126  1.00  0.00     0.064 A 
ATOM     15  C   UNL A   1      29.839  27.210  23.086  1.00  0.00     0.042 A 
ATOM     16  C   UNL A   1      29.084  29.515  22.702  1.00  0.00     0.050 A 
ATOM     17  C   UNL A   1      30.401  29.797  22.285  1.00  0.00     0.029 A 
ATOM     18  C   UNL A   1      31.398  28.823  22.247  1.00  0.00     0.028 A 
BRANCH  14  19
ATOM     19  C   UNL A   1      27.518  27.700  23.569  1.00  0.00     0.250 C 
ATOM     20  N   UNL A   1      27.505  26.399  23.995  1.00  0.00    -0.366 N 
ATOM     21  H   UNL A   1      26.663  25.992  24.307  1.00  0.00     0.159 HD
ATOM     22  H   UNL A   1      28.334  25.870  23.990  1.00  0.00     0.159 HD
ATOM     23  O   UNL A   1      26.514  28.392  23.599  1.00  0.00    -0.269 OA
ENDBRANCH  14  19
BRANCH  16  24
ATOM     24  N   UNL A   1      28.162  30.536  22.554  1.00  0.00    -0.366 N 
ATOM     25  C   UNL A   1      27.677  31.043  21.260  1.00  0.00     0.145 C 
ATOM     26  C   UNL A   1      28.089  31.525  23.641  1.00  0.00     0.145 C 
ATOM     27  C   UNL A   1      28.284  32.423  20.926  1.00  0.00     0.181 C 
ATOM     28  C   UNL A   1      28.830  32.793  23.200  1.00  0.00     0.181 C 
ATOM     29  O   UNL A   1      28.209  33.349  22.030  1.00  0.00    -0.378 OA
ENDBRANCH  16  24
ENDBRANCH  10  13
ENDBRANCH   8   9
ENDBRANCH   4   7
ENDBRANCH   2   3
ENDBRANCH   1   2
BRANCH   1  30
ATOM     30  C   UNL A   1      31.355  32.341  26.504  1.00  0.00     0.023 C 
BRANCH  30  31
ATOM     31  C   UNL A   1      32.580  32.861  27.242  1.00  0.00     0.116 C 
BRANCH  31  32
ATOM     32  N   UNL A   1      32.419  34.251  27.628  1.00  0.00    -0.352 N 
ATOM     33  C   UNL A   1      33.022  34.951  28.638  1.00  0.00     0.251 C 
ATOM     34  H   UNL A   1      31.782  34.766  27.081  1.00  0.00     0.163 HD
ATOM     35  O   UNL A   1      32.567  36.039  28.979  1.00  0.00    -0.269 OA
BRANCH  33  36
ATOM     36  C   UNL A   1      34.222  34.412  29.311  1.00  0.00     0.039 A 
ATOM     37  C   UNL A   1      35.471  34.613  28.718  1.00  0.00     0.014 A 
ATOM     38  C   UNL A   1      34.112  33.648  30.477  1.00  0.00     0.014 A 
ATOM     39  C   UNL A   1      36.612  34.060  29.301  1.00  0.00     0.010 A 
ATOM     40  C   UNL A   1      35.256  33.157  31.096  1.00  0.00     0.010 A 
ATOM     41  C   UNL A   1      36.513  33.335  30.499  1.00  0.00    -0.014 A 
BRANCH  41  42
ATOM     42  C   UNL A   1      37.709  32.716  31.120  1.00  0.00     0.031 A 
ATOM     43  C   UNL A   1      38.340  31.507  30.487  1.00  0.00     0.074 A 
ATOM     44  C   UNL A   1      38.183  33.206  32.280  1.00  0.00     0.049 A 
ATOM     45  N   UNL A   1      39.345  30.782  30.909  1.00  0.00    -0.248 NA
ATOM     46  C   UNL A   1      37.743  31.031  29.229  1.00  0.00     0.031 C 
ATOM     47  C   UNL A   1      37.620  34.343  33.011  1.00  0.00     0.029 A 
ATOM     48  N   UNL A   1      39.239  32.800  33.055  1.00  0.00    -0.354 N 
ATOM     49  C   UNL A   1      39.484  29.755  29.982  1.00  0.00     0.074 A 
ATOM     50  C   UNL A   1      38.430  29.921  29.005  1.00  0.00     0.031 C 
ATOM     51  C   UNL A   1      38.345  34.552  34.122  1.00  0.00     0.029 A 
ATOM     52  C   UNL A   1      39.400  33.545  34.198  1.00  0.00     0.049 A 
ATOM     53  H   UNL A   1      39.825  32.045  32.817  1.00  0.00     0.167 HD
ATOM     54  C   UNL A   1      40.419  28.777  29.939  1.00  0.00     0.037 A 
ATOM     55  C   UNL A   1      40.295  33.425  35.196  1.00  0.00     0.037 A 
ATOM     56  C   UNL A   1      41.482  28.640  30.899  1.00  0.00     0.049 A 
ATOM     57  C   UNL A   1      41.335  32.344  35.115  1.00  0.00     0.074 A 
ATOM     58  C   UNL A   1      42.526  27.732  30.909  1.00  0.00     0.029 A 
ATOM     59  N   UNL A   1      41.634  29.437  32.025  1.00  0.00    -0.354 N 
ATOM     60  N   UNL A   1      41.503  31.425  34.194  1.00  0.00    -0.248 NA
ATOM     61  C   UNL A   1      42.317  32.286  36.207  1.00  0.00     0.031 C 
ATOM     62  C   UNL A   1      43.283  27.950  32.065  1.00  0.00     0.029 A 
ATOM     63  C   UNL A   1      42.741  29.026  32.749  1.00  0.00     0.049 A 
ATOM     64  H   UNL A   1      41.043  30.183  32.272  1.00  0.00     0.167 HD
ATOM     65  C   UNL A   1      42.620  30.697  34.581  1.00  0.00     0.074 A 
ATOM     66  C   UNL A   1      43.100  31.292  35.813  1.00  0.00     0.031 C 
ATOM     67  C   UNL A   1      43.200  29.633  33.973  1.00  0.00     0.037 A 
BRANCH  54  68
ATOM     68  C   UNL A   1      40.328  27.779  28.820  1.00  0.00     0.057 A 
ATOM     69  C   UNL A   1      41.022  27.949  27.614  1.00  0.00     0.134 A 
ATOM     70  C   UNL A   1      39.554  26.619  28.958  1.00  0.00     0.134 A 
ATOM     71  F   UNL A   1      41.773  29.043  27.411  1.00  0.00    -0.206 F 
ATOM     72  C   UNL A   1      40.923  27.022  26.574  1.00  0.00     0.040 A 
ATOM     73  C   UNL A   1      39.471  25.670  27.937  1.00  0.00     0.040 A 
ATOM     74  F   UNL A   1      38.869  26.387  30.087  1.00  0.00    -0.206 F 
ATOM     75  C   UNL A   1      40.150  25.874  26.738  1.00  0.00     0.006 A 
ENDBRANCH  54  68
BRANCH  55  76
ATOM     76  C   UNL A   1      40.256  34.370  36.339  1.00  0.00     0.057 A 
ATOM     77  C   UNL A   1      40.909  35.606  36.278  1.00  0.00     0.134 A 
ATOM     78  C   UNL A   1      39.554  34.069  37.513  1.00  0.00     0.134 A 
ATOM     79  F   UNL A   1      41.609  35.946  35.187  1.00  0.00    -0.206 F 
ATOM     80  C   UNL A   1      40.881  36.503  37.348  1.00  0.00     0.040 A 
ATOM     81  C   UNL A   1      39.497  34.965  38.581  1.00  0.00     0.040 A 
ATOM     82  F   UNL A   1      38.897  32.905  37.629  1.00  0.00    -0.206 F 
ATOM     83  C   UNL A   1      40.167  36.184  38.502  1.00  0.00     0.006 A 
ENDBRANCH  55  76
BRANCH  67  84
ATOM     84  C   UNL A   1      44.429  29.062  34.617  1.00  0.00     0.057 A 
ATOM     85  C   UNL A   1      45.711  29.533  34.309  1.00  0.00     0.134 A 
ATOM     86  C   UNL A   1      44.322  28.057  35.585  1.00  0.00     0.134 A 
ATOM     87  F   UNL A   1      45.881  30.487  33.381  1.00  0.00    -0.206 F 
ATOM     88  C   UNL A   1      46.847  29.008  34.927  1.00  0.00     0.040 A 
ATOM     89  C   UNL A   1      45.448  27.542  36.229  1.00  0.00     0.040 A 
ATOM     90  F   UNL A   1      43.122  27.567  35.932  1.00  0.00    -0.206 F 
ATOM     91  C   UNL A   1      46.716  28.014  35.895  1.00  0.00     0.006 A 
ENDBRANCH  67  84
ENDBRANCH  41  42
ENDBRANCH  33  36
ENDBRANCH  31  32
ENDBRANCH  30  31
ENDBRANCH   1  30
TORSDOF 15
ENDMDL
MODEL 2
REMARK VINA RESULT:     -12.4      0.584      6.090
REMARK SMILES NC(=O)c1cc(NC(=O)/C=C\C(=O)NCCCCNC(=O)c2ccc(-c3c4nc(c(-c5c(F)cccc5F)c5ccc([nH]5)c(-c5c(F)cccc5F)c5nc(c(-c6c(F)cccc6F)c6ccc3[nH]6)C=C5)C=C4)cc2)ccc1N1CCOCC1
REMARK SMILES IDX 16 1 15 2 14 3 12 4 13 5 11 7 10 8 8 9 7 10 9 12 6 13 4 14
REMARK SMILES IDX 5 15 78 16 77 17 76 18 2 19 1 20 3 23 79 24 80 25 84 26
REMARK SMILES IDX 81 27 83 28 82 29 17 30 18 31 19 32 20 33 21 35 22 36 23 37
REMARK SMILES IDX 75 38 24 39 74 40 25 41 26 42 27 43 68 44 28 45 73 46 67 47
REMARK SMILES IDX 69 48 29 49 72 50 66 51 65 52 30 54 56 55 39 56 55 57 40 58
REMARK SMILES IDX 43 59 54 60 70 61 41 62 42 63 53 65 71 66 44 67 31 68 32 69
REMARK SMILES IDX 37 70 33 71 34 72 36 73 38 74 35 75 57 76 58 77 63 78 59 79
REMARK SMILES IDX 60 80 62 81 64 82 61 83 45 84 46 85 51 86 47 87 48 88 50 89
REMARK SMILES IDX 52 90 49 91
REMARK H PARENT 14 6 7 11 1 21 1 22 19 34 69 53 43 64
REMARK Flexibility Score: inf
ROOT
ATOM      1  C   UNL A   1      31.169  31.018  25.818  1.00  0.00     0.023 C 
ENDROOT
BRANCH   1   2
ATOM      2  C   UNL A   1      32.067  29.994  26.503  1.00  0.00     0.116 C 
BRANCH   2   3
ATOM      3  N   UNL A   1      33.291  29.674  25.801  1.00  0.00    -0.353 N 
ATOM      4  C   UNL A   1      33.603  28.503  25.192  1.00  0.00     0.244 C 
ATOM      5  O   UNL A   1      34.272  28.510  24.164  1.00  0.00    -0.270 OA
ATOM      6  H   UNL A   1      33.970  30.385  25.761  1.00  0.00     0.163 HD
BRANCH   4   7
ATOM      7  C   UNL A   1      33.110  27.220  25.723  1.00  0.00     0.077 C 
ATOM      8  C   UNL A   1      32.696  26.146  25.034  1.00  0.00     0.077 C 
BRANCH   8   9
ATOM      9  C   UNL A   1      32.741  25.830  23.586  1.00  0.00     0.248 C 
ATOM     10  N   UNL A   1      32.150  26.585  22.625  1.00  0.00    -0.322 N 
ATOM     11  H   UNL A   1      32.526  26.448  21.726  1.00  0.00     0.170 HD
ATOM     12  O   UNL A   1      33.415  24.856  23.242  1.00  0.00    -0.270 OA
BRANCH  10  13
ATOM     13  C   UNL A   1      31.108  27.517  22.666  1.00  0.00     0.042 A 
ATOM     14  C   UNL A   1      28.821  28.193  23.121  1.00  0.00     0.064 A 
ATOM     15  C   UNL A   1      29.820  27.201  23.073  1.00  0.00     0.042 A 
ATOM     16  C   UNL A   1      29.075  29.513  22.708  1.00  0.00     0.050 A 
ATOM     17  C   UNL A   1      30.394  29.793  22.294  1.00  0.00     0.029 A 
ATOM     18  C   UNL A   1      31.386  28.814  22.247  1.00  0.00     0.028 A 
BRANCH  14  19
ATOM     19  C   UNL A   1      27.501  27.698  23.560  1.00  0.00     0.250 C 
ATOM     20  N   UNL A   1      27.486  26.401  23.996  1.00  0.00    -0.366 N 
ATOM     21  H   UNL A   1      26.643  25.996  24.306  1.00  0.00     0.159 HD
ATOM     22  H   UNL A   1      28.316  25.872  24.000  1.00  0.00     0.159 HD
ATOM     23  O   UNL A   1      26.496  28.390  23.579  1.00  0.00    -0.269 OA
ENDBRANCH  14  19
BRANCH  16  24
ATOM     24  N   UNL A   1      28.157  30.540  22.569  1.00  0.00    -0.366 N 
ATOM     25  C   UNL A   1      27.672  31.058  21.279  1.00  0.00     0.145 C 
ATOM     26  C   UNL A   1      28.093  31.523  23.662  1.00  0.00     0.145 C 
ATOM     27  C   UNL A   1      28.285  32.436  20.952  1.00  0.00     0.181 C 
ATOM     28  C   UNL A   1      28.839  32.789  23.227  1.00  0.00     0.181 C 
ATOM     29  O   UNL A   1      28.218  33.356  22.061  1.00  0.00    -0.378 OA
ENDBRANCH  16  24
ENDBRANCH  10  13
ENDBRANCH   8   9
ENDBRANCH   4   7
ENDBRANCH   2   3
ENDBRANCH   1   2
BRANCH   1  30
ATOM     30  C   UNL A   1      31.133  32.414  26.442  1.00  0.00     0.023 C 
BRANCH  30  31
ATOM     31  C   UNL A   1      32.398  32.838  27.173  1.00  0.00     0.116 C 
BRANCH  31  32
ATOM     32  N   UNL A   1      32.334  34.227  27.587  1.00  0.00    -0.352 N 
ATOM     33  C   UNL A   1      33.026  34.875  28.574  1.00  0.00     0.251 C 
ATOM     34  H   UNL A   1      31.697  34.785  27.084  1.00  0.00     0.163 HD
ATOM     35  O   UNL A   1      32.650  35.980  28.955  1.00  0.00    -0.269 OA
BRANCH  33  36
ATOM     36  C   UNL A   1      34.229  34.261  29.173  1.00  0.00     0.039 A 
ATOM     37  C   UNL A   1      35.473  34.510  28.587  1.00  0.00     0.014 A 
ATOM     38  C   UNL A   1      34.126  33.385  30.258  1.00  0.00     0.014 A 
ATOM     39  C   UNL A   1      36.616  33.891  29.097  1.00  0.00     0.010 A 
ATOM     40  C   UNL A   1      35.273  32.824  30.809  1.00  0.00     0.010 A 
ATOM     41  C   UNL A   1      36.524  33.051  30.216  1.00  0.00    -0.014 A 
BRANCH  41  42
ATOM     42  C   UNL A   1      37.721  32.362  30.756  1.00  0.00     0.031 A 
ATOM     43  C   UNL A   1      38.399  32.894  31.989  1.00  0.00     0.074 A 
ATOM     44  C   UNL A   1      38.228  31.301  30.103  1.00  0.00     0.049 A 
ATOM     45  N   UNL A   1      39.491  32.477  32.577  1.00  0.00    -0.248 NA
ATOM     46  C   UNL A   1      37.784  34.069  32.628  1.00  0.00     0.031 C 
ATOM     47  C   UNL A   1      37.684  30.729  28.869  1.00  0.00     0.029 A 
ATOM     48  N   UNL A   1      39.323  30.523  30.377  1.00  0.00    -0.354 N 
ATOM     49  C   UNL A   1      39.705  33.352  33.638  1.00  0.00     0.074 A 
ATOM     50  C   UNL A   1      38.660  34.350  33.581  1.00  0.00     0.031 C 
ATOM     51  C   UNL A   1      38.440  29.683  28.501  1.00  0.00     0.029 A 
ATOM     52  C   UNL A   1      39.539  29.531  29.451  1.00  0.00     0.049 A 
ATOM     53  H   UNL A   1      39.902  30.663  31.162  1.00  0.00     0.167 HD
ATOM     54  C   UNL A   1      40.673  33.312  34.584  1.00  0.00     0.037 A 
ATOM     55  C   UNL A   1      40.516  28.609  29.376  1.00  0.00     0.037 A 
ATOM     56  C   UNL A   1      41.690  32.295  34.649  1.00  0.00     0.049 A 
ATOM     57  C   UNL A   1      41.566  28.571  30.450  1.00  0.00     0.074 A 
ATOM     58  C   UNL A   1      42.672  32.116  35.606  1.00  0.00     0.029 A 
ATOM     59  N   UNL A   1      41.855  31.284  33.712  1.00  0.00    -0.354 N 
ATOM     60  N   UNL A   1      41.714  29.356  31.490  1.00  0.00    -0.248 NA
ATOM     61  C   UNL A   1      42.582  27.515  30.345  1.00  0.00     0.031 C 
ATOM     62  C   UNL A   1      43.459  31.025  35.225  1.00  0.00     0.029 A 
ATOM     63  C   UNL A   1      42.937  30.493  34.057  1.00  0.00     0.049 A 
ATOM     64  H   UNL A   1      41.286  31.150  32.921  1.00  0.00     0.167 HD
ATOM     65  C   UNL A   1      42.822  28.877  32.175  1.00  0.00     0.074 A 
ATOM     66  C   UNL A   1      43.298  27.721  31.442  1.00  0.00     0.031 C 
ATOM     67  C   UNL A   1      43.393  29.347  33.311  1.00  0.00     0.037 A 
BRANCH  54  68
ATOM     68  C   UNL A   1      40.676  34.399  35.619  1.00  0.00     0.057 A 
ATOM     69  C   UNL A   1      39.963  34.285  36.820  1.00  0.00     0.134 A 
ATOM     70  C   UNL A   1      41.422  35.570  35.424  1.00  0.00     0.134 A 
ATOM     71  F   UNL A   1      39.220  33.195  37.068  1.00  0.00    -0.206 F 
ATOM     72  C   UNL A   1      39.963  35.306  37.773  1.00  0.00     0.040 A 
ATOM     73  C   UNL A   1      41.454  36.586  36.381  1.00  0.00     0.040 A 
ATOM     74  F   UNL A   1      42.134  35.744  34.300  1.00  0.00    -0.206 F 
ATOM     75  C   UNL A   1      40.716  36.459  37.556  1.00  0.00     0.006 A 
ENDBRANCH  54  68
BRANCH  55  76
ATOM     76  C   UNL A   1      40.525  27.634  28.257  1.00  0.00     0.057 A 
ATOM     77  C   UNL A   1      41.204  27.909  27.065  1.00  0.00     0.134 A 
ATOM     78  C   UNL A   1      39.870  26.401  28.356  1.00  0.00     0.134 A 
ATOM     79  F   UNL A   1      41.839  29.079  26.904  1.00  0.00    -0.206 F 
ATOM     80  C   UNL A   1      41.219  27.001  26.004  1.00  0.00     0.040 A 
ATOM     81  C   UNL A   1      39.896  25.473  27.315  1.00  0.00     0.040 A 
ATOM     82  F   UNL A   1      39.212  26.072  29.478  1.00  0.00    -0.206 F 
ATOM     83  C   UNL A   1      40.567  25.775  26.131  1.00  0.00     0.006 A 
ENDBRANCH  55  76
BRANCH  67  84
ATOM     84  C   UNL A   1      44.581  28.597  33.841  1.00  0.00     0.057 A 
ATOM     85  C   UNL A   1      45.891  28.956  33.503  1.00  0.00     0.134 A 
ATOM     86  C   UNL A   1      44.409  27.531  34.731  1.00  0.00     0.134 A 
ATOM     87  F   UNL A   1      46.123  29.962  32.646  1.00  0.00    -0.206 F 
ATOM     88  C   UNL A   1      46.990  28.265  34.016  1.00  0.00     0.040 A 
ATOM     89  C   UNL A   1      45.500  26.849  35.271  1.00  0.00     0.040 A 
ATOM     90  F   UNL A   1      43.179  27.142  35.102  1.00  0.00    -0.206 F 
ATOM     91  C   UNL A   1      46.796  27.212  34.908  1.00  0.00     0.006 A 
ENDBRANCH  67  84
ENDBRANCH  41  42
ENDBRANCH  33  36
ENDBRANCH  31  32
ENDBRANCH  30  31
ENDBRANCH   1  30
TORSDOF 15
ENDMDL
MODEL 3
REMARK VINA RESULT:     -11.9      4.234      8.956
REMARK SMILES NC(=O)c1cc(NC(=O)/C=C\C(=O)NCCCCNC(=O)c2ccc(-c3c4nc(c(-c5c(F)cccc5F)c5ccc([nH]5)c(-c5c(F)cccc5F)c5nc(c(-c6c(F)cccc6F)c6ccc3[nH]6)C=C5)C=C4)cc2)ccc1N1CCOCC1
REMARK SMILES IDX 16 1 15 2 14 3 12 4 13 5 11 7 10 8 8 9 7 10 9 12 6 13 4 14
REMARK SMILES IDX 5 15 78 16 77 17 76 18 2 19 1 20 3 23 79 24 80 25 84 26
REMARK SMILES IDX 81 27 83 28 82 29 17 30 18 31 19 32 20 33 21 35 22 36 23 37
REMARK SMILES IDX 75 38 24 39 74 40 25 41 26 42 27 43 68 44 28 45 73 46 67 47
REMARK SMILES IDX 69 48 29 49 72 50 66 51 65 52 30 54 56 55 39 56 55 57 40 58
REMARK SMILES IDX 43 59 54 60 70 61 41 62 42 63 53 65 71 66 44 67 31 68 32 69
REMARK SMILES IDX 37 70 33 71 34 72 36 73 38 74 35 75 57 76 58 77 63 78 59 79
REMARK SMILES IDX 60 80 62 81 64 82 61 83 45 84 46 85 51 86 47 87 48 88 50 89
REMARK SMILES IDX 52 90 49 91
REMARK H PARENT 14 6 7 11 1 21 1 22 19 34 69 53 43 64
REMARK Flexibility Score: inf
ROOT
ATOM      1  C   UNL A   1      36.023  20.696  25.235  1.00  0.00     0.023 C 
ENDROOT
BRANCH   1   2
ATOM      2  C   UNL A   1      35.703  21.896  24.351  1.00  0.00     0.116 C 
BRANCH   2   3
ATOM      3  N   UNL A   1      35.449  23.134  25.053  1.00  0.00    -0.353 N 
ATOM      4  C   UNL A   1      34.298  23.851  25.056  1.00  0.00     0.244 C 
ATOM      5  O   UNL A   1      33.953  24.447  26.072  1.00  0.00    -0.270 OA
ATOM      6  H   UNL A   1      36.193  23.494  25.587  1.00  0.00     0.163 HD
BRANCH   4   7
ATOM      7  C   UNL A   1      33.428  23.890  23.868  1.00  0.00     0.077 C 
ATOM      8  C   UNL A   1      32.088  23.852  23.823  1.00  0.00     0.077 C 
BRANCH   8   9
ATOM      9  C   UNL A   1      31.068  23.919  24.898  1.00  0.00     0.248 C 
ATOM     10  N   UNL A   1      30.170  24.928  25.031  1.00  0.00    -0.322 N 
ATOM     11  H   UNL A   1      29.377  24.687  25.561  1.00  0.00     0.170 HD
ATOM     12  O   UNL A   1      31.001  22.962  25.673  1.00  0.00    -0.270 OA
BRANCH  10  13
ATOM     13  C   UNL A   1      30.155  26.245  24.561  1.00  0.00     0.042 A 
ATOM     14  C   UNL A   1      31.097  28.469  24.314  1.00  0.00     0.064 A 
ATOM     15  C   UNL A   1      31.154  27.165  24.842  1.00  0.00     0.042 A 
ATOM     16  C   UNL A   1      30.007  28.900  23.536  1.00  0.00     0.050 A 
ATOM     17  C   UNL A   1      29.008  27.939  23.278  1.00  0.00     0.029 A 
ATOM     18  C   UNL A   1      29.062  26.646  23.798  1.00  0.00     0.028 A 
BRANCH  14  19
ATOM     19  C   UNL A   1      32.225  29.333  24.715  1.00  0.00     0.250 C 
ATOM     20  N   UNL A   1      33.259  29.387  23.819  1.00  0.00    -0.366 N 
ATOM     21  H   UNL A   1      34.050  29.942  24.013  1.00  0.00     0.159 HD
ATOM     22  H   UNL A   1      33.212  28.874  22.981  1.00  0.00     0.159 HD
ATOM     23  O   UNL A   1      32.238  29.988  25.744  1.00  0.00    -0.269 OA
ENDBRANCH  14  19
BRANCH  16  24
ATOM     24  N   UNL A   1      29.757  30.183  23.080  1.00  0.00    -0.366 N 
ATOM     25  C   UNL A   1      29.097  31.236  23.869  1.00  0.00     0.145 C 
ATOM     26  C   UNL A   1      29.605  30.351  21.626  1.00  0.00     0.145 C 
ATOM     27  C   UNL A   1      27.650  31.484  23.391  1.00  0.00     0.181 C 
ATOM     28  C   UNL A   1      28.111  30.471  21.300  1.00  0.00     0.181 C 
ATOM     29  O   UNL A   1      27.550  31.619  21.957  1.00  0.00    -0.378 OA
ENDBRANCH  16  24
ENDBRANCH  10  13
ENDBRANCH   8   9
ENDBRANCH   4   7
ENDBRANCH   2   3
ENDBRANCH   1   2
BRANCH   1  30
ATOM     30  C   UNL A   1      37.307  19.933  24.907  1.00  0.00     0.023 C 
BRANCH  30  31
ATOM     31  C   UNL A   1      38.589  20.538  25.463  1.00  0.00     0.116 C 
BRANCH  31  32
ATOM     32  N   UNL A   1      39.614  19.529  25.654  1.00  0.00    -0.352 N 
ATOM     33  C   UNL A   1      40.929  19.678  26.002  1.00  0.00     0.251 C 
ATOM     34  H   UNL A   1      39.319  18.600  25.514  1.00  0.00     0.163 HD
ATOM     35  O   UNL A   1      41.707  18.739  25.857  1.00  0.00    -0.269 OA
BRANCH  33  36
ATOM     36  C   UNL A   1      41.417  20.957  26.560  1.00  0.00     0.039 A 
ATOM     37  C   UNL A   1      41.288  21.182  27.933  1.00  0.00     0.014 A 
ATOM     38  C   UNL A   1      41.927  21.958  25.728  1.00  0.00     0.014 A 
ATOM     39  C   UNL A   1      41.683  22.407  28.474  1.00  0.00     0.010 A 
ATOM     40  C   UNL A   1      42.386  23.151  26.277  1.00  0.00     0.010 A 
ATOM     41  C   UNL A   1      42.242  23.396  27.650  1.00  0.00    -0.014 A 
BRANCH  41  42
ATOM     42  C   UNL A   1      42.643  24.713  28.201  1.00  0.00     0.031 A 
ATOM     43  C   UNL A   1      41.607  25.782  28.413  1.00  0.00     0.074 A 
ATOM     44  C   UNL A   1      43.941  24.962  28.450  1.00  0.00     0.049 A 
ATOM     45  N   UNL A   1      41.763  27.017  28.819  1.00  0.00    -0.248 NA
ATOM     46  C   UNL A   1      40.214  25.427  28.097  1.00  0.00     0.031 C 
ATOM     47  C   UNL A   1      45.039  24.018  28.234  1.00  0.00     0.029 A 
ATOM     48  N   UNL A   1      44.559  26.090  28.925  1.00  0.00    -0.354 N 
ATOM     49  C   UNL A   1      40.496  27.588  28.785  1.00  0.00     0.074 A 
ATOM     50  C   UNL A   1      39.592  26.583  28.270  1.00  0.00     0.031 C 
ATOM     51  C   UNL A   1      46.195  24.601  28.589  1.00  0.00     0.029 A 
ATOM     52  C   UNL A   1      45.924  25.968  29.024  1.00  0.00     0.049 A 
ATOM     53  H   UNL A   1      44.072  26.910  29.170  1.00  0.00     0.167 HD
ATOM     54  C   UNL A   1      40.118  28.831  29.167  1.00  0.00     0.037 A 
ATOM     55  C   UNL A   1      46.851  26.862  29.417  1.00  0.00     0.037 A 
ATOM     56  C   UNL A   1      41.022  29.813  29.707  1.00  0.00     0.049 A 
ATOM     57  C   UNL A   1      46.405  28.228  29.857  1.00  0.00     0.074 A 
ATOM     58  C   UNL A   1      40.734  31.074  30.196  1.00  0.00     0.029 A 
ATOM     59  N   UNL A   1      42.393  29.641  29.826  1.00  0.00    -0.354 N 
ATOM     60  N   UNL A   1      45.195  28.731  29.892  1.00  0.00    -0.248 NA
ATOM     61  C   UNL A   1      47.452  29.149  30.320  1.00  0.00     0.031 C 
ATOM     62  C   UNL A   1      41.937  31.683  30.568  1.00  0.00     0.029 A 
ATOM     63  C   UNL A   1      42.969  30.782  30.359  1.00  0.00     0.049 A 
ATOM     64  H   UNL A   1      42.884  28.827  29.570  1.00  0.00     0.167 HD
ATOM     65  C   UNL A   1      45.330  30.015  30.402  1.00  0.00     0.074 A 
ATOM     66  C   UNL A   1      46.740  30.208  30.678  1.00  0.00     0.031 C 
ATOM     67  C   UNL A   1      44.375  30.951  30.625  1.00  0.00     0.037 A 
BRANCH  54  68
ATOM     68  C   UNL A   1      38.670  29.195  29.012  1.00  0.00     0.057 A 
ATOM     69  C   UNL A   1      38.137  29.616  27.786  1.00  0.00     0.134 A 
ATOM     70  C   UNL A   1      37.789  29.102  30.097  1.00  0.00     0.134 A 
ATOM     71  F   UNL A   1      38.926  29.737  26.707  1.00  0.00    -0.206 F 
ATOM     72  C   UNL A   1      36.791  29.963  27.653  1.00  0.00     0.040 A 
ATOM     73  C   UNL A   1      36.435  29.418  29.970  1.00  0.00     0.040 A 
ATOM     74  F   UNL A   1      38.229  28.700  31.299  1.00  0.00    -0.206 F 
ATOM     75  C   UNL A   1      35.934  29.858  28.747  1.00  0.00     0.006 A 
ENDBRANCH  54  68
BRANCH  55  76
ATOM     76  C   UNL A   1      48.284  26.479  29.433  1.00  0.00     0.057 A 
ATOM     77  C   UNL A   1      48.851  25.846  30.544  1.00  0.00     0.134 A 
ATOM     78  C   UNL A   1      49.118  26.723  28.334  1.00  0.00     0.134 A 
ATOM     79  F   UNL A   1      48.108  25.599  31.632  1.00  0.00    -0.206 F 
ATOM     80  C   UNL A   1      50.199  25.483  30.571  1.00  0.00     0.040 A 
ATOM     81  C   UNL A   1      50.461  26.343  28.337  1.00  0.00     0.040 A 
ATOM     82  F   UNL A   1      48.631  27.315  27.233  1.00  0.00    -0.206 F 
ATOM     83  C   UNL A   1      51.006  25.727  29.461  1.00  0.00     0.006 A 
ENDBRANCH  55  76
BRANCH  67  84
ATOM     84  C   UNL A   1      44.821  32.257  31.217  1.00  0.00     0.057 A 
ATOM     85  C   UNL A   1      44.904  32.449  32.601  1.00  0.00     0.134 A 
ATOM     86  C   UNL A   1      45.207  33.317  30.389  1.00  0.00     0.134 A 
ATOM     87  F   UNL A   1      44.536  31.476  33.448  1.00  0.00    -0.206 F 
ATOM     88  C   UNL A   1      45.337  33.661  33.142  1.00  0.00     0.040 A 
ATOM     89  C   UNL A   1      45.667  34.524  30.918  1.00  0.00     0.040 A 
ATOM     90  F   UNL A   1      45.158  33.195  29.054  1.00  0.00    -0.206 F 
ATOM     91  C   UNL A   1      45.727  34.700  32.299  1.00  0.00     0.006 A 
ENDBRANCH  67  84
ENDBRANCH  41  42
ENDBRANCH  33  36
ENDBRANCH  31  32
ENDBRANCH  30  31
ENDBRANCH   1  30
TORSDOF 15
ENDMDL
