MODEL 1
REMARK VINA RESULT:     -11.8      0.000      0.000
REMARK SMILES CCN(Cc1ccccn1)c1nc(C)cc(C)c1C(=O)NCCCCNC(=O)c1ccc(-c2c3nc(c(-c4c(F)cccc4F)c4ccc([nH]4)c(-c4c(F)cccc4F)c4nc(c(-c5c(F)cccc5F)c5ccc2[nH]5)C=C4)C=C3)cc1
REMARK SMILES IDX 23 1 22 2 21 3 19 4 20 5 18 7 11 8 12 9 13 10 16 11 14 12
REMARK SMILES IDX 15 13 17 14 3 15 2 16 1 17 4 18 5 19 6 20 10 21 7 22 9 23
REMARK SMILES IDX 8 24 24 25 25 26 26 27 27 28 28 30 29 31 30 32 82 33 31 34
REMARK SMILES IDX 81 35 32 36 33 37 34 38 75 39 35 40 80 41 74 42 76 43 36 44
REMARK SMILES IDX 79 45 73 46 72 47 37 49 63 50 46 51 62 52 47 53 50 54 61 55
REMARK SMILES IDX 77 56 48 57 49 58 60 60 78 61 51 62 38 63 39 64 44 65 40 66
REMARK SMILES IDX 41 67 43 68 45 69 42 70 64 71 65 72 70 73 66 74 67 75 69 76
REMARK SMILES IDX 71 77 68 78 52 79 53 80 58 81 54 82 55 83 57 84 59 85 56 86
REMARK H PARENT 21 6 26 29 76 48 50 59
REMARK Flexibility Score: inf
ROOT
ATOM      1  C   UNL A   1      31.810  30.517  26.614  1.00  0.00     0.023 C 
ENDROOT
BRANCH   1   2
ATOM      2  C   UNL A   1      31.386  29.946  25.265  1.00  0.00     0.116 C 
BRANCH   2   3
ATOM      3  N   UNL A   1      32.421  29.852  24.255  1.00  0.00    -0.352 N 
ATOM      4  C   UNL A   1      33.071  28.731  23.767  1.00  0.00     0.255 C 
ATOM      5  O   UNL A   1      33.708  28.846  22.721  1.00  0.00    -0.269 OA
ATOM      6  H   UNL A   1      32.702  30.708  23.859  1.00  0.00     0.163 HD
BRANCH   4   7
ATOM      7  C   UNL A   1      33.007  27.419  24.466  1.00  0.00     0.085 A 
ATOM      8  C   UNL A   1      32.116  26.431  23.998  1.00  0.00     0.142 A 
ATOM      9  N   UNL A   1      32.011  25.241  24.637  1.00  0.00    -0.235 NA
ATOM     10  C   UNL A   1      32.733  24.980  25.739  1.00  0.00     0.040 A 
ATOM     11  C   UNL A   1      33.707  27.174  25.672  1.00  0.00    -0.033 A 
ATOM     12  C   UNL A   1      32.477  23.662  26.401  1.00  0.00     0.067 C 
ATOM     13  C   UNL A   1      33.587  25.917  26.283  1.00  0.00     0.028 A 
ATOM     14  C   UNL A   1      34.563  28.180  26.385  1.00  0.00     0.045 C 
BRANCH   8  15
ATOM     15  N   UNL A   1      31.262  26.600  22.911  1.00  0.00    -0.350 N 
BRANCH  15  16
ATOM     16  C   UNL A   1      31.482  25.745  21.748  1.00  0.00     0.115 C 
ATOM     17  C   UNL A   1      32.900  25.912  21.223  1.00  0.00     0.027 C 
ENDBRANCH  15  16
BRANCH  15  18
ATOM     18  C   UNL A   1      29.858  26.922  23.239  1.00  0.00     0.174 C 
BRANCH  18  19
ATOM     19  C   UNL A   1      29.339  28.291  22.788  1.00  0.00     0.060 A 
ATOM     20  C   UNL A   1      28.076  28.712  23.220  1.00  0.00     0.026 A 
ATOM     21  N   UNL A   1      30.118  29.072  21.989  1.00  0.00    -0.259 NA
ATOM     22  C   UNL A   1      27.565  29.923  22.757  1.00  0.00     0.004 A 
ATOM     23  C   UNL A   1      29.577  30.221  21.525  1.00  0.00     0.111 A 
ATOM     24  C   UNL A   1      28.319  30.683  21.874  1.00  0.00     0.020 A 
ENDBRANCH  18  19
ENDBRANCH  15  18
ENDBRANCH   8  15
ENDBRANCH   4   7
ENDBRANCH   2   3
ENDBRANCH   1   2
BRANCH   1  25
ATOM     25  C   UNL A   1      31.551  32.001  26.869  1.00  0.00     0.023 C 
BRANCH  25  26
ATOM     26  C   UNL A   1      32.726  32.863  27.316  1.00  0.00     0.116 C 
BRANCH  26  27
ATOM     27  N   UNL A   1      32.384  34.231  27.674  1.00  0.00    -0.352 N 
ATOM     28  C   UNL A   1      32.997  35.090  28.567  1.00  0.00     0.251 C 
ATOM     29  H   UNL A   1      31.599  34.602  27.210  1.00  0.00     0.163 HD
ATOM     30  O   UNL A   1      32.560  36.216  28.742  1.00  0.00    -0.269 OA
BRANCH  28  31
ATOM     31  C   UNL A   1      34.152  34.613  29.360  1.00  0.00     0.039 A 
ATOM     32  C   UNL A   1      33.923  34.094  30.638  1.00  0.00     0.014 A 
ATOM     33  C   UNL A   1      35.438  34.606  28.819  1.00  0.00     0.014 A 
ATOM     34  C   UNL A   1      34.961  33.453  31.321  1.00  0.00     0.010 A 
ATOM     35  C   UNL A   1      36.446  33.895  29.463  1.00  0.00     0.010 A 
ATOM     36  C   UNL A   1      36.213  33.291  30.710  1.00  0.00    -0.014 A 
BRANCH  36  37
ATOM     37  C   UNL A   1      37.300  32.486  31.330  1.00  0.00     0.031 A 
ATOM     38  C   UNL A   1      37.873  32.910  32.654  1.00  0.00     0.074 A 
ATOM     39  C   UNL A   1      37.853  31.457  30.656  1.00  0.00     0.049 A 
ATOM     40  N   UNL A   1      38.949  32.485  33.266  1.00  0.00    -0.248 NA
ATOM     41  C   UNL A   1      37.163  33.986  33.365  1.00  0.00     0.031 C 
ATOM     42  C   UNL A   1      37.421  30.966  29.346  1.00  0.00     0.029 A 
ATOM     43  N   UNL A   1      38.921  30.653  30.972  1.00  0.00    -0.354 N 
ATOM     44  C   UNL A   1      39.069  33.273  34.405  1.00  0.00     0.074 A 
ATOM     45  C   UNL A   1      37.976  34.219  34.386  1.00  0.00     0.031 C 
ATOM     46  C   UNL A   1      38.207  29.941  28.977  1.00  0.00     0.029 A 
ATOM     47  C   UNL A   1      39.228  29.732  29.998  1.00  0.00     0.049 A 
ATOM     48  H   UNL A   1      39.421  30.729  31.816  1.00  0.00     0.167 HD
ATOM     49  C   UNL A   1      39.999  33.202  35.385  1.00  0.00     0.037 A 
ATOM     50  C   UNL A   1      40.231  28.836  29.927  1.00  0.00     0.037 A 
ATOM     51  C   UNL A   1      41.046  32.218  35.439  1.00  0.00     0.049 A 
ATOM     52  C   UNL A   1      41.233  28.758  31.048  1.00  0.00     0.074 A 
ATOM     53  C   UNL A   1      41.987  32.015  36.434  1.00  0.00     0.029 A 
ATOM     54  N   UNL A   1      41.280  31.262  34.464  1.00  0.00    -0.354 N 
ATOM     55  N   UNL A   1      41.302  29.474  32.144  1.00  0.00    -0.248 NA
ATOM     56  C   UNL A   1      42.297  27.750  30.924  1.00  0.00     0.031 C 
ATOM     57  C   UNL A   1      42.809  30.952  36.047  1.00  0.00     0.029 A 
ATOM     58  C   UNL A   1      42.355  30.472  34.830  1.00  0.00     0.049 A 
ATOM     59  H   UNL A   1      40.759  31.161  33.633  1.00  0.00     0.167 HD
ATOM     60  C   UNL A   1      42.385  28.975  32.857  1.00  0.00     0.074 A 
ATOM     61  C   UNL A   1      42.945  27.897  32.071  1.00  0.00     0.031 C 
ATOM     62  C   UNL A   1      42.872  29.374  34.056  1.00  0.00     0.037 A 
BRANCH  49  63
ATOM     63  C   UNL A   1      39.924  34.212  36.491  1.00  0.00     0.057 A 
ATOM     64  C   UNL A   1      40.542  35.463  36.390  1.00  0.00     0.134 A 
ATOM     65  C   UNL A   1      39.179  33.947  37.647  1.00  0.00     0.134 A 
ATOM     66  F   UNL A   1      41.279  35.772  35.313  1.00  0.00    -0.206 F 
ATOM     67  C   UNL A   1      40.439  36.411  37.409  1.00  0.00     0.040 A 
ATOM     68  C   UNL A   1      39.048  34.896  38.662  1.00  0.00     0.040 A 
ATOM     69  F   UNL A   1      38.556  32.769  37.803  1.00  0.00    -0.206 F 
ATOM     70  C   UNL A   1      39.683  36.131  38.546  1.00  0.00     0.006 A 
ENDBRANCH  49  63
BRANCH  50  71
ATOM     71  C   UNL A   1      40.347  27.921  28.762  1.00  0.00     0.057 A 
ATOM     72  C   UNL A   1      41.084  28.290  27.631  1.00  0.00     0.134 A 
ATOM     73  C   UNL A   1      39.693  26.684  28.730  1.00  0.00     0.134 A 
ATOM     74  F   UNL A   1      41.715  29.473  27.594  1.00  0.00    -0.206 F 
ATOM     75  C   UNL A   1      41.145  27.476  26.498  1.00  0.00     0.040 A 
ATOM     76  C   UNL A   1      39.764  25.849  27.612  1.00  0.00     0.040 A 
ATOM     77  F   UNL A   1      38.974  26.269  29.783  1.00  0.00    -0.206 F 
ATOM     78  C   UNL A   1      40.483  26.250  26.488  1.00  0.00     0.006 A 
ENDBRANCH  50  71
BRANCH  62  79
ATOM     79  C   UNL A   1      44.019  28.602  34.632  1.00  0.00     0.057 A 
ATOM     80  C   UNL A   1      43.825  27.439  35.384  1.00  0.00     0.134 A 
ATOM     81  C   UNL A   1      45.337  28.994  34.365  1.00  0.00     0.134 A 
ATOM     82  F   UNL A   1      42.586  27.020  35.683  1.00  0.00    -0.206 F 
ATOM     83  C   UNL A   1      44.906  26.694  35.860  1.00  0.00     0.040 A 
ATOM     84  C   UNL A   1      46.425  28.246  34.816  1.00  0.00     0.040 A 
ATOM     85  F   UNL A   1      45.587  30.097  33.642  1.00  0.00    -0.206 F 
ATOM     86  C   UNL A   1      46.210  27.093  35.568  1.00  0.00     0.006 A 
ENDBRANCH  62  79
ENDBRANCH  36  37
ENDBRANCH  28  31
ENDBRANCH  26  27
ENDBRANCH  25  26
ENDBRANCH   1  25
TORSDOF 15
ENDMDL
MODEL 2
REMARK VINA RESULT:     -11.7      4.376      9.249
REMARK SMILES CCN(Cc1ccccn1)c1nc(C)cc(C)c1C(=O)NCCCCNC(=O)c1ccc(-c2c3nc(c(-c4c(F)cccc4F)c4ccc([nH]4)c(-c4c(F)cccc4F)c4nc(c(-c5c(F)cccc5F)c5ccc2[nH]5)C=C4)C=C3)cc1
REMARK SMILES IDX 23 1 22 2 21 3 19 4 20 5 18 7 11 8 12 9 13 10 16 11 14 12
REMARK SMILES IDX 15 13 17 14 3 15 2 16 1 17 4 18 5 19 6 20 10 21 7 22 9 23
REMARK SMILES IDX 8 24 24 25 25 26 26 27 27 28 28 30 29 31 30 32 82 33 31 34
REMARK SMILES IDX 81 35 32 36 33 37 34 38 75 39 35 40 80 41 74 42 76 43 36 44
REMARK SMILES IDX 79 45 73 46 72 47 37 49 63 50 46 51 62 52 47 53 50 54 61 55
REMARK SMILES IDX 77 56 48 57 49 58 60 60 78 61 51 62 38 63 39 64 44 65 40 66
REMARK SMILES IDX 41 67 43 68 45 69 42 70 64 71 65 72 70 73 66 74 67 75 69 76
REMARK SMILES IDX 71 77 68 78 52 79 53 80 58 81 54 82 55 83 57 84 59 85 56 86
REMARK H PARENT 21 6 26 29 76 48 50 59
REMARK Flexibility Score: inf
ROOT
ATOM      1  C   UNL A   1      36.300  21.263  25.364  1.00  0.00     0.023 C 
ENDROOT
BRANCH   1   2
ATOM      2  C   UNL A   1      36.064  22.669  24.823  1.00  0.00     0.116 C 
BRANCH   2   3
ATOM      3  N   UNL A   1      35.510  22.758  23.488  1.00  0.00    -0.352 N 
ATOM      4  C   UNL A   1      34.210  23.023  23.093  1.00  0.00     0.255 C 
ATOM      5  O   UNL A   1      34.017  23.329  21.916  1.00  0.00    -0.269 OA
ATOM      6  H   UNL A   1      36.150  22.607  22.755  1.00  0.00     0.163 HD
BRANCH   4   7
ATOM      7  C   UNL A   1      33.070  22.955  24.047  1.00  0.00     0.085 A 
ATOM      8  C   UNL A   1      32.612  24.140  24.660  1.00  0.00     0.142 A 
ATOM      9  N   UNL A   1      31.600  24.101  25.560  1.00  0.00    -0.235 NA
ATOM     10  C   UNL A   1      31.022  22.939  25.905  1.00  0.00     0.040 A 
ATOM     11  C   UNL A   1      32.516  21.723  24.470  1.00  0.00    -0.033 A 
ATOM     12  C   UNL A   1      29.967  23.012  26.963  1.00  0.00     0.067 C 
ATOM     13  C   UNL A   1      31.451  21.736  25.383  1.00  0.00     0.028 A 
ATOM     14  C   UNL A   1      33.003  20.371  24.036  1.00  0.00     0.045 C 
BRANCH   8  15
ATOM     15  N   UNL A   1      33.169  25.398  24.444  1.00  0.00    -0.350 N 
BRANCH  15  16
ATOM     16  C   UNL A   1      32.460  26.297  23.539  1.00  0.00     0.115 C 
ATOM     17  C   UNL A   1      33.379  26.762  22.420  1.00  0.00     0.027 C 
ENDBRANCH  15  16
BRANCH  15  18
ATOM     18  C   UNL A   1      33.829  26.019  25.611  1.00  0.00     0.174 C 
BRANCH  18  19
ATOM     19  C   UNL A   1      33.218  27.322  26.138  1.00  0.00     0.060 A 
ATOM     20  C   UNL A   1      33.838  28.536  25.822  1.00  0.00     0.026 A 
ATOM     21  N   UNL A   1      32.083  27.274  26.889  1.00  0.00    -0.259 NA
ATOM     22  C   UNL A   1      33.333  29.720  26.355  1.00  0.00     0.004 A 
ATOM     23  C   UNL A   1      31.642  28.434  27.424  1.00  0.00     0.111 A 
ATOM     24  C   UNL A   1      32.227  29.668  27.192  1.00  0.00     0.020 A 
ENDBRANCH  18  19
ENDBRANCH  15  18
ENDBRANCH   8  15
ENDBRANCH   4   7
ENDBRANCH   2   3
ENDBRANCH   1   2
BRANCH   1  25
ATOM     25  C   UNL A   1      37.572  20.539  24.928  1.00  0.00     0.023 C 
BRANCH  25  26
ATOM     26  C   UNL A   1      38.839  20.769  25.743  1.00  0.00     0.116 C 
BRANCH  26  27
ATOM     27  N   UNL A   1      39.819  19.695  25.675  1.00  0.00    -0.352 N 
ATOM     28  C   UNL A   1      41.147  19.686  26.058  1.00  0.00     0.251 C 
ATOM     29  H   UNL A   1      39.485  18.848  25.302  1.00  0.00     0.163 HD
ATOM     30  O   UNL A   1      41.824  18.680  25.920  1.00  0.00    -0.269 OA
BRANCH  28  31
ATOM     31  C   UNL A   1      41.764  20.926  26.580  1.00  0.00     0.039 A 
ATOM     32  C   UNL A   1      42.324  21.832  25.674  1.00  0.00     0.014 A 
ATOM     33  C   UNL A   1      41.721  21.230  27.940  1.00  0.00     0.014 A 
ATOM     34  C   UNL A   1      42.726  23.095  26.116  1.00  0.00     0.010 A 
ATOM     35  C   UNL A   1      42.043  22.516  28.364  1.00  0.00     0.010 A 
ATOM     36  C   UNL A   1      42.527  23.470  27.453  1.00  0.00    -0.014 A 
BRANCH  36  37
ATOM     37  C   UNL A   1      42.796  24.851  27.938  1.00  0.00     0.031 A 
ATOM     38  C   UNL A   1      44.180  25.219  28.397  1.00  0.00     0.074 A 
ATOM     39  C   UNL A   1      41.783  25.730  28.083  1.00  0.00     0.049 A 
ATOM     40  N   UNL A   1      44.583  26.284  29.043  1.00  0.00    -0.248 NA
ATOM     41  C   UNL A   1      45.245  24.239  28.128  1.00  0.00     0.031 C 
ATOM     42  C   UNL A   1      40.386  25.488  27.716  1.00  0.00     0.029 A 
ATOM     43  N   UNL A   1      41.770  27.000  28.606  1.00  0.00    -0.354 N 
ATOM     44  C   UNL A   1      45.934  26.078  29.299  1.00  0.00     0.074 A 
ATOM     45  C   UNL A   1      46.275  24.778  28.765  1.00  0.00     0.031 C 
ATOM     46  C   UNL A   1      39.656  26.577  28.014  1.00  0.00     0.029 A 
ATOM     47  C   UNL A   1      40.520  27.574  28.636  1.00  0.00     0.049 A 
ATOM     48  H   UNL A   1      42.579  27.457  28.929  1.00  0.00     0.167 HD
ATOM     49  C   UNL A   1      46.812  26.906  29.910  1.00  0.00     0.037 A 
ATOM     50  C   UNL A   1      40.115  28.761  29.129  1.00  0.00     0.037 A 
ATOM     51  C   UNL A   1      46.489  28.226  30.380  1.00  0.00     0.049 A 
ATOM     52  C   UNL A   1      41.120  29.675  29.775  1.00  0.00     0.074 A 
ATOM     53  C   UNL A   1      47.331  29.171  30.940  1.00  0.00     0.029 A 
ATOM     54  N   UNL A   1      45.225  28.792  30.331  1.00  0.00    -0.354 N 
ATOM     55  N   UNL A   1      42.404  29.489  29.962  1.00  0.00    -0.248 NA
ATOM     56  C   UNL A   1      40.623  30.963  30.281  1.00  0.00     0.031 C 
ATOM     57  C   UNL A   1      46.571  30.301  31.255  1.00  0.00     0.029 A 
ATOM     58  C   UNL A   1      45.264  30.071  30.857  1.00  0.00     0.049 A 
ATOM     59  H   UNL A   1      44.420  28.350  29.975  1.00  0.00     0.167 HD
ATOM     60  C   UNL A   1      42.874  30.649  30.563  1.00  0.00     0.074 A 
ATOM     61  C   UNL A   1      41.738  31.535  30.713  1.00  0.00     0.031 C 
ATOM     62  C   UNL A   1      44.133  30.955  30.957  1.00  0.00     0.037 A 
BRANCH  49  63
ATOM     63  C   UNL A   1      48.216  26.415  30.100  1.00  0.00     0.057 A 
ATOM     64  C   UNL A   1      48.605  25.717  31.249  1.00  0.00     0.134 A 
ATOM     65  C   UNL A   1      49.175  26.597  29.095  1.00  0.00     0.134 A 
ATOM     66  F   UNL A   1      47.734  25.521  32.251  1.00  0.00    -0.206 F 
ATOM     67  C   UNL A   1      49.904  25.233  31.402  1.00  0.00     0.040 A 
ATOM     68  C   UNL A   1      50.472  26.096  29.227  1.00  0.00     0.040 A 
ATOM     69  F   UNL A   1      48.865  27.252  27.966  1.00  0.00    -0.206 F 
ATOM     70  C   UNL A   1      50.840  25.415  30.386  1.00  0.00     0.006 A 
ENDBRANCH  49  63
BRANCH  50  71
ATOM     71  C   UNL A   1      38.691  29.174  29.027  1.00  0.00     0.057 A 
ATOM     72  C   UNL A   1      37.834  29.073  30.130  1.00  0.00     0.134 A 
ATOM     73  C   UNL A   1      38.142  29.635  27.825  1.00  0.00     0.134 A 
ATOM     74  F   UNL A   1      38.298  28.618  31.304  1.00  0.00    -0.206 F 
ATOM     75  C   UNL A   1      36.477  29.387  30.036  1.00  0.00     0.040 A 
ATOM     76  C   UNL A   1      36.791  29.975  27.722  1.00  0.00     0.040 A 
ATOM     77  F   UNL A   1      38.909  29.759  26.733  1.00  0.00    -0.206 F 
ATOM     78  C   UNL A   1      35.953  29.842  28.827  1.00  0.00     0.006 A 
ENDBRANCH  50  71
BRANCH  62  79
ATOM     79  C   UNL A   1      44.373  32.323  31.517  1.00  0.00     0.057 A 
ATOM     80  C   UNL A   1      44.319  32.580  32.892  1.00  0.00     0.134 A 
ATOM     81  C   UNL A   1      44.733  33.380  30.671  1.00  0.00     0.134 A 
ATOM     82  F   UNL A   1      43.968  31.612  33.752  1.00  0.00    -0.206 F 
ATOM     83  C   UNL A   1      44.609  33.846  33.405  1.00  0.00     0.040 A 
ATOM     84  C   UNL A   1      45.046  34.643  31.174  1.00  0.00     0.040 A 
ATOM     85  F   UNL A   1      44.809  33.193  29.344  1.00  0.00    -0.206 F 
ATOM     86  C   UNL A   1      44.982  34.878  32.545  1.00  0.00     0.006 A 
ENDBRANCH  62  79
ENDBRANCH  36  37
ENDBRANCH  28  31
ENDBRANCH  26  27
ENDBRANCH  25  26
ENDBRANCH   1  25
TORSDOF 15
ENDMDL
MODEL 3
REMARK VINA RESULT:     -11.7      4.310      8.717
REMARK SMILES CCN(Cc1ccccn1)c1nc(C)cc(C)c1C(=O)NCCCCNC(=O)c1ccc(-c2c3nc(c(-c4c(F)cccc4F)c4ccc([nH]4)c(-c4c(F)cccc4F)c4nc(c(-c5c(F)cccc5F)c5ccc2[nH]5)C=C4)C=C3)cc1
REMARK SMILES IDX 23 1 22 2 21 3 19 4 20 5 18 7 11 8 12 9 13 10 16 11 14 12
REMARK SMILES IDX 15 13 17 14 3 15 2 16 1 17 4 18 5 19 6 20 10 21 7 22 9 23
REMARK SMILES IDX 8 24 24 25 25 26 26 27 27 28 28 30 29 31 30 32 82 33 31 34
REMARK SMILES IDX 81 35 32 36 33 37 34 38 75 39 35 40 80 41 74 42 76 43 36 44
REMARK SMILES IDX 79 45 73 46 72 47 37 49 63 50 46 51 62 52 47 53 50 54 61 55
REMARK SMILES IDX 77 56 48 57 49 58 60 60 78 61 51 62 38 63 39 64 44 65 40 66
REMARK SMILES IDX 41 67 43 68 45 69 42 70 64 71 65 72 70 73 66 74 67 75 69 76
REMARK SMILES IDX 71 77 68 78 52 79 53 80 58 81 54 82 55 83 57 84 59 85 56 86
REMARK H PARENT 21 6 26 29 76 48 50 59
REMARK Flexibility Score: inf
ROOT
ATOM      1  C   UNL A   1      36.607  22.267  23.857  1.00  0.00     0.023 C 
ENDROOT
BRANCH   1   2
ATOM      2  C   UNL A   1      35.196  22.844  23.822  1.00  0.00     0.116 C 
BRANCH   2   3
ATOM      3  N   UNL A   1      35.072  24.256  24.117  1.00  0.00    -0.352 N 
ATOM      4  C   UNL A   1      34.210  24.898  24.991  1.00  0.00     0.255 C 
ATOM      5  O   UNL A   1      34.463  26.063  25.295  1.00  0.00    -0.269 OA
ATOM      6  H   UNL A   1      35.689  24.845  23.626  1.00  0.00     0.163 HD
BRANCH   4   7
ATOM      7  C   UNL A   1      33.017  24.215  25.560  1.00  0.00     0.085 A 
ATOM      8  C   UNL A   1      31.732  24.578  25.106  1.00  0.00     0.142 A 
ATOM      9  N   UNL A   1      30.627  23.998  25.633  1.00  0.00    -0.235 NA
ATOM     10  C   UNL A   1      30.724  23.084  26.612  1.00  0.00     0.040 A 
ATOM     11  C   UNL A   1      33.115  23.312  26.646  1.00  0.00    -0.033 A 
ATOM     12  C   UNL A   1      29.433  22.569  27.168  1.00  0.00     0.067 C 
ATOM     13  C   UNL A   1      31.945  22.717  27.141  1.00  0.00     0.028 A 
ATOM     14  C   UNL A   1      34.392  22.951  27.349  1.00  0.00     0.045 C 
BRANCH   8  15
ATOM     15  N   UNL A   1      31.490  25.559  24.148  1.00  0.00    -0.350 N 
BRANCH  15  16
ATOM     16  C   UNL A   1      31.384  25.127  22.758  1.00  0.00     0.115 C 
ATOM     17  C   UNL A   1      32.392  25.865  21.890  1.00  0.00     0.027 C 
ENDBRANCH  15  16
BRANCH  15  18
ATOM     18  C   UNL A   1      30.600  26.662  24.567  1.00  0.00     0.174 C 
BRANCH  18  19
ATOM     19  C   UNL A   1      31.230  27.778  25.407  1.00  0.00     0.060 A 
ATOM     20  C   UNL A   1      31.506  27.535  26.758  1.00  0.00     0.026 A 
ATOM     21  N   UNL A   1      31.519  28.974  24.823  1.00  0.00    -0.259 NA
ATOM     22  C   UNL A   1      32.011  28.565  27.547  1.00  0.00     0.004 A 
ATOM     23  C   UNL A   1      31.969  29.964  25.625  1.00  0.00     0.111 A 
ATOM     24  C   UNL A   1      32.226  29.812  26.978  1.00  0.00     0.020 A 
ENDBRANCH  18  19
ENDBRANCH  15  18
ENDBRANCH   8  15
ENDBRANCH   4   7
ENDBRANCH   2   3
ENDBRANCH   1   2
BRANCH   1  25
ATOM     25  C   UNL A   1      36.926  21.237  24.939  1.00  0.00     0.023 C 
BRANCH  25  26
ATOM     26  C   UNL A   1      38.277  21.330  25.637  1.00  0.00     0.116 C 
BRANCH  26  27
ATOM     27  N   UNL A   1      39.119  20.150  25.508  1.00  0.00    -0.352 N 
ATOM     28  C   UNL A   1      40.421  19.945  25.924  1.00  0.00     0.251 C 
ATOM     29  H   UNL A   1      38.697  19.382  25.060  1.00  0.00     0.163 HD
ATOM     30  O   UNL A   1      40.974  18.875  25.723  1.00  0.00    -0.269 OA
BRANCH  28  31
ATOM     31  C   UNL A   1      41.167  21.055  26.559  1.00  0.00     0.039 A 
ATOM     32  C   UNL A   1      41.796  21.998  25.740  1.00  0.00     0.014 A 
ATOM     33  C   UNL A   1      41.181  21.207  27.945  1.00  0.00     0.014 A 
ATOM     34  C   UNL A   1      42.329  23.160  26.306  1.00  0.00     0.010 A 
ATOM     35  C   UNL A   1      41.635  22.401  28.496  1.00  0.00     0.010 A 
ATOM     36  C   UNL A   1      42.194  23.401  27.681  1.00  0.00    -0.014 A 
BRANCH  36  37
ATOM     37  C   UNL A   1      42.606  24.686  28.306  1.00  0.00     0.031 A 
ATOM     38  C   UNL A   1      41.581  25.764  28.530  1.00  0.00     0.074 A 
ATOM     39  C   UNL A   1      43.909  24.934  28.555  1.00  0.00     0.049 A 
ATOM     40  N   UNL A   1      41.755  27.018  28.861  1.00  0.00    -0.248 NA
ATOM     41  C   UNL A   1      40.174  25.388  28.314  1.00  0.00     0.031 C 
ATOM     42  C   UNL A   1      45.011  23.993  28.346  1.00  0.00     0.029 A 
ATOM     43  N   UNL A   1      44.530  26.070  29.016  1.00  0.00    -0.354 N 
ATOM     44  C   UNL A   1      40.488  27.590  28.844  1.00  0.00     0.074 A 
ATOM     45  C   UNL A   1      39.560  26.556  28.444  1.00  0.00     0.031 C 
ATOM     46  C   UNL A   1      46.168  24.585  28.687  1.00  0.00     0.029 A 
ATOM     47  C   UNL A   1      45.898  25.960  29.093  1.00  0.00     0.049 A 
ATOM     48  H   UNL A   1      44.041  26.886  29.268  1.00  0.00     0.167 HD
ATOM     49  C   UNL A   1      40.132  28.858  29.149  1.00  0.00     0.037 A 
ATOM     50  C   UNL A   1      46.831  26.872  29.433  1.00  0.00     0.037 A 
ATOM     51  C   UNL A   1      41.045  29.868  29.612  1.00  0.00     0.049 A 
ATOM     52  C   UNL A   1      46.401  28.267  29.799  1.00  0.00     0.074 A 
ATOM     53  C   UNL A   1      40.765  31.159  30.023  1.00  0.00     0.029 A 
ATOM     54  N   UNL A   1      42.414  29.694  29.737  1.00  0.00    -0.354 N 
ATOM     55  N   UNL A   1      45.195  28.777  29.830  1.00  0.00    -0.248 NA
ATOM     56  C   UNL A   1      47.461  29.214  30.176  1.00  0.00     0.031 C 
ATOM     57  C   UNL A   1      41.970  31.777  30.374  1.00  0.00     0.029 A 
ATOM     58  C   UNL A   1      42.993  30.856  30.214  1.00  0.00     0.049 A 
ATOM     59  H   UNL A   1      42.902  28.866  29.520  1.00  0.00     0.167 HD
ATOM     60  C   UNL A   1      45.346  30.086  30.271  1.00  0.00     0.074 A 
ATOM     61  C   UNL A   1      46.761  30.294  30.493  1.00  0.00     0.031 C 
ATOM     62  C   UNL A   1      44.398  31.031  30.473  1.00  0.00     0.037 A 
BRANCH  49  63
ATOM     63  C   UNL A   1      38.686  29.230  29.004  1.00  0.00     0.057 A 
ATOM     64  C   UNL A   1      38.145  29.618  27.773  1.00  0.00     0.134 A 
ATOM     65  C   UNL A   1      37.816  29.145  30.098  1.00  0.00     0.134 A 
ATOM     66  F   UNL A   1      38.929  29.729  26.690  1.00  0.00    -0.206 F 
ATOM     67  C   UNL A   1      36.791  29.929  27.639  1.00  0.00     0.040 A 
ATOM     68  C   UNL A   1      36.455  29.430  29.971  1.00  0.00     0.040 A 
ATOM     69  F   UNL A   1      38.271  28.772  31.304  1.00  0.00    -0.206 F 
ATOM     70  C   UNL A   1      35.941  29.827  28.738  1.00  0.00     0.006 A 
ENDBRANCH  49  63
BRANCH  50  71
ATOM     71  C   UNL A   1      48.271  26.505  29.460  1.00  0.00     0.057 A 
ATOM     72  C   UNL A   1      48.838  25.909  30.592  1.00  0.00     0.134 A 
ATOM     73  C   UNL A   1      49.120  26.779  28.381  1.00  0.00     0.134 A 
ATOM     74  F   UNL A   1      48.079  25.641  31.665  1.00  0.00    -0.206 F 
ATOM     75  C   UNL A   1      50.203  25.624  30.664  1.00  0.00     0.040 A 
ATOM     76  C   UNL A   1      50.483  26.478  28.431  1.00  0.00     0.040 A 
ATOM     77  F   UNL A   1      48.639  27.345  27.266  1.00  0.00    -0.206 F 
ATOM     78  C   UNL A   1      51.030  25.908  29.579  1.00  0.00     0.006 A 
ENDBRANCH  50  71
BRANCH  62  79
ATOM     79  C   UNL A   1      44.839  32.351  31.028  1.00  0.00     0.057 A 
ATOM     80  C   UNL A   1      45.169  33.429  30.200  1.00  0.00     0.134 A 
ATOM     81  C   UNL A   1      44.862  32.561  32.413  1.00  0.00     0.134 A 
ATOM     82  F   UNL A   1      45.177  33.286  28.866  1.00  0.00    -0.206 F 
ATOM     83  C   UNL A   1      45.516  34.673  30.732  1.00  0.00     0.040 A 
ATOM     84  C   UNL A   1      45.186  33.805  32.956  1.00  0.00     0.040 A 
ATOM     85  F   UNL A   1      44.548  31.567  33.258  1.00  0.00    -0.206 F 
ATOM     86  C   UNL A   1      45.516  34.864  32.113  1.00  0.00     0.006 A 
ENDBRANCH  62  79
ENDBRANCH  36  37
ENDBRANCH  28  31
ENDBRANCH  26  27
ENDBRANCH  25  26
ENDBRANCH   1  25
TORSDOF 15
ENDMDL
