MODEL 1
REMARK VINA RESULT:     -12.9      0.000      0.000
REMARK SMILES Cc1cc(OC(F)F)ccc1NC(=O)[C@@H]1CCCC[C@@H]1C(=O)NCCCCNC(=O)c1ccc(-c2c3nc(c(-c4c(F)cccc4F)c4ccc([nH]4)c(-c4c(F)cccc4F)c4nc(c(-c5c(F)cccc5F)c5ccc2[nH]5)C=C4)C=C3)cc1
REMARK SMILES IDX 24 1 23 2 21 3 22 4 20 6 15 7 16 8 17 9 19 10 18 11 13 12
REMARK SMILES IDX 12 13 14 15 11 16 1 17 2 18 3 19 4 20 10 21 9 22 5 23 6 24
REMARK SMILES IDX 7 25 8 26 25 27 26 28 27 29 28 30 29 31 30 33 31 34 32 35
REMARK SMILES IDX 84 36 33 37 83 38 34 39 35 40 36 41 77 42 37 43 82 44 76 45
REMARK SMILES IDX 78 46 38 47 81 48 75 49 74 50 39 52 65 53 48 54 64 55 49 56
REMARK SMILES IDX 52 57 63 58 79 59 50 60 51 61 62 63 80 64 53 65 40 66 41 67
REMARK SMILES IDX 46 68 42 69 43 70 45 71 47 72 44 73 66 74 67 75 72 76 68 77
REMARK SMILES IDX 69 78 71 79 73 80 70 81 54 82 55 83 60 84 56 85 57 86 59 87
REMARK SMILES IDX 61 88 58 89
REMARK H PARENT 23 5 12 14 28 32 78 51 52 62
REMARK Flexibility Score: inf
ROOT
ATOM      1  C   UNL A   1      36.531  22.401  25.911  1.00  0.00     0.116 C 
ENDROOT
BRANCH   1   2
ATOM      2  N   UNL A   1      35.272  21.737  26.159  1.00  0.00    -0.356 N 
ATOM      3  C   UNL A   1      33.996  22.104  25.867  1.00  0.00     0.223 C 
ATOM      4  O   UNL A   1      33.133  21.259  26.115  1.00  0.00    -0.275 OA
ATOM      5  H   UNL A   1      35.352  20.869  26.618  1.00  0.00     0.163 HD
BRANCH   3   6
ATOM      6  C   UNL A   1      33.663  23.467  25.228  1.00  0.00     0.091 C 
ATOM      7  C   UNL A   1      32.167  23.857  25.176  1.00  0.00     0.091 C 
ATOM      8  C   UNL A   1      31.383  22.742  24.464  1.00  0.00     0.014 C 
ATOM      9  C   UNL A   1      31.826  22.658  23.002  1.00  0.00     0.001 C 
ATOM     10  C   UNL A   1      34.156  23.485  23.756  1.00  0.00     0.014 C 
ATOM     11  C   UNL A   1      33.342  22.585  22.810  1.00  0.00     0.001 C 
BRANCH   7  12
ATOM     12  C   UNL A   1      31.482  24.369  26.444  1.00  0.00     0.228 C 
ATOM     13  N   UNL A   1      30.772  25.542  26.490  1.00  0.00    -0.326 N 
ATOM     14  H   UNL A   1      30.398  25.752  27.376  1.00  0.00     0.169 HD
ATOM     15  O   UNL A   1      31.542  23.725  27.499  1.00  0.00    -0.274 OA
BRANCH  13  16
ATOM     16  C   UNL A   1      30.480  26.496  25.500  1.00  0.00     0.044 A 
ATOM     17  C   UNL A   1      32.444  27.990  26.264  1.00  0.00     0.047 C 
ATOM     18  C   UNL A   1      31.317  27.616  25.338  1.00  0.00    -0.024 A 
ATOM     19  C   UNL A   1      31.174  28.400  24.175  1.00  0.00     0.052 A 
ATOM     20  C   UNL A   1      30.195  28.119  23.220  1.00  0.00     0.126 A 
ATOM     21  C   UNL A   1      29.403  26.328  24.627  1.00  0.00     0.030 A 
ATOM     22  C   UNL A   1      29.267  27.121  23.487  1.00  0.00     0.049 A 
BRANCH  20  23
ATOM     23  O   UNL A   1      30.244  28.887  22.093  1.00  0.00    -0.435 OA
BRANCH  23  24
ATOM     24  C   UNL A   1      29.330  29.975  22.001  1.00  0.00     0.542 C 
ATOM     25  F   UNL A   1      28.116  29.542  21.579  1.00  0.00    -0.167 F 
ATOM     26  F   UNL A   1      29.175  30.539  23.223  1.00  0.00    -0.167 F 
ENDBRANCH  23  24
ENDBRANCH  20  23
ENDBRANCH  13  16
ENDBRANCH   7  12
ENDBRANCH   3   6
ENDBRANCH   1   2
BRANCH   1  27
ATOM     27  C   UNL A   1      37.486  21.529  25.088  1.00  0.00     0.023 C 
BRANCH  27  28
ATOM     28  C   UNL A   1      38.900  21.404  25.652  1.00  0.00     0.023 C 
BRANCH  28  29
ATOM     29  C   UNL A   1      39.332  22.588  26.500  1.00  0.00     0.116 C 
BRANCH  29  30
ATOM     30  N   UNL A   1      40.758  22.905  26.475  1.00  0.00    -0.352 N 
ATOM     31  C   UNL A   1      41.392  24.130  26.570  1.00  0.00     0.251 C 
ATOM     32  H   UNL A   1      41.358  22.131  26.377  1.00  0.00     0.163 HD
ATOM     33  O   UNL A   1      42.596  24.201  26.441  1.00  0.00    -0.269 OA
BRANCH  31  34
ATOM     34  C   UNL A   1      40.623  25.347  26.988  1.00  0.00     0.039 A 
ATOM     35  C   UNL A   1      40.771  26.507  26.213  1.00  0.00     0.014 A 
ATOM     36  C   UNL A   1      39.973  25.425  28.214  1.00  0.00     0.014 A 
ATOM     37  C   UNL A   1      40.547  27.751  26.793  1.00  0.00     0.010 A 
ATOM     38  C   UNL A   1      39.873  26.650  28.836  1.00  0.00     0.010 A 
ATOM     39  C   UNL A   1      40.242  27.808  28.148  1.00  0.00    -0.014 A 
BRANCH  39  40
ATOM     40  C   UNL A   1      40.431  28.991  28.976  1.00  0.00     0.031 A 
ATOM     41  C   UNL A   1      39.359  29.996  29.099  1.00  0.00     0.074 A 
ATOM     42  C   UNL A   1      41.542  29.060  29.745  1.00  0.00     0.049 A 
ATOM     43  N   UNL A   1      39.517  31.161  29.624  1.00  0.00    -0.248 NA
ATOM     44  C   UNL A   1      38.018  29.790  28.559  1.00  0.00     0.031 C 
ATOM     45  C   UNL A   1      41.792  29.937  30.886  1.00  0.00     0.029 A 
ATOM     46  N   UNL A   1      42.785  28.457  29.494  1.00  0.00    -0.354 N 
ATOM     47  C   UNL A   1      38.275  31.738  29.753  1.00  0.00     0.074 A 
ATOM     48  C   UNL A   1      37.406  30.906  28.962  1.00  0.00     0.031 C 
ATOM     49  C   UNL A   1      43.118  30.051  31.061  1.00  0.00     0.029 A 
ATOM     50  C   UNL A   1      43.753  29.385  29.936  1.00  0.00     0.049 A 
ATOM     51  H   UNL A   1      42.947  27.573  29.093  1.00  0.00     0.167 HD
ATOM     52  C   UNL A   1      38.131  32.776  30.625  1.00  0.00     0.037 A 
ATOM     53  C   UNL A   1      44.592  30.000  29.051  1.00  0.00     0.037 A 
ATOM     54  C   UNL A   1      39.448  33.308  30.995  1.00  0.00     0.049 A 
ATOM     55  C   UNL A   1      44.458  31.506  29.016  1.00  0.00     0.074 A 
ATOM     56  C   UNL A   1      40.237  33.211  32.130  1.00  0.00     0.029 A 
ATOM     57  N   UNL A   1      40.266  33.830  29.994  1.00  0.00    -0.354 N 
ATOM     58  N   UNL A   1      43.434  32.163  29.489  1.00  0.00    -0.248 NA
ATOM     59  C   UNL A   1      45.460  32.387  28.422  1.00  0.00     0.031 C 
ATOM     60  C   UNL A   1      41.564  33.580  31.771  1.00  0.00     0.029 A 
ATOM     61  C   UNL A   1      41.572  33.941  30.433  1.00  0.00     0.049 A 
ATOM     62  H   UNL A   1      39.956  34.086  29.096  1.00  0.00     0.167 HD
ATOM     63  C   UNL A   1      43.589  33.501  29.231  1.00  0.00     0.074 A 
ATOM     64  C   UNL A   1      44.891  33.593  28.597  1.00  0.00     0.031 C 
ATOM     65  C   UNL A   1      42.619  34.415  29.534  1.00  0.00     0.037 A 
BRANCH  52  66
ATOM     66  C   UNL A   1      36.836  33.183  31.314  1.00  0.00     0.057 A 
ATOM     67  C   UNL A   1      36.563  32.742  32.628  1.00  0.00     0.134 A 
ATOM     68  C   UNL A   1      35.763  33.888  30.728  1.00  0.00     0.134 A 
ATOM     69  F   UNL A   1      37.474  32.069  33.345  1.00  0.00    -0.206 F 
ATOM     70  C   UNL A   1      35.331  32.945  33.272  1.00  0.00     0.040 A 
ATOM     71  C   UNL A   1      34.537  34.120  31.371  1.00  0.00     0.040 A 
ATOM     72  F   UNL A   1      35.805  34.375  29.487  1.00  0.00    -0.206 F 
ATOM     73  C   UNL A   1      34.308  33.634  32.643  1.00  0.00     0.006 A 
ENDBRANCH  52  66
BRANCH  53  74
ATOM     74  C   UNL A   1      44.943  29.146  27.883  1.00  0.00     0.057 A 
ATOM     75  C   UNL A   1      45.942  28.170  28.041  1.00  0.00     0.134 A 
ATOM     76  C   UNL A   1      44.097  29.016  26.780  1.00  0.00     0.134 A 
ATOM     77  F   UNL A   1      46.786  28.231  29.084  1.00  0.00    -0.206 F 
ATOM     78  C   UNL A   1      46.026  27.053  27.204  1.00  0.00     0.040 A 
ATOM     79  C   UNL A   1      44.178  27.905  25.928  1.00  0.00     0.040 A 
ATOM     80  F   UNL A   1      43.100  29.889  26.577  1.00  0.00    -0.206 F 
ATOM     81  C   UNL A   1      45.117  26.902  26.163  1.00  0.00     0.006 A 
ENDBRANCH  53  74
BRANCH  65  82
ATOM     82  C   UNL A   1      42.583  35.852  29.061  1.00  0.00     0.057 A 
ATOM     83  C   UNL A   1      43.326  36.897  29.632  1.00  0.00     0.134 A 
ATOM     84  C   UNL A   1      41.884  36.198  27.881  1.00  0.00     0.134 A 
ATOM     85  F   UNL A   1      44.135  36.696  30.681  1.00  0.00    -0.206 F 
ATOM     86  C   UNL A   1      43.323  38.199  29.111  1.00  0.00     0.040 A 
ATOM     87  C   UNL A   1      41.922  37.478  27.319  1.00  0.00     0.040 A 
ATOM     88  F   UNL A   1      41.153  35.299  27.207  1.00  0.00    -0.206 F 
ATOM     89  C   UNL A   1      42.631  38.491  27.944  1.00  0.00     0.006 A 
ENDBRANCH  65  82
ENDBRANCH  39  40
ENDBRANCH  31  34
ENDBRANCH  29  30
ENDBRANCH  28  29
ENDBRANCH  27  28
ENDBRANCH   1  27
TORSDOF 15
ENDMDL
MODEL 2
REMARK VINA RESULT:     -12.7      4.252      9.414
REMARK SMILES Cc1cc(OC(F)F)ccc1NC(=O)[C@@H]1CCCC[C@@H]1C(=O)NCCCCNC(=O)c1ccc(-c2c3nc(c(-c4c(F)cccc4F)c4ccc([nH]4)c(-c4c(F)cccc4F)c4nc(c(-c5c(F)cccc5F)c5ccc2[nH]5)C=C4)C=C3)cc1
REMARK SMILES IDX 24 1 23 2 21 3 22 4 20 6 15 7 16 8 17 9 19 10 18 11 13 12
REMARK SMILES IDX 12 13 14 15 11 16 1 17 2 18 3 19 4 20 10 21 9 22 5 23 6 24
REMARK SMILES IDX 7 25 8 26 25 27 26 28 27 29 28 30 29 31 30 33 31 34 32 35
REMARK SMILES IDX 84 36 33 37 83 38 34 39 35 40 36 41 77 42 37 43 82 44 76 45
REMARK SMILES IDX 78 46 38 47 81 48 75 49 74 50 39 52 65 53 48 54 64 55 49 56
REMARK SMILES IDX 52 57 63 58 79 59 50 60 51 61 62 63 80 64 53 65 40 66 41 67
REMARK SMILES IDX 46 68 42 69 43 70 45 71 47 72 44 73 66 74 67 75 72 76 68 77
REMARK SMILES IDX 69 78 71 79 73 80 70 81 54 82 55 83 60 84 56 85 57 86 59 87
REMARK SMILES IDX 61 88 58 89
REMARK H PARENT 23 5 12 14 28 32 78 51 52 62
REMARK Flexibility Score: inf
ROOT
ATOM      1  C   UNL A   1      31.442  29.910  25.208  1.00  0.00     0.116 C 
ENDROOT
BRANCH   1   2
ATOM      2  N   UNL A   1      32.448  29.550  24.236  1.00  0.00    -0.356 N 
ATOM      3  C   UNL A   1      32.692  28.374  23.598  1.00  0.00     0.223 C 
ATOM      4  O   UNL A   1      33.569  28.415  22.732  1.00  0.00    -0.275 OA
ATOM      5  H   UNL A   1      33.062  30.281  23.994  1.00  0.00     0.163 HD
BRANCH   3   6
ATOM      6  C   UNL A   1      31.894  27.093  23.909  1.00  0.00     0.091 C 
ATOM      7  C   UNL A   1      32.718  25.804  24.134  1.00  0.00     0.091 C 
ATOM      8  C   UNL A   1      33.625  25.570  22.914  1.00  0.00     0.014 C 
ATOM      9  C   UNL A   1      32.763  25.283  21.683  1.00  0.00     0.001 C 
ATOM     10  C   UNL A   1      30.933  26.779  22.729  1.00  0.00     0.014 C 
ATOM     11  C   UNL A   1      31.644  26.301  21.452  1.00  0.00     0.001 C 
BRANCH   7  12
ATOM     12  C   UNL A   1      33.431  25.594  25.471  1.00  0.00     0.228 C 
ATOM     13  N   UNL A   1      33.769  24.355  25.953  1.00  0.00    -0.326 N 
ATOM     14  H   UNL A   1      34.210  24.371  26.833  1.00  0.00     0.169 HD
ATOM     15  O   UNL A   1      33.737  26.559  26.182  1.00  0.00    -0.274 OA
BRANCH  13  16
ATOM     16  C   UNL A   1      33.601  23.067  25.416  1.00  0.00     0.044 A 
ATOM     17  C   UNL A   1      35.996  23.083  24.449  1.00  0.00     0.047 C 
ATOM     18  C   UNL A   1      34.679  22.430  24.773  1.00  0.00    -0.024 A 
ATOM     19  C   UNL A   1      34.577  21.051  24.498  1.00  0.00     0.052 A 
ATOM     20  C   UNL A   1      33.422  20.328  24.800  1.00  0.00     0.126 A 
ATOM     21  C   UNL A   1      32.397  22.375  25.558  1.00  0.00     0.030 A 
ATOM     22  C   UNL A   1      32.308  21.012  25.267  1.00  0.00     0.049 A 
BRANCH  20  23
ATOM     23  O   UNL A   1      33.504  18.982  24.585  1.00  0.00    -0.435 OA
BRANCH  23  24
ATOM     24  C   UNL A   1      32.525  18.393  23.735  1.00  0.00     0.542 C 
ATOM     25  F   UNL A   1      32.353  19.143  22.618  1.00  0.00    -0.167 F 
ATOM     26  F   UNL A   1      32.938  17.161  23.355  1.00  0.00    -0.167 F 
ENDBRANCH  23  24
ENDBRANCH  20  23
ENDBRANCH  13  16
ENDBRANCH   7  12
ENDBRANCH   3   6
ENDBRANCH   1   2
BRANCH   1  27
ATOM     27  C   UNL A   1      31.961  29.782  26.645  1.00  0.00     0.023 C 
BRANCH  27  28
ATOM     28  C   UNL A   1      32.872  30.916  27.109  1.00  0.00     0.023 C 
BRANCH  28  29
ATOM     29  C   UNL A   1      34.258  30.458  27.531  1.00  0.00     0.116 C 
BRANCH  29  30
ATOM     30  N   UNL A   1      35.046  31.426  28.291  1.00  0.00    -0.352 N 
ATOM     31  C   UNL A   1      36.241  31.256  28.967  1.00  0.00     0.251 C 
ATOM     32  H   UNL A   1      34.672  32.336  28.327  1.00  0.00     0.163 HD
ATOM     33  O   UNL A   1      36.702  32.168  29.619  1.00  0.00    -0.269 OA
BRANCH  31  34
ATOM     34  C   UNL A   1      37.047  30.008  28.772  1.00  0.00     0.039 A 
ATOM     35  C   UNL A   1      37.142  29.120  29.853  1.00  0.00     0.014 A 
ATOM     36  C   UNL A   1      37.868  29.825  27.665  1.00  0.00     0.014 A 
ATOM     37  C   UNL A   1      38.238  28.269  29.945  1.00  0.00     0.010 A 
ATOM     38  C   UNL A   1      39.019  29.082  27.808  1.00  0.00     0.010 A 
ATOM     39  C   UNL A   1      39.241  28.369  28.988  1.00  0.00    -0.014 A 
BRANCH  39  40
ATOM     40  C   UNL A   1      40.607  27.906  29.189  1.00  0.00     0.031 A 
ATOM     41  C   UNL A   1      41.029  26.584  28.689  1.00  0.00     0.074 A 
ATOM     42  C   UNL A   1      41.507  28.778  29.699  1.00  0.00     0.049 A 
ATOM     43  N   UNL A   1      42.136  26.011  29.009  1.00  0.00    -0.248 NA
ATOM     44  C   UNL A   1      40.183  25.757  27.835  1.00  0.00     0.031 C 
ATOM     45  C   UNL A   1      42.965  28.683  29.673  1.00  0.00     0.029 A 
ATOM     46  N   UNL A   1      41.247  29.863  30.552  1.00  0.00    -0.354 N 
ATOM     47  C   UNL A   1      42.285  24.904  28.207  1.00  0.00     0.074 A 
ATOM     48  C   UNL A   1      40.993  24.722  27.597  1.00  0.00     0.031 C 
ATOM     49  C   UNL A   1      43.465  29.442  30.660  1.00  0.00     0.029 A 
ATOM     50  C   UNL A   1      42.337  29.910  31.448  1.00  0.00     0.049 A 
ATOM     51  H   UNL A   1      40.468  30.463  30.530  1.00  0.00     0.167 HD
ATOM     52  C   UNL A   1      43.530  24.365  28.071  1.00  0.00     0.037 A 
ATOM     53  C   UNL A   1      42.165  29.648  32.777  1.00  0.00     0.037 A 
ATOM     54  C   UNL A   1      44.419  24.882  29.118  1.00  0.00     0.049 A 
ATOM     55  C   UNL A   1      42.953  28.459  33.280  1.00  0.00     0.074 A 
ATOM     56  C   UNL A   1      45.445  25.813  29.132  1.00  0.00     0.029 A 
ATOM     57  N   UNL A   1      44.098  24.635  30.452  1.00  0.00    -0.354 N 
ATOM     58  N   UNL A   1      43.469  27.541  32.508  1.00  0.00    -0.248 NA
ATOM     59  C   UNL A   1      43.199  28.200  34.696  1.00  0.00     0.031 C 
ATOM     60  C   UNL A   1      45.663  26.201  30.484  1.00  0.00     0.029 A 
ATOM     61  C   UNL A   1      44.802  25.476  31.292  1.00  0.00     0.049 A 
ATOM     62  H   UNL A   1      43.457  23.953  30.756  1.00  0.00     0.167 HD
ATOM     63  C   UNL A   1      44.050  26.568  33.280  1.00  0.00     0.074 A 
ATOM     64  C   UNL A   1      43.888  27.047  34.640  1.00  0.00     0.031 C 
ATOM     65  C   UNL A   1      44.587  25.435  32.735  1.00  0.00     0.037 A 
BRANCH  52  66
ATOM     66  C   UNL A   1      44.018  23.545  26.884  1.00  0.00     0.057 A 
ATOM     67  C   UNL A   1      44.808  24.150  25.881  1.00  0.00     0.134 A 
ATOM     68  C   UNL A   1      43.661  22.213  26.585  1.00  0.00     0.134 A 
ATOM     69  F   UNL A   1      45.253  25.409  26.002  1.00  0.00    -0.206 F 
ATOM     70  C   UNL A   1      45.166  23.506  24.685  1.00  0.00     0.040 A 
ATOM     71  C   UNL A   1      44.035  21.550  25.406  1.00  0.00     0.040 A 
ATOM     72  F   UNL A   1      42.903  21.466  27.389  1.00  0.00    -0.206 F 
ATOM     73  C   UNL A   1      44.777  22.199  24.440  1.00  0.00     0.006 A 
ENDBRANCH  52  66
BRANCH  53  74
ATOM     74  C   UNL A   1      40.835  30.071  33.293  1.00  0.00     0.057 A 
ATOM     75  C   UNL A   1      40.621  31.434  33.566  1.00  0.00     0.134 A 
ATOM     76  C   UNL A   1      39.701  29.265  33.167  1.00  0.00     0.134 A 
ATOM     77  F   UNL A   1      41.667  32.267  33.691  1.00  0.00    -0.206 F 
ATOM     78  C   UNL A   1      39.340  31.991  33.602  1.00  0.00     0.040 A 
ATOM     79  C   UNL A   1      38.411  29.811  33.211  1.00  0.00     0.040 A 
ATOM     80  F   UNL A   1      39.819  27.961  32.877  1.00  0.00    -0.206 F 
ATOM     81  C   UNL A   1      38.230  31.181  33.389  1.00  0.00     0.006 A 
ENDBRANCH  53  74
BRANCH  65  82
ATOM     82  C   UNL A   1      45.008  24.201  33.503  1.00  0.00     0.057 A 
ATOM     83  C   UNL A   1      44.220  23.048  33.652  1.00  0.00     0.134 A 
ATOM     84  C   UNL A   1      46.326  24.086  34.003  1.00  0.00     0.134 A 
ATOM     85  F   UNL A   1      42.993  22.960  33.122  1.00  0.00    -0.206 F 
ATOM     86  C   UNL A   1      44.682  21.896  34.305  1.00  0.00     0.040 A 
ATOM     87  C   UNL A   1      46.817  22.921  34.602  1.00  0.00     0.040 A 
ATOM     88  F   UNL A   1      47.205  25.094  33.909  1.00  0.00    -0.206 F 
ATOM     89  C   UNL A   1      45.988  21.824  34.771  1.00  0.00     0.006 A 
ENDBRANCH  65  82
ENDBRANCH  39  40
ENDBRANCH  31  34
ENDBRANCH  29  30
ENDBRANCH  28  29
ENDBRANCH  27  28
ENDBRANCH   1  27
TORSDOF 15
ENDMDL
MODEL 3
REMARK VINA RESULT:     -12.5      3.942      8.887
REMARK SMILES Cc1cc(OC(F)F)ccc1NC(=O)[C@@H]1CCCC[C@@H]1C(=O)NCCCCNC(=O)c1ccc(-c2c3nc(c(-c4c(F)cccc4F)c4ccc([nH]4)c(-c4c(F)cccc4F)c4nc(c(-c5c(F)cccc5F)c5ccc2[nH]5)C=C4)C=C3)cc1
REMARK SMILES IDX 24 1 23 2 21 3 22 4 20 6 15 7 16 8 17 9 19 10 18 11 13 12
REMARK SMILES IDX 12 13 14 15 11 16 1 17 2 18 3 19 4 20 10 21 9 22 5 23 6 24
REMARK SMILES IDX 7 25 8 26 25 27 26 28 27 29 28 30 29 31 30 33 31 34 32 35
REMARK SMILES IDX 84 36 33 37 83 38 34 39 35 40 36 41 77 42 37 43 82 44 76 45
REMARK SMILES IDX 78 46 38 47 81 48 75 49 74 50 39 52 65 53 48 54 64 55 49 56
REMARK SMILES IDX 52 57 63 58 79 59 50 60 51 61 62 63 80 64 53 65 40 66 41 67
REMARK SMILES IDX 46 68 42 69 43 70 45 71 47 72 44 73 66 74 67 75 72 76 68 77
REMARK SMILES IDX 69 78 71 79 73 80 70 81 54 82 55 83 60 84 56 85 57 86 59 87
REMARK SMILES IDX 61 88 58 89
REMARK H PARENT 23 5 12 14 28 32 78 51 52 62
REMARK Flexibility Score: inf
ROOT
ATOM      1  C   UNL A   1      34.054  28.678  26.905  1.00  0.00     0.116 C 
ENDROOT
BRANCH   1   2
ATOM      2  N   UNL A   1      33.720  28.932  25.522  1.00  0.00    -0.356 N 
ATOM      3  C   UNL A   1      33.285  28.098  24.541  1.00  0.00     0.223 C 
ATOM      4  O   UNL A   1      32.980  28.644  23.479  1.00  0.00    -0.275 OA
ATOM      5  H   UNL A   1      33.825  29.870  25.243  1.00  0.00     0.163 HD
BRANCH   3   6
ATOM      6  C   UNL A   1      33.143  26.578  24.762  1.00  0.00     0.091 C 
ATOM      7  C   UNL A   1      32.506  25.770  23.608  1.00  0.00     0.091 C 
ATOM      8  C   UNL A   1      31.134  26.378  23.269  1.00  0.00     0.014 C 
ATOM      9  C   UNL A   1      30.186  26.196  24.456  1.00  0.00     0.001 C 
ATOM     10  C   UNL A   1      32.251  26.315  26.005  1.00  0.00     0.014 C 
ATOM     11  C   UNL A   1      30.766  26.654  25.796  1.00  0.00     0.001 C 
BRANCH   7  12
ATOM     12  C   UNL A   1      33.345  25.436  22.374  1.00  0.00     0.228 C 
ATOM     13  N   UNL A   1      33.810  24.174  22.103  1.00  0.00    -0.326 N 
ATOM     14  H   UNL A   1      34.349  24.110  21.283  1.00  0.00     0.169 HD
ATOM     15  O   UNL A   1      33.640  26.313  21.554  1.00  0.00    -0.274 OA
BRANCH  13  16
ATOM     16  C   UNL A   1      33.652  22.955  22.786  1.00  0.00     0.044 A 
ATOM     17  C   UNL A   1      35.894  23.281  24.026  1.00  0.00     0.047 C 
ATOM     18  C   UNL A   1      34.597  22.568  23.756  1.00  0.00    -0.024 A 
ATOM     19  C   UNL A   1      34.276  21.499  24.617  1.00  0.00     0.052 A 
ATOM     20  C   UNL A   1      33.077  20.793  24.492  1.00  0.00     0.126 A 
ATOM     21  C   UNL A   1      32.541  22.139  22.565  1.00  0.00     0.030 A 
ATOM     22  C   UNL A   1      32.244  21.075  23.419  1.00  0.00     0.049 A 
BRANCH  20  23
ATOM     23  O   UNL A   1      32.847  19.861  25.462  1.00  0.00    -0.435 OA
BRANCH  23  24
ATOM     24  C   UNL A   1      32.672  18.511  25.045  1.00  0.00     0.542 C 
ATOM     25  F   UNL A   1      33.756  18.084  24.351  1.00  0.00    -0.167 F 
ATOM     26  F   UNL A   1      32.528  17.716  26.132  1.00  0.00    -0.167 F 
ENDBRANCH  23  24
ENDBRANCH  20  23
ENDBRANCH  13  16
ENDBRANCH   7  12
ENDBRANCH   3   6
ENDBRANCH   1   2
BRANCH   1  27
ATOM     27  C   UNL A   1      35.376  29.342  27.306  1.00  0.00     0.023 C 
BRANCH  27  28
ATOM     28  C   UNL A   1      35.250  30.490  28.305  1.00  0.00     0.023 C 
BRANCH  28  29
ATOM     29  C   UNL A   1      35.153  31.861  27.658  1.00  0.00     0.116 C 
BRANCH  29  30
ATOM     30  N   UNL A   1      34.249  32.810  28.305  1.00  0.00    -0.352 N 
ATOM     31  C   UNL A   1      34.399  33.505  29.491  1.00  0.00     0.251 C 
ATOM     32  H   UNL A   1      33.407  32.982  27.824  1.00  0.00     0.163 HD
ATOM     33  O   UNL A   1      33.491  34.189  29.910  1.00  0.00    -0.269 OA
BRANCH  31  34
ATOM     34  C   UNL A   1      35.730  33.544  30.178  1.00  0.00     0.039 A 
ATOM     35  C   UNL A   1      36.797  34.145  29.495  1.00  0.00     0.014 A 
ATOM     36  C   UNL A   1      35.984  32.818  31.337  1.00  0.00     0.014 A 
ATOM     37  C   UNL A   1      38.102  33.768  29.796  1.00  0.00     0.010 A 
ATOM     38  C   UNL A   1      37.258  32.342  31.555  1.00  0.00     0.010 A 
ATOM     39  C   UNL A   1      38.304  32.756  30.727  1.00  0.00    -0.014 A 
BRANCH  39  40
ATOM     40  C   UNL A   1      39.518  31.956  30.808  1.00  0.00     0.031 A 
ATOM     41  C   UNL A   1      39.625  30.684  30.069  1.00  0.00     0.074 A 
ATOM     42  C   UNL A   1      40.589  32.485  31.443  1.00  0.00     0.049 A 
ATOM     43  N   UNL A   1      40.561  29.819  30.253  1.00  0.00    -0.248 NA
ATOM     44  C   UNL A   1      38.624  30.246  29.102  1.00  0.00     0.031 C 
ATOM     45  C   UNL A   1      41.983  32.057  31.363  1.00  0.00     0.029 A 
ATOM     46  N   UNL A   1      40.577  33.429  32.482  1.00  0.00    -0.354 N 
ATOM     47  C   UNL A   1      40.459  28.870  29.263  1.00  0.00     0.074 A 
ATOM     48  C   UNL A   1      39.172  29.109  28.663  1.00  0.00     0.031 C 
ATOM     49  C   UNL A   1      42.630  32.488  32.458  1.00  0.00     0.029 A 
ATOM     50  C   UNL A   1      41.630  33.057  33.345  1.00  0.00     0.049 A 
ATOM     51  H   UNL A   1      39.962  34.190  32.588  1.00  0.00     0.167 HD
ATOM     52  C   UNL A   1      41.545  28.088  29.001  1.00  0.00     0.037 A 
ATOM     53  C   UNL A   1      41.378  32.609  34.609  1.00  0.00     0.037 A 
ATOM     54  C   UNL A   1      42.511  28.185  30.101  1.00  0.00     0.049 A 
ATOM     55  C   UNL A   1      41.854  31.197  34.871  1.00  0.00     0.074 A 
ATOM     56  C   UNL A   1      43.727  28.830  30.256  1.00  0.00     0.029 A 
ATOM     57  N   UNL A   1      42.117  27.784  31.378  1.00  0.00    -0.354 N 
ATOM     58  N   UNL A   1      42.153  30.338  33.936  1.00  0.00    -0.248 NA
ATOM     59  C   UNL A   1      42.006  30.638  36.212  1.00  0.00     0.031 C 
ATOM     60  C   UNL A   1      44.006  28.906  31.649  1.00  0.00     0.029 A 
ATOM     61  C   UNL A   1      42.984  28.271  32.336  1.00  0.00     0.049 A 
ATOM     62  H   UNL A   1      41.328  27.229  31.570  1.00  0.00     0.167 HD
ATOM     63  C   UNL A   1      42.474  29.133  34.506  1.00  0.00     0.074 A 
ATOM     64  C   UNL A   1      42.405  29.384  35.933  1.00  0.00     0.031 C 
ATOM     65  C   UNL A   1      42.739  28.022  33.754  1.00  0.00     0.037 A 
BRANCH  52  66
ATOM     66  C   UNL A   1      41.847  27.403  27.675  1.00  0.00     0.057 A 
ATOM     67  C   UNL A   1      42.181  26.031  27.646  1.00  0.00     0.134 A 
ATOM     68  C   UNL A   1      41.957  28.031  26.416  1.00  0.00     0.134 A 
ATOM     69  F   UNL A   1      42.119  25.270  28.747  1.00  0.00    -0.206 F 
ATOM     70  C   UNL A   1      42.620  25.366  26.488  1.00  0.00     0.040 A 
ATOM     71  C   UNL A   1      42.369  27.372  25.248  1.00  0.00     0.040 A 
ATOM     72  F   UNL A   1      41.707  29.327  26.226  1.00  0.00    -0.206 F 
ATOM     73  C   UNL A   1      42.720  26.037  25.281  1.00  0.00     0.006 A 
ENDBRANCH  52  66
BRANCH  53  74
ATOM     74  C   UNL A   1      40.175  33.233  35.226  1.00  0.00     0.057 A 
ATOM     75  C   UNL A   1      38.959  32.528  35.191  1.00  0.00     0.134 A 
ATOM     76  C   UNL A   1      40.273  34.284  36.141  1.00  0.00     0.134 A 
ATOM     77  F   UNL A   1      38.800  31.501  34.340  1.00  0.00    -0.206 F 
ATOM     78  C   UNL A   1      37.927  32.783  36.099  1.00  0.00     0.040 A 
ATOM     79  C   UNL A   1      39.241  34.555  37.050  1.00  0.00     0.040 A 
ATOM     80  F   UNL A   1      41.409  34.985  36.256  1.00  0.00    -0.206 F 
ATOM     81  C   UNL A   1      38.084  33.780  37.057  1.00  0.00     0.006 A 
ENDBRANCH  53  74
BRANCH  65  82
ATOM     82  C   UNL A   1      42.844  26.607  34.278  1.00  0.00     0.057 A 
ATOM     83  C   UNL A   1      44.038  25.872  34.351  1.00  0.00     0.134 A 
ATOM     84  C   UNL A   1      41.727  25.983  34.879  1.00  0.00     0.134 A 
ATOM     85  F   UNL A   1      45.206  26.381  33.935  1.00  0.00    -0.206 F 
ATOM     86  C   UNL A   1      44.103  24.591  34.919  1.00  0.00     0.040 A 
ATOM     87  C   UNL A   1      41.793  24.732  35.501  1.00  0.00     0.040 A 
ATOM     88  F   UNL A   1      40.523  26.574  34.912  1.00  0.00    -0.206 F 
ATOM     89  C   UNL A   1      42.983  24.022  35.507  1.00  0.00     0.006 A 
ENDBRANCH  65  82
ENDBRANCH  39  40
ENDBRANCH  31  34
ENDBRANCH  29  30
ENDBRANCH  28  29
ENDBRANCH  27  28
ENDBRANCH   1  27
TORSDOF 15
ENDMDL
