MODEL 1
REMARK VINA RESULT:     -11.3      0.000      0.000
REMARK SMILES C[C@@H](C(=O)NCCCCNC(=O)c1ccc(-c2c3nc(c(-c4c(F)cccc4F)c4ccc([nH]4)c(-c4c(F)cccc4F)c4nc(c(-c5c(F)cccc5F)c5ccc2[nH]5)C=C4)C=C3)cc1)c1ccc(=O)n(C(F)F)c1
REMARK SMILES IDX 7 1 6 2 5 3 3 4 4 5 2 7 1 8 67 9 68 10 76 11 69 12 72 13
REMARK SMILES IDX 70 14 71 15 73 16 74 17 75 18 8 19 9 20 10 21 11 22 12 24
REMARK SMILES IDX 13 25 14 26 66 27 15 28 65 29 16 30 17 31 18 32 59 33 19 34
REMARK SMILES IDX 64 35 58 36 60 37 20 38 63 39 57 40 56 41 21 43 47 44 30 45
REMARK SMILES IDX 46 46 31 47 34 48 45 49 61 50 32 51 33 52 44 54 62 55 35 56
REMARK SMILES IDX 22 57 23 58 28 59 24 60 25 61 27 62 29 63 26 64 48 65 49 66
REMARK SMILES IDX 54 67 50 68 51 69 53 70 55 71 52 72 36 73 37 74 42 75 38 76
REMARK SMILES IDX 39 77 41 78 43 79 40 80
REMARK H PARENT 5 6 10 23 60 42 34 53
REMARK Flexibility Score: inf
ROOT
ATOM      1  C   UNL A   1      31.322  30.788  25.744  1.00  0.00     0.023 C 
ENDROOT
BRANCH   1   2
ATOM      2  C   UNL A   1      32.483  29.789  25.748  1.00  0.00     0.116 C 
BRANCH   2   3
ATOM      3  N   UNL A   1      33.119  29.717  24.449  1.00  0.00    -0.356 N 
ATOM      4  C   UNL A   1      32.998  28.802  23.445  1.00  0.00     0.227 C 
ATOM      5  O   UNL A   1      33.702  29.003  22.453  1.00  0.00    -0.274 OA
ATOM      6  H   UNL A   1      33.745  30.453  24.258  1.00  0.00     0.163 HD
BRANCH   4   7
ATOM      7  C   UNL A   1      31.984  27.634  23.557  1.00  0.00     0.107 C 
ATOM      8  C   UNL A   1      32.221  26.534  22.518  1.00  0.00     0.023 C 
BRANCH   7   9
ATOM      9  C   UNL A   1      30.518  28.047  23.439  1.00  0.00    -0.019 A 
ATOM     10  C   UNL A   1      29.524  27.109  23.933  1.00  0.00     0.012 A 
ATOM     11  C   UNL A   1      30.081  29.166  22.832  1.00  0.00     0.099 A 
ATOM     12  C   UNL A   1      28.216  27.324  23.746  1.00  0.00     0.072 A 
ATOM     13  N   UNL A   1      28.734  29.437  22.669  1.00  0.00    -0.258 N 
ATOM     14  C   UNL A   1      27.743  28.553  23.053  1.00  0.00     0.254 A 
ATOM     15  O   UNL A   1      26.539  28.695  22.869  1.00  0.00    -0.269 OA
BRANCH  13  16
ATOM     16  C   UNL A   1      28.322  30.646  22.002  1.00  0.00     0.451 C 
ATOM     17  F   UNL A   1      29.318  31.566  22.019  1.00  0.00    -0.185 F 
ATOM     18  F   UNL A   1      27.989  30.412  20.709  1.00  0.00    -0.185 F 
ENDBRANCH  13  16
ENDBRANCH   7   9
ENDBRANCH   4   7
ENDBRANCH   2   3
ENDBRANCH   1   2
BRANCH   1  19
ATOM     19  C   UNL A   1      31.380  31.844  26.850  1.00  0.00     0.023 C 
BRANCH  19  20
ATOM     20  C   UNL A   1      32.661  32.663  26.895  1.00  0.00     0.116 C 
BRANCH  20  21
ATOM     21  N   UNL A   1      32.472  33.969  27.504  1.00  0.00    -0.352 N 
ATOM     22  C   UNL A   1      33.147  34.533  28.558  1.00  0.00     0.251 C 
ATOM     23  H   UNL A   1      31.764  34.525  27.106  1.00  0.00     0.163 HD
ATOM     24  O   UNL A   1      32.756  35.594  29.039  1.00  0.00    -0.269 OA
BRANCH  22  25
ATOM     25  C   UNL A   1      34.327  33.851  29.129  1.00  0.00     0.039 A 
ATOM     26  C   UNL A   1      34.133  32.842  30.074  1.00  0.00     0.014 A 
ATOM     27  C   UNL A   1      35.621  34.209  28.737  1.00  0.00     0.014 A 
ATOM     28  C   UNL A   1      35.235  32.166  30.600  1.00  0.00     0.010 A 
ATOM     29  C   UNL A   1      36.709  33.474  29.193  1.00  0.00     0.010 A 
ATOM     30  C   UNL A   1      36.532  32.463  30.149  1.00  0.00    -0.014 A 
BRANCH  30  31
ATOM     31  C   UNL A   1      37.717  31.761  30.701  1.00  0.00     0.031 A 
ATOM     32  C   UNL A   1      38.201  32.086  32.089  1.00  0.00     0.074 A 
ATOM     33  C   UNL A   1      38.382  30.867  29.947  1.00  0.00     0.049 A 
ATOM     34  N   UNL A   1      39.229  31.606  32.742  1.00  0.00    -0.248 NA
ATOM     35  C   UNL A   1      37.448  33.111  32.829  1.00  0.00     0.031 C 
ATOM     36  C   UNL A   1      38.040  30.496  28.572  1.00  0.00     0.029 A 
ATOM     37  N   UNL A   1      39.488  30.107  30.232  1.00  0.00    -0.354 N 
ATOM     38  C   UNL A   1      39.255  32.284  33.955  1.00  0.00     0.074 A 
ATOM     39  C   UNL A   1      38.182  33.252  33.921  1.00  0.00     0.031 C 
ATOM     40  C   UNL A   1      38.896  29.551  28.148  1.00  0.00     0.029 A 
ATOM     41  C   UNL A   1      39.865  29.277  29.203  1.00  0.00     0.049 A 
ATOM     42  H   UNL A   1      39.967  30.151  31.090  1.00  0.00     0.167 HD
ATOM     43  C   UNL A   1      40.080  32.099  35.013  1.00  0.00     0.037 A 
ATOM     44  C   UNL A   1      40.877  28.392  29.126  1.00  0.00     0.037 A 
ATOM     45  C   UNL A   1      41.130  31.116  35.053  1.00  0.00     0.049 A 
ATOM     46  C   UNL A   1      41.783  28.206  30.312  1.00  0.00     0.074 A 
ATOM     47  C   UNL A   1      41.983  30.805  36.097  1.00  0.00     0.029 A 
ATOM     48  N   UNL A   1      41.477  30.290  33.994  1.00  0.00    -0.354 N 
ATOM     49  N   UNL A   1      41.753  28.800  31.480  1.00  0.00    -0.248 NA
ATOM     50  C   UNL A   1      42.859  27.215  30.169  1.00  0.00     0.031 C 
ATOM     51  C   UNL A   1      42.879  29.828  35.652  1.00  0.00     0.029 A 
ATOM     52  C   UNL A   1      42.545  29.484  34.352  1.00  0.00     0.049 A 
ATOM     53  H   UNL A   1      41.030  30.277  33.117  1.00  0.00     0.167 HD
ATOM     54  C   UNL A   1      42.773  28.225  32.227  1.00  0.00     0.074 A 
ATOM     55  C   UNL A   1      43.401  27.233  31.379  1.00  0.00     0.031 C 
ATOM     56  C   UNL A   1      43.152  28.490  33.502  1.00  0.00     0.037 A 
BRANCH  43  57
ATOM     57  C   UNL A   1      39.880  32.990  36.207  1.00  0.00     0.057 A 
ATOM     58  C   UNL A   1      40.584  34.193  36.366  1.00  0.00     0.134 A 
ATOM     59  C   UNL A   1      38.968  32.642  37.212  1.00  0.00     0.134 A 
ATOM     60  F   UNL A   1      41.482  34.581  35.448  1.00  0.00    -0.206 F 
ATOM     61  C   UNL A   1      40.420  34.994  37.498  1.00  0.00     0.040 A 
ATOM     62  C   UNL A   1      38.770  33.452  38.332  1.00  0.00     0.040 A 
ATOM     63  F   UNL A   1      38.255  31.510  37.124  1.00  0.00    -0.206 F 
ATOM     64  C   UNL A   1      39.506  34.625  38.483  1.00  0.00     0.006 A 
ENDBRANCH  43  57
BRANCH  44  65
ATOM     65  C   UNL A   1      41.056  27.575  27.899  1.00  0.00     0.057 A 
ATOM     66  C   UNL A   1      40.442  26.322  27.773  1.00  0.00     0.134 A 
ATOM     67  C   UNL A   1      41.840  28.017  26.827  1.00  0.00     0.134 A 
ATOM     68  F   UNL A   1      39.693  25.835  28.774  1.00  0.00    -0.206 F 
ATOM     69  C   UNL A   1      40.619  25.530  26.639  1.00  0.00     0.040 A 
ATOM     70  C   UNL A   1      42.003  27.248  25.674  1.00  0.00     0.040 A 
ATOM     71  F   UNL A   1      42.446  29.212  26.880  1.00  0.00    -0.206 F 
ATOM     72  C   UNL A   1      41.398  25.995  25.581  1.00  0.00     0.006 A 
ENDBRANCH  44  65
BRANCH  56  73
ATOM     73  C   UNL A   1      44.258  27.653  34.080  1.00  0.00     0.057 A 
ATOM     74  C   UNL A   1      44.022  26.408  34.676  1.00  0.00     0.134 A 
ATOM     75  C   UNL A   1      45.587  28.094  34.012  1.00  0.00     0.134 A 
ATOM     76  F   UNL A   1      42.772  25.931  34.785  1.00  0.00    -0.206 F 
ATOM     77  C   UNL A   1      45.063  25.647  35.212  1.00  0.00     0.040 A 
ATOM     78  C   UNL A   1      46.638  27.327  34.515  1.00  0.00     0.040 A 
ATOM     79  F   UNL A   1      45.886  29.272  33.444  1.00  0.00    -0.206 F 
ATOM     80  C   UNL A   1      46.376  26.104  35.126  1.00  0.00     0.006 A 
ENDBRANCH  56  73
ENDBRANCH  30  31
ENDBRANCH  22  25
ENDBRANCH  20  21
ENDBRANCH  19  20
ENDBRANCH   1  19
TORSDOF 13
ENDMDL
MODEL 2
REMARK VINA RESULT:     -11.2      6.101     10.615
REMARK SMILES C[C@@H](C(=O)NCCCCNC(=O)c1ccc(-c2c3nc(c(-c4c(F)cccc4F)c4ccc([nH]4)c(-c4c(F)cccc4F)c4nc(c(-c5c(F)cccc5F)c5ccc2[nH]5)C=C4)C=C3)cc1)c1ccc(=O)n(C(F)F)c1
REMARK SMILES IDX 7 1 6 2 5 3 3 4 4 5 2 7 1 8 67 9 68 10 76 11 69 12 72 13
REMARK SMILES IDX 70 14 71 15 73 16 74 17 75 18 8 19 9 20 10 21 11 22 12 24
REMARK SMILES IDX 13 25 14 26 66 27 15 28 65 29 16 30 17 31 18 32 59 33 19 34
REMARK SMILES IDX 64 35 58 36 60 37 20 38 63 39 57 40 56 41 21 43 47 44 30 45
REMARK SMILES IDX 46 46 31 47 34 48 45 49 61 50 32 51 33 52 44 54 62 55 35 56
REMARK SMILES IDX 22 57 23 58 28 59 24 60 25 61 27 62 29 63 26 64 48 65 49 66
REMARK SMILES IDX 54 67 50 68 51 69 53 70 55 71 52 72 36 73 37 74 42 75 38 76
REMARK SMILES IDX 39 77 41 78 43 79 40 80
REMARK H PARENT 5 6 10 23 60 42 34 53
REMARK Flexibility Score: inf
ROOT
ATOM      1  C   UNL A   1      36.667  20.032  24.914  1.00  0.00     0.023 C 
ENDROOT
BRANCH   1   2
ATOM      2  C   UNL A   1      36.345  21.449  25.396  1.00  0.00     0.116 C 
BRANCH   2   3
ATOM      3  N   UNL A   1      35.470  21.426  26.550  1.00  0.00    -0.356 N 
ATOM      4  C   UNL A   1      34.131  21.650  26.660  1.00  0.00     0.227 C 
ATOM      5  O   UNL A   1      33.670  21.581  27.802  1.00  0.00    -0.274 OA
ATOM      6  H   UNL A   1      35.920  21.211  27.401  1.00  0.00     0.163 HD
BRANCH   4   7
ATOM      7  C   UNL A   1      33.267  21.910  25.399  1.00  0.00     0.107 C 
ATOM      8  C   UNL A   1      31.873  22.454  25.729  1.00  0.00     0.023 C 
BRANCH   7   9
ATOM      9  C   UNL A   1      33.065  20.692  24.500  1.00  0.00    -0.019 A 
ATOM     10  C   UNL A   1      32.425  20.916  23.214  1.00  0.00     0.012 A 
ATOM     11  C   UNL A   1      33.351  19.424  24.848  1.00  0.00     0.099 A 
ATOM     12  C   UNL A   1      32.085  19.891  22.423  1.00  0.00     0.072 A 
ATOM     13  N   UNL A   1      33.054  18.350  24.029  1.00  0.00    -0.258 N 
ATOM     14  C   UNL A   1      32.383  18.490  22.828  1.00  0.00     0.254 A 
ATOM     15  O   UNL A   1      32.022  17.578  22.091  1.00  0.00    -0.269 OA
BRANCH  13  16
ATOM     16  C   UNL A   1      33.373  17.011  24.456  1.00  0.00     0.451 C 
ATOM     17  F   UNL A   1      34.697  16.762  24.302  1.00  0.00    -0.185 F 
ATOM     18  F   UNL A   1      33.059  16.817  25.761  1.00  0.00    -0.185 F 
ENDBRANCH  13  16
ENDBRANCH   7   9
ENDBRANCH   4   7
ENDBRANCH   2   3
ENDBRANCH   1   2
BRANCH   1  19
ATOM     19  C   UNL A   1      38.156  19.748  24.703  1.00  0.00     0.023 C 
BRANCH  19  20
ATOM     20  C   UNL A   1      39.025  19.903  25.942  1.00  0.00     0.116 C 
BRANCH  20  21
ATOM     21  N   UNL A   1      40.182  19.024  25.930  1.00  0.00    -0.352 N 
ATOM     22  C   UNL A   1      41.502  19.337  26.136  1.00  0.00     0.251 C 
ATOM     23  H   UNL A   1      39.993  18.075  25.751  1.00  0.00     0.163 HD
ATOM     24  O   UNL A   1      42.371  18.490  25.944  1.00  0.00    -0.269 OA
BRANCH  22  25
ATOM     25  C   UNL A   1      41.880  20.700  26.565  1.00  0.00     0.039 A 
ATOM     26  C   UNL A   1      42.179  21.656  25.592  1.00  0.00     0.014 A 
ATOM     27  C   UNL A   1      41.945  21.033  27.922  1.00  0.00     0.014 A 
ATOM     28  C   UNL A   1      42.506  22.957  25.978  1.00  0.00     0.010 A 
ATOM     29  C   UNL A   1      42.182  22.349  28.300  1.00  0.00     0.010 A 
ATOM     30  C   UNL A   1      42.491  23.319  27.335  1.00  0.00    -0.014 A 
BRANCH  30  31
ATOM     31  C   UNL A   1      42.844  24.695  27.766  1.00  0.00     0.031 A 
ATOM     32  C   UNL A   1      44.288  25.113  27.827  1.00  0.00     0.074 A 
ATOM     33  C   UNL A   1      41.877  25.551  28.143  1.00  0.00     0.049 A 
ATOM     34  N   UNL A   1      44.805  26.256  28.202  1.00  0.00    -0.248 NA
ATOM     35  C   UNL A   1      45.287  24.101  27.448  1.00  0.00     0.031 C 
ATOM     36  C   UNL A   1      40.444  25.254  28.171  1.00  0.00     0.029 A 
ATOM     37  N   UNL A   1      41.955  26.851  28.576  1.00  0.00    -0.354 N 
ATOM     38  C   UNL A   1      46.183  26.092  28.122  1.00  0.00     0.074 A 
ATOM     39  C   UNL A   1      46.422  24.722  27.726  1.00  0.00     0.031 C 
ATOM     40  C   UNL A   1      39.776  26.351  28.561  1.00  0.00     0.029 A 
ATOM     41  C   UNL A   1      40.732  27.416  28.846  1.00  0.00     0.049 A 
ATOM     42  H   UNL A   1      42.807  27.333  28.684  1.00  0.00     0.167 HD
ATOM     43  C   UNL A   1      47.161  27.006  28.330  1.00  0.00     0.037 A 
ATOM     44  C   UNL A   1      40.420  28.655  29.269  1.00  0.00     0.037 A 
ATOM     45  C   UNL A   1      46.917  28.375  28.699  1.00  0.00     0.049 A 
ATOM     46  C   UNL A   1      41.523  29.652  29.500  1.00  0.00     0.074 A 
ATOM     47  C   UNL A   1      47.833  29.397  28.875  1.00  0.00     0.029 A 
ATOM     48  N   UNL A   1      45.664  28.911  28.956  1.00  0.00    -0.354 N 
ATOM     49  N   UNL A   1      42.817  29.507  29.349  1.00  0.00    -0.248 NA
ATOM     50  C   UNL A   1      41.116  30.991  29.948  1.00  0.00     0.031 C 
ATOM     51  C   UNL A   1      47.137  30.538  29.291  1.00  0.00     0.029 A 
ATOM     52  C   UNL A   1      45.783  30.245  29.311  1.00  0.00     0.049 A 
ATOM     53  H   UNL A   1      44.814  28.418  28.894  1.00  0.00     0.167 HD
ATOM     54  C   UNL A   1      43.376  30.745  29.640  1.00  0.00     0.074 A 
ATOM     55  C   UNL A   1      42.278  31.630  29.972  1.00  0.00     0.031 C 
ATOM     56  C   UNL A   1      44.680  31.118  29.627  1.00  0.00     0.037 A 
BRANCH  43  57
ATOM     57  C   UNL A   1      48.582  26.541  28.175  1.00  0.00     0.057 A 
ATOM     58  C   UNL A   1      49.322  26.032  29.252  1.00  0.00     0.134 A 
ATOM     59  C   UNL A   1      49.221  26.604  26.930  1.00  0.00     0.134 A 
ATOM     60  F   UNL A   1      48.778  25.956  30.476  1.00  0.00    -0.206 F 
ATOM     61  C   UNL A   1      50.655  25.641  29.106  1.00  0.00     0.040 A 
ATOM     62  C   UNL A   1      50.542  26.183  26.764  1.00  0.00     0.040 A 
ATOM     63  F   UNL A   1      48.573  27.073  25.854  1.00  0.00    -0.206 F 
ATOM     64  C   UNL A   1      51.266  25.711  27.856  1.00  0.00     0.006 A 
ENDBRANCH  43  57
BRANCH  44  65
ATOM     65  C   UNL A   1      38.998  29.040  29.455  1.00  0.00     0.057 A 
ATOM     66  C   UNL A   1      38.258  29.588  28.399  1.00  0.00     0.134 A 
ATOM     67  C   UNL A   1      38.344  28.877  30.681  1.00  0.00     0.134 A 
ATOM     68  F   UNL A   1      38.835  29.787  27.204  1.00  0.00    -0.206 F 
ATOM     69  C   UNL A   1      36.929  29.979  28.561  1.00  0.00     0.040 A 
ATOM     70  C   UNL A   1      37.007  29.237  30.850  1.00  0.00     0.040 A 
ATOM     71  F   UNL A   1      38.993  28.348  31.729  1.00  0.00    -0.206 F 
ATOM     72  C   UNL A   1      36.297  29.798  29.790  1.00  0.00     0.006 A 
ENDBRANCH  44  65
BRANCH  56  73
ATOM     73  C   UNL A   1      44.987  32.559  29.920  1.00  0.00     0.057 A 
ATOM     74  C   UNL A   1      44.971  33.547  28.928  1.00  0.00     0.134 A 
ATOM     75  C   UNL A   1      45.279  32.966  31.230  1.00  0.00     0.134 A 
ATOM     76  F   UNL A   1      44.710  33.224  27.651  1.00  0.00    -0.206 F 
ATOM     77  C   UNL A   1      45.264  34.880  29.221  1.00  0.00     0.040 A 
ATOM     78  C   UNL A   1      45.542  34.300  31.540  1.00  0.00     0.040 A 
ATOM     79  F   UNL A   1      45.301  32.074  32.232  1.00  0.00    -0.206 F 
ATOM     80  C   UNL A   1      45.544  35.261  30.531  1.00  0.00     0.006 A 
ENDBRANCH  56  73
ENDBRANCH  30  31
ENDBRANCH  22  25
ENDBRANCH  20  21
ENDBRANCH  19  20
ENDBRANCH   1  19
TORSDOF 13
ENDMDL
MODEL 3
REMARK VINA RESULT:     -11.1      5.942      9.801
REMARK SMILES C[C@@H](C(=O)NCCCCNC(=O)c1ccc(-c2c3nc(c(-c4c(F)cccc4F)c4ccc([nH]4)c(-c4c(F)cccc4F)c4nc(c(-c5c(F)cccc5F)c5ccc2[nH]5)C=C4)C=C3)cc1)c1ccc(=O)n(C(F)F)c1
REMARK SMILES IDX 7 1 6 2 5 3 3 4 4 5 2 7 1 8 67 9 68 10 76 11 69 12 72 13
REMARK SMILES IDX 70 14 71 15 73 16 74 17 75 18 8 19 9 20 10 21 11 22 12 24
REMARK SMILES IDX 13 25 14 26 66 27 15 28 65 29 16 30 17 31 18 32 59 33 19 34
REMARK SMILES IDX 64 35 58 36 60 37 20 38 63 39 57 40 56 41 21 43 47 44 30 45
REMARK SMILES IDX 46 46 31 47 34 48 45 49 61 50 32 51 33 52 44 54 62 55 35 56
REMARK SMILES IDX 22 57 23 58 28 59 24 60 25 61 27 62 29 63 26 64 48 65 49 66
REMARK SMILES IDX 54 67 50 68 51 69 53 70 55 71 52 72 36 73 37 74 42 75 38 76
REMARK SMILES IDX 39 77 41 78 43 79 40 80
REMARK H PARENT 5 6 10 23 60 42 34 53
REMARK Flexibility Score: inf
ROOT
ATOM      1  C   UNL A   1      36.628  20.257  24.915  1.00  0.00     0.023 C 
ENDROOT
BRANCH   1   2
ATOM      2  C   UNL A   1      36.324  21.611  25.562  1.00  0.00     0.116 C 
BRANCH   2   3
ATOM      3  N   UNL A   1      35.413  21.467  26.678  1.00  0.00    -0.356 N 
ATOM      4  C   UNL A   1      34.059  21.606  26.749  1.00  0.00     0.227 C 
ATOM      5  O   UNL A   1      33.563  21.442  27.866  1.00  0.00    -0.274 OA
ATOM      6  H   UNL A   1      35.844  21.229  27.531  1.00  0.00     0.163 HD
BRANCH   4   7
ATOM      7  C   UNL A   1      33.225  21.890  25.473  1.00  0.00     0.107 C 
ATOM      8  C   UNL A   1      31.823  22.426  25.779  1.00  0.00     0.023 C 
BRANCH   7   9
ATOM      9  C   UNL A   1      33.047  20.689  24.545  1.00  0.00    -0.019 A 
ATOM     10  C   UNL A   1      32.432  20.936  23.252  1.00  0.00     0.012 A 
ATOM     11  C   UNL A   1      33.331  19.416  24.874  1.00  0.00     0.099 A 
ATOM     12  C   UNL A   1      32.112  19.927  22.433  1.00  0.00     0.072 A 
ATOM     13  N   UNL A   1      33.056  18.357  24.027  1.00  0.00    -0.258 N 
ATOM     14  C   UNL A   1      32.408  18.519  22.816  1.00  0.00     0.254 A 
ATOM     15  O   UNL A   1      32.066  17.621  22.054  1.00  0.00    -0.269 OA
BRANCH  13  16
ATOM     16  C   UNL A   1      33.372  17.011  24.434  1.00  0.00     0.451 C 
ATOM     17  F   UNL A   1      34.703  16.779  24.325  1.00  0.00    -0.185 F 
ATOM     18  F   UNL A   1      33.010  16.782  25.720  1.00  0.00    -0.185 F 
ENDBRANCH  13  16
ENDBRANCH   7   9
ENDBRANCH   4   7
ENDBRANCH   2   3
ENDBRANCH   1   2
BRANCH   1  19
ATOM     19  C   UNL A   1      38.113  19.984  24.663  1.00  0.00     0.023 C 
BRANCH  19  20
ATOM     20  C   UNL A   1      39.016  20.162  25.874  1.00  0.00     0.116 C 
BRANCH  20  21
ATOM     21  N   UNL A   1      40.135  19.234  25.882  1.00  0.00    -0.352 N 
ATOM     22  C   UNL A   1      41.458  19.483  26.144  1.00  0.00     0.251 C 
ATOM     23  H   UNL A   1      39.912  18.299  25.670  1.00  0.00     0.163 HD
ATOM     24  O   UNL A   1      42.297  18.604  25.962  1.00  0.00    -0.269 OA
BRANCH  22  25
ATOM     25  C   UNL A   1      41.878  20.817  26.623  1.00  0.00     0.039 A 
ATOM     26  C   UNL A   1      42.287  21.771  25.689  1.00  0.00     0.014 A 
ATOM     27  C   UNL A   1      41.872  21.125  27.987  1.00  0.00     0.014 A 
ATOM     28  C   UNL A   1      42.656  23.047  26.120  1.00  0.00     0.010 A 
ATOM     29  C   UNL A   1      42.152  22.420  28.405  1.00  0.00     0.010 A 
ATOM     30  C   UNL A   1      42.572  23.388  27.480  1.00  0.00    -0.014 A 
BRANCH  30  31
ATOM     31  C   UNL A   1      42.967  24.736  27.960  1.00  0.00     0.031 A 
ATOM     32  C   UNL A   1      41.912  25.776  28.225  1.00  0.00     0.074 A 
ATOM     33  C   UNL A   1      44.269  25.040  28.116  1.00  0.00     0.049 A 
ATOM     34  N   UNL A   1      42.052  27.016  28.620  1.00  0.00    -0.248 NA
ATOM     35  C   UNL A   1      40.516  25.380  27.981  1.00  0.00     0.031 C 
ATOM     36  C   UNL A   1      45.389  24.135  27.852  1.00  0.00     0.029 A 
ATOM     37  N   UNL A   1      44.870  26.199  28.536  1.00  0.00    -0.354 N 
ATOM     38  C   UNL A   1      40.768  27.548  28.652  1.00  0.00     0.074 A 
ATOM     39  C   UNL A   1      39.872  26.519  28.175  1.00  0.00     0.031 C 
ATOM     40  C   UNL A   1      46.538  24.761  28.152  1.00  0.00     0.029 A 
ATOM     41  C   UNL A   1      46.241  26.119  28.595  1.00  0.00     0.049 A 
ATOM     42  H   UNL A   1      44.368  27.012  28.773  1.00  0.00     0.167 HD
ATOM     43  C   UNL A   1      40.368  28.774  29.068  1.00  0.00     0.037 A 
ATOM     44  C   UNL A   1      47.151  27.037  28.969  1.00  0.00     0.037 A 
ATOM     45  C   UNL A   1      41.260  29.786  29.566  1.00  0.00     0.049 A 
ATOM     46  C   UNL A   1      46.683  28.393  29.422  1.00  0.00     0.074 A 
ATOM     47  C   UNL A   1      40.951  31.037  30.070  1.00  0.00     0.029 A 
ATOM     48  N   UNL A   1      42.641  29.664  29.617  1.00  0.00    -0.354 N 
ATOM     49  N   UNL A   1      45.462  28.860  29.518  1.00  0.00    -0.248 NA
ATOM     50  C   UNL A   1      47.725  29.346  29.831  1.00  0.00     0.031 C 
ATOM     51  C   UNL A   1      42.149  31.693  30.374  1.00  0.00     0.029 A 
ATOM     52  C   UNL A   1      43.200  30.826  30.122  1.00  0.00     0.049 A 
ATOM     53  H   UNL A   1      43.149  28.869  29.336  1.00  0.00     0.167 HD
ATOM     54  C   UNL A   1      45.583  30.142  30.040  1.00  0.00     0.074 A 
ATOM     55  C   UNL A   1      46.999  30.377  30.242  1.00  0.00     0.031 C 
ATOM     56  C   UNL A   1      44.611  31.042  30.330  1.00  0.00     0.037 A 
BRANCH  43  57
ATOM     57  C   UNL A   1      38.898  29.083  28.986  1.00  0.00     0.057 A 
ATOM     58  C   UNL A   1      38.295  29.529  27.801  1.00  0.00     0.134 A 
ATOM     59  C   UNL A   1      38.074  28.931  30.108  1.00  0.00     0.134 A 
ATOM     60  F   UNL A   1      39.028  29.710  26.691  1.00  0.00    -0.206 F 
ATOM     61  C   UNL A   1      36.938  29.852  27.746  1.00  0.00     0.040 A 
ATOM     62  C   UNL A   1      36.708  29.217  30.056  1.00  0.00     0.040 A 
ATOM     63  F   UNL A   1      38.580  28.501  31.272  1.00  0.00    -0.206 F 
ATOM     64  C   UNL A   1      36.140  29.690  28.875  1.00  0.00     0.006 A 
ENDBRANCH  43  57
BRANCH  44  65
ATOM     65  C   UNL A   1      48.595  26.690  28.980  1.00  0.00     0.057 A 
ATOM     66  C   UNL A   1      49.205  26.191  30.138  1.00  0.00     0.134 A 
ATOM     67  C   UNL A   1      49.400  26.848  27.847  1.00  0.00     0.134 A 
ATOM     68  F   UNL A   1      48.490  26.034  31.262  1.00  0.00    -0.206 F 
ATOM     69  C   UNL A   1      50.564  25.882  30.175  1.00  0.00     0.040 A 
ATOM     70  C   UNL A   1      50.755  26.517  27.861  1.00  0.00     0.040 A 
ATOM     71  F   UNL A   1      48.875  27.312  26.703  1.00  0.00    -0.206 F 
ATOM     72  C   UNL A   1      51.344  26.040  29.030  1.00  0.00     0.006 A 
ENDBRANCH  44  65
BRANCH  56  73
ATOM     73  C   UNL A   1      45.038  32.339  30.957  1.00  0.00     0.057 A 
ATOM     74  C   UNL A   1      45.143  32.503  32.344  1.00  0.00     0.134 A 
ATOM     75  C   UNL A   1      45.375  33.435  30.151  1.00  0.00     0.134 A 
ATOM     76  F   UNL A   1      44.825  31.497  33.174  1.00  0.00    -0.206 F 
ATOM     77  C   UNL A   1      45.538  33.718  32.907  1.00  0.00     0.040 A 
ATOM     78  C   UNL A   1      45.801  34.644  30.701  1.00  0.00     0.040 A 
ATOM     79  F   UNL A   1      45.307  33.344  28.814  1.00  0.00    -0.206 F 
ATOM     80  C   UNL A   1      45.874  34.791  32.084  1.00  0.00     0.006 A 
ENDBRANCH  56  73
ENDBRANCH  30  31
ENDBRANCH  22  25
ENDBRANCH  20  21
ENDBRANCH  19  20
ENDBRANCH   1  19
TORSDOF 13
ENDMDL
