MODEL 1
REMARK VINA RESULT:      -8.8      0.000      0.000
REMARK SMILES CC(C)Cc1noc(CCCCC(=O)NCCCCNC(=O)c2ccc(-c3c4nc(c(-c5c(F)cccc5F)c5ccc([nH]5)c(-c5c(F)cccc5F)c5nc(c(-c6c(F)cccc6F)c6ccc3[nH]6)C=C5)C=C4)cc2)n1
REMARK SMILES IDX 13 1 14 2 15 3 12 5 11 6 10 7 9 8 8 9 5 10 6 11 77 12 7 13
REMARK SMILES IDX 4 14 2 15 1 16 3 17 16 18 17 19 18 20 19 21 20 22 21 23
REMARK SMILES IDX 22 25 23 26 24 27 76 28 25 29 75 30 26 31 27 32 28 33 69 34
REMARK SMILES IDX 29 35 74 36 68 37 70 38 30 39 73 40 67 41 66 42 31 44 57 45
REMARK SMILES IDX 40 46 56 47 41 48 44 49 55 50 71 51 42 52 43 53 54 55 72 56
REMARK SMILES IDX 45 57 32 58 33 59 38 60 34 61 35 62 37 63 39 64 36 65 58 66
REMARK SMILES IDX 59 67 64 68 60 69 61 70 63 71 65 72 62 73 46 74 47 75 52 76
REMARK SMILES IDX 48 77 49 78 51 79 53 80 50 81
REMARK H PARENT 15 4 20 24 70 43 44 54
REMARK Flexibility Score: inf
ROOT
ATOM      1  C   UNL A   1      36.120  33.633  35.121  1.00  0.00     0.219 C 
ATOM      2  O   UNL A   1      36.059  33.571  36.349  1.00  0.00    -0.275 OA
ATOM      3  N   UNL A   1      35.448  34.638  34.494  1.00  0.00    -0.356 N 
ATOM      4  H   UNL A   1      35.042  35.303  35.095  1.00  0.00     0.163 HD
ENDROOT
BRANCH   1   5
ATOM      5  C   UNL A   1      36.947  32.637  34.329  1.00  0.00     0.100 C 
BRANCH   5   6
ATOM      6  C   UNL A   1      38.191  32.114  35.054  1.00  0.00     0.010 C 
BRANCH   6   7
ATOM      7  C   UNL A   1      38.911  30.912  34.435  1.00  0.00     0.010 C 
BRANCH   7   8
ATOM      8  C   UNL A   1      40.384  30.739  34.816  1.00  0.00     0.100 C 
BRANCH   8   9
ATOM      9  C   UNL A   1      40.890  29.379  34.559  1.00  0.00     0.226 A 
ATOM     10  C   UNL A   1      41.800  27.513  34.624  1.00  0.00     0.172 A 
ATOM     11  N   UNL A   1      41.605  27.704  33.312  1.00  0.00    -0.063 NA
ATOM     12  N   UNL A   1      41.322  28.504  35.433  1.00  0.00    -0.196 NA
ATOM     13  O   UNL A   1      40.984  28.957  33.267  1.00  0.00    -0.339 OA
BRANCH  10  14
ATOM     14  C   UNL A   1      42.587  26.386  35.177  1.00  0.00     0.084 C 
BRANCH  14  15
ATOM     15  C   UNL A   1      41.733  25.115  35.365  1.00  0.00    -0.010 C 
ATOM     16  C   UNL A   1      42.549  23.823  35.231  1.00  0.00     0.008 C 
ATOM     17  C   UNL A   1      41.053  25.146  36.733  1.00  0.00     0.008 C 
ENDBRANCH  14  15
ENDBRANCH  10  14
ENDBRANCH   8   9
ENDBRANCH   7   8
ENDBRANCH   6   7
ENDBRANCH   5   6
ENDBRANCH   1   5
BRANCH   3  18
ATOM     18  C   UNL A   1      35.238  34.880  33.083  1.00  0.00     0.116 C 
BRANCH  18  19
ATOM     19  C   UNL A   1      34.194  35.977  32.872  1.00  0.00     0.023 C 
BRANCH  19  20
ATOM     20  C   UNL A   1      33.143  35.665  31.817  1.00  0.00     0.023 C 
BRANCH  20  21
ATOM     21  C   UNL A   1      33.506  36.118  30.413  1.00  0.00     0.116 C 
BRANCH  21  22
ATOM     22  N   UNL A   1      32.753  35.450  29.361  1.00  0.00    -0.352 N 
ATOM     23  C   UNL A   1      33.117  34.339  28.632  1.00  0.00     0.251 C 
ATOM     24  H   UNL A   1      31.876  35.841  29.143  1.00  0.00     0.163 HD
ATOM     25  O   UNL A   1      32.416  33.931  27.720  1.00  0.00    -0.269 OA
BRANCH  23  26
ATOM     26  C   UNL A   1      34.404  33.678  28.943  1.00  0.00     0.039 A 
ATOM     27  C   UNL A   1      35.534  34.019  28.196  1.00  0.00     0.014 A 
ATOM     28  C   UNL A   1      34.504  32.783  30.010  1.00  0.00     0.014 A 
ATOM     29  C   UNL A   1      36.777  33.509  28.567  1.00  0.00     0.010 A 
ATOM     30  C   UNL A   1      35.754  32.359  30.438  1.00  0.00     0.010 A 
ATOM     31  C   UNL A   1      36.902  32.703  29.711  1.00  0.00    -0.014 A 
BRANCH  31  32
ATOM     32  C   UNL A   1      38.223  32.178  30.138  1.00  0.00     0.031 A 
ATOM     33  C   UNL A   1      38.712  30.859  29.604  1.00  0.00     0.074 A 
ATOM     34  C   UNL A   1      38.959  32.861  31.036  1.00  0.00     0.049 A 
ATOM     35  N   UNL A   1      39.826  30.223  29.863  1.00  0.00    -0.248 NA
ATOM     36  C   UNL A   1      37.812  30.139  28.687  1.00  0.00     0.031 C 
ATOM     37  C   UNL A   1      38.561  34.112  31.685  1.00  0.00     0.029 A 
ATOM     38  N   UNL A   1      40.199  32.596  31.558  1.00  0.00    -0.354 N 
ATOM     39  C   UNL A   1      39.750  29.029  29.157  1.00  0.00     0.074 A 
ATOM     40  C   UNL A   1      38.454  28.994  28.518  1.00  0.00     0.031 C 
ATOM     41  C   UNL A   1      39.556  34.527  32.486  1.00  0.00     0.029 A 
ATOM     42  C   UNL A   1      40.648  33.561  32.426  1.00  0.00     0.049 A 
ATOM     43  H   UNL A   1      40.718  31.791  31.332  1.00  0.00     0.167 HD
ATOM     44  C   UNL A   1      40.689  28.064  29.021  1.00  0.00     0.037 A 
ATOM     45  C   UNL A   1      41.819  33.660  33.085  1.00  0.00     0.037 A 
ATOM     46  C   UNL A   1      41.994  28.121  29.623  1.00  0.00     0.049 A 
ATOM     47  C   UNL A   1      42.864  32.598  32.883  1.00  0.00     0.074 A 
ATOM     48  C   UNL A   1      43.044  27.230  29.493  1.00  0.00     0.029 A 
ATOM     49  N   UNL A   1      42.426  29.135  30.464  1.00  0.00    -0.354 N 
ATOM     50  N   UNL A   1      42.810  31.514  32.146  1.00  0.00    -0.248 NA
ATOM     51  C   UNL A   1      44.138  32.782  33.591  1.00  0.00     0.031 C 
ATOM     52  C   UNL A   1      44.104  27.690  30.282  1.00  0.00     0.029 A 
ATOM     53  C   UNL A   1      43.726  28.887  30.870  1.00  0.00     0.049 A 
ATOM     54  H   UNL A   1      41.889  29.915  30.732  1.00  0.00     0.167 HD
ATOM     55  C   UNL A   1      44.049  30.902  32.282  1.00  0.00     0.074 A 
ATOM     56  C   UNL A   1      44.839  31.745  33.155  1.00  0.00     0.031 C 
ATOM     57  C   UNL A   1      44.495  29.744  31.736  1.00  0.00     0.037 A 
BRANCH  44  58
ATOM     58  C   UNL A   1      40.335  26.878  28.172  1.00  0.00     0.057 A 
ATOM     59  C   UNL A   1      40.837  26.726  26.872  1.00  0.00     0.134 A 
ATOM     60  C   UNL A   1      39.491  25.872  28.660  1.00  0.00     0.134 A 
ATOM     61  F   UNL A   1      41.635  27.663  26.338  1.00  0.00    -0.206 F 
ATOM     62  C   UNL A   1      40.487  25.634  26.076  1.00  0.00     0.040 A 
ATOM     63  C   UNL A   1      39.157  24.762  27.883  1.00  0.00     0.040 A 
ATOM     64  F   UNL A   1      38.979  25.953  29.897  1.00  0.00    -0.206 F 
ATOM     65  C   UNL A   1      39.649  24.645  26.584  1.00  0.00     0.006 A 
ENDBRANCH  44  58
BRANCH  45  66
ATOM     66  C   UNL A   1      42.088  34.833  33.955  1.00  0.00     0.057 A 
ATOM     67  C   UNL A   1      42.699  35.983  33.443  1.00  0.00     0.134 A 
ATOM     68  C   UNL A   1      41.757  34.828  35.315  1.00  0.00     0.134 A 
ATOM     69  F   UNL A   1      43.055  36.040  32.151  1.00  0.00    -0.206 F 
ATOM     70  C   UNL A   1      42.994  37.079  34.255  1.00  0.00     0.040 A 
ATOM     71  C   UNL A   1      42.024  35.927  36.135  1.00  0.00     0.040 A 
ATOM     72  F   UNL A   1      41.162  33.760  35.863  1.00  0.00    -0.206 F 
ATOM     73  C   UNL A   1      42.652  37.053  35.606  1.00  0.00     0.006 A 
ENDBRANCH  45  66
BRANCH  57  74
ATOM     74  C   UNL A   1      45.906  29.343  32.048  1.00  0.00     0.057 A 
ATOM     75  C   UNL A   1      46.217  28.530  33.144  1.00  0.00     0.134 A 
ATOM     76  C   UNL A   1      46.962  29.758  31.227  1.00  0.00     0.134 A 
ATOM     77  F   UNL A   1      45.251  28.109  33.974  1.00  0.00    -0.206 F 
ATOM     78  C   UNL A   1      47.533  28.167  33.431  1.00  0.00     0.040 A 
ATOM     79  C   UNL A   1      48.280  29.381  31.489  1.00  0.00     0.040 A 
ATOM     80  F   UNL A   1      46.730  30.531  30.156  1.00  0.00    -0.206 F 
ATOM     81  C   UNL A   1      48.569  28.589  32.599  1.00  0.00     0.006 A 
ENDBRANCH  57  74
ENDBRANCH  31  32
ENDBRANCH  23  26
ENDBRANCH  21  22
ENDBRANCH  20  21
ENDBRANCH  19  20
ENDBRANCH  18  19
ENDBRANCH   3  18
TORSDOF 17
ENDMDL
MODEL 2
REMARK VINA RESULT:      -8.8      0.546      6.510
REMARK SMILES CC(C)Cc1noc(CCCCC(=O)NCCCCNC(=O)c2ccc(-c3c4nc(c(-c5c(F)cccc5F)c5ccc([nH]5)c(-c5c(F)cccc5F)c5nc(c(-c6c(F)cccc6F)c6ccc3[nH]6)C=C5)C=C4)cc2)n1
REMARK SMILES IDX 13 1 14 2 15 3 12 5 11 6 10 7 9 8 8 9 5 10 6 11 77 12 7 13
REMARK SMILES IDX 4 14 2 15 1 16 3 17 16 18 17 19 18 20 19 21 20 22 21 23
REMARK SMILES IDX 22 25 23 26 24 27 76 28 25 29 75 30 26 31 27 32 28 33 69 34
REMARK SMILES IDX 29 35 74 36 68 37 70 38 30 39 73 40 67 41 66 42 31 44 57 45
REMARK SMILES IDX 40 46 56 47 41 48 44 49 55 50 71 51 42 52 43 53 54 55 72 56
REMARK SMILES IDX 45 57 32 58 33 59 38 60 34 61 35 62 37 63 39 64 36 65 58 66
REMARK SMILES IDX 59 67 64 68 60 69 61 70 63 71 65 72 62 73 46 74 47 75 52 76
REMARK SMILES IDX 48 77 49 78 51 79 53 80 50 81
REMARK H PARENT 15 4 20 24 70 43 44 54
REMARK Flexibility Score: inf
ROOT
ATOM      1  C   UNL A   1      35.853  33.961  35.119  1.00  0.00     0.219 C 
ATOM      2  O   UNL A   1      35.787  33.812  36.340  1.00  0.00    -0.275 OA
ATOM      3  N   UNL A   1      35.118  34.958  34.553  1.00  0.00    -0.356 N 
ATOM      4  H   UNL A   1      34.662  35.551  35.192  1.00  0.00     0.163 HD
ENDROOT
BRANCH   1   5
ATOM      5  C   UNL A   1      36.753  33.079  34.272  1.00  0.00     0.100 C 
BRANCH   5   6
ATOM      6  C   UNL A   1      37.995  32.548  34.994  1.00  0.00     0.010 C 
BRANCH   6   7
ATOM      7  C   UNL A   1      38.642  31.276  34.435  1.00  0.00     0.010 C 
BRANCH   7   8
ATOM      8  C   UNL A   1      40.062  30.974  34.920  1.00  0.00     0.100 C 
BRANCH   8   9
ATOM      9  C   UNL A   1      40.438  29.558  34.754  1.00  0.00     0.226 A 
ATOM     10  C   UNL A   1      41.259  27.654  34.881  1.00  0.00     0.172 A 
ATOM     11  N   UNL A   1      40.775  27.687  33.632  1.00  0.00    -0.063 NA
ATOM     12  N   UNL A   1      41.022  28.774  35.626  1.00  0.00    -0.196 NA
ATOM     13  O   UNL A   1      40.213  28.966  33.548  1.00  0.00    -0.339 OA
BRANCH  10  14
ATOM     14  C   UNL A   1      42.104  26.554  35.401  1.00  0.00     0.084 C 
BRANCH  14  15
ATOM     15  C   UNL A   1      41.277  25.302  35.758  1.00  0.00    -0.010 C 
ATOM     16  C   UNL A   1      41.990  23.993  35.392  1.00  0.00     0.008 C 
ATOM     17  C   UNL A   1      40.954  25.303  37.251  1.00  0.00     0.008 C 
ENDBRANCH  14  15
ENDBRANCH  10  14
ENDBRANCH   8   9
ENDBRANCH   7   8
ENDBRANCH   6   7
ENDBRANCH   5   6
ENDBRANCH   1   5
BRANCH   3  18
ATOM     18  C   UNL A   1      34.902  35.279  33.158  1.00  0.00     0.116 C 
BRANCH  18  19
ATOM     19  C   UNL A   1      33.875  36.404  33.016  1.00  0.00     0.023 C 
BRANCH  19  20
ATOM     20  C   UNL A   1      32.808  36.164  31.956  1.00  0.00     0.023 C 
BRANCH  20  21
ATOM     21  C   UNL A   1      33.245  36.489  30.539  1.00  0.00     0.116 C 
BRANCH  21  22
ATOM     22  N   UNL A   1      32.624  35.655  29.520  1.00  0.00    -0.352 N 
ATOM     23  C   UNL A   1      33.139  34.530  28.915  1.00  0.00     0.251 C 
ATOM     24  H   UNL A   1      31.724  35.929  29.227  1.00  0.00     0.163 HD
ATOM     25  O   UNL A   1      32.534  33.970  28.015  1.00  0.00    -0.269 OA
BRANCH  23  26
ATOM     26  C   UNL A   1      34.468  34.040  29.344  1.00  0.00     0.039 A 
ATOM     27  C   UNL A   1      34.537  33.079  30.354  1.00  0.00     0.014 A 
ATOM     28  C   UNL A   1      35.629  34.478  28.702  1.00  0.00     0.014 A 
ATOM     29  C   UNL A   1      35.770  32.509  30.672  1.00  0.00     0.010 A 
ATOM     30  C   UNL A   1      36.834  33.837  28.948  1.00  0.00     0.010 A 
ATOM     31  C   UNL A   1      36.922  32.859  29.948  1.00  0.00    -0.014 A 
BRANCH  31  32
ATOM     32  C   UNL A   1      38.235  32.238  30.252  1.00  0.00     0.031 A 
ATOM     33  C   UNL A   1      39.195  32.935  31.178  1.00  0.00     0.074 A 
ATOM     34  C   UNL A   1      38.582  31.077  29.663  1.00  0.00     0.049 A 
ATOM     35  N   UNL A   1      40.392  32.567  31.558  1.00  0.00    -0.248 NA
ATOM     36  C   UNL A   1      38.770  34.237  31.717  1.00  0.00     0.031 C 
ATOM     37  C   UNL A   1      37.771  30.343  28.689  1.00  0.00     0.029 A 
ATOM     38  N   UNL A   1      39.710  30.311  29.801  1.00  0.00    -0.354 N 
ATOM     39  C   UNL A   1      40.864  33.596  32.362  1.00  0.00     0.074 A 
ATOM     40  C   UNL A   1      39.858  34.634  32.359  1.00  0.00     0.031 C 
ATOM     41  C   UNL A   1      38.411  29.212  28.348  1.00  0.00     0.029 A 
ATOM     42  C   UNL A   1      39.684  29.154  29.060  1.00  0.00     0.049 A 
ATOM     43  H   UNL A   1      40.468  30.564  30.375  1.00  0.00     0.167 HD
ATOM     44  C   UNL A   1      42.014  33.657  33.073  1.00  0.00     0.037 A 
ATOM     45  C   UNL A   1      40.581  28.153  28.979  1.00  0.00     0.037 A 
ATOM     46  C   UNL A   1      42.993  32.605  33.110  1.00  0.00     0.049 A 
ATOM     47  C   UNL A   1      41.831  28.222  29.812  1.00  0.00     0.074 A 
ATOM     48  C   UNL A   1      44.159  32.537  33.850  1.00  0.00     0.029 A 
ATOM     49  N   UNL A   1      42.911  31.431  32.377  1.00  0.00    -0.354 N 
ATOM     50  N   UNL A   1      42.226  29.165  30.634  1.00  0.00    -0.248 NA
ATOM     51  C   UNL A   1      42.751  27.081  29.719  1.00  0.00     0.031 C 
ATOM     52  C   UNL A   1      44.801  31.332  33.541  1.00  0.00     0.029 A 
ATOM     53  C   UNL A   1      44.013  30.635  32.639  1.00  0.00     0.049 A 
ATOM     54  H   UNL A   1      42.179  31.198  31.762  1.00  0.00     0.167 HD
ATOM     55  C   UNL A   1      43.426  28.720  31.174  1.00  0.00     0.074 A 
ATOM     56  C   UNL A   1      43.682  27.415  30.601  1.00  0.00     0.031 C 
ATOM     57  C   UNL A   1      44.245  29.336  32.061  1.00  0.00     0.037 A 
BRANCH  44  58
ATOM     58  C   UNL A   1      42.257  34.899  33.880  1.00  0.00     0.057 A 
ATOM     59  C   UNL A   1      41.840  35.005  35.214  1.00  0.00     0.134 A 
ATOM     60  C   UNL A   1      42.921  35.999  33.321  1.00  0.00     0.134 A 
ATOM     61  F   UNL A   1      41.182  33.996  35.802  1.00  0.00    -0.206 F 
ATOM     62  C   UNL A   1      42.046  36.171  35.953  1.00  0.00     0.040 A 
ATOM     63  C   UNL A   1      43.157  37.159  34.061  1.00  0.00     0.040 A 
ATOM     64  F   UNL A   1      43.350  35.963  32.051  1.00  0.00    -0.206 F 
ATOM     65  C   UNL A   1      42.712  37.251  35.378  1.00  0.00     0.006 A 
ENDBRANCH  44  58
BRANCH  45  66
ATOM     66  C   UNL A   1      40.308  26.974  28.120  1.00  0.00     0.057 A 
ATOM     67  C   UNL A   1      39.489  25.931  28.568  1.00  0.00     0.134 A 
ATOM     68  C   UNL A   1      40.866  26.853  26.842  1.00  0.00     0.134 A 
ATOM     69  F   UNL A   1      38.939  25.982  29.791  1.00  0.00    -0.206 F 
ATOM     70  C   UNL A   1      39.252  24.798  27.788  1.00  0.00     0.040 A 
ATOM     71  C   UNL A   1      40.619  25.736  26.041  1.00  0.00     0.040 A 
ATOM     72  F   UNL A   1      41.651  27.822  26.351  1.00  0.00    -0.206 F 
ATOM     73  C   UNL A   1      39.817  24.701  26.517  1.00  0.00     0.006 A 
ENDBRANCH  45  66
BRANCH  57  74
ATOM     74  C   UNL A   1      45.475  28.589  32.483  1.00  0.00     0.057 A 
ATOM     75  C   UNL A   1      46.644  28.598  31.713  1.00  0.00     0.134 A 
ATOM     76  C   UNL A   1      45.495  27.872  33.686  1.00  0.00     0.134 A 
ATOM     77  F   UNL A   1      46.684  29.256  30.545  1.00  0.00    -0.206 F 
ATOM     78  C   UNL A   1      47.782  27.894  32.110  1.00  0.00     0.040 A 
ATOM     79  C   UNL A   1      46.635  27.186  34.106  1.00  0.00     0.040 A 
ATOM     80  F   UNL A   1      44.410  27.832  34.474  1.00  0.00    -0.206 F 
ATOM     81  C   UNL A   1      47.781  27.190  33.313  1.00  0.00     0.006 A 
ENDBRANCH  57  74
ENDBRANCH  31  32
ENDBRANCH  23  26
ENDBRANCH  21  22
ENDBRANCH  20  21
ENDBRANCH  19  20
ENDBRANCH  18  19
ENDBRANCH   3  18
TORSDOF 17
ENDMDL
MODEL 3
REMARK VINA RESULT:      -8.2      6.179     12.089
REMARK SMILES CC(C)Cc1noc(CCCCC(=O)NCCCCNC(=O)c2ccc(-c3c4nc(c(-c5c(F)cccc5F)c5ccc([nH]5)c(-c5c(F)cccc5F)c5nc(c(-c6c(F)cccc6F)c6ccc3[nH]6)C=C5)C=C4)cc2)n1
REMARK SMILES IDX 13 1 14 2 15 3 12 5 11 6 10 7 9 8 8 9 5 10 6 11 77 12 7 13
REMARK SMILES IDX 4 14 2 15 1 16 3 17 16 18 17 19 18 20 19 21 20 22 21 23
REMARK SMILES IDX 22 25 23 26 24 27 76 28 25 29 75 30 26 31 27 32 28 33 69 34
REMARK SMILES IDX 29 35 74 36 68 37 70 38 30 39 73 40 67 41 66 42 31 44 57 45
REMARK SMILES IDX 40 46 56 47 41 48 44 49 55 50 71 51 42 52 43 53 54 55 72 56
REMARK SMILES IDX 45 57 32 58 33 59 38 60 34 61 35 62 37 63 39 64 36 65 58 66
REMARK SMILES IDX 59 67 64 68 60 69 61 70 63 71 65 72 62 73 46 74 47 75 52 76
REMARK SMILES IDX 48 77 49 78 51 79 53 80 50 81
REMARK H PARENT 15 4 20 24 70 43 44 54
REMARK Flexibility Score: inf
ROOT
ATOM      1  C   UNL A   1      39.158  23.929  27.269  1.00  0.00     0.219 C 
ATOM      2  O   UNL A   1      39.227  24.687  28.237  1.00  0.00    -0.275 OA
ATOM      3  N   UNL A   1      39.895  22.784  27.296  1.00  0.00    -0.356 N 
ATOM      4  H   UNL A   1      40.356  22.607  28.147  1.00  0.00     0.163 HD
ENDROOT
BRANCH   1   5
ATOM      5  C   UNL A   1      38.250  24.244  26.094  1.00  0.00     0.100 C 
BRANCH   5   6
ATOM      6  C   UNL A   1      36.862  23.600  26.164  1.00  0.00     0.010 C 
BRANCH   6   7
ATOM      7  C   UNL A   1      35.880  23.925  25.033  1.00  0.00     0.010 C 
BRANCH   7   8
ATOM      8  C   UNL A   1      35.734  22.862  23.941  1.00  0.00     0.100 C 
BRANCH   8   9
ATOM      9  C   UNL A   1      34.646  21.904  24.212  1.00  0.00     0.226 A 
ATOM     10  C   UNL A   1      33.461  20.235  24.566  1.00  0.00     0.172 A 
ATOM     11  N   UNL A   1      32.574  21.148  24.148  1.00  0.00    -0.063 NA
ATOM     12  N   UNL A   1      34.748  20.681  24.671  1.00  0.00    -0.196 NA
ATOM     13  O   UNL A   1      33.369  22.276  23.918  1.00  0.00    -0.339 OA
BRANCH  10  14
ATOM     14  C   UNL A   1      33.127  18.808  24.780  1.00  0.00     0.084 C 
BRANCH  14  15
ATOM     15  C   UNL A   1      33.447  17.941  23.545  1.00  0.00    -0.010 C 
ATOM     16  C   UNL A   1      33.533  16.445  23.873  1.00  0.00     0.008 C 
ATOM     17  C   UNL A   1      32.388  18.165  22.467  1.00  0.00     0.008 C 
ENDBRANCH  14  15
ENDBRANCH  10  14
ENDBRANCH   8   9
ENDBRANCH   7   8
ENDBRANCH   6   7
ENDBRANCH   5   6
ENDBRANCH   1   5
BRANCH   3  18
ATOM     18  C   UNL A   1      40.107  21.789  26.267  1.00  0.00     0.116 C 
BRANCH  18  19
ATOM     19  C   UNL A   1      41.532  21.236  26.335  1.00  0.00     0.023 C 
BRANCH  19  20
ATOM     20  C   UNL A   1      41.672  19.777  25.926  1.00  0.00     0.023 C 
BRANCH  20  21
ATOM     21  C   UNL A   1      43.046  19.182  26.176  1.00  0.00     0.116 C 
BRANCH  21  22
ATOM     22  N   UNL A   1      43.745  18.773  24.967  1.00  0.00    -0.352 N 
ATOM     23  C   UNL A   1      44.602  19.520  24.188  1.00  0.00     0.251 C 
ATOM     24  H   UNL A   1      43.585  17.848  24.668  1.00  0.00     0.163 HD
ATOM     25  O   UNL A   1      45.060  19.069  23.151  1.00  0.00    -0.269 OA
BRANCH  23  26
ATOM     26  C   UNL A   1      44.919  20.903  24.610  1.00  0.00     0.039 A 
ATOM     27  C   UNL A   1      44.449  21.966  23.837  1.00  0.00     0.014 A 
ATOM     28  C   UNL A   1      45.613  21.143  25.798  1.00  0.00     0.014 A 
ATOM     29  C   UNL A   1      44.621  23.272  24.295  1.00  0.00     0.010 A 
ATOM     30  C   UNL A   1      45.692  22.434  26.300  1.00  0.00     0.010 A 
ATOM     31  C   UNL A   1      45.213  23.514  25.546  1.00  0.00    -0.014 A 
BRANCH  31  32
ATOM     32  C   UNL A   1      45.373  24.896  26.063  1.00  0.00     0.031 A 
ATOM     33  C   UNL A   1      46.724  25.558  26.019  1.00  0.00     0.074 A 
ATOM     34  C   UNL A   1      44.322  25.535  26.611  1.00  0.00     0.049 A 
ATOM     35  N   UNL A   1      47.075  26.749  26.431  1.00  0.00    -0.248 NA
ATOM     36  C   UNL A   1      47.837  24.761  25.476  1.00  0.00     0.031 C 
ATOM     37  C   UNL A   1      42.980  24.972  26.782  1.00  0.00     0.029 A 
ATOM     38  N   UNL A   1      44.219  26.801  27.126  1.00  0.00    -0.354 N 
ATOM     39  C   UNL A   1      48.444  26.835  26.212  1.00  0.00     0.074 A 
ATOM     40  C   UNL A   1      48.874  25.554  25.699  1.00  0.00     0.031 C 
ATOM     41  C   UNL A   1      42.179  25.904  27.323  1.00  0.00     0.029 A 
ATOM     42  C   UNL A   1      42.954  27.118  27.559  1.00  0.00     0.049 A 
ATOM     43  H   UNL A   1      44.978  27.425  27.180  1.00  0.00     0.167 HD
ATOM     44  C   UNL A   1      49.265  27.896  26.385  1.00  0.00     0.037 A 
ATOM     45  C   UNL A   1      42.474  28.266  28.074  1.00  0.00     0.037 A 
ATOM     46  C   UNL A   1      48.828  29.183  26.854  1.00  0.00     0.049 A 
ATOM     47  C   UNL A   1      43.396  29.446  28.215  1.00  0.00     0.074 A 
ATOM     48  C   UNL A   1      49.565  30.345  27.001  1.00  0.00     0.029 A 
ATOM     49  N   UNL A   1      47.531  29.477  27.245  1.00  0.00    -0.354 N 
ATOM     50  N   UNL A   1      44.672  29.538  27.926  1.00  0.00    -0.248 NA
ATOM     51  C   UNL A   1      42.806  30.686  28.738  1.00  0.00     0.031 C 
ATOM     52  C   UNL A   1      48.718  31.335  27.511  1.00  0.00     0.029 A 
ATOM     53  C   UNL A   1      47.447  30.799  27.644  1.00  0.00     0.049 A 
ATOM     54  H   UNL A   1      46.780  28.839  27.240  1.00  0.00     0.167 HD
ATOM     55  C   UNL A   1      45.031  30.850  28.208  1.00  0.00     0.074 A 
ATOM     56  C   UNL A   1      43.834  31.520  28.672  1.00  0.00     0.031 C 
ATOM     57  C   UNL A   1      46.243  31.447  28.097  1.00  0.00     0.037 A 
BRANCH  44  58
ATOM     58  C   UNL A   1      50.715  27.705  26.045  1.00  0.00     0.057 A 
ATOM     59  C   UNL A   1      51.663  27.369  27.022  1.00  0.00     0.134 A 
ATOM     60  C   UNL A   1      51.168  27.849  24.727  1.00  0.00     0.134 A 
ATOM     61  F   UNL A   1      51.298  27.235  28.305  1.00  0.00    -0.206 F 
ATOM     62  C   UNL A   1      53.014  27.216  26.706  1.00  0.00     0.040 A 
ATOM     63  C   UNL A   1      52.512  27.670  24.396  1.00  0.00     0.040 A 
ATOM     64  F   UNL A   1      50.313  28.166  23.744  1.00  0.00    -0.206 F 
ATOM     65  C   UNL A   1      53.441  27.360  25.388  1.00  0.00     0.006 A 
ENDBRANCH  44  58
BRANCH  45  66
ATOM     66  C   UNL A   1      41.040  28.376  28.443  1.00  0.00     0.057 A 
ATOM     67  C   UNL A   1      40.595  28.007  29.718  1.00  0.00     0.134 A 
ATOM     68  C   UNL A   1      40.082  28.837  27.533  1.00  0.00     0.134 A 
ATOM     69  F   UNL A   1      41.465  27.541  30.627  1.00  0.00    -0.206 F 
ATOM     70  C   UNL A   1      39.246  28.068  30.068  1.00  0.00     0.040 A 
ATOM     71  C   UNL A   1      38.732  28.926  27.878  1.00  0.00     0.040 A 
ATOM     72  F   UNL A   1      40.446  29.215  26.300  1.00  0.00    -0.206 F 
ATOM     73  C   UNL A   1      38.310  28.533  29.146  1.00  0.00     0.006 A 
ENDBRANCH  45  66
BRANCH  57  74
ATOM     74  C   UNL A   1      46.321  32.901  28.457  1.00  0.00     0.057 A 
ATOM     75  C   UNL A   1      46.094  33.909  27.511  1.00  0.00     0.134 A 
ATOM     76  C   UNL A   1      46.606  33.295  29.770  1.00  0.00     0.134 A 
ATOM     77  F   UNL A   1      45.828  33.596  26.235  1.00  0.00    -0.206 F 
ATOM     78  C   UNL A   1      46.176  35.259  27.854  1.00  0.00     0.040 A 
ATOM     79  C   UNL A   1      46.666  34.642  30.130  1.00  0.00     0.040 A 
ATOM     80  F   UNL A   1      46.825  32.378  30.724  1.00  0.00    -0.206 F 
ATOM     81  C   UNL A   1      46.457  35.628  29.168  1.00  0.00     0.006 A 
ENDBRANCH  57  74
ENDBRANCH  31  32
ENDBRANCH  23  26
ENDBRANCH  21  22
ENDBRANCH  20  21
ENDBRANCH  19  20
ENDBRANCH  18  19
ENDBRANCH   3  18
TORSDOF 17
ENDMDL
