MODEL 1
REMARK VINA RESULT:     -12.4      0.000      0.000
REMARK SMILES Cc1nn(C)c(=O)c(C(=O)N[C@H]2C=C[C@H](C(=O)NCCCCNC(=O)c3ccc(-c4c5nc(c(-c6c(F)cccc6F)c6ccc([nH]6)c(-c6c(F)cccc6F)c6nc(c(-c7c(F)cccc7F)c7ccc4[nH]7)C=C6)C=C5)cc3)C2)c1C
REMARK SMILES IDX 20 1 19 2 18 3 16 4 17 5 15 7 12 8 13 9 80 10 14 11 11 12
REMARK SMILES IDX 9 13 10 14 8 16 1 17 2 18 3 19 81 20 4 21 82 22 5 23 6 24
REMARK SMILES IDX 7 25 21 26 22 27 23 28 24 29 25 31 26 32 27 33 79 34 28 35
REMARK SMILES IDX 78 36 29 37 30 38 31 39 72 40 32 41 77 42 71 43 73 44 33 45
REMARK SMILES IDX 76 46 70 47 69 48 34 50 60 51 43 52 59 53 44 54 47 55 58 56
REMARK SMILES IDX 74 57 45 58 46 59 57 61 75 62 48 63 35 64 36 65 41 66 37 67
REMARK SMILES IDX 38 68 40 69 42 70 39 71 61 72 62 73 67 74 63 75 64 76 66 77
REMARK SMILES IDX 68 78 65 79 49 80 50 81 55 82 51 83 52 84 54 85 56 86 53 87
REMARK H PARENT 18 6 11 15 23 30 73 49 47 60
REMARK Flexibility Score: inf
ROOT
ATOM      1  C   UNL A   1      37.008  21.882  24.226  1.00  0.00     0.023 C 
ENDROOT
BRANCH   1   2
ATOM      2  C   UNL A   1      35.486  21.949  24.201  1.00  0.00     0.116 C 
BRANCH   2   3
ATOM      3  N   UNL A   1      35.007  22.967  23.293  1.00  0.00    -0.356 N 
ATOM      4  C   UNL A   1      33.789  23.205  22.748  1.00  0.00     0.227 C 
ATOM      5  O   UNL A   1      33.726  24.194  22.005  1.00  0.00    -0.274 OA
ATOM      6  H   UNL A   1      35.699  23.611  23.015  1.00  0.00     0.163 HD
BRANCH   4   7
ATOM      7  C   UNL A   1      32.539  22.313  22.978  1.00  0.00     0.103 C 
ATOM      8  C   UNL A   1      31.516  23.489  24.795  1.00  0.00     0.106 C 
ATOM      9  C   UNL A   1      31.906  22.116  25.238  1.00  0.00    -0.006 C 
ATOM     10  C   UNL A   1      31.345  23.248  23.292  1.00  0.00     0.047 C 
ATOM     11  C   UNL A   1      32.480  21.462  24.218  1.00  0.00    -0.016 C 
BRANCH   8  12
ATOM     12  N   UNL A   1      30.381  23.971  25.529  1.00  0.00    -0.346 N 
ATOM     13  C   UNL A   1      30.035  25.262  25.824  1.00  0.00     0.257 C 
ATOM     14  O   UNL A   1      29.271  25.468  26.765  1.00  0.00    -0.269 OA
ATOM     15  H   UNL A   1      29.767  23.279  25.865  1.00  0.00     0.164 HD
BRANCH  13  16
ATOM     16  C   UNL A   1      30.542  26.384  24.994  1.00  0.00     0.111 A 
ATOM     17  C   UNL A   1      33.561  28.361  24.014  1.00  0.00     0.069 C 
ATOM     18  C   UNL A   1      32.097  28.037  24.226  1.00  0.00     0.062 A 
ATOM     19  N   UNL A   1      31.262  28.625  23.430  1.00  0.00    -0.175 NA
ATOM     20  C   UNL A   1      31.707  27.015  25.238  1.00  0.00    -0.010 A 
ATOM     21  N   UNL A   1      29.970  28.177  23.436  1.00  0.00    -0.232 N 
ATOM     22  C   UNL A   1      32.595  26.841  26.428  1.00  0.00     0.047 C 
ATOM     23  C   UNL A   1      29.028  28.953  22.654  1.00  0.00     0.178 C 
ATOM     24  C   UNL A   1      29.599  26.955  23.984  1.00  0.00     0.279 A 
ATOM     25  O   UNL A   1      28.542  26.387  23.712  1.00  0.00    -0.267 OA
ENDBRANCH  13  16
ENDBRANCH   8  12
ENDBRANCH   4   7
ENDBRANCH   2   3
ENDBRANCH   1   2
BRANCH   1  26
ATOM     26  C   UNL A   1      37.581  20.567  24.756  1.00  0.00     0.023 C 
BRANCH  26  27
ATOM     27  C   UNL A   1      38.681  20.705  25.806  1.00  0.00     0.116 C 
BRANCH  27  28
ATOM     28  N   UNL A   1      39.702  19.670  25.712  1.00  0.00    -0.352 N 
ATOM     29  C   UNL A   1      41.043  19.737  26.004  1.00  0.00     0.251 C 
ATOM     30  H   UNL A   1      39.384  18.794  25.393  1.00  0.00     0.163 HD
ATOM     31  O   UNL A   1      41.777  18.789  25.769  1.00  0.00    -0.269 OA
BRANCH  29  32
ATOM     32  C   UNL A   1      41.596  20.982  26.574  1.00  0.00     0.039 A 
ATOM     33  C   UNL A   1      42.116  21.943  25.706  1.00  0.00     0.014 A 
ATOM     34  C   UNL A   1      41.569  21.207  27.953  1.00  0.00     0.014 A 
ATOM     35  C   UNL A   1      42.542  23.169  26.216  1.00  0.00     0.010 A 
ATOM     36  C   UNL A   1      41.931  22.455  28.452  1.00  0.00     0.010 A 
ATOM     37  C   UNL A   1      42.418  23.446  27.587  1.00  0.00    -0.014 A 
BRANCH  37  38
ATOM     38  C   UNL A   1      42.795  24.770  28.136  1.00  0.00     0.031 A 
ATOM     39  C   UNL A   1      41.745  25.826  28.337  1.00  0.00     0.074 A 
ATOM     40  C   UNL A   1      44.087  25.036  28.407  1.00  0.00     0.049 A 
ATOM     41  N   UNL A   1      41.883  27.058  28.754  1.00  0.00    -0.248 NA
ATOM     42  C   UNL A   1      40.361  25.454  28.005  1.00  0.00     0.031 C 
ATOM     43  C   UNL A   1      45.201  24.105  28.220  1.00  0.00     0.029 A 
ATOM     44  N   UNL A   1      44.683  26.170  28.900  1.00  0.00    -0.354 N 
ATOM     45  C   UNL A   1      40.609  27.607  28.731  1.00  0.00     0.074 A 
ATOM     46  C   UNL A   1      39.719  26.596  28.202  1.00  0.00     0.031 C 
ATOM     47  C   UNL A   1      46.338  24.692  28.625  1.00  0.00     0.029 A 
ATOM     48  C   UNL A   1      46.041  26.051  29.067  1.00  0.00     0.049 A 
ATOM     49  H   UNL A   1      44.183  26.992  29.113  1.00  0.00     0.167 HD
ATOM     50  C   UNL A   1      40.211  28.833  29.142  1.00  0.00     0.037 A 
ATOM     51  C   UNL A   1      46.943  26.938  29.530  1.00  0.00     0.037 A 
ATOM     52  C   UNL A   1      41.093  29.828  29.690  1.00  0.00     0.049 A 
ATOM     53  C   UNL A   1      46.479  28.302  29.957  1.00  0.00     0.074 A 
ATOM     54  C   UNL A   1      40.779  31.087  30.171  1.00  0.00     0.029 A 
ATOM     55  N   UNL A   1      42.463  29.673  29.834  1.00  0.00    -0.354 N 
ATOM     56  N   UNL A   1      45.263  28.794  29.969  1.00  0.00    -0.248 NA
ATOM     57  C   UNL A   1      47.510  29.235  30.435  1.00  0.00     0.031 C 
ATOM     58  C   UNL A   1      41.965  31.707  30.575  1.00  0.00     0.029 A 
ATOM     59  C   UNL A   1      43.011  30.820  30.382  1.00  0.00     0.049 A 
ATOM     60  H   UNL A   1      42.971  28.867  29.583  1.00  0.00     0.167 HD
ATOM     61  C   UNL A   1      45.379  30.082  30.474  1.00  0.00     0.074 A 
ATOM     62  C   UNL A   1      46.782  30.293  30.768  1.00  0.00     0.031 C 
ATOM     63  C   UNL A   1      44.409  31.007  30.673  1.00  0.00     0.037 A 
BRANCH  50  64
ATOM     64  C   UNL A   1      38.751  29.157  29.034  1.00  0.00     0.057 A 
ATOM     65  C   UNL A   1      37.899  29.073  30.144  1.00  0.00     0.134 A 
ATOM     66  C   UNL A   1      38.200  29.601  27.826  1.00  0.00     0.134 A 
ATOM     67  F   UNL A   1      38.364  28.642  31.326  1.00  0.00    -0.206 F 
ATOM     68  C   UNL A   1      36.546  29.399  30.051  1.00  0.00     0.040 A 
ATOM     69  C   UNL A   1      36.853  29.953  27.727  1.00  0.00     0.040 A 
ATOM     70  F   UNL A   1      38.961  29.707  26.727  1.00  0.00    -0.206 F 
ATOM     71  C   UNL A   1      36.021  29.848  28.841  1.00  0.00     0.006 A 
ENDBRANCH  50  64
BRANCH  51  72
ATOM     72  C   UNL A   1      48.369  26.548  29.651  1.00  0.00     0.057 A 
ATOM     73  C   UNL A   1      49.280  26.842  28.631  1.00  0.00     0.134 A 
ATOM     74  C   UNL A   1      48.858  25.890  30.785  1.00  0.00     0.134 A 
ATOM     75  F   UNL A   1      48.866  27.456  27.513  1.00  0.00    -0.206 F 
ATOM     76  C   UNL A   1      50.627  26.487  28.729  1.00  0.00     0.040 A 
ATOM     77  C   UNL A   1      50.207  25.548  30.906  1.00  0.00     0.040 A 
ATOM     78  F   UNL A   1      48.036  25.587  31.801  1.00  0.00    -0.206 F 
ATOM     79  C   UNL A   1      51.094  25.843  29.873  1.00  0.00     0.006 A 
ENDBRANCH  51  72
BRANCH  63  80
ATOM     80  C   UNL A   1      44.822  32.328  31.253  1.00  0.00     0.057 A 
ATOM     81  C   UNL A   1      45.157  33.414  30.436  1.00  0.00     0.134 A 
ATOM     82  C   UNL A   1      44.807  32.536  32.638  1.00  0.00     0.134 A 
ATOM     83  F   UNL A   1      45.200  33.274  29.102  1.00  0.00    -0.206 F 
ATOM     84  C   UNL A   1      45.472  34.661  30.977  1.00  0.00     0.040 A 
ATOM     85  C   UNL A   1      45.097  33.784  33.189  1.00  0.00     0.040 A 
ATOM     86  F   UNL A   1      44.484  31.537  33.474  1.00  0.00    -0.206 F 
ATOM     87  C   UNL A   1      45.432  34.850  32.358  1.00  0.00     0.006 A 
ENDBRANCH  63  80
ENDBRANCH  37  38
ENDBRANCH  29  32
ENDBRANCH  27  28
ENDBRANCH  26  27
ENDBRANCH   1  26
TORSDOF 13
ENDMDL
MODEL 2
REMARK VINA RESULT:     -12.4      0.250      6.199
REMARK SMILES Cc1nn(C)c(=O)c(C(=O)N[C@H]2C=C[C@H](C(=O)NCCCCNC(=O)c3ccc(-c4c5nc(c(-c6c(F)cccc6F)c6ccc([nH]6)c(-c6c(F)cccc6F)c6nc(c(-c7c(F)cccc7F)c7ccc4[nH]7)C=C6)C=C5)cc3)C2)c1C
REMARK SMILES IDX 20 1 19 2 18 3 16 4 17 5 15 7 12 8 13 9 80 10 14 11 11 12
REMARK SMILES IDX 9 13 10 14 8 16 1 17 2 18 3 19 81 20 4 21 82 22 5 23 6 24
REMARK SMILES IDX 7 25 21 26 22 27 23 28 24 29 25 31 26 32 27 33 79 34 28 35
REMARK SMILES IDX 78 36 29 37 30 38 31 39 72 40 32 41 77 42 71 43 73 44 33 45
REMARK SMILES IDX 76 46 70 47 69 48 34 50 60 51 43 52 59 53 44 54 47 55 58 56
REMARK SMILES IDX 74 57 45 58 46 59 57 61 75 62 48 63 35 64 36 65 41 66 37 67
REMARK SMILES IDX 38 68 40 69 42 70 39 71 61 72 62 73 67 74 63 75 64 76 66 77
REMARK SMILES IDX 68 78 65 79 49 80 50 81 55 82 51 83 52 84 54 85 56 86 53 87
REMARK H PARENT 18 6 11 15 23 30 73 49 47 60
REMARK Flexibility Score: inf
ROOT
ATOM      1  C   UNL A   1      37.205  21.717  24.275  1.00  0.00     0.023 C 
ENDROOT
BRANCH   1   2
ATOM      2  C   UNL A   1      35.686  21.829  24.265  1.00  0.00     0.116 C 
BRANCH   2   3
ATOM      3  N   UNL A   1      35.232  22.929  23.443  1.00  0.00    -0.356 N 
ATOM      4  C   UNL A   1      34.025  23.229  22.904  1.00  0.00     0.227 C 
ATOM      5  O   UNL A   1      33.985  24.280  22.251  1.00  0.00    -0.274 OA
ATOM      6  H   UNL A   1      35.936  23.586  23.234  1.00  0.00     0.163 HD
BRANCH   4   7
ATOM      7  C   UNL A   1      32.762  22.337  23.036  1.00  0.00     0.103 C 
ATOM      8  C   UNL A   1      31.648  23.453  24.837  1.00  0.00     0.106 C 
ATOM      9  C   UNL A   1      32.010  22.063  25.250  1.00  0.00    -0.006 C 
ATOM     10  C   UNL A   1      31.557  23.265  23.319  1.00  0.00     0.047 C 
ATOM     11  C   UNL A   1      32.635  21.442  24.240  1.00  0.00    -0.016 C 
BRANCH   8  12
ATOM     12  N   UNL A   1      30.477  23.914  25.526  1.00  0.00    -0.346 N 
ATOM     13  C   UNL A   1      30.099  25.199  25.811  1.00  0.00     0.257 C 
ATOM     14  O   UNL A   1      29.295  25.390  26.721  1.00  0.00    -0.269 OA
ATOM     15  H   UNL A   1      29.863  23.211  25.838  1.00  0.00     0.164 HD
BRANCH  13  16
ATOM     16  C   UNL A   1      30.620  26.331  25.003  1.00  0.00     0.111 A 
ATOM     17  C   UNL A   1      33.657  28.309  24.086  1.00  0.00     0.069 C 
ATOM     18  C   UNL A   1      32.190  27.989  24.278  1.00  0.00     0.062 A 
ATOM     19  N   UNL A   1      31.367  28.592  23.481  1.00  0.00    -0.175 NA
ATOM     20  C   UNL A   1      31.785  26.953  25.269  1.00  0.00    -0.010 A 
ATOM     21  N   UNL A   1      30.073  28.149  23.466  1.00  0.00    -0.232 N 
ATOM     22  C   UNL A   1      32.659  26.758  26.466  1.00  0.00     0.047 C 
ATOM     23  C   UNL A   1      29.142  28.941  22.686  1.00  0.00     0.178 C 
ATOM     24  C   UNL A   1      29.690  26.921  23.992  1.00  0.00     0.279 A 
ATOM     25  O   UNL A   1      28.635  26.362  23.699  1.00  0.00    -0.267 OA
ENDBRANCH  13  16
ENDBRANCH   8  12
ENDBRANCH   4   7
ENDBRANCH   2   3
ENDBRANCH   1   2
BRANCH   1  26
ATOM     26  C   UNL A   1      37.743  20.362  24.736  1.00  0.00     0.023 C 
BRANCH  26  27
ATOM     27  C   UNL A   1      38.732  20.407  25.898  1.00  0.00     0.116 C 
BRANCH  27  28
ATOM     28  N   UNL A   1      39.821  19.450  25.767  1.00  0.00    -0.352 N 
ATOM     29  C   UNL A   1      41.163  19.614  26.014  1.00  0.00     0.251 C 
ATOM     30  H   UNL A   1      39.557  18.553  25.455  1.00  0.00     0.163 HD
ATOM     31  O   UNL A   1      41.956  18.722  25.751  1.00  0.00    -0.269 OA
BRANCH  29  32
ATOM     32  C   UNL A   1      41.642  20.895  26.569  1.00  0.00     0.039 A 
ATOM     33  C   UNL A   1      42.105  21.876  25.690  1.00  0.00     0.014 A 
ATOM     34  C   UNL A   1      41.603  21.134  27.946  1.00  0.00     0.014 A 
ATOM     35  C   UNL A   1      42.458  23.130  26.186  1.00  0.00     0.010 A 
ATOM     36  C   UNL A   1      41.892  22.406  28.430  1.00  0.00     0.010 A 
ATOM     37  C   UNL A   1      42.319  23.415  27.554  1.00  0.00    -0.014 A 
BRANCH  37  38
ATOM     38  C   UNL A   1      42.618  24.765  28.087  1.00  0.00     0.031 A 
ATOM     39  C   UNL A   1      44.026  25.127  28.465  1.00  0.00     0.074 A 
ATOM     40  C   UNL A   1      41.616  25.646  28.274  1.00  0.00     0.049 A 
ATOM     41  N   UNL A   1      44.480  26.233  28.995  1.00  0.00    -0.248 NA
ATOM     42  C   UNL A   1      45.057  24.101  28.238  1.00  0.00     0.031 C 
ATOM     43  C   UNL A   1      40.205  25.397  27.979  1.00  0.00     0.029 A 
ATOM     44  N   UNL A   1      41.633  26.929  28.758  1.00  0.00    -0.354 N 
ATOM     45  C   UNL A   1      45.843  26.036  29.167  1.00  0.00     0.074 A 
ATOM     46  C   UNL A   1      46.134  24.684  28.742  1.00  0.00     0.031 C 
ATOM     47  C   UNL A   1      39.497  26.504  28.255  1.00  0.00     0.029 A 
ATOM     48  C   UNL A   1      40.397  27.527  28.778  1.00  0.00     0.049 A 
ATOM     49  H   UNL A   1      42.454  27.379  29.063  1.00  0.00     0.167 HD
ATOM     50  C   UNL A   1      46.773  26.913  29.610  1.00  0.00     0.037 A 
ATOM     51  C   UNL A   1      40.032  28.762  29.171  1.00  0.00     0.037 A 
ATOM     52  C   UNL A   1      46.485  28.264  30.008  1.00  0.00     0.049 A 
ATOM     53  C   UNL A   1      41.081  29.710  29.683  1.00  0.00     0.074 A 
ATOM     54  C   UNL A   1      47.366  29.242  30.435  1.00  0.00     0.029 A 
ATOM     55  N   UNL A   1      45.219  28.829  30.024  1.00  0.00    -0.354 N 
ATOM     56  N   UNL A   1      42.374  29.524  29.800  1.00  0.00    -0.248 NA
ATOM     57  C   UNL A   1      40.622  31.038  30.116  1.00  0.00     0.031 C 
ATOM     58  C   UNL A   1      46.627  30.390  30.741  1.00  0.00     0.029 A 
ATOM     59  C   UNL A   1      45.293  30.138  30.468  1.00  0.00     0.049 A 
ATOM     60  H   UNL A   1      44.391  28.367  29.759  1.00  0.00     0.167 HD
ATOM     61  C   UNL A   1      42.885  30.714  30.299  1.00  0.00     0.074 A 
ATOM     62  C   UNL A   1      41.765  31.621  30.451  1.00  0.00     0.031 C 
ATOM     63  C   UNL A   1      44.168  31.026  30.606  1.00  0.00     0.037 A 
BRANCH  50  64
ATOM     64  C   UNL A   1      48.195  26.442  29.665  1.00  0.00     0.057 A 
ATOM     65  C   UNL A   1      49.077  26.648  28.595  1.00  0.00     0.134 A 
ATOM     66  C   UNL A   1      48.703  25.818  30.811  1.00  0.00     0.134 A 
ATOM     67  F   UNL A   1      48.648  27.229  27.464  1.00  0.00    -0.206 F 
ATOM     68  C   UNL A   1      50.407  26.233  28.655  1.00  0.00     0.040 A 
ATOM     69  C   UNL A   1      50.039  25.420  30.892  1.00  0.00     0.040 A 
ATOM     70  F   UNL A   1      47.913  25.593  31.872  1.00  0.00    -0.206 F 
ATOM     71  C   UNL A   1      50.893  25.624  29.810  1.00  0.00     0.006 A 
ENDBRANCH  50  64
BRANCH  51  72
ATOM     72  C   UNL A   1      38.615  29.187  29.057  1.00  0.00     0.057 A 
ATOM     73  C   UNL A   1      37.767  29.157  30.170  1.00  0.00     0.134 A 
ATOM     74  C   UNL A   1      38.079  29.644  27.848  1.00  0.00     0.134 A 
ATOM     75  F   UNL A   1      38.220  28.712  31.351  1.00  0.00    -0.206 F 
ATOM     76  C   UNL A   1      36.433  29.556  30.083  1.00  0.00     0.040 A 
ATOM     77  C   UNL A   1      36.751  30.067  27.752  1.00  0.00     0.040 A 
ATOM     78  F   UNL A   1      38.842  29.704  26.747  1.00  0.00    -0.206 F 
ATOM     79  C   UNL A   1      35.923  30.020  28.872  1.00  0.00     0.006 A 
ENDBRANCH  51  72
BRANCH  63  80
ATOM     80  C   UNL A   1      44.439  32.409  31.120  1.00  0.00     0.057 A 
ATOM     81  C   UNL A   1      44.679  33.480  30.251  1.00  0.00     0.134 A 
ATOM     82  C   UNL A   1      44.381  32.684  32.492  1.00  0.00     0.134 A 
ATOM     83  F   UNL A   1      44.757  33.277  28.927  1.00  0.00    -0.206 F 
ATOM     84  C   UNL A   1      44.861  34.778  30.730  1.00  0.00     0.040 A 
ATOM     85  C   UNL A   1      44.539  33.981  32.981  1.00  0.00     0.040 A 
ATOM     86  F   UNL A   1      44.145  31.702  33.375  1.00  0.00    -0.206 F 
ATOM     87  C   UNL A   1      44.781  35.032  32.099  1.00  0.00     0.006 A 
ENDBRANCH  63  80
ENDBRANCH  37  38
ENDBRANCH  29  32
ENDBRANCH  27  28
ENDBRANCH  26  27
ENDBRANCH   1  26
TORSDOF 13
ENDMDL
MODEL 3
REMARK VINA RESULT:     -12.4      3.310      8.679
REMARK SMILES Cc1nn(C)c(=O)c(C(=O)N[C@H]2C=C[C@H](C(=O)NCCCCNC(=O)c3ccc(-c4c5nc(c(-c6c(F)cccc6F)c6ccc([nH]6)c(-c6c(F)cccc6F)c6nc(c(-c7c(F)cccc7F)c7ccc4[nH]7)C=C6)C=C5)cc3)C2)c1C
REMARK SMILES IDX 20 1 19 2 18 3 16 4 17 5 15 7 12 8 13 9 80 10 14 11 11 12
REMARK SMILES IDX 9 13 10 14 8 16 1 17 2 18 3 19 81 20 4 21 82 22 5 23 6 24
REMARK SMILES IDX 7 25 21 26 22 27 23 28 24 29 25 31 26 32 27 33 79 34 28 35
REMARK SMILES IDX 78 36 29 37 30 38 31 39 72 40 32 41 77 42 71 43 73 44 33 45
REMARK SMILES IDX 76 46 70 47 69 48 34 50 60 51 43 52 59 53 44 54 47 55 58 56
REMARK SMILES IDX 74 57 45 58 46 59 57 61 75 62 48 63 35 64 36 65 41 66 37 67
REMARK SMILES IDX 38 68 40 69 42 70 39 71 61 72 62 73 67 74 63 75 64 76 66 77
REMARK SMILES IDX 68 78 65 79 49 80 50 81 55 82 51 83 52 84 54 85 56 86 53 87
REMARK H PARENT 18 6 11 15 23 30 73 49 47 60
REMARK Flexibility Score: inf
ROOT
ATOM      1  C   UNL A   1      34.638  31.095  27.673  1.00  0.00     0.023 C 
ENDROOT
BRANCH   1   2
ATOM      2  C   UNL A   1      34.556  29.584  27.505  1.00  0.00     0.116 C 
BRANCH   2   3
ATOM      3  N   UNL A   1      34.502  29.198  26.112  1.00  0.00    -0.356 N 
ATOM      4  C   UNL A   1      33.470  28.894  25.289  1.00  0.00     0.227 C 
ATOM      5  O   UNL A   1      33.788  28.615  24.125  1.00  0.00    -0.274 OA
ATOM      6  H   UNL A   1      35.386  29.146  25.679  1.00  0.00     0.163 HD
BRANCH   4   7
ATOM      7  C   UNL A   1      31.983  28.848  25.731  1.00  0.00     0.103 C 
ATOM      8  C   UNL A   1      31.755  26.509  26.188  1.00  0.00     0.106 C 
ATOM      9  C   UNL A   1      30.847  26.895  25.067  1.00  0.00    -0.006 C 
ATOM     10  C   UNL A   1      31.873  27.854  26.912  1.00  0.00     0.047 C 
ATOM     11  C   UNL A   1      30.978  28.205  24.813  1.00  0.00    -0.016 C 
BRANCH   8  12
ATOM     12  N   UNL A   1      31.231  25.395  26.925  1.00  0.00    -0.346 N 
ATOM     13  C   UNL A   1      31.250  24.066  26.601  1.00  0.00     0.257 C 
ATOM     14  O   UNL A   1      30.436  23.315  27.137  1.00  0.00    -0.269 OA
ATOM     15  H   UNL A   1      30.799  25.618  27.781  1.00  0.00     0.164 HD
BRANCH  13  16
ATOM     16  C   UNL A   1      32.264  23.538  25.652  1.00  0.00     0.111 A 
ATOM     17  C   UNL A   1      33.290  23.312  22.064  1.00  0.00     0.069 C 
ATOM     18  C   UNL A   1      33.209  22.948  23.532  1.00  0.00     0.062 A 
ATOM     19  N   UNL A   1      34.241  22.342  24.025  1.00  0.00    -0.175 NA
ATOM     20  C   UNL A   1      32.032  23.381  24.335  1.00  0.00    -0.010 A 
ATOM     21  N   UNL A   1      34.301  22.216  25.386  1.00  0.00    -0.232 N 
ATOM     22  C   UNL A   1      30.724  23.532  23.626  1.00  0.00     0.047 C 
ATOM     23  C   UNL A   1      35.384  21.399  25.899  1.00  0.00     0.178 C 
ATOM     24  C   UNL A   1      33.511  22.967  26.248  1.00  0.00     0.279 A 
ATOM     25  O   UNL A   1      33.772  23.122  27.440  1.00  0.00    -0.267 OA
ENDBRANCH  13  16
ENDBRANCH   8  12
ENDBRANCH   4   7
ENDBRANCH   2   3
ENDBRANCH   1   2
BRANCH   1  26
ATOM     26  C   UNL A   1      33.285  31.798  27.800  1.00  0.00     0.023 C 
BRANCH  26  27
ATOM     27  C   UNL A   1      33.206  33.191  27.180  1.00  0.00     0.116 C 
BRANCH  27  28
ATOM     28  N   UNL A   1      32.714  34.206  28.100  1.00  0.00    -0.352 N 
ATOM     29  C   UNL A   1      33.263  34.660  29.275  1.00  0.00     0.251 C 
ATOM     30  H   UNL A   1      31.863  34.630  27.842  1.00  0.00     0.163 HD
ATOM     31  O   UNL A   1      32.655  35.454  29.978  1.00  0.00    -0.269 OA
BRANCH  29  32
ATOM     32  C   UNL A   1      34.581  34.148  29.700  1.00  0.00     0.039 A 
ATOM     33  C   UNL A   1      34.651  33.334  30.832  1.00  0.00     0.014 A 
ATOM     34  C   UNL A   1      35.732  34.448  28.965  1.00  0.00     0.014 A 
ATOM     35  C   UNL A   1      35.870  32.754  31.184  1.00  0.00     0.010 A 
ATOM     36  C   UNL A   1      36.930  33.815  29.278  1.00  0.00     0.010 A 
ATOM     37  C   UNL A   1      37.008  32.961  30.388  1.00  0.00    -0.014 A 
BRANCH  37  38
ATOM     38  C   UNL A   1      38.293  32.293  30.705  1.00  0.00     0.031 A 
ATOM     39  C   UNL A   1      39.238  32.914  31.694  1.00  0.00     0.074 A 
ATOM     40  C   UNL A   1      38.627  31.154  30.068  1.00  0.00     0.049 A 
ATOM     41  N   UNL A   1      40.426  32.512  32.064  1.00  0.00    -0.248 NA
ATOM     42  C   UNL A   1      38.798  34.164  32.335  1.00  0.00     0.031 C 
ATOM     43  C   UNL A   1      37.809  30.475  29.063  1.00  0.00     0.029 A 
ATOM     44  N   UNL A   1      39.745  30.366  30.173  1.00  0.00    -0.354 N 
ATOM     45  C   UNL A   1      40.876  33.458  32.975  1.00  0.00     0.074 A 
ATOM     46  C   UNL A   1      39.860  34.486  33.057  1.00  0.00     0.031 C 
ATOM     47  C   UNL A   1      38.436  29.355  28.669  1.00  0.00     0.029 A 
ATOM     48  C   UNL A   1      39.714  29.255  29.367  1.00  0.00     0.049 A 
ATOM     49  H   UNL A   1      40.499  30.577  30.770  1.00  0.00     0.167 HD
ATOM     50  C   UNL A   1      42.018  33.455  33.700  1.00  0.00     0.037 A 
ATOM     51  C   UNL A   1      40.614  28.265  29.212  1.00  0.00     0.037 A 
ATOM     52  C   UNL A   1      43.014  32.420  33.634  1.00  0.00     0.049 A 
ATOM     53  C   UNL A   1      41.886  28.297  30.011  1.00  0.00     0.074 A 
ATOM     54  C   UNL A   1      44.188  32.308  34.358  1.00  0.00     0.029 A 
ATOM     55  N   UNL A   1      42.951  31.316  32.798  1.00  0.00    -0.354 N 
ATOM     56  N   UNL A   1      42.279  29.177  30.901  1.00  0.00    -0.248 NA
ATOM     57  C   UNL A   1      42.840  27.201  29.786  1.00  0.00     0.031 C 
ATOM     58  C   UNL A   1      44.852  31.152  33.936  1.00  0.00     0.029 A 
ATOM     59  C   UNL A   1      44.072  30.525  32.977  1.00  0.00     0.049 A 
ATOM     60  H   UNL A   1      42.217  31.124  32.170  1.00  0.00     0.167 HD
ATOM     61  C   UNL A   1      43.512  28.731  31.356  1.00  0.00     0.074 A 
ATOM     62  C   UNL A   1      43.799  27.496  30.655  1.00  0.00     0.031 C 
ATOM     63  C   UNL A   1      44.335  29.296  32.273  1.00  0.00     0.037 A 
BRANCH  50  64
ATOM     64  C   UNL A   1      42.239  34.598  34.645  1.00  0.00     0.057 A 
ATOM     65  C   UNL A   1      42.884  35.773  34.233  1.00  0.00     0.134 A 
ATOM     66  C   UNL A   1      41.766  34.546  35.961  1.00  0.00     0.134 A 
ATOM     67  F   UNL A   1      43.372  35.880  32.989  1.00  0.00    -0.206 F 
ATOM     68  C   UNL A   1      43.067  36.847  35.104  1.00  0.00     0.040 A 
ATOM     69  C   UNL A   1      41.922  35.624  36.834  1.00  0.00     0.040 A 
ATOM     70  F   UNL A   1      41.137  33.452  36.417  1.00  0.00    -0.206 F 
ATOM     71  C   UNL A   1      42.578  36.777  36.407  1.00  0.00     0.006 A 
ENDBRANCH  50  64
BRANCH  51  72
ATOM     72  C   UNL A   1      40.324  27.138  28.291  1.00  0.00     0.057 A 
ATOM     73  C   UNL A   1      40.865  27.111  27.001  1.00  0.00     0.134 A 
ATOM     74  C   UNL A   1      39.517  26.062  28.676  1.00  0.00     0.134 A 
ATOM     75  F   UNL A   1      41.632  28.123  26.570  1.00  0.00    -0.206 F 
ATOM     76  C   UNL A   1      40.607  26.058  26.122  1.00  0.00     0.040 A 
ATOM     77  C   UNL A   1      39.268  24.991  27.815  1.00  0.00     0.040 A 
ATOM     78  F   UNL A   1      38.975  26.025  29.902  1.00  0.00    -0.206 F 
ATOM     79  C   UNL A   1      39.810  24.990  26.531  1.00  0.00     0.006 A 
ENDBRANCH  51  72
BRANCH  63  80
ATOM     80  C   UNL A   1      45.615  28.581  32.588  1.00  0.00     0.057 A 
ATOM     81  C   UNL A   1      46.807  28.881  31.917  1.00  0.00     0.134 A 
ATOM     82  C   UNL A   1      45.672  27.641  33.625  1.00  0.00     0.134 A 
ATOM     83  F   UNL A   1      46.814  29.765  30.908  1.00  0.00    -0.206 F 
ATOM     84  C   UNL A   1      48.010  28.264  32.262  1.00  0.00     0.040 A 
ATOM     85  C   UNL A   1      46.873  27.036  33.993  1.00  0.00     0.040 A 
ATOM     86  F   UNL A   1      44.566  27.318  34.313  1.00  0.00    -0.206 F 
ATOM     87  C   UNL A   1      48.046  27.346  33.310  1.00  0.00     0.006 A 
ENDBRANCH  63  80
ENDBRANCH  37  38
ENDBRANCH  29  32
ENDBRANCH  27  28
ENDBRANCH  26  27
ENDBRANCH   1  26
TORSDOF 13
ENDMDL
