MODEL 1
REMARK VINA RESULT:     -12.7      0.000      0.000
REMARK SMILES CCc1cc(C[NH+]2CCC(C(=O)NCCCCNC(=O)c3ccc(-c4c5nc(c(-c6c(F)cccc6F)c6ccc([nH]6)c(-c6c(F)cccc6F)c6nc(c(-c7c(F)cccc7F)c7ccc4[nH]7)C=C6)C=C5)cc3)(n3ccc(-c4ccco4)n3)CC2)on1
REMARK SMILES IDX 15 1 14 2 13 3 11 4 12 5 10 7 7 8 8 9 86 10 9 12 85 13 6 14
REMARK SMILES IDX 5 15 3 16 4 17 88 18 87 19 2 20 1 21 75 22 76 23 84 24 77 25
REMARK SMILES IDX 78 26 79 27 80 28 83 29 81 30 82 31 16 32 17 33 18 34 19 35
REMARK SMILES IDX 20 37 21 38 22 39 74 40 23 41 73 42 24 43 25 44 26 45 67 46
REMARK SMILES IDX 27 47 72 48 66 49 68 50 28 51 71 52 65 53 64 54 29 56 55 57
REMARK SMILES IDX 38 58 54 59 39 60 42 61 53 62 69 63 40 64 41 65 52 67 70 68
REMARK SMILES IDX 43 69 30 70 31 71 36 72 32 73 33 74 35 75 37 76 34 77 56 78
REMARK SMILES IDX 57 79 62 80 58 81 59 82 61 83 63 84 60 85 44 86 45 87 50 88
REMARK SMILES IDX 46 89 47 90 49 91 51 92 48 93
REMARK H PARENT 13 6 7 11 18 36 68 55 42 66
REMARK Flexibility Score: inf
ROOT
ATOM      1  C   UNL A   1      31.739  30.490  25.725  1.00  0.00     0.023 C 
ENDROOT
BRANCH   1   2
ATOM      2  C   UNL A   1      32.666  29.314  26.018  1.00  0.00     0.116 C 
BRANCH   2   3
ATOM      3  N   UNL A   1      33.662  29.121  24.970  1.00  0.00    -0.354 N 
ATOM      4  C   UNL A   1      33.725  28.285  23.875  1.00  0.00     0.248 C 
ATOM      5  O   UNL A   1      34.674  28.531  23.128  1.00  0.00    -0.272 OA
ATOM      6  H   UNL A   1      34.449  29.705  25.063  1.00  0.00     0.163 HD
BRANCH   4   7
ATOM      7  C   UNL A   1      32.626  27.205  23.606  1.00  0.00     0.151 C 
ATOM      8  N   UNL A   1      32.505  24.245  23.651  1.00  0.00    -0.328 N 
ATOM      9  C   UNL A   1      32.450  24.956  22.372  1.00  0.00     0.265 C 
ATOM     10  C   UNL A   1      32.009  24.984  24.812  1.00  0.00     0.265 C 
ATOM     11  H   UNL A   1      33.503  24.128  23.826  1.00  0.00     0.348 HD
ATOM     12  C   UNL A   1      33.067  26.347  22.402  1.00  0.00     0.102 C 
ATOM     13  C   UNL A   1      32.516  26.414  24.938  1.00  0.00     0.102 C 
BRANCH   8  14
ATOM     14  C   UNL A   1      31.844  22.914  23.554  1.00  0.00     0.341 C 
BRANCH  14  15
ATOM     15  C   UNL A   1      32.712  21.743  23.885  1.00  0.00     0.191 A 
ATOM     16  C   UNL A   1      33.740  19.857  24.394  1.00  0.00     0.084 A 
ATOM     17  C   UNL A   1      32.526  20.380  23.893  1.00  0.00     0.078 A 
ATOM     18  N   UNL A   1      34.621  20.835  24.637  1.00  0.00    -0.085 NA
ATOM     19  O   UNL A   1      33.981  22.012  24.298  1.00  0.00    -0.355 OA
BRANCH  16  20
ATOM     20  C   UNL A   1      34.109  18.431  24.628  1.00  0.00     0.056 C 
ATOM     21  C   UNL A   1      33.713  17.509  23.484  1.00  0.00     0.011 C 
ENDBRANCH  16  20
ENDBRANCH  14  15
ENDBRANCH   8  14
BRANCH   7  22
ATOM     22  N   UNL A   1      31.268  27.761  23.280  1.00  0.00    -0.256 N 
ATOM     23  C   UNL A   1      30.057  27.191  23.614  1.00  0.00     0.111 A 
ATOM     24  N   UNL A   1      31.074  28.866  22.518  1.00  0.00    -0.169 NA
ATOM     25  C   UNL A   1      29.087  28.108  23.322  1.00  0.00     0.054 A 
ATOM     26  C   UNL A   1      29.768  29.139  22.658  1.00  0.00     0.128 A 
BRANCH  26  27
ATOM     27  C   UNL A   1      29.075  30.360  22.164  1.00  0.00     0.154 A 
ATOM     28  C   UNL A   1      28.778  31.505  22.874  1.00  0.00     0.052 A 
ATOM     29  O   UNL A   1      28.629  30.498  20.875  1.00  0.00    -0.463 OA
ATOM     30  C   UNL A   1      28.121  32.382  21.974  1.00  0.00     0.043 A 
ATOM     31  C   UNL A   1      28.028  31.708  20.780  1.00  0.00     0.196 A 
ENDBRANCH  26  27
ENDBRANCH   7  22
ENDBRANCH   4   7
ENDBRANCH   2   3
ENDBRANCH   1   2
BRANCH   1  32
ATOM     32  C   UNL A   1      31.584  31.484  26.875  1.00  0.00     0.023 C 
BRANCH  32  33
ATOM     33  C   UNL A   1      32.819  32.329  27.173  1.00  0.00     0.116 C 
BRANCH  33  34
ATOM     34  N   UNL A   1      32.501  33.718  27.471  1.00  0.00    -0.352 N 
ATOM     35  C   UNL A   1      33.058  34.555  28.408  1.00  0.00     0.251 C 
ATOM     36  H   UNL A   1      31.786  34.114  26.923  1.00  0.00     0.163 HD
ATOM     37  O   UNL A   1      32.569  35.662  28.615  1.00  0.00    -0.269 OA
BRANCH  35  38
ATOM     38  C   UNL A   1      34.228  34.105  29.190  1.00  0.00     0.039 A 
ATOM     39  C   UNL A   1      34.016  33.364  30.354  1.00  0.00     0.014 A 
ATOM     40  C   UNL A   1      35.527  34.387  28.761  1.00  0.00     0.014 A 
ATOM     41  C   UNL A   1      35.109  32.837  31.046  1.00  0.00     0.010 A 
ATOM     42  C   UNL A   1      36.610  33.796  29.405  1.00  0.00     0.010 A 
ATOM     43  C   UNL A   1      36.412  33.011  30.552  1.00  0.00    -0.014 A 
BRANCH  43  44
ATOM     44  C   UNL A   1      37.576  32.360  31.207  1.00  0.00     0.031 A 
ATOM     45  C   UNL A   1      38.270  31.201  30.545  1.00  0.00     0.074 A 
ATOM     46  C   UNL A   1      37.961  32.766  32.433  1.00  0.00     0.049 A 
ATOM     47  N   UNL A   1      39.255  30.465  30.992  1.00  0.00    -0.248 NA
ATOM     48  C   UNL A   1      37.774  30.798  29.218  1.00  0.00     0.031 C 
ATOM     49  C   UNL A   1      37.330  33.838  33.207  1.00  0.00     0.029 A 
ATOM     50  N   UNL A   1      38.965  32.314  33.253  1.00  0.00    -0.354 N 
ATOM     51  C   UNL A   1      39.483  29.504  30.015  1.00  0.00     0.074 A 
ATOM     52  C   UNL A   1      38.505  29.721  28.971  1.00  0.00     0.031 C 
ATOM     53  C   UNL A   1      37.970  33.970  34.379  1.00  0.00     0.029 A 
ATOM     54  C   UNL A   1      39.028  32.969  34.460  1.00  0.00     0.049 A 
ATOM     55  H   UNL A   1      39.580  31.588  33.001  1.00  0.00     0.167 HD
ATOM     56  C   UNL A   1      40.435  28.541  29.983  1.00  0.00     0.037 A 
ATOM     57  C   UNL A   1      39.838  32.775  35.519  1.00  0.00     0.037 A 
ATOM     58  C   UNL A   1      41.427  28.349  31.009  1.00  0.00     0.049 A 
ATOM     59  C   UNL A   1      40.891  31.703  35.451  1.00  0.00     0.074 A 
ATOM     60  C   UNL A   1      42.485  27.456  31.024  1.00  0.00     0.029 A 
ATOM     61  N   UNL A   1      41.478  29.052  32.201  1.00  0.00    -0.354 N 
ATOM     62  N   UNL A   1      41.155  30.864  34.478  1.00  0.00    -0.248 NA
ATOM     63  C   UNL A   1      41.763  31.554  36.624  1.00  0.00     0.031 C 
ATOM     64  C   UNL A   1      43.143  27.581  32.251  1.00  0.00     0.029 A 
ATOM     65  C   UNL A   1      42.531  28.591  32.975  1.00  0.00     0.049 A 
ATOM     66  H   UNL A   1      40.859  29.772  32.461  1.00  0.00     0.167 HD
ATOM     67  C   UNL A   1      42.238  30.109  34.911  1.00  0.00     0.074 A 
ATOM     68  C   UNL A   1      42.594  30.602  36.225  1.00  0.00     0.031 C 
ATOM     69  C   UNL A   1      42.878  29.096  34.278  1.00  0.00     0.037 A 
BRANCH  56  70
ATOM     70  C   UNL A   1      40.457  27.615  28.801  1.00  0.00     0.057 A 
ATOM     71  C   UNL A   1      39.662  26.464  28.747  1.00  0.00     0.134 A 
ATOM     72  C   UNL A   1      41.234  27.917  27.675  1.00  0.00     0.134 A 
ATOM     73  F   UNL A   1      38.902  26.110  29.794  1.00  0.00    -0.206 F 
ATOM     74  C   UNL A   1      39.652  25.636  27.621  1.00  0.00     0.040 A 
ATOM     75  C   UNL A   1      41.211  27.114  26.535  1.00  0.00     0.040 A 
ATOM     76  F   UNL A   1      42.013  29.010  27.659  1.00  0.00    -0.206 F 
ATOM     77  C   UNL A   1      40.421  25.967  26.508  1.00  0.00     0.006 A 
ENDBRANCH  56  70
BRANCH  57  78
ATOM     78  C   UNL A   1      39.690  33.612  36.738  1.00  0.00     0.057 A 
ATOM     79  C   UNL A   1      38.830  33.239  37.777  1.00  0.00     0.134 A 
ATOM     80  C   UNL A   1      40.384  34.819  36.881  1.00  0.00     0.134 A 
ATOM     81  F   UNL A   1      38.122  32.102  37.691  1.00  0.00    -0.206 F 
ATOM     82  C   UNL A   1      38.642  34.048  38.899  1.00  0.00     0.040 A 
ATOM     83  C   UNL A   1      40.228  35.624  38.011  1.00  0.00     0.040 A 
ATOM     84  F   UNL A   1      41.231  35.232  35.926  1.00  0.00    -0.206 F 
ATOM     85  C   UNL A   1      39.346  35.244  39.019  1.00  0.00     0.006 A 
ENDBRANCH  57  78
BRANCH  69  86
ATOM     86  C   UNL A   1      44.051  28.476  34.981  1.00  0.00     0.057 A 
ATOM     87  C   UNL A   1      43.911  27.357  35.812  1.00  0.00     0.134 A 
ATOM     88  C   UNL A   1      45.343  28.983  34.792  1.00  0.00     0.134 A 
ATOM     89  F   UNL A   1      42.699  26.830  36.044  1.00  0.00    -0.206 F 
ATOM     90  C   UNL A   1      45.011  26.779  36.448  1.00  0.00     0.040 A 
ATOM     91  C   UNL A   1      46.454  28.395  35.399  1.00  0.00     0.040 A 
ATOM     92  F   UNL A   1      45.550  30.046  34.001  1.00  0.00    -0.206 F 
ATOM     93  C   UNL A   1      46.288  27.294  36.236  1.00  0.00     0.006 A 
ENDBRANCH  69  86
ENDBRANCH  43  44
ENDBRANCH  35  38
ENDBRANCH  33  34
ENDBRANCH  32  33
ENDBRANCH   1  32
TORSDOF 16
ENDMDL
MODEL 2
REMARK VINA RESULT:     -12.6      4.698     10.053
REMARK SMILES CCc1cc(C[NH+]2CCC(C(=O)NCCCCNC(=O)c3ccc(-c4c5nc(c(-c6c(F)cccc6F)c6ccc([nH]6)c(-c6c(F)cccc6F)c6nc(c(-c7c(F)cccc7F)c7ccc4[nH]7)C=C6)C=C5)cc3)(n3ccc(-c4ccco4)n3)CC2)on1
REMARK SMILES IDX 15 1 14 2 13 3 11 4 12 5 10 7 7 8 8 9 86 10 9 12 85 13 6 14
REMARK SMILES IDX 5 15 3 16 4 17 88 18 87 19 2 20 1 21 75 22 76 23 84 24 77 25
REMARK SMILES IDX 78 26 79 27 80 28 83 29 81 30 82 31 16 32 17 33 18 34 19 35
REMARK SMILES IDX 20 37 21 38 22 39 74 40 23 41 73 42 24 43 25 44 26 45 67 46
REMARK SMILES IDX 27 47 72 48 66 49 68 50 28 51 71 52 65 53 64 54 29 56 55 57
REMARK SMILES IDX 38 58 54 59 39 60 42 61 53 62 69 63 40 64 41 65 52 67 70 68
REMARK SMILES IDX 43 69 30 70 31 71 36 72 32 73 33 74 35 75 37 76 34 77 56 78
REMARK SMILES IDX 57 79 62 80 58 81 59 82 61 83 63 84 60 85 44 86 45 87 50 88
REMARK SMILES IDX 46 89 47 90 49 91 51 92 48 93
REMARK H PARENT 13 6 7 11 18 36 68 55 42 66
REMARK Flexibility Score: inf
ROOT
ATOM      1  C   UNL A   1      36.636  20.447  25.005  1.00  0.00     0.023 C 
ENDROOT
BRANCH   1   2
ATOM      2  C   UNL A   1      36.364  21.948  25.008  1.00  0.00     0.116 C 
BRANCH   2   3
ATOM      3  N   UNL A   1      35.789  22.404  26.268  1.00  0.00    -0.354 N 
ATOM      4  C   UNL A   1      34.505  22.734  26.650  1.00  0.00     0.248 C 
ATOM      5  O   UNL A   1      34.393  22.928  27.863  1.00  0.00    -0.272 OA
ATOM      6  H   UNL A   1      36.450  22.494  26.992  1.00  0.00     0.163 HD
BRANCH   4   7
ATOM      7  C   UNL A   1      33.327  22.761  25.623  1.00  0.00     0.151 C 
ATOM      8  N   UNL A   1      31.569  24.845  24.464  1.00  0.00    -0.328 N 
ATOM      9  C   UNL A   1      31.022  23.882  25.421  1.00  0.00     0.265 C 
ATOM     10  C   UNL A   1      32.718  24.384  23.683  1.00  0.00     0.265 C 
ATOM     11  H   UNL A   1      31.938  25.594  25.050  1.00  0.00     0.348 HD
ATOM     12  C   UNL A   1      32.058  23.260  26.346  1.00  0.00     0.102 C 
ATOM     13  C   UNL A   1      33.816  23.698  24.485  1.00  0.00     0.102 C 
BRANCH   8  14
ATOM     14  C   UNL A   1      30.504  25.375  23.567  1.00  0.00     0.341 C 
BRANCH  14  15
ATOM     15  C   UNL A   1      30.373  26.864  23.541  1.00  0.00     0.191 A 
ATOM     16  C   UNL A   1      29.916  29.016  23.367  1.00  0.00     0.084 A 
ATOM     17  C   UNL A   1      29.322  27.733  23.360  1.00  0.00     0.078 A 
ATOM     18  N   UNL A   1      31.235  28.934  23.576  1.00  0.00    -0.085 NA
ATOM     19  O   UNL A   1      31.515  27.587  23.705  1.00  0.00    -0.355 OA
BRANCH  16  20
ATOM     20  C   UNL A   1      29.256  30.344  23.205  1.00  0.00     0.056 C 
ATOM     21  C   UNL A   1      28.970  30.704  21.754  1.00  0.00     0.011 C 
ENDBRANCH  16  20
ENDBRANCH  14  15
ENDBRANCH   8  14
BRANCH   7  22
ATOM     22  N   UNL A   1      32.995  21.426  25.017  1.00  0.00    -0.256 N 
ATOM     23  C   UNL A   1      32.418  21.217  23.781  1.00  0.00     0.111 A 
ATOM     24  N   UNL A   1      33.141  20.248  25.673  1.00  0.00    -0.169 NA
ATOM     25  C   UNL A   1      32.482  19.876  23.529  1.00  0.00     0.054 A 
ATOM     26  C   UNL A   1      32.953  19.316  24.726  1.00  0.00     0.128 A 
BRANCH  26  27
ATOM     27  C   UNL A   1      33.179  17.854  24.885  1.00  0.00     0.154 A 
ATOM     28  C   UNL A   1      34.115  17.072  24.241  1.00  0.00     0.052 A 
ATOM     29  O   UNL A   1      32.444  17.071  25.738  1.00  0.00    -0.463 OA
ATOM     30  C   UNL A   1      33.944  15.750  24.726  1.00  0.00     0.043 A 
ATOM     31  C   UNL A   1      32.894  15.800  25.612  1.00  0.00     0.196 A 
ENDBRANCH  26  27
ENDBRANCH   7  22
ENDBRANCH   4   7
ENDBRANCH   2   3
ENDBRANCH   1   2
BRANCH   1  32
ATOM     32  C   UNL A   1      38.088  20.060  24.731  1.00  0.00     0.023 C 
BRANCH  32  33
ATOM     33  C   UNL A   1      39.024  20.160  25.930  1.00  0.00     0.116 C 
BRANCH  33  34
ATOM     34  N   UNL A   1      40.049  19.127  25.942  1.00  0.00    -0.352 N 
ATOM     35  C   UNL A   1      41.406  19.251  26.117  1.00  0.00     0.251 C 
ATOM     36  H   UNL A   1      39.724  18.208  25.805  1.00  0.00     0.163 HD
ATOM     37  O   UNL A   1      42.141  18.280  25.959  1.00  0.00    -0.269 OA
BRANCH  35  38
ATOM     38  C   UNL A   1      41.983  20.566  26.464  1.00  0.00     0.039 A 
ATOM     39  C   UNL A   1      42.344  21.437  25.434  1.00  0.00     0.014 A 
ATOM     40  C   UNL A   1      42.140  20.950  27.798  1.00  0.00     0.014 A 
ATOM     41  C   UNL A   1      42.788  22.725  25.742  1.00  0.00     0.010 A 
ATOM     42  C   UNL A   1      42.505  22.258  28.102  1.00  0.00     0.010 A 
ATOM     43  C   UNL A   1      42.829  23.161  27.077  1.00  0.00    -0.014 A 
BRANCH  43  44
ATOM     44  C   UNL A   1      43.184  24.563  27.417  1.00  0.00     0.031 A 
ATOM     45  C   UNL A   1      44.623  25.004  27.411  1.00  0.00     0.074 A 
ATOM     46  C   UNL A   1      42.218  25.419  27.802  1.00  0.00     0.049 A 
ATOM     47  N   UNL A   1      45.132  26.163  27.742  1.00  0.00    -0.248 NA
ATOM     48  C   UNL A   1      45.624  24.004  27.004  1.00  0.00     0.031 C 
ATOM     49  C   UNL A   1      40.793  25.095  27.910  1.00  0.00     0.029 A 
ATOM     50  N   UNL A   1      42.288  26.733  28.195  1.00  0.00    -0.354 N 
ATOM     51  C   UNL A   1      46.507  26.026  27.605  1.00  0.00     0.074 A 
ATOM     52  C   UNL A   1      46.758  24.659  27.203  1.00  0.00     0.031 C 
ATOM     53  C   UNL A   1      40.124  26.183  28.322  1.00  0.00     0.029 A 
ATOM     54  C   UNL A   1      41.072  27.269  28.549  1.00  0.00     0.049 A 
ATOM     55  H   UNL A   1      43.129  27.243  28.219  1.00  0.00     0.167 HD
ATOM     56  C   UNL A   1      47.471  26.961  27.780  1.00  0.00     0.037 A 
ATOM     57  C   UNL A   1      40.759  28.491  29.019  1.00  0.00     0.037 A 
ATOM     58  C   UNL A   1      47.215  28.328  28.149  1.00  0.00     0.049 A 
ATOM     59  C   UNL A   1      41.850  29.511  29.196  1.00  0.00     0.074 A 
ATOM     60  C   UNL A   1      48.118  29.371  28.266  1.00  0.00     0.029 A 
ATOM     61  N   UNL A   1      45.968  28.841  28.470  1.00  0.00    -0.354 N 
ATOM     62  N   UNL A   1      43.136  29.394  28.969  1.00  0.00    -0.248 NA
ATOM     63  C   UNL A   1      41.446  30.837  29.685  1.00  0.00     0.031 C 
ATOM     64  C   UNL A   1      47.426  30.500  28.712  1.00  0.00     0.029 A 
ATOM     65  C   UNL A   1      46.083  30.177  28.816  1.00  0.00     0.049 A 
ATOM     66  H   UNL A   1      45.125  28.331  28.454  1.00  0.00     0.167 HD
ATOM     67  C   UNL A   1      43.689  30.634  29.263  1.00  0.00     0.074 A 
ATOM     68  C   UNL A   1      42.597  31.495  29.664  1.00  0.00     0.031 C 
ATOM     69  C   UNL A   1      44.985  31.025  29.207  1.00  0.00     0.037 A 
BRANCH  56  70
ATOM     70  C   UNL A   1      48.899  26.543  27.574  1.00  0.00     0.057 A 
ATOM     71  C   UNL A   1      49.690  26.063  28.625  1.00  0.00     0.134 A 
ATOM     72  C   UNL A   1      49.467  26.561  26.293  1.00  0.00     0.134 A 
ATOM     73  F   UNL A   1      49.211  26.030  29.878  1.00  0.00    -0.206 F 
ATOM     74  C   UNL A   1      51.000  25.630  28.412  1.00  0.00     0.040 A 
ATOM     75  C   UNL A   1      50.765  26.105  26.064  1.00  0.00     0.040 A 
ATOM     76  F   UNL A   1      48.761  27.003  25.241  1.00  0.00    -0.206 F 
ATOM     77  C   UNL A   1      51.537  25.641  27.127  1.00  0.00     0.006 A 
ENDBRANCH  56  70
BRANCH  57  78
ATOM     78  C   UNL A   1      39.351  28.824  29.359  1.00  0.00     0.057 A 
ATOM     79  C   UNL A   1      38.832  28.578  30.635  1.00  0.00     0.134 A 
ATOM     80  C   UNL A   1      38.483  29.372  28.407  1.00  0.00     0.134 A 
ATOM     81  F   UNL A   1      39.609  28.037  31.586  1.00  0.00    -0.206 F 
ATOM     82  C   UNL A   1      37.495  28.835  30.944  1.00  0.00     0.040 A 
ATOM     83  C   UNL A   1      37.152  29.662  28.711  1.00  0.00     0.040 A 
ATOM     84  F   UNL A   1      38.918  29.642  27.167  1.00  0.00    -0.206 F 
ATOM     85  C   UNL A   1      36.652  29.382  29.980  1.00  0.00     0.006 A 
ENDBRANCH  57  78
BRANCH  69  86
ATOM     86  C   UNL A   1      45.291  32.453  29.554  1.00  0.00     0.057 A 
ATOM     87  C   UNL A   1      45.737  32.826  30.829  1.00  0.00     0.134 A 
ATOM     88  C   UNL A   1      45.175  33.461  28.589  1.00  0.00     0.134 A 
ATOM     89  F   UNL A   1      45.858  31.911  31.803  1.00  0.00    -0.206 F 
ATOM     90  C   UNL A   1      46.033  34.155  31.137  1.00  0.00     0.040 A 
ATOM     91  C   UNL A   1      45.497  34.788  28.877  1.00  0.00     0.040 A 
ATOM     92  F   UNL A   1      44.764  33.170  27.346  1.00  0.00    -0.206 F 
ATOM     93  C   UNL A   1      45.921  35.139  30.156  1.00  0.00     0.006 A 
ENDBRANCH  69  86
ENDBRANCH  43  44
ENDBRANCH  35  38
ENDBRANCH  33  34
ENDBRANCH  32  33
ENDBRANCH   1  32
TORSDOF 16
ENDMDL
MODEL 3
REMARK VINA RESULT:     -12.5      4.070      9.810
REMARK SMILES CCc1cc(C[NH+]2CCC(C(=O)NCCCCNC(=O)c3ccc(-c4c5nc(c(-c6c(F)cccc6F)c6ccc([nH]6)c(-c6c(F)cccc6F)c6nc(c(-c7c(F)cccc7F)c7ccc4[nH]7)C=C6)C=C5)cc3)(n3ccc(-c4ccco4)n3)CC2)on1
REMARK SMILES IDX 15 1 14 2 13 3 11 4 12 5 10 7 7 8 8 9 86 10 9 12 85 13 6 14
REMARK SMILES IDX 5 15 3 16 4 17 88 18 87 19 2 20 1 21 75 22 76 23 84 24 77 25
REMARK SMILES IDX 78 26 79 27 80 28 83 29 81 30 82 31 16 32 17 33 18 34 19 35
REMARK SMILES IDX 20 37 21 38 22 39 74 40 23 41 73 42 24 43 25 44 26 45 67 46
REMARK SMILES IDX 27 47 72 48 66 49 68 50 28 51 71 52 65 53 64 54 29 56 55 57
REMARK SMILES IDX 38 58 54 59 39 60 42 61 53 62 69 63 40 64 41 65 52 67 70 68
REMARK SMILES IDX 43 69 30 70 31 71 36 72 32 73 33 74 35 75 37 76 34 77 56 78
REMARK SMILES IDX 57 79 62 80 58 81 59 82 61 83 63 84 60 85 44 86 45 87 50 88
REMARK SMILES IDX 46 89 47 90 49 91 51 92 48 93
REMARK H PARENT 13 6 7 11 18 36 68 55 42 66
REMARK Flexibility Score: inf
ROOT
ATOM      1  C   UNL A   1      38.763  22.611  26.342  1.00  0.00     0.023 C 
ENDROOT
BRANCH   1   2
ATOM      2  C   UNL A   1      37.682  23.496  25.728  1.00  0.00     0.116 C 
BRANCH   2   3
ATOM      3  N   UNL A   1      37.425  23.167  24.330  1.00  0.00    -0.354 N 
ATOM      4  C   UNL A   1      36.267  23.042  23.591  1.00  0.00     0.248 C 
ATOM      5  O   UNL A   1      36.473  22.903  22.384  1.00  0.00    -0.272 OA
ATOM      6  H   UNL A   1      38.244  23.002  23.809  1.00  0.00     0.163 HD
BRANCH   4   7
ATOM      7  C   UNL A   1      34.856  23.160  24.255  1.00  0.00     0.151 C 
ATOM      8  N   UNL A   1      33.267  25.335  25.488  1.00  0.00    -0.328 N 
ATOM      9  C   UNL A   1      33.834  24.280  26.331  1.00  0.00     0.265 C 
ATOM     10  C   UNL A   1      32.983  24.959  24.102  1.00  0.00     0.265 C 
ATOM     11  H   UNL A   1      34.014  26.026  25.421  1.00  0.00     0.348 HD
ATOM     12  C   UNL A   1      35.042  23.579  25.729  1.00  0.00     0.102 C 
ATOM     13  C   UNL A   1      34.100  24.206  23.392  1.00  0.00     0.102 C 
BRANCH   8  14
ATOM     14  C   UNL A   1      32.064  25.942  26.123  1.00  0.00     0.341 C 
BRANCH  14  15
ATOM     15  C   UNL A   1      32.040  27.436  26.149  1.00  0.00     0.191 A 
ATOM     16  C   UNL A   1      32.087  29.619  26.473  1.00  0.00     0.084 A 
ATOM     17  C   UNL A   1      32.566  28.392  26.987  1.00  0.00     0.078 A 
ATOM     18  N   UNL A   1      31.350  29.425  25.373  1.00  0.00    -0.085 NA
ATOM     19  O   UNL A   1      31.339  28.059  25.161  1.00  0.00    -0.355 OA
BRANCH  16  20
ATOM     20  C   UNL A   1      32.333  30.998  26.985  1.00  0.00     0.056 C 
ATOM     21  C   UNL A   1      31.309  32.015  26.502  1.00  0.00     0.011 C 
ENDBRANCH  16  20
ENDBRANCH  14  15
ENDBRANCH   8  14
BRANCH   7  22
ATOM     22  N   UNL A   1      34.056  21.887  24.254  1.00  0.00    -0.256 N 
ATOM     23  C   UNL A   1      32.815  21.711  23.679  1.00  0.00     0.111 A 
ATOM     24  N   UNL A   1      34.431  20.766  24.919  1.00  0.00    -0.169 NA
ATOM     25  C   UNL A   1      32.540  20.373  23.719  1.00  0.00     0.054 A 
ATOM     26  C   UNL A   1      33.580  19.825  24.484  1.00  0.00     0.128 A 
BRANCH  26  27
ATOM     27  C   UNL A   1      33.670  18.367  24.773  1.00  0.00     0.154 A 
ATOM     28  C   UNL A   1      34.636  17.482  24.340  1.00  0.00     0.052 A 
ATOM     29  O   UNL A   1      32.757  17.699  25.547  1.00  0.00    -0.463 OA
ATOM     30  C   UNL A   1      34.295  16.214  24.877  1.00  0.00     0.043 A 
ATOM     31  C   UNL A   1      33.126  16.396  25.578  1.00  0.00     0.196 A 
ENDBRANCH  26  27
ENDBRANCH   7  22
ENDBRANCH   4   7
ENDBRANCH   2   3
ENDBRANCH   1   2
BRANCH   1  32
ATOM     32  C   UNL A   1      38.990  21.284  25.620  1.00  0.00     0.023 C 
BRANCH  32  33
ATOM     33  C   UNL A   1      39.444  20.130  26.509  1.00  0.00     0.116 C 
BRANCH  33  34
ATOM     34  N   UNL A   1      40.581  19.404  25.965  1.00  0.00    -0.352 N 
ATOM     35  C   UNL A   1      41.890  19.805  25.839  1.00  0.00     0.251 C 
ATOM     36  H   UNL A   1      40.386  18.495  25.641  1.00  0.00     0.163 HD
ATOM     37  O   UNL A   1      42.693  19.109  25.226  1.00  0.00    -0.269 OA
BRANCH  35  38
ATOM     38  C   UNL A   1      42.318  21.097  26.416  1.00  0.00     0.039 A 
ATOM     39  C   UNL A   1      42.713  22.122  25.553  1.00  0.00     0.014 A 
ATOM     40  C   UNL A   1      42.303  21.305  27.797  1.00  0.00     0.014 A 
ATOM     41  C   UNL A   1      43.016  23.382  26.073  1.00  0.00     0.010 A 
ATOM     42  C   UNL A   1      42.527  22.581  28.305  1.00  0.00     0.010 A 
ATOM     43  C   UNL A   1      42.882  23.634  27.448  1.00  0.00    -0.014 A 
BRANCH  43  44
ATOM     44  C   UNL A   1      43.086  24.997  28.003  1.00  0.00     0.031 A 
ATOM     45  C   UNL A   1      44.444  25.425  28.488  1.00  0.00     0.074 A 
ATOM     46  C   UNL A   1      42.030  25.824  28.139  1.00  0.00     0.049 A 
ATOM     47  N   UNL A   1      44.800  26.545  29.062  1.00  0.00    -0.248 NA
ATOM     48  C   UNL A   1      45.542  24.456  28.331  1.00  0.00     0.031 C 
ATOM     49  C   UNL A   1      40.650  25.504  27.765  1.00  0.00     0.029 A 
ATOM     50  N   UNL A   1      41.947  27.097  28.646  1.00  0.00    -0.354 N 
ATOM     51  C   UNL A   1      46.152  26.409  29.352  1.00  0.00     0.074 A 
ATOM     52  C   UNL A   1      46.544  25.081  28.932  1.00  0.00     0.031 C 
ATOM     53  C   UNL A   1      39.864  26.557  28.039  1.00  0.00     0.029 A 
ATOM     54  C   UNL A   1      40.672  27.610  28.647  1.00  0.00     0.049 A 
ATOM     55  H   UNL A   1      42.729  27.596  28.978  1.00  0.00     0.167 HD
ATOM     56  C   UNL A   1      46.994  27.316  29.902  1.00  0.00     0.037 A 
ATOM     57  C   UNL A   1      40.203  28.788  29.099  1.00  0.00     0.037 A 
ATOM     58  C   UNL A   1      46.607  28.648  30.289  1.00  0.00     0.049 A 
ATOM     59  C   UNL A   1      41.163  29.779  29.697  1.00  0.00     0.074 A 
ATOM     60  C   UNL A   1      47.408  29.668  30.774  1.00  0.00     0.029 A 
ATOM     61  N   UNL A   1      45.313  29.140  30.246  1.00  0.00    -0.354 N 
ATOM     62  N   UNL A   1      42.458  29.671  29.876  1.00  0.00    -0.248 NA
ATOM     63  C   UNL A   1      40.600  31.060  30.149  1.00  0.00     0.031 C 
ATOM     64  C   UNL A   1      46.589  30.759  31.077  1.00  0.00     0.029 A 
ATOM     65  C   UNL A   1      45.288  30.440  30.726  1.00  0.00     0.049 A 
ATOM     66  H   UNL A   1      44.528  28.642  29.922  1.00  0.00     0.167 HD
ATOM     67  C   UNL A   1      42.866  30.876  30.436  1.00  0.00     0.074 A 
ATOM     68  C   UNL A   1      41.686  31.707  30.547  1.00  0.00     0.031 C 
ATOM     69  C   UNL A   1      44.106  31.259  30.824  1.00  0.00     0.037 A 
BRANCH  56  70
ATOM     70  C   UNL A   1      48.422  26.907  30.119  1.00  0.00     0.057 A 
ATOM     71  C   UNL A   1      49.421  27.173  29.174  1.00  0.00     0.134 A 
ATOM     72  C   UNL A   1      48.813  26.297  31.318  1.00  0.00     0.134 A 
ATOM     73  F   UNL A   1      49.114  27.746  28.000  1.00  0.00    -0.206 F 
ATOM     74  C   UNL A   1      50.756  26.833  29.408  1.00  0.00     0.040 A 
ATOM     75  C   UNL A   1      50.146  25.978  31.574  1.00  0.00     0.040 A 
ATOM     76  F   UNL A   1      47.907  26.020  32.268  1.00  0.00    -0.206 F 
ATOM     77  C   UNL A   1      51.122  26.243  30.615  1.00  0.00     0.006 A 
ENDBRANCH  56  70
BRANCH  57  78
ATOM     78  C   UNL A   1      38.753  29.102  29.007  1.00  0.00     0.057 A 
ATOM     79  C   UNL A   1      38.180  29.553  27.812  1.00  0.00     0.134 A 
ATOM     80  C   UNL A   1      37.911  28.986  30.119  1.00  0.00     0.134 A 
ATOM     81  F   UNL A   1      38.938  29.703  26.715  1.00  0.00    -0.206 F 
ATOM     82  C   UNL A   1      36.832  29.905  27.733  1.00  0.00     0.040 A 
ATOM     83  C   UNL A   1      36.554  29.306  30.047  1.00  0.00     0.040 A 
ATOM     84  F   UNL A   1      38.394  28.551  31.293  1.00  0.00    -0.206 F 
ATOM     85  C   UNL A   1      36.014  29.779  28.854  1.00  0.00     0.006 A 
ENDBRANCH  57  78
BRANCH  69  86
ATOM     86  C   UNL A   1      44.259  32.647  31.373  1.00  0.00     0.057 A 
ATOM     87  C   UNL A   1      44.183  32.914  32.746  1.00  0.00     0.134 A 
ATOM     88  C   UNL A   1      44.526  33.725  30.519  1.00  0.00     0.134 A 
ATOM     89  F   UNL A   1      43.918  31.928  33.617  1.00  0.00    -0.206 F 
ATOM     90  C   UNL A   1      44.342  34.207  33.247  1.00  0.00     0.040 A 
ATOM     91  C   UNL A   1      44.717  35.017  31.011  1.00  0.00     0.040 A 
ATOM     92  F   UNL A   1      44.623  33.538  29.194  1.00  0.00    -0.206 F 
ATOM     93  C   UNL A   1      44.618  35.262  32.379  1.00  0.00     0.006 A 
ENDBRANCH  69  86
ENDBRANCH  43  44
ENDBRANCH  35  38
ENDBRANCH  33  34
ENDBRANCH  32  33
ENDBRANCH   1  32
TORSDOF 16
ENDMDL
