MODEL 1
REMARK VINA RESULT:     -11.3      0.000      0.000
REMARK SMILES CCOC(=O)NC(=O)C[N@@H+]1CC[C@@H](C(=O)NCCCCNC(=O)c2ccc(-c3c4nc(c(-c5c(F)cccc5F)c5ccc([nH]5)c(-c5c(F)cccc5F)c5nc(c(-c6c(F)cccc6F)c6ccc3[nH]6)C=C5)C=C4)cc2)[C@@H]1C
REMARK SMILES IDX 17 1 16 2 14 3 15 4 13 6 10 7 11 8 78 9 12 11 79 12 9 13
REMARK SMILES IDX 7 14 4 15 5 16 6 17 8 19 3 20 2 21 1 22 18 23 19 24 20 25
REMARK SMILES IDX 21 26 22 27 23 29 24 30 25 31 77 32 26 33 76 34 27 35 28 36
REMARK SMILES IDX 29 37 70 38 30 39 75 40 69 41 71 42 31 43 74 44 68 45 67 46
REMARK SMILES IDX 32 48 58 49 41 50 57 51 42 52 45 53 56 54 72 55 43 56 44 57
REMARK SMILES IDX 55 59 73 60 46 61 33 62 34 63 39 64 35 65 36 66 38 67 40 68
REMARK SMILES IDX 37 69 59 70 60 71 65 72 61 73 62 74 64 75 66 76 63 77 47 78
REMARK SMILES IDX 48 79 53 80 49 81 50 82 52 83 54 84 51 85
REMARK H PARENT 16 5 10 10 6 18 21 28 71 47 45 58
REMARK Flexibility Score: inf
ROOT
ATOM      1  C   UNL A   1      31.656  29.645  27.243  1.00  0.00     0.116 C 
ENDROOT
BRANCH   1   2
ATOM      2  N   UNL A   1      32.910  28.938  27.429  1.00  0.00    -0.356 N 
ATOM      3  C   UNL A   1      33.418  27.878  26.729  1.00  0.00     0.229 C 
ATOM      4  O   UNL A   1      34.645  27.883  26.562  1.00  0.00    -0.275 OA
ATOM      5  H   UNL A   1      33.475  29.269  28.164  1.00  0.00     0.163 HD
BRANCH   3   6
ATOM      6  C   UNL A   1      32.608  26.672  26.226  1.00  0.00     0.142 C 
ATOM      7  N   UNL A   1      32.153  26.562  24.021  1.00  0.00    -0.324 N 
ATOM      8  C   UNL A   1      32.811  25.298  24.191  1.00  0.00     0.263 C 
ATOM      9  C   UNL A   1      31.476  26.959  25.248  1.00  0.00     0.194 C 
ATOM     10  H   UNL A   1      32.907  27.227  23.843  1.00  0.00     0.348 HD
ATOM     11  C   UNL A   1      33.419  25.529  25.571  1.00  0.00     0.081 C 
ATOM     12  C   UNL A   1      30.229  26.159  25.654  1.00  0.00     0.076 C 
BRANCH   7  13
ATOM     13  C   UNL A   1      31.748  27.068  22.742  1.00  0.00     0.364 C 
BRANCH  13  14
ATOM     14  C   UNL A   1      32.035  28.559  22.528  1.00  0.00     0.284 C 
ATOM     15  C   UNL A   1      29.757  29.791  21.869  1.00  0.00     0.414 C 
ATOM     16  O   UNL A   1      29.472  30.606  20.994  1.00  0.00    -0.224 OA
ATOM     17  N   UNL A   1      31.107  29.500  22.088  1.00  0.00    -0.256 N 
ATOM     18  H   UNL A   1      31.617  30.297  21.816  1.00  0.00     0.176 HD
ATOM     19  O   UNL A   1      33.204  28.961  22.612  1.00  0.00    -0.268 OA
BRANCH  15  20
ATOM     20  O   UNL A   1      28.832  29.192  22.667  1.00  0.00    -0.450 OA
BRANCH  20  21
ATOM     21  C   UNL A   1      27.548  29.870  22.748  1.00  0.00     0.231 C 
ATOM     22  C   UNL A   1      27.567  31.031  23.729  1.00  0.00     0.049 C 
ENDBRANCH  20  21
ENDBRANCH  15  20
ENDBRANCH  13  14
ENDBRANCH   7  13
ENDBRANCH   3   6
ENDBRANCH   1   2
BRANCH   1  23
ATOM     23  C   UNL A   1      31.613  30.640  26.088  1.00  0.00     0.023 C 
BRANCH  23  24
ATOM     24  C   UNL A   1      31.348  32.084  26.525  1.00  0.00     0.023 C 
BRANCH  24  25
ATOM     25  C   UNL A   1      32.505  32.800  27.233  1.00  0.00     0.116 C 
BRANCH  25  26
ATOM     26  N   UNL A   1      32.202  34.159  27.646  1.00  0.00    -0.352 N 
ATOM     27  C   UNL A   1      32.883  34.984  28.519  1.00  0.00     0.251 C 
ATOM     28  H   UNL A   1      31.392  34.551  27.244  1.00  0.00     0.163 HD
ATOM     29  O   UNL A   1      32.436  36.083  28.795  1.00  0.00    -0.269 OA
BRANCH  27  30
ATOM     30  C   UNL A   1      34.132  34.511  29.167  1.00  0.00     0.039 A 
ATOM     31  C   UNL A   1      34.043  33.920  30.431  1.00  0.00     0.014 A 
ATOM     32  C   UNL A   1      35.375  34.628  28.539  1.00  0.00     0.014 A 
ATOM     33  C   UNL A   1      35.183  33.371  31.023  1.00  0.00     0.010 A 
ATOM     34  C   UNL A   1      36.497  34.015  29.098  1.00  0.00     0.010 A 
ATOM     35  C   UNL A   1      36.412  33.371  30.342  1.00  0.00    -0.014 A 
BRANCH  35  36
ATOM     36  C   UNL A   1      37.598  32.680  30.915  1.00  0.00     0.031 A 
ATOM     37  C   UNL A   1      38.210  33.142  32.210  1.00  0.00     0.074 A 
ATOM     38  C   UNL A   1      38.156  31.653  30.243  1.00  0.00     0.049 A 
ATOM     39  N   UNL A   1      39.239  32.654  32.858  1.00  0.00    -0.248 NA
ATOM     40  C   UNL A   1      37.608  34.324  32.845  1.00  0.00     0.031 C 
ATOM     41  C   UNL A   1      37.709  31.149  28.944  1.00  0.00     0.029 A 
ATOM     42  N   UNL A   1      39.223  30.849  30.560  1.00  0.00    -0.354 N 
ATOM     43  C   UNL A   1      39.411  33.472  33.967  1.00  0.00     0.074 A 
ATOM     44  C   UNL A   1      38.417  34.520  33.875  1.00  0.00     0.031 C 
ATOM     45  C   UNL A   1      38.470  30.100  28.592  1.00  0.00     0.029 A 
ATOM     46  C   UNL A   1      39.473  29.871  29.628  1.00  0.00     0.049 A 
ATOM     47  H   UNL A   1      39.758  30.961  31.379  1.00  0.00     0.167 HD
ATOM     48  C   UNL A   1      40.297  33.348  34.985  1.00  0.00     0.037 A 
ATOM     49  C   UNL A   1      40.397  28.892  29.613  1.00  0.00     0.037 A 
ATOM     50  C   UNL A   1      41.268  32.291  35.094  1.00  0.00     0.049 A 
ATOM     51  C   UNL A   1      41.344  28.753  30.771  1.00  0.00     0.074 A 
ATOM     52  C   UNL A   1      42.168  32.048  36.118  1.00  0.00     0.029 A 
ATOM     53  N   UNL A   1      41.467  31.300  34.146  1.00  0.00    -0.354 N 
ATOM     54  N   UNL A   1      41.441  29.486  31.853  1.00  0.00    -0.248 NA
ATOM     55  C   UNL A   1      42.301  27.638  30.714  1.00  0.00     0.031 C 
ATOM     56  C   UNL A   1      42.931  30.927  35.775  1.00  0.00     0.029 A 
ATOM     57  C   UNL A   1      42.481  30.450  34.555  1.00  0.00     0.049 A 
ATOM     58  H   UNL A   1      40.961  31.213  33.306  1.00  0.00     0.167 HD
ATOM     59  C   UNL A   1      42.447  28.909  32.615  1.00  0.00     0.074 A 
ATOM     60  C   UNL A   1      42.919  27.754  31.880  1.00  0.00     0.031 C 
ATOM     61  C   UNL A   1      42.938  29.300  33.817  1.00  0.00     0.037 A 
BRANCH  48  62
ATOM     62  C   UNL A   1      40.244  34.382  36.072  1.00  0.00     0.057 A 
ATOM     63  C   UNL A   1      39.451  34.207  37.215  1.00  0.00     0.134 A 
ATOM     64  C   UNL A   1      41.013  35.548  35.992  1.00  0.00     0.134 A 
ATOM     65  F   UNL A   1      38.682  33.116  37.348  1.00  0.00    -0.206 F 
ATOM     66  C   UNL A   1      39.404  35.169  38.226  1.00  0.00     0.040 A 
ATOM     67  C   UNL A   1      40.995  36.506  37.008  1.00  0.00     0.040 A 
ATOM     68  F   UNL A   1      41.800  35.776  34.929  1.00  0.00    -0.206 F 
ATOM     69  C   UNL A   1      40.183  36.320  38.126  1.00  0.00     0.006 A 
ENDBRANCH  48  62
BRANCH  49  70
ATOM     70  C   UNL A   1      40.441  27.930  28.483  1.00  0.00     0.057 A 
ATOM     71  C   UNL A   1      39.762  26.709  28.552  1.00  0.00     0.134 A 
ATOM     72  C   UNL A   1      41.169  28.200  27.319  1.00  0.00     0.134 A 
ATOM     73  F   UNL A   1      39.064  26.386  29.651  1.00  0.00    -0.206 F 
ATOM     74  C   UNL A   1      39.818  25.780  27.513  1.00  0.00     0.040 A 
ATOM     75  C   UNL A   1      41.216  27.290  26.261  1.00  0.00     0.040 A 
ATOM     76  F   UNL A   1      41.835  29.356  27.189  1.00  0.00    -0.206 F 
ATOM     77  C   UNL A   1      40.545  26.072  26.360  1.00  0.00     0.006 A 
ENDBRANCH  49  70
BRANCH  61  78
ATOM     78  C   UNL A   1      44.017  28.452  34.422  1.00  0.00     0.057 A 
ATOM     79  C   UNL A   1      43.721  27.354  35.239  1.00  0.00     0.134 A 
ATOM     80  C   UNL A   1      45.367  28.730  34.172  1.00  0.00     0.134 A 
ATOM     81  F   UNL A   1      42.449  27.044  35.529  1.00  0.00    -0.206 F 
ATOM     82  C   UNL A   1      44.732  26.577  35.809  1.00  0.00     0.040 A 
ATOM     83  C   UNL A   1      46.385  27.945  34.716  1.00  0.00     0.040 A 
ATOM     84  F   UNL A   1      45.717  29.763  33.392  1.00  0.00    -0.206 F 
ATOM     85  C   UNL A   1      46.069  26.871  35.543  1.00  0.00     0.006 A 
ENDBRANCH  61  78
ENDBRANCH  35  36
ENDBRANCH  27  30
ENDBRANCH  25  26
ENDBRANCH  24  25
ENDBRANCH  23  24
ENDBRANCH   1  23
TORSDOF 15
ENDMDL
MODEL 2
REMARK VINA RESULT:     -11.2      4.503      9.381
REMARK SMILES CCOC(=O)NC(=O)C[N@@H+]1CC[C@@H](C(=O)NCCCCNC(=O)c2ccc(-c3c4nc(c(-c5c(F)cccc5F)c5ccc([nH]5)c(-c5c(F)cccc5F)c5nc(c(-c6c(F)cccc6F)c6ccc3[nH]6)C=C5)C=C4)cc2)[C@@H]1C
REMARK SMILES IDX 17 1 16 2 14 3 15 4 13 6 10 7 11 8 78 9 12 11 79 12 9 13
REMARK SMILES IDX 7 14 4 15 5 16 6 17 8 19 3 20 2 21 1 22 18 23 19 24 20 25
REMARK SMILES IDX 21 26 22 27 23 29 24 30 25 31 77 32 26 33 76 34 27 35 28 36
REMARK SMILES IDX 29 37 70 38 30 39 75 40 69 41 71 42 31 43 74 44 68 45 67 46
REMARK SMILES IDX 32 48 58 49 41 50 57 51 42 52 45 53 56 54 72 55 43 56 44 57
REMARK SMILES IDX 55 59 73 60 46 61 33 62 34 63 39 64 35 65 36 66 38 67 40 68
REMARK SMILES IDX 37 69 59 70 60 71 65 72 61 73 62 74 64 75 66 76 63 77 47 78
REMARK SMILES IDX 48 79 53 80 49 81 50 82 52 83 54 84 51 85
REMARK H PARENT 16 5 10 10 6 18 21 28 71 47 45 58
REMARK Flexibility Score: inf
ROOT
ATOM      1  C   UNL A   1      37.913  23.611  25.758  1.00  0.00     0.116 C 
ENDROOT
BRANCH   1   2
ATOM      2  N   UNL A   1      37.184  23.088  24.617  1.00  0.00    -0.356 N 
ATOM      3  C   UNL A   1      36.051  23.569  24.020  1.00  0.00     0.229 C 
ATOM      4  O   UNL A   1      36.001  23.452  22.789  1.00  0.00    -0.275 OA
ATOM      5  H   UNL A   1      37.559  22.273  24.215  1.00  0.00     0.163 HD
BRANCH   3   6
ATOM      6  C   UNL A   1      34.832  24.148  24.758  1.00  0.00     0.142 C 
ATOM      7  N   UNL A   1      32.879  24.244  23.638  1.00  0.00    -0.324 N 
ATOM      8  C   UNL A   1      32.461  23.479  24.778  1.00  0.00     0.263 C 
ATOM      9  C   UNL A   1      33.968  25.142  23.991  1.00  0.00     0.194 C 
ATOM     10  H   UNL A   1      33.236  23.554  22.976  1.00  0.00     0.348 HD
ATOM     11  C   UNL A   1      33.833  23.120  25.340  1.00  0.00     0.081 C 
ATOM     12  C   UNL A   1      33.631  26.336  24.898  1.00  0.00     0.076 C 
BRANCH   7  13
ATOM     13  C   UNL A   1      32.026  24.504  22.515  1.00  0.00     0.364 C 
BRANCH  13  14
ATOM     14  C   UNL A   1      32.359  25.789  21.747  1.00  0.00     0.284 C 
ATOM     15  C   UNL A   1      30.674  27.716  22.513  1.00  0.00     0.414 C 
ATOM     16  O   UNL A   1      30.012  28.542  21.889  1.00  0.00    -0.224 OA
ATOM     17  N   UNL A   1      31.636  26.977  21.818  1.00  0.00    -0.256 N 
ATOM     18  H   UNL A   1      31.925  27.531  21.057  1.00  0.00     0.176 HD
ATOM     19  O   UNL A   1      33.250  25.756  20.885  1.00  0.00    -0.268 OA
BRANCH  15  20
ATOM     20  O   UNL A   1      30.553  27.513  23.854  1.00  0.00    -0.450 OA
BRANCH  20  21
ATOM     21  C   UNL A   1      29.553  26.533  24.246  1.00  0.00     0.231 C 
ATOM     22  C   UNL A   1      29.871  25.883  25.583  1.00  0.00     0.049 C 
ENDBRANCH  20  21
ENDBRANCH  15  20
ENDBRANCH  13  14
ENDBRANCH   7  13
ENDBRANCH   3   6
ENDBRANCH   1   2
BRANCH   1  23
ATOM     23  C   UNL A   1      38.929  22.667  26.394  1.00  0.00     0.023 C 
BRANCH  23  24
ATOM     24  C   UNL A   1      39.175  21.389  25.586  1.00  0.00     0.023 C 
BRANCH  24  25
ATOM     25  C   UNL A   1      39.465  20.121  26.398  1.00  0.00     0.116 C 
BRANCH  25  26
ATOM     26  N   UNL A   1      40.605  19.356  25.924  1.00  0.00    -0.352 N 
ATOM     27  C   UNL A   1      41.948  19.676  25.944  1.00  0.00     0.251 C 
ATOM     28  H   UNL A   1      40.389  18.479  25.530  1.00  0.00     0.163 HD
ATOM     29  O   UNL A   1      42.762  18.927  25.435  1.00  0.00    -0.269 OA
BRANCH  27  30
ATOM     30  C   UNL A   1      42.396  20.962  26.535  1.00  0.00     0.039 A 
ATOM     31  C   UNL A   1      42.810  21.982  25.674  1.00  0.00     0.014 A 
ATOM     32  C   UNL A   1      42.396  21.175  27.917  1.00  0.00     0.014 A 
ATOM     33  C   UNL A   1      43.138  23.238  26.190  1.00  0.00     0.010 A 
ATOM     34  C   UNL A   1      42.654  22.449  28.424  1.00  0.00     0.010 A 
ATOM     35  C   UNL A   1      43.019  23.498  27.566  1.00  0.00    -0.014 A 
BRANCH  35  36
ATOM     36  C   UNL A   1      43.249  24.865  28.103  1.00  0.00     0.031 A 
ATOM     37  C   UNL A   1      44.636  25.336  28.449  1.00  0.00     0.074 A 
ATOM     38  C   UNL A   1      42.196  25.677  28.324  1.00  0.00     0.049 A 
ATOM     39  N   UNL A   1      45.021  26.496  28.919  1.00  0.00    -0.248 NA
ATOM     40  C   UNL A   1      45.729  24.369  28.270  1.00  0.00     0.031 C 
ATOM     41  C   UNL A   1      40.793  25.323  28.101  1.00  0.00     0.029 A 
ATOM     42  N   UNL A   1      42.141  26.969  28.785  1.00  0.00    -0.354 N 
ATOM     43  C   UNL A   1      46.394  26.394  29.101  1.00  0.00     0.074 A 
ATOM     44  C   UNL A   1      46.767  25.042  28.743  1.00  0.00     0.031 C 
ATOM     45  C   UNL A   1      40.019  26.383  28.391  1.00  0.00     0.029 A 
ATOM     46  C   UNL A   1      40.867  27.482  28.841  1.00  0.00     0.049 A 
ATOM     47  H   UNL A   1      42.939  27.481  29.050  1.00  0.00     0.167 HD
ATOM     48  C   UNL A   1      47.271  27.346  29.502  1.00  0.00     0.037 A 
ATOM     49  C   UNL A   1      40.431  28.703  29.202  1.00  0.00     0.037 A 
ATOM     50  C   UNL A   1      46.909  28.699  29.833  1.00  0.00     0.049 A 
ATOM     51  C   UNL A   1      41.427  29.754  29.607  1.00  0.00     0.074 A 
ATOM     52  C   UNL A   1      47.734  29.752  30.192  1.00  0.00     0.029 A 
ATOM     53  N   UNL A   1      45.612  29.189  29.844  1.00  0.00    -0.354 N 
ATOM     54  N   UNL A   1      42.731  29.666  29.695  1.00  0.00    -0.248 NA
ATOM     55  C   UNL A   1      40.889  31.079  29.948  1.00  0.00     0.031 C 
ATOM     56  C   UNL A   1      46.933  30.870  30.450  1.00  0.00     0.029 A 
ATOM     57  C   UNL A   1      45.613  30.524  30.214  1.00  0.00     0.049 A 
ATOM     58  H   UNL A   1      44.809  28.666  29.621  1.00  0.00     0.167 HD
ATOM     59  C   UNL A   1      43.172  30.926  30.076  1.00  0.00     0.074 A 
ATOM     60  C   UNL A   1      41.997  31.765  30.184  1.00  0.00     0.031 C 
ATOM     61  C   UNL A   1      44.437  31.350  30.314  1.00  0.00     0.037 A 
BRANCH  48  62
ATOM     62  C   UNL A   1      48.717  26.955  29.594  1.00  0.00     0.057 A 
ATOM     63  C   UNL A   1      49.598  27.136  28.518  1.00  0.00     0.134 A 
ATOM     64  C   UNL A   1      49.243  26.418  30.775  1.00  0.00     0.134 A 
ATOM     65  F   UNL A   1      49.155  27.636  27.355  1.00  0.00    -0.206 F 
ATOM     66  C   UNL A   1      50.943  26.772  28.606  1.00  0.00     0.040 A 
ATOM     67  C   UNL A   1      50.593  26.073  30.883  1.00  0.00     0.040 A 
ATOM     68  F   UNL A   1      48.458  26.224  31.845  1.00  0.00    -0.206 F 
ATOM     69  C   UNL A   1      51.444  26.245  29.793  1.00  0.00     0.006 A 
ENDBRANCH  48  62
BRANCH  49  70
ATOM     70  C   UNL A   1      38.981  29.020  29.147  1.00  0.00     0.057 A 
ATOM     71  C   UNL A   1      38.380  29.431  27.952  1.00  0.00     0.134 A 
ATOM     72  C   UNL A   1      38.169  28.932  30.282  1.00  0.00     0.134 A 
ATOM     73  F   UNL A   1      39.113  29.553  26.835  1.00  0.00    -0.206 F 
ATOM     74  C   UNL A   1      37.026  29.763  27.890  1.00  0.00     0.040 A 
ATOM     75  C   UNL A   1      36.808  29.238  30.230  1.00  0.00     0.040 A 
ATOM     76  F   UNL A   1      38.684  28.537  31.455  1.00  0.00    -0.206 F 
ATOM     77  C   UNL A   1      36.235  29.663  29.033  1.00  0.00     0.006 A 
ENDBRANCH  49  70
BRANCH  61  78
ATOM     78  C   UNL A   1      44.615  32.793  30.682  1.00  0.00     0.057 A 
ATOM     79  C   UNL A   1      44.618  33.220  32.016  1.00  0.00     0.134 A 
ATOM     80  C   UNL A   1      44.800  33.765  29.691  1.00  0.00     0.134 A 
ATOM     81  F   UNL A   1      44.432  32.341  33.012  1.00  0.00    -0.206 F 
ATOM     82  C   UNL A   1      44.771  34.567  32.350  1.00  0.00     0.040 A 
ATOM     83  C   UNL A   1      44.979  35.111  30.013  1.00  0.00     0.040 A 
ATOM     84  F   UNL A   1      44.814  33.422  28.394  1.00  0.00    -0.206 F 
ATOM     85  C   UNL A   1      44.956  35.516  31.346  1.00  0.00     0.006 A 
ENDBRANCH  61  78
ENDBRANCH  35  36
ENDBRANCH  27  30
ENDBRANCH  25  26
ENDBRANCH  24  25
ENDBRANCH  23  24
ENDBRANCH   1  23
TORSDOF 15
ENDMDL
MODEL 3
REMARK VINA RESULT:     -11.2      1.496      3.208
REMARK SMILES CCOC(=O)NC(=O)C[N@@H+]1CC[C@@H](C(=O)NCCCCNC(=O)c2ccc(-c3c4nc(c(-c5c(F)cccc5F)c5ccc([nH]5)c(-c5c(F)cccc5F)c5nc(c(-c6c(F)cccc6F)c6ccc3[nH]6)C=C5)C=C4)cc2)[C@@H]1C
REMARK SMILES IDX 17 1 16 2 14 3 15 4 13 6 10 7 11 8 78 9 12 11 79 12 9 13
REMARK SMILES IDX 7 14 4 15 5 16 6 17 8 19 3 20 2 21 1 22 18 23 19 24 20 25
REMARK SMILES IDX 21 26 22 27 23 29 24 30 25 31 77 32 26 33 76 34 27 35 28 36
REMARK SMILES IDX 29 37 70 38 30 39 75 40 69 41 71 42 31 43 74 44 68 45 67 46
REMARK SMILES IDX 32 48 58 49 41 50 57 51 42 52 45 53 56 54 72 55 43 56 44 57
REMARK SMILES IDX 55 59 73 60 46 61 33 62 34 63 39 64 35 65 36 66 38 67 40 68
REMARK SMILES IDX 37 69 59 70 60 71 65 72 61 73 62 74 64 75 66 76 63 77 47 78
REMARK SMILES IDX 48 79 53 80 49 81 50 82 52 83 54 84 51 85
REMARK H PARENT 16 5 10 10 6 18 21 28 71 47 45 58
REMARK Flexibility Score: inf
ROOT
ATOM      1  C   UNL A   1      31.605  30.069  25.106  1.00  0.00     0.116 C 
ENDROOT
BRANCH   1   2
ATOM      2  N   UNL A   1      32.794  29.452  24.547  1.00  0.00    -0.356 N 
ATOM      3  C   UNL A   1      32.950  28.794  23.357  1.00  0.00     0.229 C 
ATOM      4  O   UNL A   1      34.035  28.966  22.786  1.00  0.00    -0.275 OA
ATOM      5  H   UNL A   1      33.604  29.516  25.102  1.00  0.00     0.163 HD
BRANCH   3   6
ATOM      6  C   UNL A   1      31.936  27.816  22.740  1.00  0.00     0.142 C 
ATOM      7  N   UNL A   1      30.390  26.911  24.108  1.00  0.00    -0.324 N 
ATOM      8  C   UNL A   1      29.523  27.500  23.127  1.00  0.00     0.263 C 
ATOM      9  C   UNL A   1      31.661  26.530  23.510  1.00  0.00     0.194 C 
ATOM     10  H   UNL A   1      30.565  27.657  24.783  1.00  0.00     0.348 HD
ATOM     11  C   UNL A   1      30.538  28.394  22.419  1.00  0.00     0.081 C 
ATOM     12  C   UNL A   1      31.654  25.341  22.537  1.00  0.00     0.076 C 
BRANCH   7  13
ATOM     13  C   UNL A   1      29.906  26.288  25.305  1.00  0.00     0.364 C 
BRANCH  13  14
ATOM     14  C   UNL A   1      30.960  26.124  26.407  1.00  0.00     0.284 C 
ATOM     15  C   UNL A   1      31.559  23.531  26.651  1.00  0.00     0.414 C 
ATOM     16  O   UNL A   1      31.679  22.790  27.624  1.00  0.00    -0.224 OA
ATOM     17  N   UNL A   1      31.449  24.907  26.876  1.00  0.00    -0.256 N 
ATOM     18  H   UNL A   1      31.914  25.094  27.723  1.00  0.00     0.176 HD
ATOM     19  O   UNL A   1      31.322  27.124  27.043  1.00  0.00    -0.268 OA
BRANCH  15  20
ATOM     20  O   UNL A   1      31.573  23.088  25.364  1.00  0.00    -0.450 OA
BRANCH  20  21
ATOM     21  C   UNL A   1      32.006  21.712  25.185  1.00  0.00     0.231 C 
ATOM     22  C   UNL A   1      32.915  21.542  23.979  1.00  0.00     0.049 C 
ENDBRANCH  20  21
ENDBRANCH  15  20
ENDBRANCH  13  14
ENDBRANCH   7  13
ENDBRANCH   3   6
ENDBRANCH   1   2
BRANCH   1  23
ATOM     23  C   UNL A   1      31.699  30.503  26.565  1.00  0.00     0.023 C 
BRANCH  23  24
ATOM     24  C   UNL A   1      31.454  32.000  26.782  1.00  0.00     0.023 C 
BRANCH  24  25
ATOM     25  C   UNL A   1      32.667  32.826  27.227  1.00  0.00     0.116 C 
BRANCH  25  26
ATOM     26  N   UNL A   1      32.348  34.186  27.628  1.00  0.00    -0.352 N 
ATOM     27  C   UNL A   1      32.978  35.002  28.547  1.00  0.00     0.251 C 
ATOM     28  H   UNL A   1      31.569  34.586  27.176  1.00  0.00     0.163 HD
ATOM     29  O   UNL A   1      32.522  36.103  28.799  1.00  0.00    -0.269 OA
BRANCH  27  30
ATOM     30  C   UNL A   1      34.179  34.516  29.271  1.00  0.00     0.039 A 
ATOM     31  C   UNL A   1      34.002  33.889  30.508  1.00  0.00     0.014 A 
ATOM     32  C   UNL A   1      35.464  34.656  28.740  1.00  0.00     0.014 A 
ATOM     33  C   UNL A   1      35.099  33.327  31.167  1.00  0.00     0.010 A 
ATOM     34  C   UNL A   1      36.546  34.033  29.362  1.00  0.00     0.010 A 
ATOM     35  C   UNL A   1      36.375  33.354  30.578  1.00  0.00    -0.014 A 
BRANCH  35  36
ATOM     36  C   UNL A   1      37.520  32.651  31.217  1.00  0.00     0.031 A 
ATOM     37  C   UNL A   1      38.051  33.098  32.552  1.00  0.00     0.074 A 
ATOM     38  C   UNL A   1      38.116  31.630  30.570  1.00  0.00     0.049 A 
ATOM     39  N   UNL A   1      39.035  32.598  33.259  1.00  0.00    -0.248 NA
ATOM     40  C   UNL A   1      37.413  34.274  33.161  1.00  0.00     0.031 C 
ATOM     41  C   UNL A   1      37.750  31.141  29.240  1.00  0.00     0.029 A 
ATOM     42  N   UNL A   1      39.158  30.818  30.945  1.00  0.00    -0.354 N 
ATOM     43  C   UNL A   1      39.139  33.403  34.385  1.00  0.00     0.074 A 
ATOM     44  C   UNL A   1      38.157  34.457  34.243  1.00  0.00     0.031 C 
ATOM     45  C   UNL A   1      38.528  30.093  28.925  1.00  0.00     0.029 A 
ATOM     46  C   UNL A   1      39.463  29.850  30.019  1.00  0.00     0.049 A 
ATOM     47  H   UNL A   1      39.641  30.919  31.797  1.00  0.00     0.167 HD
ATOM     48  C   UNL A   1      39.959  33.265  35.456  1.00  0.00     0.037 A 
ATOM     49  C   UNL A   1      40.384  28.868  30.052  1.00  0.00     0.037 A 
ATOM     50  C   UNL A   1      40.918  32.204  35.614  1.00  0.00     0.049 A 
ATOM     51  C   UNL A   1      41.255  28.712  31.266  1.00  0.00     0.074 A 
ATOM     52  C   UNL A   1      41.751  31.946  36.690  1.00  0.00     0.029 A 
ATOM     53  N   UNL A   1      41.173  31.222  34.669  1.00  0.00    -0.354 N 
ATOM     54  N   UNL A   1      41.286  29.433  32.359  1.00  0.00    -0.248 NA
ATOM     55  C   UNL A   1      42.210  27.594  31.256  1.00  0.00     0.031 C 
ATOM     56  C   UNL A   1      42.531  30.826  36.383  1.00  0.00     0.029 A 
ATOM     57  C   UNL A   1      42.157  30.363  35.132  1.00  0.00     0.049 A 
ATOM     58  H   UNL A   1      40.721  31.146  33.798  1.00  0.00     0.167 HD
ATOM     59  C   UNL A   1      42.241  28.844  33.177  1.00  0.00     0.074 A 
ATOM     60  C   UNL A   1      42.754  27.695  32.460  1.00  0.00     0.031 C 
ATOM     61  C   UNL A   1      42.656  29.221  34.411  1.00  0.00     0.037 A 
BRANCH  48  62
ATOM     62  C   UNL A   1      39.841  34.287  36.549  1.00  0.00     0.057 A 
ATOM     63  C   UNL A   1      39.016  34.080  37.663  1.00  0.00     0.134 A 
ATOM     64  C   UNL A   1      40.580  35.475  36.504  1.00  0.00     0.134 A 
ATOM     65  F   UNL A   1      38.273  32.967  37.761  1.00  0.00    -0.206 F 
ATOM     66  C   UNL A   1      38.908  35.032  38.679  1.00  0.00     0.040 A 
ATOM     67  C   UNL A   1      40.500  36.424  37.527  1.00  0.00     0.040 A 
ATOM     68  F   UNL A   1      41.395  35.734  35.470  1.00  0.00    -0.206 F 
ATOM     69  C   UNL A   1      39.657  36.205  38.614  1.00  0.00     0.006 A 
ENDBRANCH  48  62
BRANCH  49  70
ATOM     70  C   UNL A   1      40.496  27.917  28.916  1.00  0.00     0.057 A 
ATOM     71  C   UNL A   1      41.356  28.178  27.843  1.00  0.00     0.134 A 
ATOM     72  C   UNL A   1      39.743  26.739  28.870  1.00  0.00     0.134 A 
ATOM     73  F   UNL A   1      42.088  29.301  27.822  1.00  0.00    -0.206 F 
ATOM     74  C   UNL A   1      41.449  27.311  26.754  1.00  0.00     0.040 A 
ATOM     75  C   UNL A   1      39.844  25.851  27.798  1.00  0.00     0.040 A 
ATOM     76  F   UNL A   1      38.907  26.430  29.872  1.00  0.00    -0.206 F 
ATOM     77  C   UNL A   1      40.693  26.140  26.732  1.00  0.00     0.006 A 
ENDBRANCH  49  70
BRANCH  61  78
ATOM     78  C   UNL A   1      43.692  28.362  35.074  1.00  0.00     0.057 A 
ATOM     79  C   UNL A   1      45.062  28.610  34.924  1.00  0.00     0.134 A 
ATOM     80  C   UNL A   1      43.313  27.284  35.884  1.00  0.00     0.134 A 
ATOM     81  F   UNL A   1      45.491  29.618  34.150  1.00  0.00    -0.206 F 
ATOM     82  C   UNL A   1      46.021  27.798  35.534  1.00  0.00     0.040 A 
ATOM     83  C   UNL A   1      44.261  26.481  36.520  1.00  0.00     0.040 A 
ATOM     84  F   UNL A   1      42.016  26.998  36.075  1.00  0.00    -0.206 F 
ATOM     85  C   UNL A   1      45.619  26.732  36.338  1.00  0.00     0.006 A 
ENDBRANCH  61  78
ENDBRANCH  35  36
ENDBRANCH  27  30
ENDBRANCH  25  26
ENDBRANCH  24  25
ENDBRANCH  23  24
ENDBRANCH   1  23
TORSDOF 15
ENDMDL
