MODEL 1
REMARK VINA RESULT:      -9.2      0.000      0.000
REMARK SMILES CCN(CC)C(=O)[C@H](C)SCC(=O)NCCCCNC(=O)c1ccc(-c2c3nc(c(-c4c(F)cccc4F)c4ccc([nH]4)c(-c4c(F)cccc4F)c4nc(c(-c5c(F)cccc5F)c5ccc2[nH]5)C=C4)C=C3)cc1
REMARK SMILES IDX 15 1 14 2 12 3 13 4 11 6 10 7 8 8 9 9 6 10 3 11 7 12 2 13
REMARK SMILES IDX 1 14 4 15 5 16 16 17 17 18 18 19 19 20 20 21 21 23 22 24
REMARK SMILES IDX 23 25 75 26 24 27 74 28 25 29 26 30 27 31 68 32 28 33 73 34
REMARK SMILES IDX 67 35 69 36 29 37 72 38 66 39 65 40 30 42 56 43 39 44 55 45
REMARK SMILES IDX 40 46 43 47 54 48 70 49 41 50 42 51 53 53 71 54 44 55 31 56
REMARK SMILES IDX 32 57 37 58 33 59 34 60 36 61 38 62 35 63 57 64 58 65 63 66
REMARK SMILES IDX 59 67 60 68 62 69 64 70 61 71 45 72 46 73 51 74 47 75 48 76
REMARK SMILES IDX 50 77 52 78 49 79
REMARK H PARENT 14 5 19 22 69 41 43 52
REMARK Flexibility Score: inf
ROOT
ATOM      1  C   UNL A   1      37.576  23.262  25.760  1.00  0.00     0.116 C 
ENDROOT
BRANCH   1   2
ATOM      2  N   UNL A   1      36.419  22.822  26.509  1.00  0.00    -0.355 N 
ATOM      3  C   UNL A   1      35.391  22.012  26.127  1.00  0.00     0.230 C 
ATOM      4  O   UNL A   1      34.734  21.501  27.040  1.00  0.00    -0.274 OA
ATOM      5  H   UNL A   1      36.366  23.159  27.434  1.00  0.00     0.163 HD
BRANCH   3   6
ATOM      6  C   UNL A   1      35.148  21.614  24.675  1.00  0.00     0.170 C 
BRANCH   6   7
ATOM      7  S   UNL A   1      34.254  22.808  23.617  1.00  0.00    -0.139 SA
BRANCH   7   8
ATOM      8  C   UNL A   1      32.501  22.244  23.676  1.00  0.00     0.133 C 
ATOM      9  C   UNL A   1      32.414  20.726  23.745  1.00  0.00     0.030 C 
BRANCH   8  10
ATOM     10  C   UNL A   1      31.738  22.885  24.833  1.00  0.00     0.235 C 
ATOM     11  N   UNL A   1      30.969  24.023  24.613  1.00  0.00    -0.342 N 
ATOM     12  O   UNL A   1      31.823  22.389  25.959  1.00  0.00    -0.274 OA
BRANCH  11  13
ATOM     13  C   UNL A   1      30.488  24.754  25.790  1.00  0.00     0.116 C 
ATOM     14  C   UNL A   1      31.428  25.864  26.242  1.00  0.00     0.027 C 
ENDBRANCH  11  13
BRANCH  11  15
ATOM     15  C   UNL A   1      30.510  24.491  23.304  1.00  0.00     0.116 C 
ATOM     16  C   UNL A   1      31.501  25.423  22.625  1.00  0.00     0.027 C 
ENDBRANCH  11  15
ENDBRANCH   8  10
ENDBRANCH   7   8
ENDBRANCH   6   7
ENDBRANCH   3   6
ENDBRANCH   1   2
BRANCH   1  17
ATOM     17  C   UNL A   1      38.842  22.481  26.105  1.00  0.00     0.023 C 
BRANCH  17  18
ATOM     18  C   UNL A   1      38.991  21.129  25.410  1.00  0.00     0.023 C 
BRANCH  18  19
ATOM     19  C   UNL A   1      39.282  19.954  26.329  1.00  0.00     0.116 C 
BRANCH  19  20
ATOM     20  N   UNL A   1      40.462  19.201  25.931  1.00  0.00    -0.352 N 
ATOM     21  C   UNL A   1      41.779  19.588  25.924  1.00  0.00     0.251 C 
ATOM     22  H   UNL A   1      40.291  18.282  25.623  1.00  0.00     0.163 HD
ATOM     23  O   UNL A   1      42.633  18.860  25.431  1.00  0.00    -0.269 OA
BRANCH  21  24
ATOM     24  C   UNL A   1      42.161  20.904  26.481  1.00  0.00     0.039 A 
ATOM     25  C   UNL A   1      42.597  21.903  25.609  1.00  0.00     0.014 A 
ATOM     26  C   UNL A   1      42.078  21.154  27.853  1.00  0.00     0.014 A 
ATOM     27  C   UNL A   1      42.886  23.175  26.105  1.00  0.00     0.010 A 
ATOM     28  C   UNL A   1      42.286  22.444  28.333  1.00  0.00     0.010 A 
ATOM     29  C   UNL A   1      42.698  23.467  27.465  1.00  0.00    -0.014 A 
BRANCH  29  30
ATOM     30  C   UNL A   1      42.937  24.830  28.002  1.00  0.00     0.031 A 
ATOM     31  C   UNL A   1      44.319  25.238  28.431  1.00  0.00     0.074 A 
ATOM     32  C   UNL A   1      41.902  25.678  28.161  1.00  0.00     0.049 A 
ATOM     33  N   UNL A   1      44.718  26.355  28.987  1.00  0.00    -0.248 NA
ATOM     34  C   UNL A   1      45.393  24.251  28.235  1.00  0.00     0.031 C 
ATOM     35  C   UNL A   1      40.508  25.385  27.826  1.00  0.00     0.029 A 
ATOM     36  N   UNL A   1      41.863  26.957  28.656  1.00  0.00    -0.354 N 
ATOM     37  C   UNL A   1      46.078  26.198  29.218  1.00  0.00     0.074 A 
ATOM     38  C   UNL A   1      46.427  24.858  28.797  1.00  0.00     0.031 C 
ATOM     39  C   UNL A   1      39.754  26.462  28.102  1.00  0.00     0.029 A 
ATOM     40  C   UNL A   1      40.603  27.504  28.672  1.00  0.00     0.049 A 
ATOM     41  H   UNL A   1      42.662  27.438  28.972  1.00  0.00     0.167 HD
ATOM     42  C   UNL A   1      46.963  27.096  29.711  1.00  0.00     0.037 A 
ATOM     43  C   UNL A   1      40.178  28.707  29.103  1.00  0.00     0.037 A 
ATOM     44  C   UNL A   1      46.617  28.435  30.110  1.00  0.00     0.049 A 
ATOM     45  C   UNL A   1      41.178  29.680  29.663  1.00  0.00     0.074 A 
ATOM     46  C   UNL A   1      47.451  29.439  30.570  1.00  0.00     0.029 A 
ATOM     47  N   UNL A   1      45.333  28.955  30.097  1.00  0.00    -0.354 N 
ATOM     48  N   UNL A   1      42.474  29.544  29.811  1.00  0.00    -0.248 NA
ATOM     49  C   UNL A   1      40.658  30.981  30.111  1.00  0.00     0.031 C 
ATOM     50  C   UNL A   1      46.664  30.551  30.883  1.00  0.00     0.029 A 
ATOM     51  C   UNL A   1      45.346  30.260  30.564  1.00  0.00     0.049 A 
ATOM     52  H   UNL A   1      44.528  28.471  29.800  1.00  0.00     0.167 HD
ATOM     53  C   UNL A   1      42.927  30.747  30.337  1.00  0.00     0.074 A 
ATOM     54  C   UNL A   1      41.770  31.607  30.469  1.00  0.00     0.031 C 
ATOM     55  C   UNL A   1      44.188  31.108  30.679  1.00  0.00     0.037 A 
BRANCH  42  56
ATOM     56  C   UNL A   1      48.393  26.658  29.846  1.00  0.00     0.057 A 
ATOM     57  C   UNL A   1      48.870  26.039  31.011  1.00  0.00     0.134 A 
ATOM     58  C   UNL A   1      49.297  26.827  28.790  1.00  0.00     0.134 A 
ATOM     59  F   UNL A   1      48.061  25.858  32.065  1.00  0.00    -0.206 F 
ATOM     60  C   UNL A   1      50.199  25.629  31.128  1.00  0.00     0.040 A 
ATOM     61  C   UNL A   1      50.620  26.393  28.885  1.00  0.00     0.040 A 
ATOM     62  F   UNL A   1      48.906  27.405  27.644  1.00  0.00    -0.206 F 
ATOM     63  C   UNL A   1      51.077  25.799  30.059  1.00  0.00     0.006 A 
ENDBRANCH  42  56
BRANCH  43  64
ATOM     64  C   UNL A   1      38.740  29.069  29.009  1.00  0.00     0.057 A 
ATOM     65  C   UNL A   1      38.189  29.529  27.807  1.00  0.00     0.134 A 
ATOM     66  C   UNL A   1      37.889  28.983  30.117  1.00  0.00     0.134 A 
ATOM     67  F   UNL A   1      38.958  29.651  26.715  1.00  0.00    -0.206 F 
ATOM     68  C   UNL A   1      36.852  29.916  27.715  1.00  0.00     0.040 A 
ATOM     69  C   UNL A   1      36.541  29.340  30.032  1.00  0.00     0.040 A 
ATOM     70  F   UNL A   1      38.352  28.542  31.296  1.00  0.00    -0.206 F 
ATOM     71  C   UNL A   1      36.022  29.817  28.831  1.00  0.00     0.006 A 
ENDBRANCH  43  64
BRANCH  55  72
ATOM     72  C   UNL A   1      44.391  32.505  31.189  1.00  0.00     0.057 A 
ATOM     73  C   UNL A   1      44.365  32.808  32.557  1.00  0.00     0.134 A 
ATOM     74  C   UNL A   1      44.655  33.555  30.298  1.00  0.00     0.134 A 
ATOM     75  F   UNL A   1      44.104  31.851  33.460  1.00  0.00    -0.206 F 
ATOM     76  C   UNL A   1      44.572  34.109  33.018  1.00  0.00     0.040 A 
ATOM     77  C   UNL A   1      44.893  34.853  30.750  1.00  0.00     0.040 A 
ATOM     78  F   UNL A   1      44.702  33.332  28.977  1.00  0.00    -0.206 F 
ATOM     79  C   UNL A   1      44.845  35.134  32.113  1.00  0.00     0.006 A 
ENDBRANCH  55  72
ENDBRANCH  29  30
ENDBRANCH  21  24
ENDBRANCH  19  20
ENDBRANCH  18  19
ENDBRANCH  17  18
ENDBRANCH   1  17
TORSDOF 16
ENDMDL
MODEL 2
REMARK VINA RESULT:      -9.1      3.929      9.080
REMARK SMILES CCN(CC)C(=O)[C@H](C)SCC(=O)NCCCCNC(=O)c1ccc(-c2c3nc(c(-c4c(F)cccc4F)c4ccc([nH]4)c(-c4c(F)cccc4F)c4nc(c(-c5c(F)cccc5F)c5ccc2[nH]5)C=C4)C=C3)cc1
REMARK SMILES IDX 15 1 14 2 12 3 13 4 11 6 10 7 8 8 9 9 6 10 3 11 7 12 2 13
REMARK SMILES IDX 1 14 4 15 5 16 16 17 17 18 18 19 19 20 20 21 21 23 22 24
REMARK SMILES IDX 23 25 75 26 24 27 74 28 25 29 26 30 27 31 68 32 28 33 73 34
REMARK SMILES IDX 67 35 69 36 29 37 72 38 66 39 65 40 30 42 56 43 39 44 55 45
REMARK SMILES IDX 40 46 43 47 54 48 70 49 41 50 42 51 53 53 71 54 44 55 31 56
REMARK SMILES IDX 32 57 37 58 33 59 34 60 36 61 38 62 35 63 57 64 58 65 63 66
REMARK SMILES IDX 59 67 60 68 62 69 64 70 61 71 45 72 46 73 51 74 47 75 48 76
REMARK SMILES IDX 50 77 52 78 49 79
REMARK H PARENT 14 5 19 22 69 41 43 52
REMARK Flexibility Score: inf
ROOT
ATOM      1  C   UNL A   1      31.552  29.828  25.161  1.00  0.00     0.116 C 
ENDROOT
BRANCH   1   2
ATOM      2  N   UNL A   1      31.353  29.491  23.768  1.00  0.00    -0.355 N 
ATOM      3  C   UNL A   1      30.564  28.529  23.210  1.00  0.00     0.230 C 
ATOM      4  O   UNL A   1      30.288  28.679  22.014  1.00  0.00    -0.274 OA
ATOM      5  H   UNL A   1      31.863  30.038  23.127  1.00  0.00     0.163 HD
BRANCH   3   6
ATOM      6  C   UNL A   1      29.915  27.416  24.026  1.00  0.00     0.170 C 
BRANCH   6   7
ATOM      7  S   UNL A   1      30.790  25.812  24.101  1.00  0.00    -0.139 SA
BRANCH   7   8
ATOM      8  C   UNL A   1      31.771  25.902  25.659  1.00  0.00     0.133 C 
ATOM      9  C   UNL A   1      31.120  26.841  26.665  1.00  0.00     0.030 C 
BRANCH   8  10
ATOM     10  C   UNL A   1      31.993  24.520  26.270  1.00  0.00     0.235 C 
ATOM     11  N   UNL A   1      32.982  23.685  25.762  1.00  0.00    -0.342 N 
ATOM     12  O   UNL A   1      31.277  24.154  27.206  1.00  0.00    -0.274 OA
BRANCH  11  13
ATOM     13  C   UNL A   1      32.971  22.283  26.189  1.00  0.00     0.116 C 
ATOM     14  C   UNL A   1      32.179  21.371  25.260  1.00  0.00     0.027 C 
ENDBRANCH  11  13
BRANCH  11  15
ATOM     15  C   UNL A   1      34.098  24.117  24.918  1.00  0.00     0.116 C 
ATOM     16  C   UNL A   1      35.439  24.061  25.632  1.00  0.00     0.027 C 
ENDBRANCH  11  15
ENDBRANCH   8  10
ENDBRANCH   7   8
ENDBRANCH   6   7
ENDBRANCH   3   6
ENDBRANCH   1   2
BRANCH   1  17
ATOM     17  C   UNL A   1      30.993  31.200  25.528  1.00  0.00     0.023 C 
BRANCH  17  18
ATOM     18  C   UNL A   1      31.336  31.696  26.932  1.00  0.00     0.023 C 
BRANCH  18  19
ATOM     19  C   UNL A   1      32.603  32.529  27.036  1.00  0.00     0.116 C 
BRANCH  19  20
ATOM     20  N   UNL A   1      32.361  33.868  27.552  1.00  0.00    -0.352 N 
ATOM     21  C   UNL A   1      33.069  34.579  28.489  1.00  0.00     0.251 C 
ATOM     22  H   UNL A   1      31.578  34.330  27.175  1.00  0.00     0.163 HD
ATOM     23  O   UNL A   1      32.642  35.653  28.900  1.00  0.00    -0.269 OA
BRANCH  21  24
ATOM     24  C   UNL A   1      34.331  34.030  29.030  1.00  0.00     0.039 A 
ATOM     25  C   UNL A   1      34.279  33.209  30.158  1.00  0.00     0.014 A 
ATOM     26  C   UNL A   1      35.556  34.312  28.421  1.00  0.00     0.014 A 
ATOM     27  C   UNL A   1      35.448  32.616  30.636  1.00  0.00     0.010 A 
ATOM     28  C   UNL A   1      36.707  33.655  28.848  1.00  0.00     0.010 A 
ATOM     29  C   UNL A   1      36.666  32.805  29.963  1.00  0.00    -0.014 A 
BRANCH  29  30
ATOM     30  C   UNL A   1      37.910  32.132  30.416  1.00  0.00     0.031 A 
ATOM     31  C   UNL A   1      38.758  32.760  31.487  1.00  0.00     0.074 A 
ATOM     32  C   UNL A   1      38.309  30.991  29.822  1.00  0.00     0.049 A 
ATOM     33  N   UNL A   1      39.910  32.366  31.968  1.00  0.00    -0.248 NA
ATOM     34  C   UNL A   1      38.259  34.012  32.078  1.00  0.00     0.031 C 
ATOM     35  C   UNL A   1      37.598  30.306  28.740  1.00  0.00     0.029 A 
ATOM     36  N   UNL A   1      39.417  30.210  30.038  1.00  0.00    -0.354 N 
ATOM     37  C   UNL A   1      40.277  33.325  32.903  1.00  0.00     0.074 A 
ATOM     38  C   UNL A   1      39.257  34.351  32.881  1.00  0.00     0.031 C 
ATOM     39  C   UNL A   1      38.275  29.196  28.405  1.00  0.00     0.029 A 
ATOM     40  C   UNL A   1      39.486  29.111  29.215  1.00  0.00     0.049 A 
ATOM     41  H   UNL A   1      40.098  30.418  30.717  1.00  0.00     0.167 HD
ATOM     42  C   UNL A   1      41.353  33.339  33.725  1.00  0.00     0.037 A 
ATOM     43  C   UNL A   1      40.423  28.150  29.121  1.00  0.00     0.037 A 
ATOM     44  C   UNL A   1      42.356  32.307  33.760  1.00  0.00     0.049 A 
ATOM     45  C   UNL A   1      41.618  28.197  30.033  1.00  0.00     0.074 A 
ATOM     46  C   UNL A   1      43.454  32.202  34.595  1.00  0.00     0.029 A 
ATOM     47  N   UNL A   1      42.383  31.204  32.921  1.00  0.00    -0.354 N 
ATOM     48  N   UNL A   1      41.917  29.073  30.961  1.00  0.00    -0.248 NA
ATOM     49  C   UNL A   1      42.604  27.115  29.890  1.00  0.00     0.031 C 
ATOM     50  C   UNL A   1      44.173  31.061  34.228  1.00  0.00     0.029 A 
ATOM     51  C   UNL A   1      43.493  30.424  33.202  1.00  0.00     0.049 A 
ATOM     52  H   UNL A   1      41.713  31.004  32.228  1.00  0.00     0.167 HD
ATOM     53  C   UNL A   1      43.104  28.634  31.532  1.00  0.00     0.074 A 
ATOM     54  C   UNL A   1      43.463  27.405  30.856  1.00  0.00     0.031 C 
ATOM     55  C   UNL A   1      43.832  29.197  32.528  1.00  0.00     0.037 A 
BRANCH  42  56
ATOM     56  C   UNL A   1      41.500  34.508  34.656  1.00  0.00     0.057 A 
ATOM     57  C   UNL A   1      40.985  34.484  35.960  1.00  0.00     0.134 A 
ATOM     58  C   UNL A   1      42.191  35.659  34.258  1.00  0.00     0.134 A 
ATOM     59  F   UNL A   1      40.301  33.418  36.402  1.00  0.00    -0.206 F 
ATOM     60  C   UNL A   1      41.129  35.572  36.823  1.00  0.00     0.040 A 
ATOM     61  C   UNL A   1      42.368  36.740  35.122  1.00  0.00     0.040 A 
ATOM     62  F   UNL A   1      42.716  35.748  33.027  1.00  0.00    -0.206 F 
ATOM     63  C   UNL A   1      41.830  36.702  36.407  1.00  0.00     0.006 A 
ENDBRANCH  42  56
BRANCH  43  64
ATOM     64  C   UNL A   1      40.266  27.048  28.137  1.00  0.00     0.057 A 
ATOM     65  C   UNL A   1      39.540  25.893  28.456  1.00  0.00     0.134 A 
ATOM     66  C   UNL A   1      40.848  27.111  26.866  1.00  0.00     0.134 A 
ATOM     67  F   UNL A   1      38.973  25.765  29.664  1.00  0.00    -0.206 F 
ATOM     68  C   UNL A   1      39.422  24.832  27.558  1.00  0.00     0.040 A 
ATOM     69  C   UNL A   1      40.715  26.067  25.947  1.00  0.00     0.040 A 
ATOM     70  F   UNL A   1      41.550  28.193  26.494  1.00  0.00    -0.206 F 
ATOM     71  C   UNL A   1      40.007  24.920  26.296  1.00  0.00     0.006 A 
ENDBRANCH  43  64
BRANCH  55  72
ATOM     72  C   UNL A   1      45.066  28.469  32.977  1.00  0.00     0.057 A 
ATOM     73  C   UNL A   1      45.025  27.475  33.963  1.00  0.00     0.134 A 
ATOM     74  C   UNL A   1      46.306  28.740  32.382  1.00  0.00     0.134 A 
ATOM     75  F   UNL A   1      43.872  27.177  34.581  1.00  0.00    -0.206 F 
ATOM     76  C   UNL A   1      46.178  26.794  34.358  1.00  0.00     0.040 A 
ATOM     77  C   UNL A   1      47.458  28.045  32.747  1.00  0.00     0.040 A 
ATOM     78  F   UNL A   1      46.413  29.674  31.424  1.00  0.00    -0.206 F 
ATOM     79  C   UNL A   1      47.397  27.074  33.743  1.00  0.00     0.006 A 
ENDBRANCH  55  72
ENDBRANCH  29  30
ENDBRANCH  21  24
ENDBRANCH  19  20
ENDBRANCH  18  19
ENDBRANCH  17  18
ENDBRANCH   1  17
TORSDOF 16
ENDMDL
MODEL 3
REMARK VINA RESULT:      -9.1      4.680      9.489
REMARK SMILES CCN(CC)C(=O)[C@H](C)SCC(=O)NCCCCNC(=O)c1ccc(-c2c3nc(c(-c4c(F)cccc4F)c4ccc([nH]4)c(-c4c(F)cccc4F)c4nc(c(-c5c(F)cccc5F)c5ccc2[nH]5)C=C4)C=C3)cc1
REMARK SMILES IDX 15 1 14 2 12 3 13 4 11 6 10 7 8 8 9 9 6 10 3 11 7 12 2 13
REMARK SMILES IDX 1 14 4 15 5 16 16 17 17 18 18 19 19 20 20 21 21 23 22 24
REMARK SMILES IDX 23 25 75 26 24 27 74 28 25 29 26 30 27 31 68 32 28 33 73 34
REMARK SMILES IDX 67 35 69 36 29 37 72 38 66 39 65 40 30 42 56 43 39 44 55 45
REMARK SMILES IDX 40 46 43 47 54 48 70 49 41 50 42 51 53 53 71 54 44 55 31 56
REMARK SMILES IDX 32 57 37 58 33 59 34 60 36 61 38 62 35 63 57 64 58 65 63 66
REMARK SMILES IDX 59 67 60 68 62 69 64 70 61 71 45 72 46 73 51 74 47 75 48 76
REMARK SMILES IDX 50 77 52 78 49 79
REMARK H PARENT 14 5 19 22 69 41 43 52
REMARK Flexibility Score: inf
ROOT
ATOM      1  C   UNL A   1      31.757  30.023  25.426  1.00  0.00     0.116 C 
ENDROOT
BRANCH   1   2
ATOM      2  N   UNL A   1      30.643  30.451  24.609  1.00  0.00    -0.355 N 
ATOM      3  C   UNL A   1      30.059  29.836  23.541  1.00  0.00     0.230 C 
ATOM      4  O   UNL A   1      28.919  30.215  23.252  1.00  0.00    -0.274 OA
ATOM      5  H   UNL A   1      30.247  31.317  24.861  1.00  0.00     0.163 HD
BRANCH   3   6
ATOM      6  C   UNL A   1      30.685  28.638  22.833  1.00  0.00     0.170 C 
BRANCH   6   7
ATOM      7  S   UNL A   1      30.323  26.980  23.514  1.00  0.00    -0.139 SA
BRANCH   7   8
ATOM      8  C   UNL A   1      31.977  26.181  23.669  1.00  0.00     0.133 C 
ATOM      9  C   UNL A   1      33.096  27.190  23.455  1.00  0.00     0.030 C 
BRANCH   8  10
ATOM     10  C   UNL A   1      32.138  25.468  25.010  1.00  0.00     0.235 C 
ATOM     11  N   UNL A   1      31.597  24.199  25.192  1.00  0.00    -0.342 N 
ATOM     12  O   UNL A   1      32.740  26.034  25.925  1.00  0.00    -0.274 OA
BRANCH  11  13
ATOM     13  C   UNL A   1      31.535  23.679  26.562  1.00  0.00     0.116 C 
ATOM     14  C   UNL A   1      30.237  22.946  26.875  1.00  0.00     0.027 C 
ENDBRANCH  11  13
BRANCH  11  15
ATOM     15  C   UNL A   1      31.183  23.297  24.116  1.00  0.00     0.116 C 
ATOM     16  C   UNL A   1      32.314  22.418  23.608  1.00  0.00     0.027 C 
ENDBRANCH  11  15
ENDBRANCH   8  10
ENDBRANCH   7   8
ENDBRANCH   6   7
ENDBRANCH   3   6
ENDBRANCH   1   2
BRANCH   1  17
ATOM     17  C   UNL A   1      31.737  30.629  26.826  1.00  0.00     0.023 C 
BRANCH  17  18
ATOM     18  C   UNL A   1      31.419  32.122  26.893  1.00  0.00     0.023 C 
BRANCH  18  19
ATOM     19  C   UNL A   1      32.620  33.048  26.777  1.00  0.00     0.116 C 
BRANCH  19  20
ATOM     20  N   UNL A   1      32.490  34.248  27.589  1.00  0.00    -0.352 N 
ATOM     21  C   UNL A   1      33.202  34.627  28.700  1.00  0.00     0.251 C 
ATOM     22  H   UNL A   1      31.792  34.879  27.300  1.00  0.00     0.163 HD
ATOM     23  O   UNL A   1      32.867  35.620  29.339  1.00  0.00    -0.269 OA
BRANCH  21  24
ATOM     24  C   UNL A   1      34.353  33.813  29.149  1.00  0.00     0.039 A 
ATOM     25  C   UNL A   1      35.644  34.281  28.899  1.00  0.00     0.014 A 
ATOM     26  C   UNL A   1      34.159  32.606  29.824  1.00  0.00     0.014 A 
ATOM     27  C   UNL A   1      36.742  33.569  29.385  1.00  0.00     0.010 A 
ATOM     28  C   UNL A   1      35.249  31.942  30.378  1.00  0.00     0.010 A 
ATOM     29  C   UNL A   1      36.553  32.413  30.160  1.00  0.00    -0.014 A 
BRANCH  29  30
ATOM     30  C   UNL A   1      37.704  31.677  30.740  1.00  0.00     0.031 A 
ATOM     31  C   UNL A   1      38.145  31.959  32.150  1.00  0.00     0.074 A 
ATOM     32  C   UNL A   1      38.391  30.801  29.981  1.00  0.00     0.049 A 
ATOM     33  N   UNL A   1      39.166  31.474  32.811  1.00  0.00    -0.248 NA
ATOM     34  C   UNL A   1      37.350  32.937  32.909  1.00  0.00     0.031 C 
ATOM     35  C   UNL A   1      38.091  30.473  28.586  1.00  0.00     0.029 A 
ATOM     36  N   UNL A   1      39.490  30.033  30.274  1.00  0.00    -0.354 N 
ATOM     37  C   UNL A   1      39.142  32.096  34.052  1.00  0.00     0.074 A 
ATOM     38  C   UNL A   1      38.042  33.037  34.034  1.00  0.00     0.031 C 
ATOM     39  C   UNL A   1      38.969  29.553  28.153  1.00  0.00     0.029 A 
ATOM     40  C   UNL A   1      39.917  29.259  29.222  1.00  0.00     0.049 A 
ATOM     41  H   UNL A   1      39.930  30.037  31.154  1.00  0.00     0.167 HD
ATOM     42  C   UNL A   1      39.946  31.885  35.121  1.00  0.00     0.037 A 
ATOM     43  C   UNL A   1      40.960  28.412  29.130  1.00  0.00     0.037 A 
ATOM     44  C   UNL A   1      41.025  30.934  35.145  1.00  0.00     0.049 A 
ATOM     45  C   UNL A   1      41.849  28.208  30.326  1.00  0.00     0.074 A 
ATOM     46  C   UNL A   1      41.862  30.607  36.197  1.00  0.00     0.029 A 
ATOM     47  N   UNL A   1      41.418  30.159  34.065  1.00  0.00    -0.354 N 
ATOM     48  N   UNL A   1      41.773  28.752  31.516  1.00  0.00    -0.248 NA
ATOM     49  C   UNL A   1      42.967  27.266  30.168  1.00  0.00     0.031 C 
ATOM     50  C   UNL A   1      42.793  29.670  35.739  1.00  0.00     0.029 A 
ATOM     51  C   UNL A   1      42.501  29.371  34.417  1.00  0.00     0.049 A 
ATOM     52  H   UNL A   1      40.991  30.167  33.177  1.00  0.00     0.167 HD
ATOM     53  C   UNL A   1      42.808  28.197  32.256  1.00  0.00     0.074 A 
ATOM     54  C   UNL A   1      43.490  27.263  31.385  1.00  0.00     0.031 C 
ATOM     55  C   UNL A   1      43.163  28.437  33.543  1.00  0.00     0.037 A 
BRANCH  42  56
ATOM     56  C   UNL A   1      39.685  32.700  36.356  1.00  0.00     0.057 A 
ATOM     57  C   UNL A   1      40.429  33.850  36.653  1.00  0.00     0.134 A 
ATOM     58  C   UNL A   1      38.659  32.349  37.242  1.00  0.00     0.134 A 
ATOM     59  F   UNL A   1      41.435  34.235  35.854  1.00  0.00    -0.206 F 
ATOM     60  C   UNL A   1      40.179  34.606  37.800  1.00  0.00     0.040 A 
ATOM     61  C   UNL A   1      38.379  33.115  38.375  1.00  0.00     0.040 A 
ATOM     62  F   UNL A   1      37.903  31.264  37.016  1.00  0.00    -0.206 F 
ATOM     63  C   UNL A   1      39.146  34.243  38.661  1.00  0.00     0.006 A 
ENDBRANCH  42  56
BRANCH  43  64
ATOM     64  C   UNL A   1      41.216  27.678  27.863  1.00  0.00     0.057 A 
ATOM     65  C   UNL A   1      41.975  28.254  26.836  1.00  0.00     0.134 A 
ATOM     66  C   UNL A   1      40.696  26.398  27.640  1.00  0.00     0.134 A 
ATOM     67  F   UNL A   1      42.484  29.486  26.983  1.00  0.00    -0.206 F 
ATOM     68  C   UNL A   1      42.185  27.596  25.624  1.00  0.00     0.040 A 
ATOM     69  C   UNL A   1      40.922  25.716  26.442  1.00  0.00     0.040 A 
ATOM     70  F   UNL A   1      39.968  25.787  28.586  1.00  0.00    -0.206 F 
ATOM     71  C   UNL A   1      41.661  26.319  25.427  1.00  0.00     0.006 A 
ENDBRANCH  43  64
BRANCH  55  72
ATOM     72  C   UNL A   1      44.313  27.649  34.100  1.00  0.00     0.057 A 
ATOM     73  C   UNL A   1      45.629  28.127  34.061  1.00  0.00     0.134 A 
ATOM     74  C   UNL A   1      44.092  26.412  34.720  1.00  0.00     0.134 A 
ATOM     75  F   UNL A   1      45.910  29.298  33.469  1.00  0.00    -0.206 F 
ATOM     76  C   UNL A   1      46.687  27.391  34.598  1.00  0.00     0.040 A 
ATOM     77  C   UNL A   1      45.137  25.682  35.286  1.00  0.00     0.040 A 
ATOM     78  F   UNL A   1      42.854  25.901  34.800  1.00  0.00    -0.206 F 
ATOM     79  C   UNL A   1      46.440  26.169  35.219  1.00  0.00     0.006 A 
ENDBRANCH  55  72
ENDBRANCH  29  30
ENDBRANCH  21  24
ENDBRANCH  19  20
ENDBRANCH  18  19
ENDBRANCH  17  18
ENDBRANCH   1  17
TORSDOF 16
ENDMDL
