MODEL 1
REMARK VINA RESULT:     -11.1      0.000      0.000
REMARK SMILES CCCCCn1c(SCC(=O)NCCCCNC(=O)c2ccc(-c3c4nc(c(-c5c(F)cccc5F)c5ccc([nH]5)c(-c5c(F)cccc5F)c5nc(c(-c6c(F)cccc6F)c6ccc3[nH]6)C=C5)C=C4)cc2)nc2ccccc2c1=O
REMARK SMILES IDX 10 1 11 2 12 3 9 5 8 6 7 7 6 8 81 9 74 10 80 11 82 12 75 13
REMARK SMILES IDX 79 14 76 15 78 16 77 17 5 18 4 19 3 20 2 21 1 22 13 23 14 24
REMARK SMILES IDX 15 25 16 26 17 27 18 28 19 30 20 31 21 32 73 33 22 34 72 35
REMARK SMILES IDX 23 36 24 37 25 38 66 39 26 40 71 41 65 42 67 43 27 44 70 45
REMARK SMILES IDX 64 46 63 47 28 49 54 50 37 51 53 52 38 53 41 54 52 55 68 56
REMARK SMILES IDX 39 57 40 58 51 60 69 61 42 62 29 63 30 64 35 65 31 66 32 67
REMARK SMILES IDX 34 68 36 69 33 70 55 71 56 72 61 73 57 74 58 75 60 76 62 77
REMARK SMILES IDX 59 78 43 79 44 80 49 81 45 82 46 83 48 84 50 85 47 86
REMARK H PARENT 12 4 17 29 67 48 41 59
REMARK Flexibility Score: inf
ROOT
ATOM      1  C   UNL A   1      30.638  24.910  26.420  1.00  0.00     0.230 C 
ATOM      2  O   UNL A   1      29.738  24.206  26.875  1.00  0.00    -0.274 OA
ATOM      3  N   UNL A   1      30.396  26.231  26.185  1.00  0.00    -0.355 N 
ATOM      4  H   UNL A   1      29.568  26.599  26.571  1.00  0.00     0.163 HD
ENDROOT
BRANCH   1   5
ATOM      5  C   UNL A   1      32.029  24.384  26.187  1.00  0.00     0.178 C 
BRANCH   5   6
ATOM      6  S   UNL A   1      32.107  22.822  25.331  1.00  0.00    -0.078 SA
BRANCH   6   7
ATOM      7  C   UNL A   1      33.712  22.147  25.264  1.00  0.00     0.171 A 
ATOM      8  N   UNL A   1      34.035  20.807  25.108  1.00  0.00    -0.287 N 
ATOM      9  C   UNL A   1      35.389  20.436  25.006  1.00  0.00     0.262 A 
ATOM     10  N   UNL A   1      34.594  23.067  25.500  1.00  0.00    -0.224 NA
ATOM     11  C   UNL A   1      36.401  21.462  25.302  1.00  0.00     0.066 A 
ATOM     12  O   UNL A   1      35.784  19.310  24.709  1.00  0.00    -0.269 OA
ATOM     13  C   UNL A   1      35.941  22.732  25.607  1.00  0.00     0.079 A 
ATOM     14  C   UNL A   1      37.769  21.162  25.354  1.00  0.00     0.016 A 
ATOM     15  C   UNL A   1      36.853  23.697  26.045  1.00  0.00     0.029 A 
ATOM     16  C   UNL A   1      38.677  22.136  25.772  1.00  0.00     0.001 A 
ATOM     17  C   UNL A   1      38.215  23.400  26.138  1.00  0.00     0.002 A 
BRANCH   8  18
ATOM     18  C   UNL A   1      33.089  19.696  24.990  1.00  0.00     0.128 C 
BRANCH  18  19
ATOM     19  C   UNL A   1      32.538  19.406  23.581  1.00  0.00     0.022 C 
BRANCH  19  20
ATOM     20  C   UNL A   1      32.552  17.992  22.979  1.00  0.00     0.002 C 
BRANCH  20  21
ATOM     21  C   UNL A   1      33.790  17.089  23.109  1.00  0.00    -0.003 C 
ATOM     22  C   UNL A   1      33.872  16.190  24.329  1.00  0.00     0.004 C 
ENDBRANCH  20  21
ENDBRANCH  19  20
ENDBRANCH  18  19
ENDBRANCH   8  18
ENDBRANCH   6   7
ENDBRANCH   5   6
ENDBRANCH   1   5
BRANCH   3  23
ATOM     23  C   UNL A   1      31.220  27.156  25.430  1.00  0.00     0.116 C 
BRANCH  23  24
ATOM     24  C   UNL A   1      31.535  28.402  26.255  1.00  0.00     0.023 C 
BRANCH  24  25
ATOM     25  C   UNL A   1      32.524  28.161  27.393  1.00  0.00     0.023 C 
BRANCH  25  26
ATOM     26  C   UNL A   1      33.826  28.930  27.262  1.00  0.00     0.116 C 
BRANCH  26  27
ATOM     27  N   UNL A   1      33.814  30.217  27.941  1.00  0.00    -0.352 N 
ATOM     28  C   UNL A   1      34.862  30.819  28.602  1.00  0.00     0.251 C 
ATOM     29  H   UNL A   1      32.962  30.713  27.927  1.00  0.00     0.163 HD
ATOM     30  O   UNL A   1      34.730  31.878  29.188  1.00  0.00    -0.269 OA
BRANCH  28  31
ATOM     31  C   UNL A   1      36.144  30.090  28.620  1.00  0.00     0.039 A 
ATOM     32  C   UNL A   1      36.590  29.519  29.812  1.00  0.00     0.014 A 
ATOM     33  C   UNL A   1      36.961  30.145  27.491  1.00  0.00     0.014 A 
ATOM     34  C   UNL A   1      37.924  29.151  29.923  1.00  0.00     0.010 A 
ATOM     35  C   UNL A   1      38.276  29.693  27.583  1.00  0.00     0.010 A 
ATOM     36  C   UNL A   1      38.781  29.241  28.813  1.00  0.00    -0.014 A 
BRANCH  36  37
ATOM     37  C   UNL A   1      40.209  28.869  28.967  1.00  0.00     0.031 A 
ATOM     38  C   UNL A   1      41.187  29.815  29.610  1.00  0.00     0.074 A 
ATOM     39  C   UNL A   1      40.607  27.649  28.564  1.00  0.00     0.049 A 
ATOM     40  N   UNL A   1      42.475  29.665  29.798  1.00  0.00    -0.248 NA
ATOM     41  C   UNL A   1      40.656  31.096  30.100  1.00  0.00     0.031 C 
ATOM     42  C   UNL A   1      39.742  26.642  27.944  1.00  0.00     0.029 A 
ATOM     43  N   UNL A   1      41.831  27.039  28.635  1.00  0.00    -0.354 N 
ATOM     44  C   UNL A   1      42.911  30.839  30.402  1.00  0.00     0.074 A 
ATOM     45  C   UNL A   1      41.755  31.700  30.532  1.00  0.00     0.031 C 
ATOM     46  C   UNL A   1      40.449  25.523  27.741  1.00  0.00     0.029 A 
ATOM     47  C   UNL A   1      41.830  25.757  28.146  1.00  0.00     0.049 A 
ATOM     48  H   UNL A   1      42.633  27.478  29.000  1.00  0.00     0.167 HD
ATOM     49  C   UNL A   1      44.160  31.164  30.814  1.00  0.00     0.037 A 
ATOM     50  C   UNL A   1      42.835  24.874  28.017  1.00  0.00     0.037 A 
ATOM     51  C   UNL A   1      45.301  30.291  30.706  1.00  0.00     0.049 A 
ATOM     52  C   UNL A   1      44.215  25.276  28.446  1.00  0.00     0.074 A 
ATOM     53  C   UNL A   1      46.606  30.517  31.110  1.00  0.00     0.029 A 
ATOM     54  N   UNL A   1      45.271  29.017  30.157  1.00  0.00    -0.354 N 
ATOM     55  N   UNL A   1      44.614  26.393  29.001  1.00  0.00    -0.248 NA
ATOM     56  C   UNL A   1      45.285  24.299  28.212  1.00  0.00     0.031 C 
ATOM     57  C   UNL A   1      47.371  29.395  30.774  1.00  0.00     0.029 A 
ATOM     58  C   UNL A   1      46.536  28.454  30.194  1.00  0.00     0.049 A 
ATOM     59  H   UNL A   1      44.468  28.578  29.792  1.00  0.00     0.167 HD
ATOM     60  C   UNL A   1      45.981  26.253  29.192  1.00  0.00     0.074 A 
ATOM     61  C   UNL A   1      46.336  24.930  28.716  1.00  0.00     0.031 C 
ATOM     62  C   UNL A   1      46.867  27.139  29.708  1.00  0.00     0.037 A 
BRANCH  49  63
ATOM     63  C   UNL A   1      44.365  32.528  31.404  1.00  0.00     0.057 A 
ATOM     64  C   UNL A   1      44.160  32.751  32.772  1.00  0.00     0.134 A 
ATOM     65  C   UNL A   1      44.727  33.629  30.618  1.00  0.00     0.134 A 
ATOM     66  F   UNL A   1      43.805  31.742  33.580  1.00  0.00    -0.206 F 
ATOM     67  C   UNL A   1      44.306  34.019  33.336  1.00  0.00     0.040 A 
ATOM     68  C   UNL A   1      44.899  34.899  31.174  1.00  0.00     0.040 A 
ATOM     69  F   UNL A   1      44.952  33.481  29.304  1.00  0.00    -0.206 F 
ATOM     70  C   UNL A   1      44.682  35.098  32.537  1.00  0.00     0.006 A 
ENDBRANCH  49  63
BRANCH  50  71
ATOM     71  C   UNL A   1      42.575  23.535  27.437  1.00  0.00     0.057 A 
ATOM     72  C   UNL A   1      42.236  22.444  28.246  1.00  0.00     0.134 A 
ATOM     73  C   UNL A   1      42.660  23.317  26.058  1.00  0.00     0.134 A 
ATOM     74  F   UNL A   1      42.145  22.589  29.576  1.00  0.00    -0.206 F 
ATOM     75  C   UNL A   1      42.003  21.180  27.706  1.00  0.00     0.040 A 
ATOM     76  C   UNL A   1      42.404  22.063  25.502  1.00  0.00     0.040 A 
ATOM     77  F   UNL A   1      42.964  24.328  25.232  1.00  0.00    -0.206 F 
ATOM     78  C   UNL A   1      42.080  20.989  26.328  1.00  0.00     0.006 A 
ENDBRANCH  50  71
BRANCH  62  79
ATOM     79  C   UNL A   1      48.293  26.690  29.791  1.00  0.00     0.057 A 
ATOM     80  C   UNL A   1      48.759  25.991  30.910  1.00  0.00     0.134 A 
ATOM     81  C   UNL A   1      49.206  26.949  28.758  1.00  0.00     0.134 A 
ATOM     82  F   UNL A   1      47.936  25.715  31.933  1.00  0.00    -0.206 F 
ATOM     83  C   UNL A   1      50.083  25.559  30.999  1.00  0.00     0.040 A 
ATOM     84  C   UNL A   1      50.525  26.502  28.827  1.00  0.00     0.040 A 
ATOM     85  F   UNL A   1      48.813  27.598  27.652  1.00  0.00    -0.206 F 
ATOM     86  C   UNL A   1      50.968  25.808  29.951  1.00  0.00     0.006 A 
ENDBRANCH  62  79
ENDBRANCH  36  37
ENDBRANCH  28  31
ENDBRANCH  26  27
ENDBRANCH  25  26
ENDBRANCH  24  25
ENDBRANCH  23  24
ENDBRANCH   3  23
TORSDOF 17
ENDMDL
MODEL 2
REMARK VINA RESULT:     -10.8      3.832      7.573
REMARK SMILES CCCCCn1c(SCC(=O)NCCCCNC(=O)c2ccc(-c3c4nc(c(-c5c(F)cccc5F)c5ccc([nH]5)c(-c5c(F)cccc5F)c5nc(c(-c6c(F)cccc6F)c6ccc3[nH]6)C=C5)C=C4)cc2)nc2ccccc2c1=O
REMARK SMILES IDX 10 1 11 2 12 3 9 5 8 6 7 7 6 8 81 9 74 10 80 11 82 12 75 13
REMARK SMILES IDX 79 14 76 15 78 16 77 17 5 18 4 19 3 20 2 21 1 22 13 23 14 24
REMARK SMILES IDX 15 25 16 26 17 27 18 28 19 30 20 31 21 32 73 33 22 34 72 35
REMARK SMILES IDX 23 36 24 37 25 38 66 39 26 40 71 41 65 42 67 43 27 44 70 45
REMARK SMILES IDX 64 46 63 47 28 49 54 50 37 51 53 52 38 53 41 54 52 55 68 56
REMARK SMILES IDX 39 57 40 58 51 60 69 61 42 62 29 63 30 64 35 65 31 66 32 67
REMARK SMILES IDX 34 68 36 69 33 70 55 71 56 72 61 73 57 74 58 75 60 76 62 77
REMARK SMILES IDX 59 78 43 79 44 80 49 81 45 82 46 83 48 84 50 85 47 86
REMARK H PARENT 12 4 17 29 67 48 41 59
REMARK Flexibility Score: inf
ROOT
ATOM      1  C   UNL A   1      33.670  28.349  23.026  1.00  0.00     0.230 C 
ATOM      2  O   UNL A   1      34.265  28.451  21.954  1.00  0.00    -0.274 OA
ATOM      3  N   UNL A   1      33.276  29.479  23.679  1.00  0.00    -0.355 N 
ATOM      4  H   UNL A   1      33.319  30.318  23.164  1.00  0.00     0.163 HD
ENDROOT
BRANCH   1   5
ATOM      5  C   UNL A   1      33.287  27.014  23.608  1.00  0.00     0.178 C 
BRANCH   5   6
ATOM      6  S   UNL A   1      33.237  25.672  22.437  1.00  0.00    -0.078 SA
BRANCH   6   7
ATOM      7  C   UNL A   1      33.550  24.115  23.154  1.00  0.00     0.171 A 
ATOM      8  N   UNL A   1      32.615  23.277  23.744  1.00  0.00    -0.287 N 
ATOM      9  C   UNL A   1      33.025  22.017  24.217  1.00  0.00     0.262 A 
ATOM     10  N   UNL A   1      34.824  23.877  23.169  1.00  0.00    -0.224 NA
ATOM     11  C   UNL A   1      34.471  21.746  24.270  1.00  0.00     0.066 A 
ATOM     12  O   UNL A   1      32.262  21.137  24.610  1.00  0.00    -0.269 OA
ATOM     13  C   UNL A   1      35.315  22.737  23.797  1.00  0.00     0.079 A 
ATOM     14  C   UNL A   1      34.986  20.575  24.843  1.00  0.00     0.016 A 
ATOM     15  C   UNL A   1      36.695  22.590  23.969  1.00  0.00     0.029 A 
ATOM     16  C   UNL A   1      36.365  20.426  24.991  1.00  0.00     0.001 A 
ATOM     17  C   UNL A   1      37.220  21.445  24.573  1.00  0.00     0.002 A 
BRANCH   8  18
ATOM     18  C   UNL A   1      31.185  23.550  23.899  1.00  0.00     0.128 C 
BRANCH  18  19
ATOM     19  C   UNL A   1      30.769  24.366  25.138  1.00  0.00     0.022 C 
BRANCH  19  20
ATOM     20  C   UNL A   1      30.295  25.824  25.028  1.00  0.00     0.002 C 
BRANCH  20  21
ATOM     21  C   UNL A   1      29.186  26.223  24.039  1.00  0.00    -0.003 C 
ATOM     22  C   UNL A   1      29.325  27.561  23.338  1.00  0.00     0.004 C 
ENDBRANCH  20  21
ENDBRANCH  19  20
ENDBRANCH  18  19
ENDBRANCH   8  18
ENDBRANCH   6   7
ENDBRANCH   5   6
ENDBRANCH   1   5
BRANCH   3  23
ATOM     23  C   UNL A   1      32.801  29.586  25.045  1.00  0.00     0.116 C 
BRANCH  23  24
ATOM     24  C   UNL A   1      31.334  30.008  25.079  1.00  0.00     0.023 C 
BRANCH  24  25
ATOM     25  C   UNL A   1      31.071  31.282  25.879  1.00  0.00     0.023 C 
BRANCH  25  26
ATOM     26  C   UNL A   1      32.223  31.707  26.773  1.00  0.00     0.116 C 
BRANCH  26  27
ATOM     27  N   UNL A   1      32.129  33.087  27.226  1.00  0.00    -0.352 N 
ATOM     28  C   UNL A   1      33.071  33.792  27.942  1.00  0.00     0.251 C 
ATOM     29  H   UNL A   1      31.302  33.569  26.996  1.00  0.00     0.163 HD
ATOM     30  O   UNL A   1      32.870  34.932  28.322  1.00  0.00    -0.269 OA
BRANCH  28  31
ATOM     31  C   UNL A   1      34.318  33.082  28.282  1.00  0.00     0.039 A 
ATOM     32  C   UNL A   1      34.265  31.730  28.623  1.00  0.00     0.014 A 
ATOM     33  C   UNL A   1      35.491  33.822  28.430  1.00  0.00     0.014 A 
ATOM     34  C   UNL A   1      35.349  31.157  29.272  1.00  0.00     0.010 A 
ATOM     35  C   UNL A   1      36.607  33.216  29.005  1.00  0.00     0.010 A 
ATOM     36  C   UNL A   1      36.528  31.896  29.476  1.00  0.00    -0.014 A 
BRANCH  36  37
ATOM     37  C   UNL A   1      37.660  31.271  30.201  1.00  0.00     0.031 A 
ATOM     38  C   UNL A   1      38.598  30.326  29.499  1.00  0.00     0.074 A 
ATOM     39  C   UNL A   1      37.865  31.599  31.490  1.00  0.00     0.049 A 
ATOM     40  N   UNL A   1      39.621  29.667  29.985  1.00  0.00    -0.248 NA
ATOM     41  C   UNL A   1      38.356  30.083  28.068  1.00  0.00     0.031 C 
ATOM     42  C   UNL A   1      37.031  32.518  32.267  1.00  0.00     0.029 A 
ATOM     43  N   UNL A   1      38.847  31.218  32.365  1.00  0.00    -0.354 N 
ATOM     44  C   UNL A   1      40.126  28.914  28.932  1.00  0.00     0.074 A 
ATOM     45  C   UNL A   1      39.287  29.182  27.782  1.00  0.00     0.031 C 
ATOM     46  C   UNL A   1      37.566  32.671  33.486  1.00  0.00     0.029 A 
ATOM     47  C   UNL A   1      38.735  31.806  33.599  1.00  0.00     0.049 A 
ATOM     48  H   UNL A   1      39.562  30.583  32.131  1.00  0.00     0.167 HD
ATOM     49  C   UNL A   1      41.195  28.082  28.924  1.00  0.00     0.037 A 
ATOM     50  C   UNL A   1      39.478  31.651  34.708  1.00  0.00     0.037 A 
ATOM     51  C   UNL A   1      42.042  27.841  30.064  1.00  0.00     0.049 A 
ATOM     52  C   UNL A   1      40.632  30.693  34.680  1.00  0.00     0.074 A 
ATOM     53  C   UNL A   1      43.161  27.031  30.155  1.00  0.00     0.029 A 
ATOM     54  N   UNL A   1      41.865  28.417  31.313  1.00  0.00    -0.354 N 
ATOM     55  N   UNL A   1      41.088  29.978  33.682  1.00  0.00    -0.248 NA
ATOM     56  C   UNL A   1      41.361  30.507  35.942  1.00  0.00     0.031 C 
ATOM     57  C   UNL A   1      43.640  27.089  31.469  1.00  0.00     0.029 A 
ATOM     58  C   UNL A   1      42.842  27.966  32.186  1.00  0.00     0.049 A 
ATOM     59  H   UNL A   1      41.149  29.052  31.547  1.00  0.00     0.167 HD
ATOM     60  C   UNL A   1      42.164  29.263  34.189  1.00  0.00     0.074 A 
ATOM     61  C   UNL A   1      42.306  29.652  35.579  1.00  0.00     0.031 C 
ATOM     62  C   UNL A   1      42.959  28.361  33.566  1.00  0.00     0.037 A 
BRANCH  49  63
ATOM     63  C   UNL A   1      41.499  27.354  27.647  1.00  0.00     0.057 A 
ATOM     64  C   UNL A   1      42.307  27.945  26.666  1.00  0.00     0.134 A 
ATOM     65  C   UNL A   1      40.968  26.089  27.370  1.00  0.00     0.134 A 
ATOM     66  F   UNL A   1      42.843  29.157  26.864  1.00  0.00    -0.206 F 
ATOM     67  C   UNL A   1      42.573  27.303  25.455  1.00  0.00     0.040 A 
ATOM     68  C   UNL A   1      41.245  25.427  26.172  1.00  0.00     0.040 A 
ATOM     69  F   UNL A   1      40.199  25.463  28.273  1.00  0.00    -0.206 F 
ATOM     70  C   UNL A   1      42.044  26.037  25.207  1.00  0.00     0.006 A 
ENDBRANCH  49  63
BRANCH  50  71
ATOM     71  C   UNL A   1      39.139  32.403  35.939  1.00  0.00     0.057 A 
ATOM     72  C   UNL A   1      39.675  33.672  36.189  1.00  0.00     0.134 A 
ATOM     73  C   UNL A   1      38.269  31.868  36.895  1.00  0.00     0.134 A 
ATOM     74  F   UNL A   1      40.520  34.234  35.313  1.00  0.00    -0.206 F 
ATOM     75  C   UNL A   1      39.369  34.377  37.352  1.00  0.00     0.040 A 
ATOM     76  C   UNL A   1      37.933  32.574  38.050  1.00  0.00     0.040 A 
ATOM     77  F   UNL A   1      37.711  30.664  36.701  1.00  0.00    -0.206 F 
ATOM     78  C   UNL A   1      38.488  33.831  38.284  1.00  0.00     0.006 A 
ENDBRANCH  50  71
BRANCH  62  79
ATOM     79  C   UNL A   1      44.055  27.753  34.387  1.00  0.00     0.057 A 
ATOM     80  C   UNL A   1      43.850  26.552  35.075  1.00  0.00     0.134 A 
ATOM     81  C   UNL A   1      45.315  28.357  34.492  1.00  0.00     0.134 A 
ATOM     82  F   UNL A   1      42.665  25.926  35.017  1.00  0.00    -0.206 F 
ATOM     83  C   UNL A   1      44.862  25.969  35.838  1.00  0.00     0.040 A 
ATOM     84  C   UNL A   1      46.342  27.771  35.233  1.00  0.00     0.040 A 
ATOM     85  F   UNL A   1      45.578  29.499  33.840  1.00  0.00    -0.206 F 
ATOM     86  C   UNL A   1      46.115  26.575  35.912  1.00  0.00     0.006 A 
ENDBRANCH  62  79
ENDBRANCH  36  37
ENDBRANCH  28  31
ENDBRANCH  26  27
ENDBRANCH  25  26
ENDBRANCH  24  25
ENDBRANCH  23  24
ENDBRANCH   3  23
TORSDOF 17
ENDMDL
MODEL 3
REMARK VINA RESULT:     -10.8      2.320      8.064
REMARK SMILES CCCCCn1c(SCC(=O)NCCCCNC(=O)c2ccc(-c3c4nc(c(-c5c(F)cccc5F)c5ccc([nH]5)c(-c5c(F)cccc5F)c5nc(c(-c6c(F)cccc6F)c6ccc3[nH]6)C=C5)C=C4)cc2)nc2ccccc2c1=O
REMARK SMILES IDX 10 1 11 2 12 3 9 5 8 6 7 7 6 8 81 9 74 10 80 11 82 12 75 13
REMARK SMILES IDX 79 14 76 15 78 16 77 17 5 18 4 19 3 20 2 21 1 22 13 23 14 24
REMARK SMILES IDX 15 25 16 26 17 27 18 28 19 30 20 31 21 32 73 33 22 34 72 35
REMARK SMILES IDX 23 36 24 37 25 38 66 39 26 40 71 41 65 42 67 43 27 44 70 45
REMARK SMILES IDX 64 46 63 47 28 49 54 50 37 51 53 52 38 53 41 54 52 55 68 56
REMARK SMILES IDX 39 57 40 58 51 60 69 61 42 62 29 63 30 64 35 65 31 66 32 67
REMARK SMILES IDX 34 68 36 69 33 70 55 71 56 72 61 73 57 74 58 75 60 76 62 77
REMARK SMILES IDX 59 78 43 79 44 80 49 81 45 82 46 83 48 84 50 85 47 86
REMARK H PARENT 12 4 17 29 67 48 41 59
REMARK Flexibility Score: inf
ROOT
ATOM      1  C   UNL A   1      33.577  23.779  22.860  1.00  0.00     0.230 C 
ATOM      2  O   UNL A   1      33.561  24.470  21.842  1.00  0.00    -0.274 OA
ATOM      3  N   UNL A   1      34.773  23.465  23.433  1.00  0.00    -0.355 N 
ATOM      4  H   UNL A   1      35.557  23.968  23.112  1.00  0.00     0.163 HD
ENDROOT
BRANCH   1   5
ATOM      5  C   UNL A   1      32.314  23.332  23.546  1.00  0.00     0.178 C 
BRANCH   5   6
ATOM      6  S   UNL A   1      31.698  24.453  24.788  1.00  0.00    -0.078 SA
BRANCH   6   7
ATOM      7  C   UNL A   1      31.277  26.022  24.158  1.00  0.00     0.171 A 
ATOM      8  N   UNL A   1      32.134  27.101  23.997  1.00  0.00    -0.287 N 
ATOM      9  C   UNL A   1      31.646  28.282  23.408  1.00  0.00     0.262 A 
ATOM     10  N   UNL A   1      29.998  26.096  23.959  1.00  0.00    -0.224 NA
ATOM     11  C   UNL A   1      30.192  28.393  23.206  1.00  0.00     0.066 A 
ATOM     12  O   UNL A   1      32.345  29.236  23.073  1.00  0.00    -0.269 OA
ATOM     13  C   UNL A   1      29.422  27.299  23.562  1.00  0.00     0.079 A 
ATOM     14  C   UNL A   1      29.595  29.575  22.748  1.00  0.00     0.016 A 
ATOM     15  C   UNL A   1      28.028  27.412  23.533  1.00  0.00     0.029 A 
ATOM     16  C   UNL A   1      28.203  29.674  22.701  1.00  0.00     0.001 A 
ATOM     17  C   UNL A   1      27.419  28.598  23.115  1.00  0.00     0.002 A 
BRANCH   8  18
ATOM     18  C   UNL A   1      33.555  27.137  24.345  1.00  0.00     0.128 C 
BRANCH  18  19
ATOM     19  C   UNL A   1      33.928  27.866  25.649  1.00  0.00     0.022 C 
BRANCH  19  20
ATOM     20  C   UNL A   1      33.037  27.802  26.900  1.00  0.00     0.002 C 
BRANCH  20  21
ATOM     21  C   UNL A   1      31.912  28.827  27.124  1.00  0.00    -0.003 C 
ATOM     22  C   UNL A   1      32.221  30.280  26.815  1.00  0.00     0.004 C 
ENDBRANCH  20  21
ENDBRANCH  19  20
ENDBRANCH  18  19
ENDBRANCH   8  18
ENDBRANCH   6   7
ENDBRANCH   5   6
ENDBRANCH   1   5
BRANCH   3  23
ATOM     23  C   UNL A   1      35.022  22.475  24.463  1.00  0.00     0.116 C 
BRANCH  23  24
ATOM     24  C   UNL A   1      36.441  22.607  25.012  1.00  0.00     0.023 C 
BRANCH  24  25
ATOM     25  C   UNL A   1      37.301  21.360  24.819  1.00  0.00     0.023 C 
BRANCH  25  26
ATOM     26  C   UNL A   1      38.557  21.329  25.671  1.00  0.00     0.116 C 
BRANCH  26  27
ATOM     27  N   UNL A   1      39.312  20.090  25.550  1.00  0.00    -0.352 N 
ATOM     28  C   UNL A   1      40.615  19.869  25.940  1.00  0.00     0.251 C 
ATOM     29  H   UNL A   1      38.840  19.326  25.146  1.00  0.00     0.163 HD
ATOM     30  O   UNL A   1      41.174  18.806  25.742  1.00  0.00    -0.269 OA
BRANCH  28  31
ATOM     31  C   UNL A   1      41.327  21.004  26.556  1.00  0.00     0.039 A 
ATOM     32  C   UNL A   1      41.150  21.267  27.915  1.00  0.00     0.014 A 
ATOM     33  C   UNL A   1      42.016  21.892  25.729  1.00  0.00     0.014 A 
ATOM     34  C   UNL A   1      41.522  22.507  28.414  1.00  0.00     0.010 A 
ATOM     35  C   UNL A   1      42.465  23.101  26.257  1.00  0.00     0.010 A 
ATOM     36  C   UNL A   1      42.176  23.439  27.589  1.00  0.00    -0.014 A 
BRANCH  36  37
ATOM     37  C   UNL A   1      42.535  24.768  28.139  1.00  0.00     0.031 A 
ATOM     38  C   UNL A   1      41.483  25.822  28.359  1.00  0.00     0.074 A 
ATOM     39  C   UNL A   1      43.815  25.002  28.483  1.00  0.00     0.049 A 
ATOM     40  N   UNL A   1      41.625  27.047  28.803  1.00  0.00    -0.248 NA
ATOM     41  C   UNL A   1      40.094  25.460  28.037  1.00  0.00     0.031 C 
ATOM     42  C   UNL A   1      44.916  24.048  28.331  1.00  0.00     0.029 A 
ATOM     43  N   UNL A   1      44.402  26.102  29.051  1.00  0.00    -0.354 N 
ATOM     44  C   UNL A   1      40.353  27.607  28.787  1.00  0.00     0.074 A 
ATOM     45  C   UNL A   1      39.453  26.597  28.272  1.00  0.00     0.031 C 
ATOM     46  C   UNL A   1      46.033  24.584  28.842  1.00  0.00     0.029 A 
ATOM     47  C   UNL A   1      45.743  25.941  29.289  1.00  0.00     0.049 A 
ATOM     48  H   UNL A   1      43.909  26.926  29.266  1.00  0.00     0.167 HD
ATOM     49  C   UNL A   1      39.972  28.849  29.172  1.00  0.00     0.037 A 
ATOM     50  C   UNL A   1      46.647  26.800  29.792  1.00  0.00     0.037 A 
ATOM     51  C   UNL A   1      40.868  29.841  29.709  1.00  0.00     0.049 A 
ATOM     52  C   UNL A   1      46.202  28.180  30.173  1.00  0.00     0.074 A 
ATOM     53  C   UNL A   1      40.579  31.122  30.147  1.00  0.00     0.029 A 
ATOM     54  N   UNL A   1      42.231  29.658  29.887  1.00  0.00    -0.354 N 
ATOM     55  N   UNL A   1      45.001  28.700  30.139  1.00  0.00    -0.248 NA
ATOM     56  C   UNL A   1      47.247  29.098  30.645  1.00  0.00     0.031 C 
ATOM     57  C   UNL A   1      41.773  31.727  30.558  1.00  0.00     0.029 A 
ATOM     58  C   UNL A   1      42.800  30.809  30.410  1.00  0.00     0.049 A 
ATOM     59  H   UNL A   1      42.724  28.833  29.672  1.00  0.00     0.167 HD
ATOM     60  C   UNL A   1      45.139  30.004  30.593  1.00  0.00     0.074 A 
ATOM     61  C   UNL A   1      46.541  30.185  30.920  1.00  0.00     0.031 C 
ATOM     62  C   UNL A   1      44.197  30.968  30.721  1.00  0.00     0.037 A 
BRANCH  49  63
ATOM     63  C   UNL A   1      38.525  29.214  29.010  1.00  0.00     0.057 A 
ATOM     64  C   UNL A   1      38.032  29.637  27.769  1.00  0.00     0.134 A 
ATOM     65  C   UNL A   1      37.627  29.182  30.084  1.00  0.00     0.134 A 
ATOM     66  F   UNL A   1      38.839  29.697  26.700  1.00  0.00    -0.206 F 
ATOM     67  C   UNL A   1      36.699  30.018  27.603  1.00  0.00     0.040 A 
ATOM     68  C   UNL A   1      36.286  29.539  29.926  1.00  0.00     0.040 A 
ATOM     69  F   UNL A   1      38.032  28.773  31.296  1.00  0.00    -0.206 F 
ATOM     70  C   UNL A   1      35.820  29.965  28.684  1.00  0.00     0.006 A 
ENDBRANCH  49  63
BRANCH  50  71
ATOM     71  C   UNL A   1      48.061  26.384  29.940  1.00  0.00     0.057 A 
ATOM     72  C   UNL A   1      48.533  25.814  31.129  1.00  0.00     0.134 A 
ATOM     73  C   UNL A   1      48.975  26.547  28.894  1.00  0.00     0.134 A 
ATOM     74  F   UNL A   1      47.705  25.638  32.170  1.00  0.00    -0.206 F 
ATOM     75  C   UNL A   1      49.866  25.434  31.278  1.00  0.00     0.040 A 
ATOM     76  C   UNL A   1      50.306  26.146  29.020  1.00  0.00     0.040 A 
ATOM     77  F   UNL A   1      48.577  27.071  27.726  1.00  0.00    -0.206 F 
ATOM     78  C   UNL A   1      50.755  25.593  30.217  1.00  0.00     0.006 A 
ENDBRANCH  50  71
BRANCH  62  79
ATOM     79  C   UNL A   1      44.659  32.292  31.250  1.00  0.00     0.057 A 
ATOM     80  C   UNL A   1      44.688  32.540  32.627  1.00  0.00     0.134 A 
ATOM     81  C   UNL A   1      45.079  33.319  30.394  1.00  0.00     0.134 A 
ATOM     82  F   UNL A   1      44.297  31.599  33.498  1.00  0.00    -0.206 F 
ATOM     83  C   UNL A   1      45.123  33.764  33.136  1.00  0.00     0.040 A 
ATOM     84  C   UNL A   1      45.537  34.538  30.892  1.00  0.00     0.040 A 
ATOM     85  F   UNL A   1      45.091  33.133  29.066  1.00  0.00    -0.206 F 
ATOM     86  C   UNL A   1      45.557  34.765  32.267  1.00  0.00     0.006 A 
ENDBRANCH  62  79
ENDBRANCH  36  37
ENDBRANCH  28  31
ENDBRANCH  26  27
ENDBRANCH  25  26
ENDBRANCH  24  25
ENDBRANCH  23  24
ENDBRANCH   3  23
TORSDOF 17
ENDMDL
