MODEL 1
REMARK VINA RESULT:     -11.7      0.000      0.000
REMARK SMILES O=C(Cc1ccn(-c2ccccc2F)c1)NCCCCNC(=O)c1ccc(-c2c3nc(c(-c4c(F)cccc4F)c4ccc([nH]4)c(-c4c(F)cccc4F)c4nc(c(-c5c(F)cccc5F)c5ccc2[nH]5)C=C4)C=C3)cc1
REMARK SMILES IDX 18 1 17 2 16 3 1 4 2 5 3 7 4 8 5 9 15 10 6 11 7 12 8 13 9 14
REMARK SMILES IDX 13 15 10 16 12 17 14 18 11 19 19 20 20 21 21 22 22 23 23 25
REMARK SMILES IDX 24 26 25 27 77 28 26 29 76 30 27 31 28 32 29 33 70 34 30 35
REMARK SMILES IDX 75 36 69 37 71 38 31 39 74 40 68 41 67 42 32 44 58 45 41 46
REMARK SMILES IDX 57 47 42 48 45 49 56 50 72 51 43 52 44 53 55 55 73 56 46 57
REMARK SMILES IDX 33 58 34 59 39 60 35 61 36 62 38 63 40 64 37 65 59 66 60 67
REMARK SMILES IDX 65 68 61 69 62 70 64 71 66 72 63 73 47 74 48 75 53 76 49 77
REMARK SMILES IDX 50 78 52 79 54 80 51 81
REMARK H PARENT 16 6 21 24 71 43 45 54
REMARK Flexibility Score: inf
ROOT
ATOM      1  C   UNL A   1      32.771  29.207  25.254  1.00  0.00     0.023 C 
ENDROOT
BRANCH   1   2
ATOM      2  C   UNL A   1      31.385  28.656  24.914  1.00  0.00     0.116 C 
BRANCH   2   3
ATOM      3  N   UNL A   1      31.393  27.216  24.753  1.00  0.00    -0.356 N 
ATOM      4  O   UNL A   1      30.654  26.707  26.870  1.00  0.00    -0.275 OA
ATOM      5  C   UNL A   1      30.958  26.347  25.737  1.00  0.00     0.224 C 
ATOM      6  H   UNL A   1      31.721  26.840  23.904  1.00  0.00     0.163 HD
BRANCH   5   7
ATOM      7  C   UNL A   1      30.880  24.889  25.285  1.00  0.00     0.137 C 
BRANCH   7   8
ATOM      8  C   UNL A   1      32.006  24.072  25.844  1.00  0.00    -0.021 A 
ATOM      9  C   UNL A   1      31.980  23.230  26.990  1.00  0.00     0.024 A 
ATOM     10  C   UNL A   1      33.290  23.981  25.342  1.00  0.00     0.095 A 
ATOM     11  C   UNL A   1      33.189  22.569  27.058  1.00  0.00     0.091 A 
ATOM     12  N   UNL A   1      33.993  23.025  26.040  1.00  0.00    -0.321 N 
BRANCH  12  13
ATOM     13  C   UNL A   1      35.257  22.541  25.651  1.00  0.00     0.081 A 
ATOM     14  C   UNL A   1      36.388  23.348  25.802  1.00  0.00     0.030 A 
ATOM     15  C   UNL A   1      35.391  21.210  25.245  1.00  0.00     0.147 A 
ATOM     16  C   UNL A   1      37.652  22.786  25.607  1.00  0.00     0.002 A 
ATOM     17  C   UNL A   1      36.645  20.671  25.002  1.00  0.00     0.041 A 
ATOM     18  F   UNL A   1      34.317  20.430  25.054  1.00  0.00    -0.205 F 
ATOM     19  C   UNL A   1      37.777  21.450  25.211  1.00  0.00     0.003 A 
ENDBRANCH  12  13
ENDBRANCH   7   8
ENDBRANCH   5   7
ENDBRANCH   2   3
ENDBRANCH   1   2
BRANCH   1  20
ATOM     20  C   UNL A   1      33.168  29.124  26.738  1.00  0.00     0.023 C 
BRANCH  20  21
ATOM     21  C   UNL A   1      34.677  29.040  27.002  1.00  0.00     0.116 C 
BRANCH  21  22
ATOM     22  N   UNL A   1      35.229  30.344  27.322  1.00  0.00    -0.352 N 
ATOM     23  C   UNL A   1      36.367  30.707  27.999  1.00  0.00     0.251 C 
ATOM     24  H   UNL A   1      34.691  31.102  26.998  1.00  0.00     0.163 HD
ATOM     25  O   UNL A   1      36.417  31.843  28.461  1.00  0.00    -0.269 OA
BRANCH  23  26
ATOM     26  C   UNL A   1      37.527  29.799  28.203  1.00  0.00     0.039 A 
ATOM     27  C   UNL A   1      38.455  29.704  27.151  1.00  0.00     0.014 A 
ATOM     28  C   UNL A   1      37.679  28.971  29.320  1.00  0.00     0.014 A 
ATOM     29  C   UNL A   1      39.545  28.835  27.237  1.00  0.00     0.010 A 
ATOM     30  C   UNL A   1      38.779  28.107  29.418  1.00  0.00     0.010 A 
ATOM     31  C   UNL A   1      39.732  28.061  28.390  1.00  0.00    -0.014 A 
BRANCH  31  32
ATOM     32  C   UNL A   1      41.085  27.480  28.628  1.00  0.00     0.031 A 
ATOM     33  C   UNL A   1      41.099  25.961  28.311  1.00  0.00     0.074 A 
ATOM     34  C   UNL A   1      42.084  28.294  29.095  1.00  0.00     0.049 A 
ATOM     35  N   UNL A   1      41.999  25.059  28.560  1.00  0.00    -0.248 NA
ATOM     36  C   UNL A   1      39.931  25.351  27.607  1.00  0.00     0.031 C 
ATOM     37  C   UNL A   1      41.970  29.757  29.256  1.00  0.00     0.029 A 
ATOM     38  N   UNL A   1      43.390  28.080  29.517  1.00  0.00    -0.354 N 
ATOM     39  C   UNL A   1      41.603  23.863  27.917  1.00  0.00     0.074 A 
ATOM     40  C   UNL A   1      40.293  24.086  27.399  1.00  0.00     0.031 C 
ATOM     41  C   UNL A   1      43.093  30.276  29.805  1.00  0.00     0.029 A 
ATOM     42  C   UNL A   1      44.061  29.220  30.046  1.00  0.00     0.049 A 
ATOM     43  H   UNL A   1      43.824  27.198  29.455  1.00  0.00     0.167 HD
ATOM     44  C   UNL A   1      42.427  22.785  27.773  1.00  0.00     0.037 A 
ATOM     45  C   UNL A   1      45.288  29.308  30.659  1.00  0.00     0.037 A 
ATOM     46  C   UNL A   1      43.589  22.963  28.564  1.00  0.00     0.049 A 
ATOM     47  C   UNL A   1      45.924  28.006  30.444  1.00  0.00     0.074 A 
ATOM     48  C   UNL A   1      43.783  22.889  29.917  1.00  0.00     0.029 A 
ATOM     49  N   UNL A   1      44.656  23.591  27.979  1.00  0.00    -0.354 N 
ATOM     50  N   UNL A   1      46.481  27.637  29.329  1.00  0.00    -0.248 NA
ATOM     51  C   UNL A   1      45.916  27.023  31.535  1.00  0.00     0.031 C 
ATOM     52  C   UNL A   1      44.759  23.869  30.163  1.00  0.00     0.029 A 
ATOM     53  C   UNL A   1      45.268  24.342  28.949  1.00  0.00     0.049 A 
ATOM     54  H   UNL A   1      44.932  23.518  27.037  1.00  0.00     0.167 HD
ATOM     55  C   UNL A   1      46.552  26.276  29.491  1.00  0.00     0.074 A 
ATOM     56  C   UNL A   1      46.536  26.025  30.913  1.00  0.00     0.031 C 
ATOM     57  C   UNL A   1      46.049  25.471  28.524  1.00  0.00     0.037 A 
BRANCH  44  58
ATOM     58  C   UNL A   1      42.392  21.606  26.842  1.00  0.00     0.057 A 
ATOM     59  C   UNL A   1      43.285  21.442  25.778  1.00  0.00     0.134 A 
ATOM     60  C   UNL A   1      41.699  20.440  27.247  1.00  0.00     0.134 A 
ATOM     61  F   UNL A   1      44.006  22.469  25.310  1.00  0.00    -0.206 F 
ATOM     62  C   UNL A   1      43.543  20.183  25.217  1.00  0.00     0.040 A 
ATOM     63  C   UNL A   1      41.982  19.174  26.727  1.00  0.00     0.040 A 
ATOM     64  F   UNL A   1      40.778  20.481  28.223  1.00  0.00    -0.206 F 
ATOM     65  C   UNL A   1      42.926  19.041  25.722  1.00  0.00     0.006 A 
ENDBRANCH  44  58
BRANCH  45  66
ATOM     66  C   UNL A   1      46.122  30.294  31.465  1.00  0.00     0.057 A 
ATOM     67  C   UNL A   1      45.605  30.856  32.674  1.00  0.00     0.134 A 
ATOM     68  C   UNL A   1      47.377  30.797  31.120  1.00  0.00     0.134 A 
ATOM     69  F   UNL A   1      44.490  30.399  33.257  1.00  0.00    -0.206 F 
ATOM     70  C   UNL A   1      46.188  31.921  33.369  1.00  0.00     0.040 A 
ATOM     71  C   UNL A   1      48.001  31.844  31.839  1.00  0.00     0.040 A 
ATOM     72  F   UNL A   1      48.069  30.294  30.092  1.00  0.00    -0.206 F 
ATOM     73  C   UNL A   1      47.389  32.439  32.939  1.00  0.00     0.006 A 
ENDBRANCH  45  66
BRANCH  57  74
ATOM     74  C   UNL A   1      46.052  26.092  27.150  1.00  0.00     0.057 A 
ATOM     75  C   UNL A   1      44.927  26.670  26.545  1.00  0.00     0.134 A 
ATOM     76  C   UNL A   1      47.268  26.260  26.480  1.00  0.00     0.134 A 
ATOM     77  F   UNL A   1      43.711  26.540  27.082  1.00  0.00    -0.206 F 
ATOM     78  C   UNL A   1      45.017  27.410  25.359  1.00  0.00     0.040 A 
ATOM     79  C   UNL A   1      47.364  26.966  25.275  1.00  0.00     0.040 A 
ATOM     80  F   UNL A   1      48.394  25.743  26.995  1.00  0.00    -0.206 F 
ATOM     81  C   UNL A   1      46.236  27.554  24.713  1.00  0.00     0.006 A 
ENDBRANCH  57  74
ENDBRANCH  31  32
ENDBRANCH  23  26
ENDBRANCH  21  22
ENDBRANCH  20  21
ENDBRANCH   1  20
TORSDOF 13
ENDMDL
MODEL 2
REMARK VINA RESULT:     -11.4      3.900      8.742
REMARK SMILES O=C(Cc1ccn(-c2ccccc2F)c1)NCCCCNC(=O)c1ccc(-c2c3nc(c(-c4c(F)cccc4F)c4ccc([nH]4)c(-c4c(F)cccc4F)c4nc(c(-c5c(F)cccc5F)c5ccc2[nH]5)C=C4)C=C3)cc1
REMARK SMILES IDX 18 1 17 2 16 3 1 4 2 5 3 7 4 8 5 9 15 10 6 11 7 12 8 13 9 14
REMARK SMILES IDX 13 15 10 16 12 17 14 18 11 19 19 20 20 21 21 22 22 23 23 25
REMARK SMILES IDX 24 26 25 27 77 28 26 29 76 30 27 31 28 32 29 33 70 34 30 35
REMARK SMILES IDX 75 36 69 37 71 38 31 39 74 40 68 41 67 42 32 44 58 45 41 46
REMARK SMILES IDX 57 47 42 48 45 49 56 50 72 51 43 52 44 53 55 55 73 56 46 57
REMARK SMILES IDX 33 58 34 59 39 60 35 61 36 62 38 63 40 64 37 65 59 66 60 67
REMARK SMILES IDX 65 68 61 69 62 70 64 71 66 72 63 73 47 74 48 75 53 76 49 77
REMARK SMILES IDX 50 78 52 79 54 80 51 81
REMARK H PARENT 16 6 21 24 71 43 45 54
REMARK Flexibility Score: inf
ROOT
ATOM      1  C   UNL A   1      37.375  21.467  24.857  1.00  0.00     0.023 C 
ENDROOT
BRANCH   1   2
ATOM      2  C   UNL A   1      36.213  20.482  24.993  1.00  0.00     0.116 C 
BRANCH   2   3
ATOM      3  N   UNL A   1      35.163  20.987  25.854  1.00  0.00    -0.356 N 
ATOM      4  O   UNL A   1      33.569  21.229  24.216  1.00  0.00    -0.275 OA
ATOM      5  C   UNL A   1      33.886  21.263  25.400  1.00  0.00     0.224 C 
ATOM      6  H   UNL A   1      35.368  21.140  26.806  1.00  0.00     0.163 HD
BRANCH   5   7
ATOM      7  C   UNL A   1      32.895  21.607  26.512  1.00  0.00     0.137 C 
BRANCH   7   8
ATOM      8  C   UNL A   1      32.272  22.955  26.305  1.00  0.00    -0.021 A 
ATOM      9  C   UNL A   1      30.891  23.254  26.138  1.00  0.00     0.024 A 
ATOM     10  C   UNL A   1      32.928  24.168  26.239  1.00  0.00     0.095 A 
ATOM     11  C   UNL A   1      30.755  24.628  26.114  1.00  0.00     0.091 A 
ATOM     12  N   UNL A   1      32.008  25.191  26.184  1.00  0.00    -0.321 N 
BRANCH  12  13
ATOM     13  C   UNL A   1      32.339  26.553  26.318  1.00  0.00     0.081 A 
ATOM     14  C   UNL A   1      31.446  27.428  26.942  1.00  0.00     0.030 A 
ATOM     15  C   UNL A   1      33.614  26.992  25.949  1.00  0.00     0.147 A 
ATOM     16  C   UNL A   1      31.871  28.723  27.251  1.00  0.00     0.002 A 
ATOM     17  C   UNL A   1      34.012  28.294  26.210  1.00  0.00     0.041 A 
ATOM     18  F   UNL A   1      34.471  26.182  25.312  1.00  0.00    -0.205 F 
ATOM     19  C   UNL A   1      33.152  29.151  26.887  1.00  0.00     0.003 A 
ENDBRANCH  12  13
ENDBRANCH   7   8
ENDBRANCH   5   7
ENDBRANCH   2   3
ENDBRANCH   1   2
BRANCH   1  20
ATOM     20  C   UNL A   1      36.981  22.955  24.865  1.00  0.00     0.023 C 
BRANCH  20  21
ATOM     21  C   UNL A   1      37.353  23.718  26.144  1.00  0.00     0.116 C 
BRANCH  21  22
ATOM     22  N   UNL A   1      38.581  23.204  26.724  1.00  0.00    -0.352 N 
ATOM     23  C   UNL A   1      39.715  23.843  27.161  1.00  0.00     0.251 C 
ATOM     24  H   UNL A   1      38.605  22.225  26.819  1.00  0.00     0.163 HD
ATOM     25  O   UNL A   1      40.742  23.179  27.255  1.00  0.00    -0.269 OA
BRANCH  23  26
ATOM     26  C   UNL A   1      39.759  25.286  27.520  1.00  0.00     0.039 A 
ATOM     27  C   UNL A   1      39.327  25.636  28.811  1.00  0.00     0.014 A 
ATOM     28  C   UNL A   1      40.098  26.300  26.618  1.00  0.00     0.014 A 
ATOM     29  C   UNL A   1      39.284  26.973  29.211  1.00  0.00     0.010 A 
ATOM     30  C   UNL A   1      40.071  27.643  27.020  1.00  0.00     0.010 A 
ATOM     31  C   UNL A   1      39.695  27.981  28.328  1.00  0.00    -0.014 A 
BRANCH  31  32
ATOM     32  C   UNL A   1      40.035  29.315  28.901  1.00  0.00     0.031 A 
ATOM     33  C   UNL A   1      38.752  30.143  29.174  1.00  0.00     0.074 A 
ATOM     34  C   UNL A   1      41.353  29.644  29.081  1.00  0.00     0.049 A 
ATOM     35  N   UNL A   1      38.610  31.396  29.481  1.00  0.00    -0.248 NA
ATOM     36  C   UNL A   1      37.419  29.473  29.092  1.00  0.00     0.031 C 
ATOM     37  C   UNL A   1      42.486  28.718  28.879  1.00  0.00     0.029 A 
ATOM     38  N   UNL A   1      42.018  30.798  29.474  1.00  0.00    -0.354 N 
ATOM     39  C   UNL A   1      37.248  31.616  29.789  1.00  0.00     0.074 A 
ATOM     40  C   UNL A   1      36.552  30.412  29.472  1.00  0.00     0.031 C 
ATOM     41  C   UNL A   1      43.669  29.349  29.064  1.00  0.00     0.029 A 
ATOM     42  C   UNL A   1      43.441  30.738  29.417  1.00  0.00     0.049 A 
ATOM     43  H   UNL A   1      41.539  31.604  29.774  1.00  0.00     0.167 HD
ATOM     44  C   UNL A   1      36.790  32.759  30.378  1.00  0.00     0.037 A 
ATOM     45  C   UNL A   1      44.368  31.736  29.608  1.00  0.00     0.037 A 
ATOM     46  C   UNL A   1      37.815  33.736  30.386  1.00  0.00     0.049 A 
ATOM     47  C   UNL A   1      43.613  32.869  30.149  1.00  0.00     0.074 A 
ATOM     48  C   UNL A   1      38.342  34.503  29.381  1.00  0.00     0.029 A 
ATOM     49  N   UNL A   1      38.649  33.762  31.471  1.00  0.00    -0.354 N 
ATOM     50  N   UNL A   1      43.219  32.966  31.383  1.00  0.00    -0.248 NA
ATOM     51  C   UNL A   1      43.236  33.966  29.248  1.00  0.00     0.031 C 
ATOM     52  C   UNL A   1      39.698  34.615  29.730  1.00  0.00     0.029 A 
ATOM     53  C   UNL A   1      39.896  34.105  31.017  1.00  0.00     0.049 A 
ATOM     54  H   UNL A   1      38.401  33.568  32.403  1.00  0.00     0.167 HD
ATOM     55  C   UNL A   1      42.259  33.941  31.294  1.00  0.00     0.074 A 
ATOM     56  C   UNL A   1      42.563  34.717  30.115  1.00  0.00     0.031 C 
ATOM     57  C   UNL A   1      41.028  33.702  31.807  1.00  0.00     0.037 A 
BRANCH  44  58
ATOM     58  C   UNL A   1      35.525  33.070  31.128  1.00  0.00     0.057 A 
ATOM     59  C   UNL A   1      35.301  32.675  32.451  1.00  0.00     0.134 A 
ATOM     60  C   UNL A   1      34.684  34.101  30.644  1.00  0.00     0.134 A 
ATOM     61  F   UNL A   1      36.039  31.716  33.026  1.00  0.00    -0.206 F 
ATOM     62  C   UNL A   1      34.366  33.327  33.268  1.00  0.00     0.040 A 
ATOM     63  C   UNL A   1      33.783  34.787  31.462  1.00  0.00     0.040 A 
ATOM     64  F   UNL A   1      34.768  34.529  29.374  1.00  0.00    -0.206 F 
ATOM     65  C   UNL A   1      33.639  34.414  32.789  1.00  0.00     0.006 A 
ENDBRANCH  44  58
BRANCH  45  66
ATOM     66  C   UNL A   1      45.854  32.001  29.414  1.00  0.00     0.057 A 
ATOM     67  C   UNL A   1      46.353  32.412  28.139  1.00  0.00     0.134 A 
ATOM     68  C   UNL A   1      46.861  31.821  30.364  1.00  0.00     0.134 A 
ATOM     69  F   UNL A   1      45.544  32.784  27.139  1.00  0.00    -0.206 F 
ATOM     70  C   UNL A   1      47.708  32.472  27.796  1.00  0.00     0.040 A 
ATOM     71  C   UNL A   1      48.235  31.922  30.044  1.00  0.00     0.040 A 
ATOM     72  F   UNL A   1      46.570  31.562  31.643  1.00  0.00    -0.206 F 
ATOM     73  C   UNL A   1      48.664  32.204  28.750  1.00  0.00     0.006 A 
ENDBRANCH  45  66
BRANCH  57  74
ATOM     74  C   UNL A   1      41.021  32.707  32.939  1.00  0.00     0.057 A 
ATOM     75  C   UNL A   1      40.653  31.360  32.801  1.00  0.00     0.134 A 
ATOM     76  C   UNL A   1      41.560  33.076  34.176  1.00  0.00     0.134 A 
ATOM     77  F   UNL A   1      40.097  30.910  31.673  1.00  0.00    -0.206 F 
ATOM     78  C   UNL A   1      40.851  30.425  33.825  1.00  0.00     0.040 A 
ATOM     79  C   UNL A   1      41.728  32.158  35.220  1.00  0.00     0.040 A 
ATOM     80  F   UNL A   1      41.943  34.344  34.389  1.00  0.00    -0.206 F 
ATOM     81  C   UNL A   1      41.382  30.822  35.043  1.00  0.00     0.006 A 
ENDBRANCH  57  74
ENDBRANCH  31  32
ENDBRANCH  23  26
ENDBRANCH  21  22
ENDBRANCH  20  21
ENDBRANCH   1  20
TORSDOF 13
ENDMDL
MODEL 3
REMARK VINA RESULT:     -11.4      2.316      4.409
REMARK SMILES O=C(Cc1ccn(-c2ccccc2F)c1)NCCCCNC(=O)c1ccc(-c2c3nc(c(-c4c(F)cccc4F)c4ccc([nH]4)c(-c4c(F)cccc4F)c4nc(c(-c5c(F)cccc5F)c5ccc2[nH]5)C=C4)C=C3)cc1
REMARK SMILES IDX 18 1 17 2 16 3 1 4 2 5 3 7 4 8 5 9 15 10 6 11 7 12 8 13 9 14
REMARK SMILES IDX 13 15 10 16 12 17 14 18 11 19 19 20 20 21 21 22 22 23 23 25
REMARK SMILES IDX 24 26 25 27 77 28 26 29 76 30 27 31 28 32 29 33 70 34 30 35
REMARK SMILES IDX 75 36 69 37 71 38 31 39 74 40 68 41 67 42 32 44 58 45 41 46
REMARK SMILES IDX 57 47 42 48 45 49 56 50 72 51 43 52 44 53 55 55 73 56 46 57
REMARK SMILES IDX 33 58 34 59 39 60 35 61 36 62 38 63 40 64 37 65 59 66 60 67
REMARK SMILES IDX 65 68 61 69 62 70 64 71 66 72 63 73 47 74 48 75 53 76 49 77
REMARK SMILES IDX 50 78 52 79 54 80 51 81
REMARK H PARENT 16 6 21 24 71 43 45 54
REMARK Flexibility Score: inf
ROOT
ATOM      1  C   UNL A   1      32.336  28.409  26.833  1.00  0.00     0.023 C 
ENDROOT
BRANCH   1   2
ATOM      2  C   UNL A   1      31.889  26.948  26.761  1.00  0.00     0.116 C 
BRANCH   2   3
ATOM      3  N   UNL A   1      31.293  26.620  25.482  1.00  0.00    -0.356 N 
ATOM      4  O   UNL A   1      29.634  25.256  26.304  1.00  0.00    -0.275 OA
ATOM      5  C   UNL A   1      30.157  25.840  25.361  1.00  0.00     0.224 C 
ATOM      6  H   UNL A   1      31.715  26.968  24.663  1.00  0.00     0.163 HD
BRANCH   5   7
ATOM      7  C   UNL A   1      29.599  25.777  23.939  1.00  0.00     0.137 C 
BRANCH   7   8
ATOM      8  C   UNL A   1      28.705  26.943  23.640  1.00  0.00    -0.021 A 
ATOM      9  C   UNL A   1      27.309  27.052  23.893  1.00  0.00     0.024 A 
ATOM     10  C   UNL A   1      29.074  28.141  23.060  1.00  0.00     0.095 A 
ATOM     11  C   UNL A   1      26.922  28.341  23.586  1.00  0.00     0.091 A 
ATOM     12  N   UNL A   1      28.009  29.013  23.079  1.00  0.00    -0.321 N 
BRANCH  12  13
ATOM     13  C   UNL A   1      28.109  30.380  22.756  1.00  0.00     0.081 A 
ATOM     14  C   UNL A   1      28.438  31.308  23.749  1.00  0.00     0.030 A 
ATOM     15  C   UNL A   1      28.013  30.782  21.421  1.00  0.00     0.147 A 
ATOM     16  C   UNL A   1      28.734  32.621  23.377  1.00  0.00     0.002 A 
ATOM     17  C   UNL A   1      28.256  32.099  21.064  1.00  0.00     0.041 A 
ATOM     18  F   UNL A   1      27.658  29.918  20.459  1.00  0.00    -0.205 F 
ATOM     19  C   UNL A   1      28.645  33.013  22.037  1.00  0.00     0.003 A 
ENDBRANCH  12  13
ENDBRANCH   7   8
ENDBRANCH   5   7
ENDBRANCH   2   3
ENDBRANCH   1   2
BRANCH   1  20
ATOM     20  C   UNL A   1      33.651  28.659  27.592  1.00  0.00     0.023 C 
BRANCH  20  21
ATOM     21  C   UNL A   1      34.787  29.250  26.745  1.00  0.00     0.116 C 
BRANCH  21  22
ATOM     22  N   UNL A   1      35.253  30.510  27.296  1.00  0.00    -0.352 N 
ATOM     23  C   UNL A   1      36.292  30.799  28.145  1.00  0.00     0.251 C 
ATOM     24  H   UNL A   1      34.731  31.294  27.011  1.00  0.00     0.163 HD
ATOM     25  O   UNL A   1      36.251  31.864  28.753  1.00  0.00    -0.269 OA
BRANCH  23  26
ATOM     26  C   UNL A   1      37.451  29.894  28.366  1.00  0.00     0.039 A 
ATOM     27  C   UNL A   1      38.386  29.787  27.321  1.00  0.00     0.014 A 
ATOM     28  C   UNL A   1      37.596  29.077  29.492  1.00  0.00     0.014 A 
ATOM     29  C   UNL A   1      39.475  28.919  27.422  1.00  0.00     0.010 A 
ATOM     30  C   UNL A   1      38.695  28.214  29.606  1.00  0.00     0.010 A 
ATOM     31  C   UNL A   1      39.655  28.157  28.585  1.00  0.00    -0.014 A 
BRANCH  31  32
ATOM     32  C   UNL A   1      41.006  27.579  28.837  1.00  0.00     0.031 A 
ATOM     33  C   UNL A   1      41.039  26.070  28.474  1.00  0.00     0.074 A 
ATOM     34  C   UNL A   1      41.988  28.385  29.352  1.00  0.00     0.049 A 
ATOM     35  N   UNL A   1      41.940  25.168  28.717  1.00  0.00    -0.248 NA
ATOM     36  C   UNL A   1      39.893  25.474  27.725  1.00  0.00     0.031 C 
ATOM     37  C   UNL A   1      41.858  29.842  29.555  1.00  0.00     0.029 A 
ATOM     38  N   UNL A   1      43.284  28.167  29.798  1.00  0.00    -0.354 N 
ATOM     39  C   UNL A   1      41.569  23.989  28.029  1.00  0.00     0.074 A 
ATOM     40  C   UNL A   1      40.270  24.218  27.487  1.00  0.00     0.031 C 
ATOM     41  C   UNL A   1      42.964  30.351  30.146  1.00  0.00     0.029 A 
ATOM     42  C   UNL A   1      43.934  29.296  30.378  1.00  0.00     0.049 A 
ATOM     43  H   UNL A   1      43.726  27.291  29.720  1.00  0.00     0.167 HD
ATOM     44  C   UNL A   1      42.404  22.921  27.872  1.00  0.00     0.037 A 
ATOM     45  C   UNL A   1      45.146  29.373  31.023  1.00  0.00     0.037 A 
ATOM     46  C   UNL A   1      43.546  23.083  28.696  1.00  0.00     0.049 A 
ATOM     47  C   UNL A   1      45.796  28.083  30.783  1.00  0.00     0.074 A 
ATOM     48  C   UNL A   1      43.708  22.970  30.050  1.00  0.00     0.029 A 
ATOM     49  N   UNL A   1      44.621  23.736  28.156  1.00  0.00    -0.354 N 
ATOM     50  N   UNL A   1      46.382  27.752  29.672  1.00  0.00    -0.248 NA
ATOM     51  C   UNL A   1      45.770  27.067  31.843  1.00  0.00     0.031 C 
ATOM     52  C   UNL A   1      44.670  23.948  30.349  1.00  0.00     0.029 A 
ATOM     53  C   UNL A   1      45.204  24.461  29.162  1.00  0.00     0.049 A 
ATOM     54  H   UNL A   1      44.920  23.694  27.219  1.00  0.00     0.167 HD
ATOM     55  C   UNL A   1      46.460  26.387  29.793  1.00  0.00     0.074 A 
ATOM     56  C   UNL A   1      46.412  26.092  31.206  1.00  0.00     0.031 C 
ATOM     57  C   UNL A   1      45.986  25.609  28.791  1.00  0.00     0.037 A 
BRANCH  44  58
ATOM     58  C   UNL A   1      42.400  21.771  26.905  1.00  0.00     0.057 A 
ATOM     59  C   UNL A   1      43.302  21.661  25.841  1.00  0.00     0.134 A 
ATOM     60  C   UNL A   1      41.732  20.578  27.271  1.00  0.00     0.134 A 
ATOM     61  F   UNL A   1      44.002  22.717  25.409  1.00  0.00    -0.206 F 
ATOM     62  C   UNL A   1      43.590  20.425  25.244  1.00  0.00     0.040 A 
ATOM     63  C   UNL A   1      42.046  19.335  26.713  1.00  0.00     0.040 A 
ATOM     64  F   UNL A   1      40.806  20.569  28.242  1.00  0.00    -0.206 F 
ATOM     65  C   UNL A   1      42.998  19.254  25.710  1.00  0.00     0.006 A 
ENDBRANCH  44  58
BRANCH  45  66
ATOM     66  C   UNL A   1      45.953  30.340  31.878  1.00  0.00     0.057 A 
ATOM     67  C   UNL A   1      45.586  30.577  33.239  1.00  0.00     0.134 A 
ATOM     68  C   UNL A   1      47.032  31.119  31.458  1.00  0.00     0.134 A 
ATOM     69  F   UNL A   1      44.679  29.827  33.878  1.00  0.00    -0.206 F 
ATOM     70  C   UNL A   1      46.116  31.592  34.042  1.00  0.00     0.040 A 
ATOM     71  C   UNL A   1      47.609  32.120  32.273  1.00  0.00     0.040 A 
ATOM     72  F   UNL A   1      47.592  30.940  30.258  1.00  0.00    -0.206 F 
ATOM     73  C   UNL A   1      47.125  32.390  33.551  1.00  0.00     0.006 A 
ENDBRANCH  45  66
BRANCH  57  74
ATOM     74  C   UNL A   1      46.017  26.271  27.437  1.00  0.00     0.057 A 
ATOM     75  C   UNL A   1      44.960  27.021  26.903  1.00  0.00     0.134 A 
ATOM     76  C   UNL A   1      47.215  26.291  26.714  1.00  0.00     0.134 A 
ATOM     77  F   UNL A   1      43.763  27.044  27.494  1.00  0.00    -0.206 F 
ATOM     78  C   UNL A   1      45.102  27.783  25.736  1.00  0.00     0.040 A 
ATOM     79  C   UNL A   1      47.357  27.019  25.527  1.00  0.00     0.040 A 
ATOM     80  F   UNL A   1      48.278  25.604  27.160  1.00  0.00    -0.206 F 
ATOM     81  C   UNL A   1      46.300  27.778  25.037  1.00  0.00     0.006 A 
ENDBRANCH  57  74
ENDBRANCH  31  32
ENDBRANCH  23  26
ENDBRANCH  21  22
ENDBRANCH  20  21
ENDBRANCH   1  20
TORSDOF 13
ENDMDL
