MODEL 1
REMARK VINA RESULT:     -10.9      0.000      0.000
REMARK SMILES O=C(C[C@H]1C[N@@H+](Cc2ccncc2)CCO1)NCCCCNC(=O)c1ccc(-c2c3nc(c(-c4c(F)cccc4F)c4ccc([nH]4)c(-c4c(F)cccc4F)c4nc(c(-c5c(F)cccc5F)c5ccc2[nH]5)C=C4)C=C3)cc1
REMARK SMILES IDX 19 1 18 2 17 3 1 4 2 5 3 7 4 8 5 9 16 10 6 11 15 12 14 13
REMARK SMILES IDX 7 15 8 16 9 17 13 18 10 19 12 20 11 21 20 22 21 23 22 24
REMARK SMILES IDX 23 25 24 27 25 28 26 29 78 30 27 31 77 32 28 33 29 34 30 35
REMARK SMILES IDX 71 36 31 37 76 38 70 39 72 40 32 41 75 42 69 43 68 44 33 46
REMARK SMILES IDX 59 47 42 48 58 49 43 50 46 51 57 52 73 53 44 54 45 55 56 57
REMARK SMILES IDX 74 58 47 59 34 60 35 61 40 62 36 63 37 64 39 65 41 66 38 67
REMARK SMILES IDX 60 68 61 69 66 70 62 71 63 72 65 73 67 74 64 75 48 76 49 77
REMARK SMILES IDX 54 78 50 79 51 80 53 81 55 82 52 83
REMARK H PARENT 17 6 6 14 22 26 72 45 46 56
REMARK Flexibility Score: inf
ROOT
ATOM      1  C   UNL A   1      33.064  27.955  24.697  1.00  0.00     0.023 C 
ENDROOT
BRANCH   1   2
ATOM      2  C   UNL A   1      32.134  26.762  24.424  1.00  0.00     0.116 C 
BRANCH   2   3
ATOM      3  N   UNL A   1      32.579  25.483  24.952  1.00  0.00    -0.356 N 
ATOM      4  O   UNL A   1      31.131  25.521  26.731  1.00  0.00    -0.275 OA
ATOM      5  C   UNL A   1      31.959  24.918  26.054  1.00  0.00     0.222 C 
ATOM      6  H   UNL A   1      33.329  25.013  24.521  1.00  0.00     0.163 HD
BRANCH   5   7
ATOM      7  C   UNL A   1      32.246  23.449  26.301  1.00  0.00     0.138 C 
BRANCH   7   8
ATOM      8  C   UNL A   1      33.740  23.083  26.130  1.00  0.00     0.182 C 
ATOM      9  C   UNL A   1      34.213  21.791  26.847  1.00  0.00     0.295 C 
ATOM     10  O   UNL A   1      34.028  23.041  24.714  1.00  0.00    -0.366 OA
ATOM     11  N   UNL A   1      34.533  20.657  25.968  1.00  0.00    -0.327 N 
ATOM     12  C   UNL A   1      35.302  22.459  24.384  1.00  0.00     0.222 C 
ATOM     13  C   UNL A   1      35.574  21.091  25.045  1.00  0.00     0.291 C 
ATOM     14  H   UNL A   1      34.902  19.885  26.524  1.00  0.00     0.348 HD
BRANCH  11  15
ATOM     15  C   UNL A   1      33.370  19.998  25.362  1.00  0.00     0.299 C 
BRANCH  15  16
ATOM     16  C   UNL A   1      33.352  18.520  25.036  1.00  0.00     0.009 A 
ATOM     17  C   UNL A   1      32.663  17.618  25.849  1.00  0.00     0.029 A 
ATOM     18  C   UNL A   1      33.947  18.003  23.881  1.00  0.00     0.029 A 
ATOM     19  C   UNL A   1      32.646  16.273  25.504  1.00  0.00     0.111 A 
ATOM     20  C   UNL A   1      33.894  16.642  23.623  1.00  0.00     0.111 A 
ATOM     21  N   UNL A   1      33.252  15.763  24.412  1.00  0.00    -0.265 NA
ENDBRANCH  15  16
ENDBRANCH  11  15
ENDBRANCH   7   8
ENDBRANCH   5   7
ENDBRANCH   2   3
ENDBRANCH   1   2
BRANCH   1  22
ATOM     22  C   UNL A   1      34.090  27.882  25.846  1.00  0.00     0.023 C 
BRANCH  22  23
ATOM     23  C   UNL A   1      33.625  28.246  27.264  1.00  0.00     0.116 C 
BRANCH  23  24
ATOM     24  N   UNL A   1      33.585  29.682  27.474  1.00  0.00    -0.352 N 
ATOM     25  C   UNL A   1      34.489  30.543  28.049  1.00  0.00     0.251 C 
ATOM     26  H   UNL A   1      32.764  30.116  27.146  1.00  0.00     0.163 HD
ATOM     27  O   UNL A   1      34.123  31.691  28.295  1.00  0.00    -0.269 OA
BRANCH  25  28
ATOM     28  C   UNL A   1      35.885  30.154  28.395  1.00  0.00     0.039 A 
ATOM     29  C   UNL A   1      36.850  30.200  27.378  1.00  0.00     0.014 A 
ATOM     30  C   UNL A   1      36.244  29.626  29.639  1.00  0.00     0.014 A 
ATOM     31  C   UNL A   1      38.161  29.760  27.608  1.00  0.00     0.010 A 
ATOM     32  C   UNL A   1      37.569  29.217  29.880  1.00  0.00     0.010 A 
ATOM     33  C   UNL A   1      38.544  29.279  28.869  1.00  0.00    -0.014 A 
BRANCH  33  34
ATOM     34  C   UNL A   1      39.956  28.872  29.136  1.00  0.00     0.031 A 
ATOM     35  C   UNL A   1      40.929  29.805  29.810  1.00  0.00     0.074 A 
ATOM     36  C   UNL A   1      40.387  27.655  28.745  1.00  0.00     0.049 A 
ATOM     37  N   UNL A   1      42.203  29.630  30.068  1.00  0.00    -0.248 NA
ATOM     38  C   UNL A   1      40.406  31.110  30.238  1.00  0.00     0.031 C 
ATOM     39  C   UNL A   1      39.567  26.648  28.071  1.00  0.00     0.029 A 
ATOM     40  N   UNL A   1      41.624  27.063  28.846  1.00  0.00    -0.354 N 
ATOM     41  C   UNL A   1      42.636  30.800  30.681  1.00  0.00     0.074 A 
ATOM     42  C   UNL A   1      41.495  31.693  30.721  1.00  0.00     0.031 C 
ATOM     43  C   UNL A   1      40.318  25.563  27.824  1.00  0.00     0.029 A 
ATOM     44  C   UNL A   1      41.682  25.808  28.287  1.00  0.00     0.049 A 
ATOM     45  H   UNL A   1      42.396  27.497  29.277  1.00  0.00     0.167 HD
ATOM     46  C   UNL A   1      43.863  31.102  31.178  1.00  0.00     0.037 A 
ATOM     47  C   UNL A   1      42.714  24.953  28.147  1.00  0.00     0.037 A 
ATOM     48  C   UNL A   1      45.003  30.218  31.153  1.00  0.00     0.049 A 
ATOM     49  C   UNL A   1      44.072  25.323  28.674  1.00  0.00     0.074 A 
ATOM     50  C   UNL A   1      46.271  30.431  31.670  1.00  0.00     0.029 A 
ATOM     51  N   UNL A   1      45.017  28.958  30.575  1.00  0.00    -0.354 N 
ATOM     52  N   UNL A   1      44.450  26.414  29.291  1.00  0.00    -0.248 NA
ATOM     53  C   UNL A   1      45.148  24.335  28.489  1.00  0.00     0.031 C 
ATOM     54  C   UNL A   1      47.064  29.319  31.367  1.00  0.00     0.029 A 
ATOM     55  C   UNL A   1      46.278  28.392  30.704  1.00  0.00     0.049 A 
ATOM     56  H   UNL A   1      44.247  28.527  30.139  1.00  0.00     0.167 HD
ATOM     57  C   UNL A   1      45.796  26.237  29.591  1.00  0.00     0.074 A 
ATOM     58  C   UNL A   1      46.165  24.926  29.101  1.00  0.00     0.031 C 
ATOM     59  C   UNL A   1      46.645  27.086  30.219  1.00  0.00     0.037 A 
BRANCH  46  60
ATOM     60  C   UNL A   1      44.046  32.460  31.794  1.00  0.00     0.057 A 
ATOM     61  C   UNL A   1      44.439  33.569  31.034  1.00  0.00     0.134 A 
ATOM     62  C   UNL A   1      43.774  32.675  33.153  1.00  0.00     0.134 A 
ATOM     63  F   UNL A   1      44.717  33.433  29.729  1.00  0.00    -0.206 F 
ATOM     64  C   UNL A   1      44.583  34.835  31.606  1.00  0.00     0.040 A 
ATOM     65  C   UNL A   1      43.890  33.941  33.731  1.00  0.00     0.040 A 
ATOM     66  F   UNL A   1      43.379  31.661  33.937  1.00  0.00    -0.206 F 
ATOM     67  C   UNL A   1      44.302  35.024  32.958  1.00  0.00     0.006 A 
ENDBRANCH  46  60
BRANCH  47  68
ATOM     68  C   UNL A   1      42.502  23.647  27.472  1.00  0.00     0.057 A 
ATOM     69  C   UNL A   1      42.618  23.522  26.083  1.00  0.00     0.134 A 
ATOM     70  C   UNL A   1      42.169  22.496  28.198  1.00  0.00     0.134 A 
ATOM     71  F   UNL A   1      42.911  24.594  25.333  1.00  0.00    -0.206 F 
ATOM     72  C   UNL A   1      42.395  22.305  25.437  1.00  0.00     0.040 A 
ATOM     73  C   UNL A   1      41.969  21.267  27.568  1.00  0.00     0.040 A 
ATOM     74  F   UNL A   1      42.045  22.549  29.533  1.00  0.00    -0.206 F 
ATOM     75  C   UNL A   1      42.075  21.171  26.182  1.00  0.00     0.006 A 
ENDBRANCH  47  68
BRANCH  59  76
ATOM     76  C   UNL A   1      48.053  26.615  30.442  1.00  0.00     0.057 A 
ATOM     77  C   UNL A   1      48.419  25.886  31.581  1.00  0.00     0.134 A 
ATOM     78  C   UNL A   1      49.049  26.867  29.489  1.00  0.00     0.134 A 
ATOM     79  F   UNL A   1      47.518  25.622  32.538  1.00  0.00    -0.206 F 
ATOM     80  C   UNL A   1      49.730  25.443  31.774  1.00  0.00     0.040 A 
ATOM     81  C   UNL A   1      50.357  26.409  29.660  1.00  0.00     0.040 A 
ATOM     82  F   UNL A   1      48.766  27.554  28.372  1.00  0.00    -0.206 F 
ATOM     83  C   UNL A   1      50.702  25.699  30.808  1.00  0.00     0.006 A 
ENDBRANCH  59  76
ENDBRANCH  33  34
ENDBRANCH  25  28
ENDBRANCH  23  24
ENDBRANCH  22  23
ENDBRANCH   1  22
TORSDOF 14
ENDMDL
MODEL 2
REMARK VINA RESULT:     -10.9      3.164      8.666
REMARK SMILES O=C(C[C@H]1C[N@@H+](Cc2ccncc2)CCO1)NCCCCNC(=O)c1ccc(-c2c3nc(c(-c4c(F)cccc4F)c4ccc([nH]4)c(-c4c(F)cccc4F)c4nc(c(-c5c(F)cccc5F)c5ccc2[nH]5)C=C4)C=C3)cc1
REMARK SMILES IDX 19 1 18 2 17 3 1 4 2 5 3 7 4 8 5 9 16 10 6 11 15 12 14 13
REMARK SMILES IDX 7 15 8 16 9 17 13 18 10 19 12 20 11 21 20 22 21 23 22 24
REMARK SMILES IDX 23 25 24 27 25 28 26 29 78 30 27 31 77 32 28 33 29 34 30 35
REMARK SMILES IDX 71 36 31 37 76 38 70 39 72 40 32 41 75 42 69 43 68 44 33 46
REMARK SMILES IDX 59 47 42 48 58 49 43 50 46 51 57 52 73 53 44 54 45 55 56 57
REMARK SMILES IDX 74 58 47 59 34 60 35 61 40 62 36 63 37 64 39 65 41 66 38 67
REMARK SMILES IDX 60 68 61 69 66 70 62 71 63 72 65 73 67 74 64 75 48 76 49 77
REMARK SMILES IDX 54 78 50 79 51 80 53 81 55 82 52 83
REMARK H PARENT 17 6 6 14 22 26 72 45 46 56
REMARK Flexibility Score: inf
ROOT
ATOM      1  C   UNL A   1      34.774  22.601  25.821  1.00  0.00     0.023 C 
ENDROOT
BRANCH   1   2
ATOM      2  C   UNL A   1      33.589  23.016  24.934  1.00  0.00     0.116 C 
BRANCH   2   3
ATOM      3  N   UNL A   1      33.573  24.408  24.517  1.00  0.00    -0.356 N 
ATOM      4  O   UNL A   1      34.242  23.951  22.371  1.00  0.00    -0.275 OA
ATOM      5  C   UNL A   1      33.834  24.757  23.203  1.00  0.00     0.222 C 
ATOM      6  H   UNL A   1      33.374  25.112  25.178  1.00  0.00     0.163 HD
BRANCH   5   7
ATOM      7  C   UNL A   1      33.443  26.165  22.796  1.00  0.00     0.138 C 
BRANCH   7   8
ATOM      8  C   UNL A   1      33.314  27.133  23.997  1.00  0.00     0.182 C 
ATOM      9  C   UNL A   1      33.396  28.646  23.667  1.00  0.00     0.295 C 
ATOM     10  O   UNL A   1      32.093  26.808  24.700  1.00  0.00    -0.366 OA
ATOM     11  N   UNL A   1      32.137  29.395  23.797  1.00  0.00    -0.327 N 
ATOM     12  C   UNL A   1      31.695  27.782  25.681  1.00  0.00     0.222 C 
ATOM     13  C   UNL A   1      31.667  29.237  25.167  1.00  0.00     0.291 C 
ATOM     14  H   UNL A   1      32.309  30.387  23.631  1.00  0.00     0.348 HD
BRANCH  11  15
ATOM     15  C   UNL A   1      31.151  29.130  22.743  1.00  0.00     0.299 C 
BRANCH  15  16
ATOM     16  C   UNL A   1      29.671  29.392  22.931  1.00  0.00     0.009 A 
ATOM     17  C   UNL A   1      28.755  28.338  22.946  1.00  0.00     0.029 A 
ATOM     18  C   UNL A   1      29.165  30.673  23.175  1.00  0.00     0.029 A 
ATOM     19  C   UNL A   1      27.410  28.614  23.147  1.00  0.00     0.111 A 
ATOM     20  C   UNL A   1      27.802  30.858  23.351  1.00  0.00     0.111 A 
ATOM     21  N   UNL A   1      26.911  29.851  23.343  1.00  0.00    -0.265 NA
ENDBRANCH  15  16
ENDBRANCH  11  15
ENDBRANCH   7   8
ENDBRANCH   5   7
ENDBRANCH   2   3
ENDBRANCH   1   2
BRANCH   1  22
ATOM     22  C   UNL A   1      35.880  23.622  26.154  1.00  0.00     0.023 C 
BRANCH  22  23
ATOM     23  C   UNL A   1      37.064  23.757  25.185  1.00  0.00     0.116 C 
BRANCH  23  24
ATOM     24  N   UNL A   1      38.125  22.811  25.484  1.00  0.00    -0.352 N 
ATOM     25  C   UNL A   1      39.345  22.977  26.096  1.00  0.00     0.251 C 
ATOM     26  H   UNL A   1      37.937  21.888  25.196  1.00  0.00     0.163 HD
ATOM     27  O   UNL A   1      40.153  22.051  26.040  1.00  0.00    -0.269 OA
BRANCH  25  28
ATOM     28  C   UNL A   1      39.738  24.219  26.818  1.00  0.00     0.039 A 
ATOM     29  C   UNL A   1      39.253  24.402  28.121  1.00  0.00     0.014 A 
ATOM     30  C   UNL A   1      40.452  25.259  26.214  1.00  0.00     0.014 A 
ATOM     31  C   UNL A   1      39.505  25.589  28.825  1.00  0.00     0.010 A 
ATOM     32  C   UNL A   1      40.735  26.435  26.933  1.00  0.00     0.010 A 
ATOM     33  C   UNL A   1      40.266  26.615  28.246  1.00  0.00    -0.014 A 
BRANCH  33  34
ATOM     34  C   UNL A   1      40.593  27.852  29.017  1.00  0.00     0.031 A 
ATOM     35  C   UNL A   1      41.915  28.011  29.724  1.00  0.00     0.074 A 
ATOM     36  C   UNL A   1      39.683  28.842  29.111  1.00  0.00     0.049 A 
ATOM     37  N   UNL A   1      42.339  28.996  30.480  1.00  0.00    -0.248 NA
ATOM     38  C   UNL A   1      42.883  26.915  29.571  1.00  0.00     0.031 C 
ATOM     39  C   UNL A   1      38.356  28.828  28.494  1.00  0.00     0.029 A 
ATOM     40  N   UNL A   1      39.727  30.047  29.774  1.00  0.00    -0.354 N 
ATOM     41  C   UNL A   1      43.615  28.639  30.898  1.00  0.00     0.074 A 
ATOM     42  C   UNL A   1      43.881  27.328  30.342  1.00  0.00     0.031 C 
ATOM     43  C   UNL A   1      37.717  29.968  28.799  1.00  0.00     0.029 A 
ATOM     44  C   UNL A   1      38.569  30.779  29.664  1.00  0.00     0.049 A 
ATOM     45  H   UNL A   1      40.515  30.355  30.278  1.00  0.00     0.167 HD
ATOM     46  C   UNL A   1      44.492  29.339  31.663  1.00  0.00     0.037 A 
ATOM     47  C   UNL A   1      38.221  31.963  30.207  1.00  0.00     0.037 A 
ATOM     48  C   UNL A   1      44.242  30.649  32.214  1.00  0.00     0.049 A 
ATOM     49  C   UNL A   1      39.195  32.704  31.079  1.00  0.00     0.074 A 
ATOM     50  C   UNL A   1      45.090  31.445  32.965  1.00  0.00     0.029 A 
ATOM     51  N   UNL A   1      43.054  31.353  32.080  1.00  0.00    -0.354 N 
ATOM     52  N   UNL A   1      40.413  32.372  31.426  1.00  0.00    -0.248 NA
ATOM     53  C   UNL A   1      38.746  33.993  31.631  1.00  0.00     0.031 C 
ATOM     54  C   UNL A   1      44.404  32.610  33.323  1.00  0.00     0.029 A 
ATOM     55  C   UNL A   1      43.142  32.562  32.754  1.00  0.00     0.049 A 
ATOM     56  H   UNL A   1      42.266  31.041  31.580  1.00  0.00     0.167 HD
ATOM     57  C   UNL A   1      40.885  33.416  32.212  1.00  0.00     0.074 A 
ATOM     58  C   UNL A   1      39.827  34.401  32.279  1.00  0.00     0.031 C 
ATOM     59  C   UNL A   1      42.090  33.544  32.819  1.00  0.00     0.037 A 
BRANCH  46  60
ATOM     60  C   UNL A   1      45.818  28.699  31.960  1.00  0.00     0.057 A 
ATOM     61  C   UNL A   1      46.938  28.907  31.145  1.00  0.00     0.134 A 
ATOM     62  C   UNL A   1      45.993  27.908  33.105  1.00  0.00     0.134 A 
ATOM     63  F   UNL A   1      46.840  29.652  30.034  1.00  0.00    -0.206 F 
ATOM     64  C   UNL A   1      48.175  28.331  31.440  1.00  0.00     0.040 A 
ATOM     65  C   UNL A   1      47.231  27.347  33.424  1.00  0.00     0.040 A 
ATOM     66  F   UNL A   1      44.966  27.679  33.937  1.00  0.00    -0.206 F 
ATOM     67  C   UNL A   1      48.325  27.552  32.587  1.00  0.00     0.006 A 
ENDBRANCH  46  60
BRANCH  47  68
ATOM     68  C   UNL A   1      36.874  32.528  29.939  1.00  0.00     0.057 A 
ATOM     69  C   UNL A   1      36.667  33.449  28.906  1.00  0.00     0.134 A 
ATOM     70  C   UNL A   1      35.765  32.170  30.717  1.00  0.00     0.134 A 
ATOM     71  F   UNL A   1      37.695  33.848  28.144  1.00  0.00    -0.206 F 
ATOM     72  C   UNL A   1      35.410  34.006  28.664  1.00  0.00     0.040 A 
ATOM     73  C   UNL A   1      34.497  32.698  30.469  1.00  0.00     0.040 A 
ATOM     74  F   UNL A   1      35.897  31.289  31.721  1.00  0.00    -0.206 F 
ATOM     75  C   UNL A   1      34.319  33.624  29.444  1.00  0.00     0.006 A 
ENDBRANCH  47  68
BRANCH  59  76
ATOM     76  C   UNL A   1      42.345  34.809  33.587  1.00  0.00     0.057 A 
ATOM     77  C   UNL A   1      42.946  35.927  32.996  1.00  0.00     0.134 A 
ATOM     78  C   UNL A   1      41.954  34.920  34.929  1.00  0.00     0.134 A 
ATOM     79  F   UNL A   1      43.357  35.884  31.720  1.00  0.00    -0.206 F 
ATOM     80  C   UNL A   1      43.169  37.103  33.717  1.00  0.00     0.040 A 
ATOM     81  C   UNL A   1      42.149  36.098  35.652  1.00  0.00     0.040 A 
ATOM     82  F   UNL A   1      41.366  33.889  35.555  1.00  0.00    -0.206 F 
ATOM     83  C   UNL A   1      42.764  37.193  35.048  1.00  0.00     0.006 A 
ENDBRANCH  59  76
ENDBRANCH  33  34
ENDBRANCH  25  28
ENDBRANCH  23  24
ENDBRANCH  22  23
ENDBRANCH   1  22
TORSDOF 14
ENDMDL
MODEL 3
REMARK VINA RESULT:     -10.8      1.818      2.493
REMARK SMILES O=C(C[C@H]1C[N@@H+](Cc2ccncc2)CCO1)NCCCCNC(=O)c1ccc(-c2c3nc(c(-c4c(F)cccc4F)c4ccc([nH]4)c(-c4c(F)cccc4F)c4nc(c(-c5c(F)cccc5F)c5ccc2[nH]5)C=C4)C=C3)cc1
REMARK SMILES IDX 19 1 18 2 17 3 1 4 2 5 3 7 4 8 5 9 16 10 6 11 15 12 14 13
REMARK SMILES IDX 7 15 8 16 9 17 13 18 10 19 12 20 11 21 20 22 21 23 22 24
REMARK SMILES IDX 23 25 24 27 25 28 26 29 78 30 27 31 77 32 28 33 29 34 30 35
REMARK SMILES IDX 71 36 31 37 76 38 70 39 72 40 32 41 75 42 69 43 68 44 33 46
REMARK SMILES IDX 59 47 42 48 58 49 43 50 46 51 57 52 73 53 44 54 45 55 56 57
REMARK SMILES IDX 74 58 47 59 34 60 35 61 40 62 36 63 37 64 39 65 41 66 38 67
REMARK SMILES IDX 60 68 61 69 66 70 62 71 63 72 65 73 67 74 64 75 48 76 49 77
REMARK SMILES IDX 54 78 50 79 51 80 53 81 55 82 52 83
REMARK H PARENT 17 6 6 14 22 26 72 45 46 56
REMARK Flexibility Score: inf
ROOT
ATOM      1  C   UNL A   1      31.776  27.779  26.986  1.00  0.00     0.023 C 
ENDROOT
BRANCH   1   2
ATOM      2  C   UNL A   1      31.092  26.666  26.177  1.00  0.00     0.116 C 
BRANCH   2   3
ATOM      3  N   UNL A   1      31.209  25.325  26.726  1.00  0.00    -0.356 N 
ATOM      4  O   UNL A   1      30.653  24.286  24.758  1.00  0.00    -0.275 OA
ATOM      5  C   UNL A   1      31.051  24.213  25.918  1.00  0.00     0.222 C 
ATOM      6  H   UNL A   1      31.402  25.207  27.685  1.00  0.00     0.163 HD
BRANCH   5   7
ATOM      7  C   UNL A   1      31.540  22.896  26.491  1.00  0.00     0.138 C 
BRANCH   7   8
ATOM      8  C   UNL A   1      33.058  22.891  26.795  1.00  0.00     0.182 C 
ATOM      9  C   UNL A   1      33.655  21.539  27.268  1.00  0.00     0.295 C 
ATOM     10  O   UNL A   1      33.746  23.396  25.628  1.00  0.00    -0.366 OA
ATOM     11  N   UNL A   1      34.533  20.860  26.304  1.00  0.00    -0.327 N 
ATOM     12  C   UNL A   1      35.172  23.207  25.651  1.00  0.00     0.222 C 
ATOM     13  C   UNL A   1      35.624  21.769  25.981  1.00  0.00     0.291 C 
ATOM     14  H   UNL A   1      34.931  20.024  26.733  1.00  0.00     0.348 HD
BRANCH  11  15
ATOM     15  C   UNL A   1      33.841  20.253  25.162  1.00  0.00     0.299 C 
BRANCH  15  16
ATOM     16  C   UNL A   1      33.691  18.754  25.006  1.00  0.00     0.009 A 
ATOM     17  C   UNL A   1      32.594  18.085  25.553  1.00  0.00     0.029 A 
ATOM     18  C   UNL A   1      34.585  17.989  24.251  1.00  0.00     0.029 A 
ATOM     19  C   UNL A   1      32.476  16.715  25.368  1.00  0.00     0.111 A 
ATOM     20  C   UNL A   1      34.398  16.620  24.130  1.00  0.00     0.111 A 
ATOM     21  N   UNL A   1      33.357  15.965  24.674  1.00  0.00    -0.265 NA
ENDBRANCH  15  16
ENDBRANCH  11  15
ENDBRANCH   7   8
ENDBRANCH   5   7
ENDBRANCH   2   3
ENDBRANCH   1   2
BRANCH   1  22
ATOM     22  C   UNL A   1      33.305  27.967  26.896  1.00  0.00     0.023 C 
BRANCH  22  23
ATOM     23  C   UNL A   1      33.852  29.059  25.966  1.00  0.00     0.116 C 
BRANCH  23  24
ATOM     24  N   UNL A   1      33.704  30.386  26.536  1.00  0.00    -0.352 N 
ATOM     25  C   UNL A   1      34.364  31.013  27.566  1.00  0.00     0.251 C 
ATOM     26  H   UNL A   1      33.006  30.935  26.108  1.00  0.00     0.163 HD
ATOM     27  O   UNL A   1      33.904  32.071  27.992  1.00  0.00    -0.269 OA
BRANCH  25  28
ATOM     28  C   UNL A   1      35.603  30.473  28.194  1.00  0.00     0.039 A 
ATOM     29  C   UNL A   1      36.813  30.640  27.506  1.00  0.00     0.014 A 
ATOM     30  C   UNL A   1      35.593  29.702  29.361  1.00  0.00     0.014 A 
ATOM     31  C   UNL A   1      38.003  30.077  27.991  1.00  0.00     0.010 A 
ATOM     32  C   UNL A   1      36.792  29.167  29.867  1.00  0.00     0.010 A 
ATOM     33  C   UNL A   1      38.011  29.347  29.190  1.00  0.00    -0.014 A 
BRANCH  33  34
ATOM     34  C   UNL A   1      39.287  28.803  29.744  1.00  0.00     0.031 A 
ATOM     35  C   UNL A   1      39.952  29.427  30.945  1.00  0.00     0.074 A 
ATOM     36  C   UNL A   1      39.879  27.748  29.148  1.00  0.00     0.049 A 
ATOM     37  N   UNL A   1      41.088  29.113  31.521  1.00  0.00    -0.248 NA
ATOM     38  C   UNL A   1      39.256  30.559  31.572  1.00  0.00     0.031 C 
ATOM     39  C   UNL A   1      39.364  27.046  27.973  1.00  0.00     0.029 A 
ATOM     40  N   UNL A   1      41.051  27.089  29.441  1.00  0.00    -0.354 N 
ATOM     41  C   UNL A   1      41.247  30.009  32.571  1.00  0.00     0.074 A 
ATOM     42  C   UNL A   1      40.108  30.904  32.529  1.00  0.00     0.031 C 
ATOM     43  C   UNL A   1      40.208  26.054  27.648  1.00  0.00     0.029 A 
ATOM     44  C   UNL A   1      41.343  26.070  28.567  1.00  0.00     0.049 A 
ATOM     45  H   UNL A   1      41.625  27.326  30.205  1.00  0.00     0.167 HD
ATOM     46  C   UNL A   1      42.239  30.076  33.495  1.00  0.00     0.037 A 
ATOM     47  C   UNL A   1      42.409  25.248  28.497  1.00  0.00     0.037 A 
ATOM     48  C   UNL A   1      43.372  29.185  33.554  1.00  0.00     0.049 A 
ATOM     49  C   UNL A   1      43.513  25.363  29.510  1.00  0.00     0.074 A 
ATOM     50  C   UNL A   1      44.402  29.158  34.481  1.00  0.00     0.029 A 
ATOM     51  N   UNL A   1      43.630  28.168  32.647  1.00  0.00    -0.354 N 
ATOM     52  N   UNL A   1      43.624  26.186  30.523  1.00  0.00    -0.248 NA
ATOM     53  C   UNL A   1      44.641  24.427  29.373  1.00  0.00     0.031 C 
ATOM     54  C   UNL A   1      45.305  28.156  34.110  1.00  0.00     0.029 A 
ATOM     55  C   UNL A   1      44.814  27.525  32.980  1.00  0.00     0.049 A 
ATOM     56  H   UNL A   1      43.058  27.937  31.880  1.00  0.00     0.167 HD
ATOM     57  C   UNL A   1      44.814  25.853  31.158  1.00  0.00     0.074 A 
ATOM     58  C   UNL A   1      45.383  24.743  30.425  1.00  0.00     0.031 C 
ATOM     59  C   UNL A   1      45.380  26.418  32.252  1.00  0.00     0.037 A 
BRANCH  46  60
ATOM     60  C   UNL A   1      42.152  31.162  34.529  1.00  0.00     0.057 A 
ATOM     61  C   UNL A   1      42.735  32.421  34.330  1.00  0.00     0.134 A 
ATOM     62  C   UNL A   1      41.430  30.968  35.716  1.00  0.00     0.134 A 
ATOM     63  F   UNL A   1      43.440  32.673  33.217  1.00  0.00    -0.206 F 
ATOM     64  C   UNL A   1      42.629  33.436  35.283  1.00  0.00     0.040 A 
ATOM     65  C   UNL A   1      41.296  31.984  36.665  1.00  0.00     0.040 A 
ATOM     66  F   UNL A   1      40.834  29.793  35.965  1.00  0.00    -0.206 F 
ATOM     67  C   UNL A   1      41.902  33.220  36.452  1.00  0.00     0.006 A 
ENDBRANCH  46  60
BRANCH  47  68
ATOM     68  C   UNL A   1      42.485  24.230  27.417  1.00  0.00     0.057 A 
ATOM     69  C   UNL A   1      42.020  22.926  27.617  1.00  0.00     0.134 A 
ATOM     70  C   UNL A   1      43.036  24.536  26.165  1.00  0.00     0.134 A 
ATOM     71  F   UNL A   1      41.505  22.569  28.802  1.00  0.00    -0.206 F 
ATOM     72  C   UNL A   1      42.112  21.956  26.617  1.00  0.00     0.040 A 
ATOM     73  C   UNL A   1      43.109  23.583  25.148  1.00  0.00     0.040 A 
ATOM     74  F   UNL A   1      43.497  25.769  25.911  1.00  0.00    -0.206 F 
ATOM     75  C   UNL A   1      42.652  22.287  25.375  1.00  0.00     0.006 A 
ENDBRANCH  47  68
BRANCH  59  76
ATOM     76  C   UNL A   1      46.668  25.827  32.746  1.00  0.00     0.057 A 
ATOM     77  C   UNL A   1      47.913  26.261  32.273  1.00  0.00     0.134 A 
ATOM     78  C   UNL A   1      46.665  24.831  33.732  1.00  0.00     0.134 A 
ATOM     79  F   UNL A   1      47.988  27.201  31.319  1.00  0.00    -0.206 F 
ATOM     80  C   UNL A   1      49.107  25.711  32.746  1.00  0.00     0.040 A 
ATOM     81  C   UNL A   1      47.852  24.291  34.231  1.00  0.00     0.040 A 
ATOM     82  F   UNL A   1      45.508  24.373  34.234  1.00  0.00    -0.206 F 
ATOM     83  C   UNL A   1      49.078  24.728  33.734  1.00  0.00     0.006 A 
ENDBRANCH  59  76
ENDBRANCH  33  34
ENDBRANCH  25  28
ENDBRANCH  23  24
ENDBRANCH  22  23
ENDBRANCH   1  22
TORSDOF 14
ENDMDL
