MODEL 1
REMARK VINA RESULT:     -11.1      0.000      0.000
REMARK SMILES [NH3+][C@@H](CC1=C[C@H](S)c2ccccc2C1)C(=O)NCCCCNC(=O)c1ccc(-c2c3nc(c(-c4c(F)cccc4F)c4ccc([nH]4)c(-c4c(F)cccc4F)c4nc(c(-c5c(F)cccc5F)c5ccc2[nH]5)C=C4)C=C3)cc1
REMARK SMILES IDX 19 1 18 2 17 3 15 4 16 5 2 7 1 8 3 12 4 13 5 14 14 15 6 16
REMARK SMILES IDX 13 17 8 18 12 19 9 20 11 21 10 22 7 23 20 25 21 26 22 27
REMARK SMILES IDX 23 28 24 30 25 31 26 32 78 33 27 34 77 35 28 36 29 37 30 38
REMARK SMILES IDX 71 39 31 40 76 41 70 42 72 43 32 44 75 45 69 46 68 47 33 49
REMARK SMILES IDX 59 50 42 51 58 52 43 53 46 54 57 55 73 56 44 57 45 58 56 60
REMARK SMILES IDX 74 61 47 62 34 63 35 64 40 65 36 66 37 67 39 68 41 69 38 70
REMARK SMILES IDX 60 71 61 72 66 73 62 74 63 75 65 76 67 77 64 78 48 79 49 80
REMARK SMILES IDX 54 81 50 82 51 83 53 84 55 85 52 86
REMARK H PARENT 17 6 1 9 1 10 1 11 7 24 22 29 72 48 46 59
REMARK Flexibility Score: inf
ROOT
ATOM      1  C   UNL A   1      33.865  33.569  28.577  1.00  0.00     0.023 C 
ENDROOT
BRANCH   1   2
ATOM      2  C   UNL A   1      34.162  34.608  29.648  1.00  0.00     0.116 C 
BRANCH   2   3
ATOM      3  N   UNL A   1      33.003  35.084  30.366  1.00  0.00    -0.351 N 
ATOM      4  C   UNL A   1      32.907  35.999  31.377  1.00  0.00     0.278 C 
ATOM      5  O   UNL A   1      31.778  36.453  31.600  1.00  0.00    -0.268 OA
ATOM      6  H   UNL A   1      32.148  34.687  30.082  1.00  0.00     0.163 HD
BRANCH   4   7
ATOM      7  C   UNL A   1      34.118  36.483  32.211  1.00  0.00     0.275 C 
BRANCH   7   8
ATOM      8  N   UNL A   1      34.183  37.956  32.316  1.00  0.00    -0.347 N 
ATOM      9  H   UNL A   1      34.260  38.360  31.384  1.00  0.00     0.345 HD
ATOM     10  H   UNL A   1      34.997  38.221  32.870  1.00  0.00     0.345 HD
ATOM     11  H   UNL A   1      33.337  38.301  32.769  1.00  0.00     0.345 HD
ENDBRANCH   7   8
BRANCH   7  12
ATOM     12  C   UNL A   1      34.402  35.692  33.512  1.00  0.00     0.106 C 
BRANCH  12  13
ATOM     13  C   UNL A   1      35.609  34.782  33.591  1.00  0.00    -0.062 C 
ATOM     14  C   UNL A   1      35.892  34.034  34.675  1.00  0.00    -0.009 C 
ATOM     15  C   UNL A   1      36.507  34.785  32.374  1.00  0.00     0.066 C 
ATOM     16  C   UNL A   1      37.020  33.036  34.751  1.00  0.00     0.096 C 
ATOM     17  C   UNL A   1      37.580  33.722  32.360  1.00  0.00    -0.039 A 
ATOM     18  C   UNL A   1      37.806  32.876  33.463  1.00  0.00    -0.028 A 
ATOM     19  C   UNL A   1      38.358  33.573  31.199  1.00  0.00     0.004 A 
ATOM     20  C   UNL A   1      38.763  31.853  33.345  1.00  0.00     0.005 A 
ATOM     21  C   UNL A   1      39.322  32.571  31.111  1.00  0.00     0.000 A 
ATOM     22  C   UNL A   1      39.514  31.702  32.179  1.00  0.00     0.000 A 
BRANCH  16  23
ATOM     23  S   UNL A   1      38.083  33.505  36.153  1.00  0.00    -0.167 SA
ATOM     24  H   UNL A   1      38.004  34.849  36.350  1.00  0.00     0.103 HD
ENDBRANCH  16  23
ENDBRANCH  12  13
ENDBRANCH   7  12
ENDBRANCH   4   7
ENDBRANCH   2   3
ENDBRANCH   1   2
BRANCH   1  25
ATOM     25  C   UNL A   1      35.082  32.854  28.001  1.00  0.00     0.023 C 
BRANCH  25  26
ATOM     26  C   UNL A   1      35.313  31.425  28.483  1.00  0.00     0.116 C 
BRANCH  26  27
ATOM     27  N   UNL A   1      35.285  31.263  29.931  1.00  0.00    -0.352 N 
ATOM     28  C   UNL A   1      36.110  30.513  30.751  1.00  0.00     0.251 C 
ATOM     29  H   UNL A   1      34.574  31.761  30.395  1.00  0.00     0.163 HD
ATOM     30  O   UNL A   1      35.903  30.441  31.948  1.00  0.00    -0.269 OA
BRANCH  28  31
ATOM     31  C   UNL A   1      37.211  29.737  30.136  1.00  0.00     0.039 A 
ATOM     32  C   UNL A   1      37.845  28.720  30.848  1.00  0.00     0.014 A 
ATOM     33  C   UNL A   1      37.679  30.115  28.876  1.00  0.00     0.014 A 
ATOM     34  C   UNL A   1      39.082  28.257  30.414  1.00  0.00     0.010 A 
ATOM     35  C   UNL A   1      38.875  29.577  28.395  1.00  0.00     0.010 A 
ATOM     36  C   UNL A   1      39.630  28.711  29.202  1.00  0.00    -0.014 A 
BRANCH  36  37
ATOM     37  C   UNL A   1      41.026  28.340  28.845  1.00  0.00     0.031 A 
ATOM     38  C   UNL A   1      41.347  26.947  28.360  1.00  0.00     0.074 A 
ATOM     39  C   UNL A   1      41.994  29.275  28.879  1.00  0.00     0.049 A 
ATOM     40  N   UNL A   1      42.499  26.444  27.995  1.00  0.00    -0.248 NA
ATOM     41  C   UNL A   1      40.230  25.991  28.278  1.00  0.00     0.031 C 
ATOM     42  C   UNL A   1      41.816  30.664  29.305  1.00  0.00     0.029 A 
ATOM     43  N   UNL A   1      43.317  29.205  28.518  1.00  0.00    -0.354 N 
ATOM     44  C   UNL A   1      42.255  25.112  27.683  1.00  0.00     0.074 A 
ATOM     45  C   UNL A   1      40.847  24.877  27.910  1.00  0.00     0.031 C 
ATOM     46  C   UNL A   1      42.967  31.329  29.126  1.00  0.00     0.029 A 
ATOM     47  C   UNL A   1      43.979  30.403  28.631  1.00  0.00     0.049 A 
ATOM     48  H   UNL A   1      43.748  28.375  28.209  1.00  0.00     0.167 HD
ATOM     49  C   UNL A   1      43.121  24.170  27.237  1.00  0.00     0.037 A 
ATOM     50  C   UNL A   1      45.261  30.717  28.373  1.00  0.00     0.037 A 
ATOM     51  C   UNL A   1      44.510  24.411  26.947  1.00  0.00     0.049 A 
ATOM     52  C   UNL A   1      46.201  29.650  27.893  1.00  0.00     0.074 A 
ATOM     53  C   UNL A   1      45.451  23.531  26.439  1.00  0.00     0.029 A 
ATOM     54  N   UNL A   1      45.153  25.624  27.129  1.00  0.00    -0.354 N 
ATOM     55  N   UNL A   1      45.951  28.396  27.606  1.00  0.00    -0.248 NA
ATOM     56  C   UNL A   1      47.608  30.040  27.721  1.00  0.00     0.031 C 
ATOM     57  C   UNL A   1      46.673  24.206  26.340  1.00  0.00     0.029 A 
ATOM     58  C   UNL A   1      46.484  25.512  26.762  1.00  0.00     0.049 A 
ATOM     59  H   UNL A   1      44.727  26.445  27.469  1.00  0.00     0.167 HD
ATOM     60  C   UNL A   1      47.164  27.851  27.210  1.00  0.00     0.074 A 
ATOM     61  C   UNL A   1      48.145  28.914  27.275  1.00  0.00     0.031 C 
ATOM     62  C   UNL A   1      47.444  26.580  26.834  1.00  0.00     0.037 A 
BRANCH  49  63
ATOM     63  C   UNL A   1      42.598  22.778  27.044  1.00  0.00     0.057 A 
ATOM     64  C   UNL A   1      42.323  21.965  28.152  1.00  0.00     0.134 A 
ATOM     65  C   UNL A   1      42.420  22.221  25.772  1.00  0.00     0.134 A 
ATOM     66  F   UNL A   1      42.478  22.437  29.398  1.00  0.00    -0.206 F 
ATOM     67  C   UNL A   1      41.894  20.645  28.001  1.00  0.00     0.040 A 
ATOM     68  C   UNL A   1      41.975  20.909  25.608  1.00  0.00     0.040 A 
ATOM     69  F   UNL A   1      42.653  22.953  24.673  1.00  0.00    -0.206 F 
ATOM     70  C   UNL A   1      41.717  20.115  26.724  1.00  0.00     0.006 A 
ENDBRANCH  49  63
BRANCH  50  71
ATOM     71  C   UNL A   1      45.740  32.105  28.573  1.00  0.00     0.057 A 
ATOM     72  C   UNL A   1      46.327  32.507  29.778  1.00  0.00     0.134 A 
ATOM     73  C   UNL A   1      45.636  33.057  27.552  1.00  0.00     0.134 A 
ATOM     74  F   UNL A   1      46.452  31.638  30.792  1.00  0.00    -0.206 F 
ATOM     75  C   UNL A   1      46.788  33.810  29.966  1.00  0.00     0.040 A 
ATOM     76  C   UNL A   1      46.113  34.358  27.719  1.00  0.00     0.040 A 
ATOM     77  F   UNL A   1      45.101  32.722  26.370  1.00  0.00    -0.206 F 
ATOM     78  C   UNL A   1      46.686  34.737  28.930  1.00  0.00     0.006 A 
ENDBRANCH  50  71
BRANCH  62  79
ATOM     79  C   UNL A   1      48.861  26.285  26.453  1.00  0.00     0.057 A 
ATOM     80  C   UNL A   1      49.738  25.685  27.364  1.00  0.00     0.134 A 
ATOM     81  C   UNL A   1      49.357  26.604  25.183  1.00  0.00     0.134 A 
ATOM     82  F   UNL A   1      49.321  25.360  28.597  1.00  0.00    -0.206 F 
ATOM     83  C   UNL A   1      51.062  25.408  27.023  1.00  0.00     0.040 A 
ATOM     84  C   UNL A   1      50.674  26.314  24.824  1.00  0.00     0.040 A 
ATOM     85  F   UNL A   1      48.559  27.165  24.262  1.00  0.00    -0.206 F 
ATOM     86  C   UNL A   1      51.531  25.717  25.748  1.00  0.00     0.006 A 
ENDBRANCH  62  79
ENDBRANCH  36  37
ENDBRANCH  28  31
ENDBRANCH  26  27
ENDBRANCH  25  26
ENDBRANCH   1  25
TORSDOF 15
ENDMDL
MODEL 2
REMARK VINA RESULT:     -11.1      5.771     10.346
REMARK SMILES [NH3+][C@@H](CC1=C[C@H](S)c2ccccc2C1)C(=O)NCCCCNC(=O)c1ccc(-c2c3nc(c(-c4c(F)cccc4F)c4ccc([nH]4)c(-c4c(F)cccc4F)c4nc(c(-c5c(F)cccc5F)c5ccc2[nH]5)C=C4)C=C3)cc1
REMARK SMILES IDX 19 1 18 2 17 3 15 4 16 5 2 7 1 8 3 12 4 13 5 14 14 15 6 16
REMARK SMILES IDX 13 17 8 18 12 19 9 20 11 21 10 22 7 23 20 25 21 26 22 27
REMARK SMILES IDX 23 28 24 30 25 31 26 32 78 33 27 34 77 35 28 36 29 37 30 38
REMARK SMILES IDX 71 39 31 40 76 41 70 42 72 43 32 44 75 45 69 46 68 47 33 49
REMARK SMILES IDX 59 50 42 51 58 52 43 53 46 54 57 55 73 56 44 57 45 58 56 60
REMARK SMILES IDX 74 61 47 62 34 63 35 64 40 65 36 66 37 67 39 68 41 69 38 70
REMARK SMILES IDX 60 71 61 72 66 73 62 74 63 75 65 76 67 77 64 78 48 79 49 80
REMARK SMILES IDX 54 81 50 82 51 83 53 84 55 85 52 86
REMARK H PARENT 17 6 1 9 1 10 1 11 7 24 22 29 72 48 46 59
REMARK Flexibility Score: inf
ROOT
ATOM      1  C   UNL A   1      31.347  27.872  26.282  1.00  0.00     0.023 C 
ENDROOT
BRANCH   1   2
ATOM      2  C   UNL A   1      32.098  26.564  26.486  1.00  0.00     0.116 C 
BRANCH   2   3
ATOM      3  N   UNL A   1      31.284  25.468  26.957  1.00  0.00    -0.351 N 
ATOM      4  C   UNL A   1      31.135  24.203  26.460  1.00  0.00     0.278 C 
ATOM      5  O   UNL A   1      30.626  23.371  27.220  1.00  0.00    -0.268 OA
ATOM      6  H   UNL A   1      30.753  25.662  27.763  1.00  0.00     0.163 HD
BRANCH   4   7
ATOM      7  C   UNL A   1      31.583  23.785  25.038  1.00  0.00     0.275 C 
BRANCH   7   8
ATOM      8  N   UNL A   1      32.137  22.415  24.996  1.00  0.00    -0.347 N 
ATOM      9  H   UNL A   1      32.931  22.390  24.358  1.00  0.00     0.345 HD
ATOM     10  H   UNL A   1      31.419  21.768  24.672  1.00  0.00     0.345 HD
ATOM     11  H   UNL A   1      32.442  22.144  25.931  1.00  0.00     0.345 HD
ENDBRANCH   7   8
BRANCH   7  12
ATOM     12  C   UNL A   1      30.620  24.167  23.887  1.00  0.00     0.106 C 
BRANCH  12  13
ATOM     13  C   UNL A   1      30.489  25.614  23.464  1.00  0.00    -0.062 C 
ATOM     14  C   UNL A   1      31.452  26.271  22.791  1.00  0.00    -0.009 C 
ATOM     15  C   UNL A   1      29.203  26.298  23.874  1.00  0.00     0.066 C 
ATOM     16  C   UNL A   1      31.315  27.674  22.257  1.00  0.00     0.096 C 
ATOM     17  C   UNL A   1      28.974  27.662  23.268  1.00  0.00    -0.039 A 
ATOM     18  C   UNL A   1      29.951  28.301  22.481  1.00  0.00    -0.028 A 
ATOM     19  C   UNL A   1      27.738  28.294  23.490  1.00  0.00     0.004 A 
ATOM     20  C   UNL A   1      29.636  29.532  21.878  1.00  0.00     0.005 A 
ATOM     21  C   UNL A   1      27.453  29.527  22.906  1.00  0.00     0.000 A 
ATOM     22  C   UNL A   1      28.396  30.138  22.088  1.00  0.00     0.000 A 
BRANCH  16  23
ATOM     23  S   UNL A   1      32.659  28.674  22.973  1.00  0.00    -0.167 SA
ATOM     24  H   UNL A   1      33.544  29.008  21.996  1.00  0.00     0.103 HD
ENDBRANCH  16  23
ENDBRANCH  12  13
ENDBRANCH   7  12
ENDBRANCH   4   7
ENDBRANCH   2   3
ENDBRANCH   1   2
BRANCH   1  25
ATOM     25  C   UNL A   1      31.846  29.050  27.111  1.00  0.00     0.023 C 
BRANCH  25  26
ATOM     26  C   UNL A   1      32.617  30.126  26.354  1.00  0.00     0.116 C 
BRANCH  26  27
ATOM     27  N   UNL A   1      32.452  31.474  26.883  1.00  0.00    -0.352 N 
ATOM     28  C   UNL A   1      33.353  32.269  27.569  1.00  0.00     0.251 C 
ATOM     29  H   UNL A   1      31.568  31.880  26.729  1.00  0.00     0.163 HD
ATOM     30  O   UNL A   1      33.025  33.359  27.999  1.00  0.00    -0.269 OA
BRANCH  28  31
ATOM     31  C   UNL A   1      34.710  31.739  27.839  1.00  0.00     0.039 A 
ATOM     32  C   UNL A   1      34.906  30.379  28.076  1.00  0.00     0.014 A 
ATOM     33  C   UNL A   1      35.771  32.639  27.963  1.00  0.00     0.014 A 
ATOM     34  C   UNL A   1      36.089  29.959  28.672  1.00  0.00     0.010 A 
ATOM     35  C   UNL A   1      36.994  32.195  28.473  1.00  0.00     0.010 A 
ATOM     36  C   UNL A   1      37.131  30.870  28.915  1.00  0.00    -0.014 A 
BRANCH  36  37
ATOM     37  C   UNL A   1      38.312  30.438  29.710  1.00  0.00     0.031 A 
ATOM     38  C   UNL A   1      38.448  30.843  31.158  1.00  0.00     0.074 A 
ATOM     39  C   UNL A   1      39.223  29.614  29.159  1.00  0.00     0.049 A 
ATOM     40  N   UNL A   1      39.400  30.555  32.011  1.00  0.00    -0.248 NA
ATOM     41  C   UNL A   1      37.382  31.686  31.723  1.00  0.00     0.031 C 
ATOM     42  C   UNL A   1      39.198  29.127  27.778  1.00  0.00     0.029 A 
ATOM     43  N   UNL A   1      40.332  29.016  29.703  1.00  0.00    -0.354 N 
ATOM     44  C   UNL A   1      39.069  31.211  33.191  1.00  0.00     0.074 A 
ATOM     45  C   UNL A   1      37.835  31.922  32.945  1.00  0.00     0.031 C 
ATOM     46  C   UNL A   1      40.207  28.260  27.601  1.00  0.00     0.029 A 
ATOM     47  C   UNL A   1      40.983  28.176  28.833  1.00  0.00     0.049 A 
ATOM     48  H   UNL A   1      40.631  29.174  30.628  1.00  0.00     0.167 HD
ATOM     49  C   UNL A   1      39.727  31.214  34.375  1.00  0.00     0.037 A 
ATOM     50  C   UNL A   1      42.088  27.428  29.006  1.00  0.00     0.037 A 
ATOM     51  C   UNL A   1      40.920  30.458  34.647  1.00  0.00     0.049 A 
ATOM     52  C   UNL A   1      42.803  27.462  30.325  1.00  0.00     0.074 A 
ATOM     53  C   UNL A   1      41.626  30.356  35.835  1.00  0.00     0.029 A 
ATOM     54  N   UNL A   1      41.578  29.666  33.721  1.00  0.00    -0.354 N 
ATOM     55  N   UNL A   1      42.476  28.090  31.427  1.00  0.00    -0.248 NA
ATOM     56  C   UNL A   1      44.055  26.696  30.415  1.00  0.00     0.031 C 
ATOM     57  C   UNL A   1      42.728  29.521  35.618  1.00  0.00     0.029 A 
ATOM     58  C   UNL A   1      42.693  29.085  34.304  1.00  0.00     0.049 A 
ATOM     59  H   UNL A   1      41.296  29.534  32.787  1.00  0.00     0.167 HD
ATOM     60  C   UNL A   1      43.473  27.788  32.344  1.00  0.00     0.074 A 
ATOM     61  C   UNL A   1      44.406  26.905  31.676  1.00  0.00     0.031 C 
ATOM     62  C   UNL A   1      43.609  28.211  33.624  1.00  0.00     0.037 A 
BRANCH  49  63
ATOM     63  C   UNL A   1      39.178  32.074  35.474  1.00  0.00     0.057 A 
ATOM     64  C   UNL A   1      39.551  33.422  35.572  1.00  0.00     0.134 A 
ATOM     65  C   UNL A   1      38.332  31.563  36.465  1.00  0.00     0.134 A 
ATOM     66  F   UNL A   1      40.363  33.971  34.657  1.00  0.00    -0.206 F 
ATOM     67  C   UNL A   1      39.104  34.229  36.620  1.00  0.00     0.040 A 
ATOM     68  C   UNL A   1      37.865  32.364  37.508  1.00  0.00     0.040 A 
ATOM     69  F   UNL A   1      37.929  30.284  36.419  1.00  0.00    -0.206 F 
ATOM     70  C   UNL A   1      38.256  33.699  37.591  1.00  0.00     0.006 A 
ENDBRANCH  49  63
BRANCH  50  71
ATOM     71  C   UNL A   1      42.598  26.588  27.897  1.00  0.00     0.057 A 
ATOM     72  C   UNL A   1      42.210  25.251  27.757  1.00  0.00     0.134 A 
ATOM     73  C   UNL A   1      43.473  27.113  26.940  1.00  0.00     0.134 A 
ATOM     74  F   UNL A   1      41.374  24.693  28.645  1.00  0.00    -0.206 F 
ATOM     75  C   UNL A   1      42.680  24.461  26.709  1.00  0.00     0.040 A 
ATOM     76  C   UNL A   1      43.934  26.341  25.873  1.00  0.00     0.040 A 
ATOM     77  F   UNL A   1      43.862  28.394  27.012  1.00  0.00    -0.206 F 
ATOM     78  C   UNL A   1      43.540  25.009  25.759  1.00  0.00     0.006 A 
ENDBRANCH  50  71
BRANCH  62  79
ATOM     79  C   UNL A   1      44.801  27.708  34.377  1.00  0.00     0.057 A 
ATOM     80  C   UNL A   1      45.998  28.432  34.390  1.00  0.00     0.134 A 
ATOM     81  C   UNL A   1      44.761  26.501  35.085  1.00  0.00     0.134 A 
ATOM     82  F   UNL A   1      46.098  29.594  33.728  1.00  0.00    -0.206 F 
ATOM     83  C   UNL A   1      47.117  27.974  35.086  1.00  0.00     0.040 A 
ATOM     84  C   UNL A   1      45.867  26.041  35.801  1.00  0.00     0.040 A 
ATOM     85  F   UNL A   1      43.635  25.772  35.123  1.00  0.00    -0.206 F 
ATOM     86  C   UNL A   1      47.051  26.778  35.798  1.00  0.00     0.006 A 
ENDBRANCH  62  79
ENDBRANCH  36  37
ENDBRANCH  28  31
ENDBRANCH  26  27
ENDBRANCH  25  26
ENDBRANCH   1  25
TORSDOF 15
ENDMDL
MODEL 3
REMARK VINA RESULT:     -11.0      4.235      6.808
REMARK SMILES [NH3+][C@@H](CC1=C[C@H](S)c2ccccc2C1)C(=O)NCCCCNC(=O)c1ccc(-c2c3nc(c(-c4c(F)cccc4F)c4ccc([nH]4)c(-c4c(F)cccc4F)c4nc(c(-c5c(F)cccc5F)c5ccc2[nH]5)C=C4)C=C3)cc1
REMARK SMILES IDX 19 1 18 2 17 3 15 4 16 5 2 7 1 8 3 12 4 13 5 14 14 15 6 16
REMARK SMILES IDX 13 17 8 18 12 19 9 20 11 21 10 22 7 23 20 25 21 26 22 27
REMARK SMILES IDX 23 28 24 30 25 31 26 32 78 33 27 34 77 35 28 36 29 37 30 38
REMARK SMILES IDX 71 39 31 40 76 41 70 42 72 43 32 44 75 45 69 46 68 47 33 49
REMARK SMILES IDX 59 50 42 51 58 52 43 53 46 54 57 55 73 56 44 57 45 58 56 60
REMARK SMILES IDX 74 61 47 62 34 63 35 64 40 65 36 66 37 67 39 68 41 69 38 70
REMARK SMILES IDX 60 71 61 72 66 73 62 74 63 75 65 76 67 77 64 78 48 79 49 80
REMARK SMILES IDX 54 81 50 82 51 83 53 84 55 85 52 86
REMARK H PARENT 17 6 1 9 1 10 1 11 7 24 22 29 72 48 46 59
REMARK Flexibility Score: inf
ROOT
ATOM      1  C   UNL A   1      31.971  28.187  27.385  1.00  0.00     0.023 C 
ENDROOT
BRANCH   1   2
ATOM      2  C   UNL A   1      31.266  27.314  26.358  1.00  0.00     0.116 C 
BRANCH   2   3
ATOM      3  N   UNL A   1      30.751  26.069  26.876  1.00  0.00    -0.351 N 
ATOM      4  C   UNL A   1      30.746  24.818  26.322  1.00  0.00     0.278 C 
ATOM      5  O   UNL A   1      30.528  23.878  27.095  1.00  0.00    -0.268 OA
ATOM      6  H   UNL A   1      30.338  26.129  27.767  1.00  0.00     0.163 HD
BRANCH   4   7
ATOM      7  C   UNL A   1      31.012  24.547  24.821  1.00  0.00     0.275 C 
BRANCH   7   8
ATOM      8  N   UNL A   1      29.930  25.053  23.951  1.00  0.00    -0.347 N 
ATOM      9  H   UNL A   1      29.732  24.369  23.222  1.00  0.00     0.345 HD
ATOM     10  H   UNL A   1      30.222  25.932  23.523  1.00  0.00     0.345 HD
ATOM     11  H   UNL A   1      29.091  25.209  24.509  1.00  0.00     0.345 HD
ENDBRANCH   7   8
BRANCH   7  12
ATOM     12  C   UNL A   1      32.459  24.807  24.334  1.00  0.00     0.106 C 
BRANCH  12  13
ATOM     13  C   UNL A   1      33.532  23.767  24.571  1.00  0.00    -0.062 C 
ATOM     14  C   UNL A   1      33.432  22.497  24.133  1.00  0.00    -0.009 C 
ATOM     15  C   UNL A   1      34.730  24.238  25.366  1.00  0.00     0.066 C 
ATOM     16  C   UNL A   1      34.524  21.465  24.253  1.00  0.00     0.096 C 
ATOM     17  C   UNL A   1      35.893  23.276  25.413  1.00  0.00    -0.039 A 
ATOM     18  C   UNL A   1      35.813  21.981  24.865  1.00  0.00    -0.028 A 
ATOM     19  C   UNL A   1      37.091  23.704  26.012  1.00  0.00     0.004 A 
ATOM     20  C   UNL A   1      36.963  21.172  24.869  1.00  0.00     0.005 A 
ATOM     21  C   UNL A   1      38.213  22.877  26.031  1.00  0.00     0.000 A 
ATOM     22  C   UNL A   1      38.152  21.618  25.446  1.00  0.00     0.000 A 
BRANCH  16  23
ATOM     23  S   UNL A   1      33.846  20.045  25.170  1.00  0.00    -0.167 SA
ATOM     24  H   UNL A   1      34.565  19.858  26.309  1.00  0.00     0.103 HD
ENDBRANCH  16  23
ENDBRANCH  12  13
ENDBRANCH   7  12
ENDBRANCH   4   7
ENDBRANCH   2   3
ENDBRANCH   1   2
BRANCH   1  25
ATOM     25  C   UNL A   1      32.449  29.542  26.877  1.00  0.00     0.023 C 
BRANCH  25  26
ATOM     26  C   UNL A   1      33.902  29.898  27.175  1.00  0.00     0.116 C 
BRANCH  26  27
ATOM     27  N   UNL A   1      34.079  30.902  28.216  1.00  0.00    -0.352 N 
ATOM     28  C   UNL A   1      35.158  31.126  29.052  1.00  0.00     0.251 C 
ATOM     29  H   UNL A   1      33.316  31.512  28.344  1.00  0.00     0.163 HD
ATOM     30  O   UNL A   1      35.112  31.980  29.919  1.00  0.00    -0.269 OA
BRANCH  28  31
ATOM     31  C   UNL A   1      36.351  30.259  28.923  1.00  0.00     0.039 A 
ATOM     32  C   UNL A   1      36.795  29.498  30.004  1.00  0.00     0.014 A 
ATOM     33  C   UNL A   1      37.090  30.302  27.738  1.00  0.00     0.014 A 
ATOM     34  C   UNL A   1      38.087  28.987  29.988  1.00  0.00     0.010 A 
ATOM     35  C   UNL A   1      38.351  29.703  27.691  1.00  0.00     0.010 A 
ATOM     36  C   UNL A   1      38.895  29.119  28.846  1.00  0.00    -0.014 A 
BRANCH  36  37
ATOM     37  C   UNL A   1      40.328  28.723  28.912  1.00  0.00     0.031 A 
ATOM     38  C   UNL A   1      40.764  27.352  28.453  1.00  0.00     0.074 A 
ATOM     39  C   UNL A   1      41.251  29.620  29.307  1.00  0.00     0.049 A 
ATOM     40  N   UNL A   1      41.966  26.834  28.428  1.00  0.00    -0.248 NA
ATOM     41  C   UNL A   1      39.715  26.442  27.964  1.00  0.00     0.031 C 
ATOM     42  C   UNL A   1      40.968  30.985  29.753  1.00  0.00     0.029 A 
ATOM     43  N   UNL A   1      42.619  29.527  29.368  1.00  0.00    -0.354 N 
ATOM     44  C   UNL A   1      41.813  25.532  27.963  1.00  0.00     0.074 A 
ATOM     45  C   UNL A   1      40.400  25.333  27.728  1.00  0.00     0.031 C 
ATOM     46  C   UNL A   1      42.127  31.620  29.985  1.00  0.00     0.029 A 
ATOM     47  C   UNL A   1      43.230  30.692  29.763  1.00  0.00     0.049 A 
ATOM     48  H   UNL A   1      43.113  28.704  29.150  1.00  0.00     0.167 HD
ATOM     49  C   UNL A   1      42.761  24.591  27.742  1.00  0.00     0.037 A 
ATOM     50  C   UNL A   1      44.533  30.977  29.935  1.00  0.00     0.037 A 
ATOM     51  C   UNL A   1      44.175  24.801  27.912  1.00  0.00     0.049 A 
ATOM     52  C   UNL A   1      45.560  29.910  29.695  1.00  0.00     0.074 A 
ATOM     53  C   UNL A   1      45.215  23.923  27.659  1.00  0.00     0.029 A 
ATOM     54  N   UNL A   1      44.746  25.978  28.368  1.00  0.00    -0.354 N 
ATOM     55  N   UNL A   1      45.395  28.686  29.258  1.00  0.00    -0.248 NA
ATOM     56  C   UNL A   1      46.956  30.262  29.993  1.00  0.00     0.031 C 
ATOM     57  C   UNL A   1      46.417  24.561  27.989  1.00  0.00     0.029 A 
ATOM     58  C   UNL A   1      46.124  25.843  28.422  1.00  0.00     0.049 A 
ATOM     59  H   UNL A   1      44.247  26.790  28.616  1.00  0.00     0.167 HD
ATOM     60  C   UNL A   1      46.663  28.125  29.219  1.00  0.00     0.074 A 
ATOM     61  C   UNL A   1      47.590  29.148  29.658  1.00  0.00     0.031 C 
ATOM     62  C   UNL A   1      47.029  26.871  28.860  1.00  0.00     0.037 A 
BRANCH  49  63
ATOM     63  C   UNL A   1      42.305  23.232  27.301  1.00  0.00     0.057 A 
ATOM     64  C   UNL A   1      41.916  22.274  28.247  1.00  0.00     0.134 A 
ATOM     65  C   UNL A   1      42.303  22.851  25.955  1.00  0.00     0.134 A 
ATOM     66  F   UNL A   1      41.900  22.576  29.554  1.00  0.00    -0.206 F 
ATOM     67  C   UNL A   1      41.546  20.983  27.868  1.00  0.00     0.040 A 
ATOM     68  C   UNL A   1      41.919  21.568  25.561  1.00  0.00     0.040 A 
ATOM     69  F   UNL A   1      42.653  23.727  25.001  1.00  0.00    -0.206 F 
ATOM     70  C   UNL A   1      41.545  20.628  26.521  1.00  0.00     0.006 A 
ENDBRANCH  49  63
BRANCH  50  71
ATOM     71  C   UNL A   1      44.945  32.333  30.369  1.00  0.00     0.057 A 
ATOM     72  C   UNL A   1      45.225  33.342  29.440  1.00  0.00     0.134 A 
ATOM     73  C   UNL A   1      45.052  32.653  31.727  1.00  0.00     0.134 A 
ATOM     74  F   UNL A   1      45.141  33.093  28.125  1.00  0.00    -0.206 F 
ATOM     75  C   UNL A   1      45.603  34.621  29.846  1.00  0.00     0.040 A 
ATOM     76  C   UNL A   1      45.407  33.935  32.147  1.00  0.00     0.040 A 
ATOM     77  F   UNL A   1      44.776  31.732  32.661  1.00  0.00    -0.206 F 
ATOM     78  C   UNL A   1      45.689  34.922  31.204  1.00  0.00     0.006 A 
ENDBRANCH  50  71
BRANCH  62  79
ATOM     79  C   UNL A   1      48.490  26.552  28.915  1.00  0.00     0.057 A 
ATOM     80  C   UNL A   1      49.059  25.998  30.068  1.00  0.00     0.134 A 
ATOM     81  C   UNL A   1      49.333  26.801  27.826  1.00  0.00     0.134 A 
ATOM     82  F   UNL A   1      48.303  25.740  31.145  1.00  0.00    -0.206 F 
ATOM     83  C   UNL A   1      50.421  25.698  30.134  1.00  0.00     0.040 A 
ATOM     84  C   UNL A   1      50.692  26.488  27.873  1.00  0.00     0.040 A 
ATOM     85  F   UNL A   1      48.841  27.315  26.689  1.00  0.00    -0.206 F 
ATOM     86  C   UNL A   1      51.239  25.938  29.032  1.00  0.00     0.006 A 
ENDBRANCH  62  79
ENDBRANCH  36  37
ENDBRANCH  28  31
ENDBRANCH  26  27
ENDBRANCH  25  26
ENDBRANCH   1  25
TORSDOF 15
ENDMDL
