MODEL 1
REMARK VINA RESULT:     -11.6      0.000      0.000
REMARK SMILES CCCc1cc(OC(F)(F)F)cc2c1O[C@@H](C(F)(F)F)C(C(=O)NCCCCNC(=O)c1ccc(-c3c4nc(c(-c5c(F)cccc5F)c5ccc([nH]5)c(-c5c(F)cccc5F)c5nc(c(-c6c(F)cccc6F)c6ccc3[nH]6)C=C5)C=C4)cc1)=C2
REMARK SMILES IDX 26 1 25 2 24 3 22 4 23 5 21 7 4 8 5 9 14 10 6 11 13 12 15 13
REMARK SMILES IDX 12 14 86 15 16 16 3 17 2 18 1 19 7 20 8 21 9 22 10 23 11 24
REMARK SMILES IDX 17 25 18 26 19 27 20 28 27 29 28 30 29 31 30 32 31 34 32 35
REMARK SMILES IDX 33 36 85 37 34 38 84 39 35 40 36 41 37 42 78 43 38 44 83 45
REMARK SMILES IDX 77 46 79 47 39 48 82 49 76 50 75 51 40 53 66 54 49 55 65 56
REMARK SMILES IDX 50 57 53 58 64 59 80 60 51 61 52 62 63 64 81 65 54 66 41 67
REMARK SMILES IDX 42 68 47 69 43 70 44 71 46 72 48 73 45 74 67 75 68 76 73 77
REMARK SMILES IDX 69 78 70 79 72 80 74 81 71 82 55 83 56 84 61 85 57 86 58 87
REMARK SMILES IDX 60 88 62 89 59 90
REMARK H PARENT 24 6 29 33 79 52 53 63
REMARK Flexibility Score: inf
ROOT
ATOM      1  C   UNL A   1      37.256  21.376  24.483  1.00  0.00     0.023 C 
ENDROOT
BRANCH   1   2
ATOM      2  C   UNL A   1      36.712  22.211  25.650  1.00  0.00     0.116 C 
BRANCH   2   3
ATOM      3  N   UNL A   1      35.611  21.514  26.291  1.00  0.00    -0.352 N 
ATOM      4  C   UNL A   1      34.329  21.880  26.560  1.00  0.00     0.251 C 
ATOM      5  O   UNL A   1      33.655  21.138  27.270  1.00  0.00    -0.270 OA
ATOM      6  H   UNL A   1      35.836  20.603  26.588  1.00  0.00     0.163 HD
BRANCH   4   7
ATOM      7  C   UNL A   1      33.694  23.091  25.973  1.00  0.00     0.067 C 
ATOM      8  C   UNL A   1      31.999  26.385  23.978  1.00  0.00    -0.002 A 
ATOM      9  C   UNL A   1      32.291  27.683  24.445  1.00  0.00     0.054 A 
ATOM     10  C   UNL A   1      32.520  25.274  24.656  1.00  0.00     0.131 A 
ATOM     11  C   UNL A   1      33.062  27.874  25.588  1.00  0.00     0.130 A 
ATOM     12  C   UNL A   1      33.299  25.463  25.792  1.00  0.00     0.021 A 
ATOM     13  O   UNL A   1      32.270  24.040  24.133  1.00  0.00    -0.475 OA
ATOM     14  C   UNL A   1      33.563  26.757  26.257  1.00  0.00     0.058 A 
ATOM     15  C   UNL A   1      33.893  24.322  26.462  1.00  0.00     0.025 C 
ATOM     16  C   UNL A   1      32.675  22.845  24.865  1.00  0.00     0.314 C 
BRANCH   8  17
ATOM     17  C   UNL A   1      31.074  26.227  22.792  1.00  0.00     0.039 C 
BRANCH  17  18
ATOM     18  C   UNL A   1      31.738  26.627  21.469  1.00  0.00     0.001 C 
ATOM     19  C   UNL A   1      32.656  25.552  20.897  1.00  0.00     0.004 C 
ENDBRANCH  17  18
ENDBRANCH   8  17
BRANCH  11  20
ATOM     20  O   UNL A   1      33.403  29.069  26.152  1.00  0.00    -0.406 OA
BRANCH  20  21
ATOM     21  C   UNL A   1      32.382  29.802  26.810  1.00  0.00     0.573 C 
ATOM     22  F   UNL A   1      32.907  30.681  27.690  1.00  0.00    -0.132 F 
ATOM     23  F   UNL A   1      31.604  30.458  25.923  1.00  0.00    -0.132 F 
ATOM     24  F   UNL A   1      31.602  28.936  27.493  1.00  0.00    -0.132 F 
ENDBRANCH  20  21
ENDBRANCH  11  20
BRANCH  16  25
ATOM     25  C   UNL A   1      33.062  21.773  23.819  1.00  0.00     0.429 C 
ATOM     26  F   UNL A   1      34.330  21.908  23.373  1.00  0.00    -0.167 F 
ATOM     27  F   UNL A   1      32.997  20.524  24.354  1.00  0.00    -0.167 F 
ATOM     28  F   UNL A   1      32.237  21.781  22.746  1.00  0.00    -0.167 F 
ENDBRANCH  16  25
ENDBRANCH   4   7
ENDBRANCH   2   3
ENDBRANCH   1   2
BRANCH   1  29
ATOM     29  C   UNL A   1      37.958  20.084  24.909  1.00  0.00     0.023 C 
BRANCH  29  30
ATOM     30  C   UNL A   1      39.060  20.271  25.943  1.00  0.00     0.116 C 
BRANCH  30  31
ATOM     31  N   UNL A   1      40.159  19.331  25.782  1.00  0.00    -0.352 N 
ATOM     32  C   UNL A   1      41.500  19.541  26.000  1.00  0.00     0.251 C 
ATOM     33  H   UNL A   1      39.910  18.429  25.480  1.00  0.00     0.163 HD
ATOM     34  O   UNL A   1      42.318  18.675  25.721  1.00  0.00    -0.269 OA
BRANCH  32  35
ATOM     35  C   UNL A   1      41.946  20.845  26.531  1.00  0.00     0.039 A 
ATOM     36  C   UNL A   1      42.347  21.833  25.629  1.00  0.00     0.014 A 
ATOM     37  C   UNL A   1      41.935  21.101  27.904  1.00  0.00     0.014 A 
ATOM     38  C   UNL A   1      42.673  23.105  26.101  1.00  0.00     0.010 A 
ATOM     39  C   UNL A   1      42.196  22.385  28.367  1.00  0.00     0.010 A 
ATOM     40  C   UNL A   1      42.566  23.399  27.470  1.00  0.00    -0.014 A 
BRANCH  40  41
ATOM     41  C   UNL A   1      42.832  24.764  27.983  1.00  0.00     0.031 A 
ATOM     42  C   UNL A   1      44.224  25.157  28.390  1.00  0.00     0.074 A 
ATOM     43  C   UNL A   1      41.809  25.622  28.148  1.00  0.00     0.049 A 
ATOM     44  N   UNL A   1      44.643  26.275  28.924  1.00  0.00    -0.248 NA
ATOM     45  C   UNL A   1      45.279  24.149  28.195  1.00  0.00     0.031 C 
ATOM     46  C   UNL A   1      40.406  25.338  27.839  1.00  0.00     0.029 A 
ATOM     47  N   UNL A   1      41.789  26.907  28.628  1.00  0.00    -0.354 N 
ATOM     48  C   UNL A   1      46.003  26.100  29.144  1.00  0.00     0.074 A 
ATOM     49  C   UNL A   1      46.329  24.752  28.732  1.00  0.00     0.031 C 
ATOM     50  C   UNL A   1      39.665  26.423  28.119  1.00  0.00     0.029 A 
ATOM     51  C   UNL A   1      40.534  27.466  28.655  1.00  0.00     0.049 A 
ATOM     52  H   UNL A   1      42.597  27.384  28.925  1.00  0.00     0.167 HD
ATOM     53  C   UNL A   1      46.902  26.990  29.625  1.00  0.00     0.037 A 
ATOM     54  C   UNL A   1      40.132  28.681  29.069  1.00  0.00     0.037 A 
ATOM     55  C   UNL A   1      46.580  28.339  30.008  1.00  0.00     0.049 A 
ATOM     56  C   UNL A   1      41.151  29.655  29.589  1.00  0.00     0.074 A 
ATOM     57  C   UNL A   1      47.430  29.339  30.446  1.00  0.00     0.029 A 
ATOM     58  N   UNL A   1      45.302  28.878  29.994  1.00  0.00    -0.354 N 
ATOM     59  N   UNL A   1      42.445  29.501  29.729  1.00  0.00    -0.248 NA
ATOM     60  C   UNL A   1      40.655  30.975  30.004  1.00  0.00     0.031 C 
ATOM     61  C   UNL A   1      46.662  30.472  30.731  1.00  0.00     0.029 A 
ATOM     62  C   UNL A   1      45.339  30.192  30.432  1.00  0.00     0.049 A 
ATOM     63  H   UNL A   1      44.489  28.399  29.714  1.00  0.00     0.167 HD
ATOM     64  C   UNL A   1      42.922  30.708  30.220  1.00  0.00     0.074 A 
ATOM     65  C   UNL A   1      41.779  31.590  30.343  1.00  0.00     0.031 C 
ATOM     66  C   UNL A   1      44.192  31.056  30.541  1.00  0.00     0.037 A 
BRANCH  53  67
ATOM     67  C   UNL A   1      48.323  26.530  29.758  1.00  0.00     0.057 A 
ATOM     68  C   UNL A   1      49.268  26.755  28.747  1.00  0.00     0.134 A 
ATOM     69  C   UNL A   1      48.761  25.880  30.918  1.00  0.00     0.134 A 
ATOM     70  F   UNL A   1      48.909  27.360  27.606  1.00  0.00    -0.206 F 
ATOM     71  C   UNL A   1      50.590  26.325  28.874  1.00  0.00     0.040 A 
ATOM     72  C   UNL A   1      50.086  25.468  31.068  1.00  0.00     0.040 A 
ATOM     73  F   UNL A   1      47.909  25.637  31.926  1.00  0.00    -0.206 F 
ATOM     74  C   UNL A   1      51.003  25.685  30.040  1.00  0.00     0.006 A 
ENDBRANCH  53  67
BRANCH  54  75
ATOM     75  C   UNL A   1      38.699  29.057  28.981  1.00  0.00     0.057 A 
ATOM     76  C   UNL A   1      38.148  29.515  27.778  1.00  0.00     0.134 A 
ATOM     77  C   UNL A   1      37.850  28.976  30.091  1.00  0.00     0.134 A 
ATOM     78  F   UNL A   1      38.917  29.630  26.686  1.00  0.00    -0.206 F 
ATOM     79  C   UNL A   1      36.809  29.894  27.686  1.00  0.00     0.040 A 
ATOM     80  C   UNL A   1      36.503  29.331  30.006  1.00  0.00     0.040 A 
ATOM     81  F   UNL A   1      38.317  28.538  31.269  1.00  0.00    -0.206 F 
ATOM     82  C   UNL A   1      35.980  29.798  28.803  1.00  0.00     0.006 A 
ENDBRANCH  54  75
BRANCH  66  83
ATOM     83  C   UNL A   1      44.415  32.457  31.024  1.00  0.00     0.057 A 
ATOM     84  C   UNL A   1      44.662  33.513  30.139  1.00  0.00     0.134 A 
ATOM     85  C   UNL A   1      44.342  32.759  32.390  1.00  0.00     0.134 A 
ATOM     86  F   UNL A   1      44.758  33.285  28.820  1.00  0.00    -0.206 F 
ATOM     87  C   UNL A   1      44.849  34.818  30.596  1.00  0.00     0.040 A 
ATOM     88  C   UNL A   1      44.503  34.064  32.857  1.00  0.00     0.040 A 
ATOM     89  F   UNL A   1      44.100  31.793  33.290  1.00  0.00    -0.206 F 
ATOM     90  C   UNL A   1      44.763  35.097  31.959  1.00  0.00     0.006 A 
ENDBRANCH  66  83
ENDBRANCH  40  41
ENDBRANCH  32  35
ENDBRANCH  30  31
ENDBRANCH  29  30
ENDBRANCH   1  29
TORSDOF 16
ENDMDL
MODEL 2
REMARK VINA RESULT:     -11.5      3.377      8.813
REMARK SMILES CCCc1cc(OC(F)(F)F)cc2c1O[C@@H](C(F)(F)F)C(C(=O)NCCCCNC(=O)c1ccc(-c3c4nc(c(-c5c(F)cccc5F)c5ccc([nH]5)c(-c5c(F)cccc5F)c5nc(c(-c6c(F)cccc6F)c6ccc3[nH]6)C=C5)C=C4)cc1)=C2
REMARK SMILES IDX 26 1 25 2 24 3 22 4 23 5 21 7 4 8 5 9 14 10 6 11 13 12 15 13
REMARK SMILES IDX 12 14 86 15 16 16 3 17 2 18 1 19 7 20 8 21 9 22 10 23 11 24
REMARK SMILES IDX 17 25 18 26 19 27 20 28 27 29 28 30 29 31 30 32 31 34 32 35
REMARK SMILES IDX 33 36 85 37 34 38 84 39 35 40 36 41 37 42 78 43 38 44 83 45
REMARK SMILES IDX 77 46 79 47 39 48 82 49 76 50 75 51 40 53 66 54 49 55 65 56
REMARK SMILES IDX 50 57 53 58 64 59 80 60 51 61 52 62 63 64 81 65 54 66 41 67
REMARK SMILES IDX 42 68 47 69 43 70 44 71 46 72 48 73 45 74 67 75 68 76 73 77
REMARK SMILES IDX 69 78 70 79 72 80 74 81 71 82 55 83 56 84 61 85 57 86 58 87
REMARK SMILES IDX 60 88 62 89 59 90
REMARK H PARENT 24 6 29 33 79 52 53 63
REMARK Flexibility Score: inf
ROOT
ATOM      1  C   UNL A   1      31.765  30.149  26.774  1.00  0.00     0.023 C 
ENDROOT
BRANCH   1   2
ATOM      2  C   UNL A   1      32.972  29.647  25.973  1.00  0.00     0.116 C 
BRANCH   2   3
ATOM      3  N   UNL A   1      32.647  29.597  24.559  1.00  0.00    -0.352 N 
ATOM      4  C   UNL A   1      32.679  28.589  23.647  1.00  0.00     0.251 C 
ATOM      5  O   UNL A   1      32.504  28.874  22.465  1.00  0.00    -0.270 OA
ATOM      6  H   UNL A   1      32.347  30.458  24.189  1.00  0.00     0.163 HD
BRANCH   4   7
ATOM      7  C   UNL A   1      32.839  27.159  24.028  1.00  0.00     0.067 C 
ATOM      8  C   UNL A   1      32.986  23.156  25.317  1.00  0.00    -0.002 A 
ATOM      9  C   UNL A   1      34.212  22.641  25.787  1.00  0.00     0.054 A 
ATOM     10  C   UNL A   1      32.928  24.474  24.844  1.00  0.00     0.131 A 
ATOM     11  C   UNL A   1      35.370  23.414  25.758  1.00  0.00     0.130 A 
ATOM     12  C   UNL A   1      34.081  25.251  24.823  1.00  0.00     0.021 A 
ATOM     13  O   UNL A   1      31.711  24.956  24.460  1.00  0.00    -0.475 OA
ATOM     14  C   UNL A   1      35.296  24.719  25.273  1.00  0.00     0.058 A 
ATOM     15  C   UNL A   1      34.016  26.635  24.393  1.00  0.00     0.025 C 
ATOM     16  C   UNL A   1      31.613  26.272  23.840  1.00  0.00     0.314 C 
BRANCH   8  17
ATOM     17  C   UNL A   1      31.779  22.246  25.276  1.00  0.00     0.039 C 
BRANCH  17  18
ATOM     18  C   UNL A   1      32.156  20.778  25.049  1.00  0.00     0.001 C 
ATOM     19  C   UNL A   1      32.296  20.404  23.577  1.00  0.00     0.004 C 
ENDBRANCH  17  18
ENDBRANCH   8  17
BRANCH  11  20
ATOM     20  O   UNL A   1      36.615  23.032  26.165  1.00  0.00    -0.406 OA
BRANCH  20  21
ATOM     21  C   UNL A   1      37.302  22.076  25.375  1.00  0.00     0.573 C 
ATOM     22  F   UNL A   1      38.590  21.961  25.765  1.00  0.00    -0.132 F 
ATOM     23  F   UNL A   1      36.701  20.869  25.438  1.00  0.00    -0.132 F 
ATOM     24  F   UNL A   1      37.287  22.487  24.089  1.00  0.00    -0.132 F 
ENDBRANCH  20  21
ENDBRANCH  11  20
BRANCH  16  25
ATOM     25  C   UNL A   1      30.262  26.887  24.275  1.00  0.00     0.429 C 
ATOM     26  F   UNL A   1      29.784  27.785  23.385  1.00  0.00    -0.167 F 
ATOM     27  F   UNL A   1      29.300  25.931  24.377  1.00  0.00    -0.167 F 
ATOM     28  F   UNL A   1      30.339  27.493  25.482  1.00  0.00    -0.167 F 
ENDBRANCH  16  25
ENDBRANCH   4   7
ENDBRANCH   2   3
ENDBRANCH   1   2
BRANCH   1  29
ATOM     29  C   UNL A   1      31.576  31.668  26.740  1.00  0.00     0.023 C 
BRANCH  29  30
ATOM     30  C   UNL A   1      32.803  32.469  27.152  1.00  0.00     0.116 C 
BRANCH  30  31
ATOM     31  N   UNL A   1      32.477  33.787  27.675  1.00  0.00    -0.352 N 
ATOM     32  C   UNL A   1      33.168  34.534  28.599  1.00  0.00     0.251 C 
ATOM     33  H   UNL A   1      31.654  34.196  27.322  1.00  0.00     0.163 HD
ATOM     34  O   UNL A   1      32.708  35.588  29.016  1.00  0.00    -0.269 OA
BRANCH  32  35
ATOM     35  C   UNL A   1      34.453  34.023  29.119  1.00  0.00     0.039 A 
ATOM     36  C   UNL A   1      34.443  33.234  30.271  1.00  0.00     0.014 A 
ATOM     37  C   UNL A   1      35.652  34.292  28.453  1.00  0.00     0.014 A 
ATOM     38  C   UNL A   1      35.631  32.657  30.721  1.00  0.00     0.010 A 
ATOM     39  C   UNL A   1      36.821  33.664  28.863  1.00  0.00     0.010 A 
ATOM     40  C   UNL A   1      36.822  32.839  29.999  1.00  0.00    -0.014 A 
BRANCH  40  41
ATOM     41  C   UNL A   1      38.078  32.172  30.414  1.00  0.00     0.031 A 
ATOM     42  C   UNL A   1      38.981  32.825  31.422  1.00  0.00     0.074 A 
ATOM     43  C   UNL A   1      38.439  31.014  29.830  1.00  0.00     0.049 A 
ATOM     44  N   UNL A   1      40.150  32.435  31.859  1.00  0.00    -0.248 NA
ATOM     45  C   UNL A   1      38.519  34.100  31.993  1.00  0.00     0.031 C 
ATOM     46  C   UNL A   1      37.672  30.309  28.801  1.00  0.00     0.029 A 
ATOM     47  N   UNL A   1      39.549  30.230  30.012  1.00  0.00    -0.354 N 
ATOM     48  C   UNL A   1      40.571  33.421  32.741  1.00  0.00     0.074 A 
ATOM     49  C   UNL A   1      39.555  34.452  32.740  1.00  0.00     0.031 C 
ATOM     50  C   UNL A   1      38.326  29.187  28.457  1.00  0.00     0.029 A 
ATOM     51  C   UNL A   1      39.569  29.110  29.216  1.00  0.00     0.049 A 
ATOM     52  H   UNL A   1      40.265  30.448  30.652  1.00  0.00     0.167 HD
ATOM     53  C   UNL A   1      41.691  33.454  33.500  1.00  0.00     0.037 A 
ATOM     54  C   UNL A   1      40.490  28.134  29.111  1.00  0.00     0.037 A 
ATOM     55  C   UNL A   1      42.685  32.414  33.520  1.00  0.00     0.049 A 
ATOM     56  C   UNL A   1      41.720  28.188  29.972  1.00  0.00     0.074 A 
ATOM     57  C   UNL A   1      43.823  32.323  34.301  1.00  0.00     0.029 A 
ATOM     58  N   UNL A   1      42.656  31.281  32.720  1.00  0.00    -0.354 N 
ATOM     59  N   UNL A   1      42.073  29.093  30.852  1.00  0.00    -0.248 NA
ATOM     60  C   UNL A   1      42.678  27.082  29.830  1.00  0.00     0.031 C 
ATOM     61  C   UNL A   1      44.502  31.152  33.949  1.00  0.00     0.029 A 
ATOM     62  C   UNL A   1      43.766  30.494  32.978  1.00  0.00     0.049 A 
ATOM     63  H   UNL A   1      41.952  31.068  32.067  1.00  0.00     0.167 HD
ATOM     64  C   UNL A   1      43.276  28.653  31.388  1.00  0.00     0.074 A 
ATOM     65  C   UNL A   1      43.587  27.395  30.742  1.00  0.00     0.031 C 
ATOM     66  C   UNL A   1      44.055  29.240  32.330  1.00  0.00     0.037 A 
BRANCH  53  67
ATOM     67  C   UNL A   1      41.894  34.654  34.376  1.00  0.00     0.057 A 
ATOM     68  C   UNL A   1      42.507  35.821  33.899  1.00  0.00     0.134 A 
ATOM     69  C   UNL A   1      41.449  34.655  35.704  1.00  0.00     0.134 A 
ATOM     70  F   UNL A   1      42.967  35.879  32.641  1.00  0.00    -0.206 F 
ATOM     71  C   UNL A   1      42.694  36.935  34.718  1.00  0.00     0.040 A 
ATOM     72  C   UNL A   1      41.607  35.772  36.525  1.00  0.00     0.040 A 
ATOM     73  F   UNL A   1      40.851  33.572  36.223  1.00  0.00    -0.206 F 
ATOM     74  C   UNL A   1      42.237  36.914  36.034  1.00  0.00     0.006 A 
ENDBRANCH  53  67
BRANCH  54  75
ATOM     75  C   UNL A   1      40.270  27.006  28.173  1.00  0.00     0.057 A 
ATOM     76  C   UNL A   1      39.480  25.909  28.540  1.00  0.00     0.134 A 
ATOM     77  C   UNL A   1      40.843  26.991  26.896  1.00  0.00     0.134 A 
ATOM     78  F   UNL A   1      38.920  25.860  29.757  1.00  0.00    -0.206 F 
ATOM     79  C   UNL A   1      39.283  24.830  27.678  1.00  0.00     0.040 A 
ATOM     80  C   UNL A   1      40.635  25.928  26.015  1.00  0.00     0.040 A 
ATOM     81  F   UNL A   1      41.602  28.016  26.483  1.00  0.00    -0.206 F 
ATOM     82  C   UNL A   1      39.858  24.840  26.408  1.00  0.00     0.006 A 
ENDBRANCH  54  75
BRANCH  66  83
ATOM     83  C   UNL A   1      45.298  28.510  32.740  1.00  0.00     0.057 A 
ATOM     84  C   UNL A   1      45.291  27.554  33.762  1.00  0.00     0.134 A 
ATOM     85  C   UNL A   1      46.510  28.739  32.075  1.00  0.00     0.134 A 
ATOM     86  F   UNL A   1      44.164  27.300  34.446  1.00  0.00    -0.206 F 
ATOM     87  C   UNL A   1      46.449  26.865  34.124  1.00  0.00     0.040 A 
ATOM     88  C   UNL A   1      47.669  28.039  32.411  1.00  0.00     0.040 A 
ATOM     89  F   UNL A   1      46.582  29.637  31.080  1.00  0.00    -0.206 F 
ATOM     90  C   UNL A   1      47.641  27.103  33.442  1.00  0.00     0.006 A 
ENDBRANCH  66  83
ENDBRANCH  40  41
ENDBRANCH  32  35
ENDBRANCH  30  31
ENDBRANCH  29  30
ENDBRANCH   1  29
TORSDOF 16
ENDMDL
MODEL 3
REMARK VINA RESULT:     -11.4      4.200      8.939
REMARK SMILES CCCc1cc(OC(F)(F)F)cc2c1O[C@@H](C(F)(F)F)C(C(=O)NCCCCNC(=O)c1ccc(-c3c4nc(c(-c5c(F)cccc5F)c5ccc([nH]5)c(-c5c(F)cccc5F)c5nc(c(-c6c(F)cccc6F)c6ccc3[nH]6)C=C5)C=C4)cc1)=C2
REMARK SMILES IDX 26 1 25 2 24 3 22 4 23 5 21 7 4 8 5 9 14 10 6 11 13 12 15 13
REMARK SMILES IDX 12 14 86 15 16 16 3 17 2 18 1 19 7 20 8 21 9 22 10 23 11 24
REMARK SMILES IDX 17 25 18 26 19 27 20 28 27 29 28 30 29 31 30 32 31 34 32 35
REMARK SMILES IDX 33 36 85 37 34 38 84 39 35 40 36 41 37 42 78 43 38 44 83 45
REMARK SMILES IDX 77 46 79 47 39 48 82 49 76 50 75 51 40 53 66 54 49 55 65 56
REMARK SMILES IDX 50 57 53 58 64 59 80 60 51 61 52 62 63 64 81 65 54 66 41 67
REMARK SMILES IDX 42 68 47 69 43 70 44 71 46 72 48 73 45 74 67 75 68 76 73 77
REMARK SMILES IDX 69 78 70 79 72 80 74 81 71 82 55 83 56 84 61 85 57 86 58 87
REMARK SMILES IDX 60 88 62 89 59 90
REMARK H PARENT 24 6 29 33 79 52 53 63
REMARK Flexibility Score: inf
ROOT
ATOM      1  C   UNL A   1      31.988  30.065  26.887  1.00  0.00     0.023 C 
ENDROOT
BRANCH   1   2
ATOM      2  C   UNL A   1      33.134  29.569  25.997  1.00  0.00     0.116 C 
BRANCH   2   3
ATOM      3  N   UNL A   1      32.713  29.552  24.606  1.00  0.00    -0.352 N 
ATOM      4  C   UNL A   1      32.666  28.561  23.677  1.00  0.00     0.251 C 
ATOM      5  O   UNL A   1      32.417  28.871  22.515  1.00  0.00    -0.270 OA
ATOM      6  H   UNL A   1      32.404  30.425  24.274  1.00  0.00     0.163 HD
BRANCH   4   7
ATOM      7  C   UNL A   1      32.825  27.121  24.020  1.00  0.00     0.067 C 
ATOM      8  C   UNL A   1      32.974  23.088  25.209  1.00  0.00    -0.002 A 
ATOM      9  C   UNL A   1      34.205  22.556  25.646  1.00  0.00     0.054 A 
ATOM     10  C   UNL A   1      32.915  24.417  24.769  1.00  0.00     0.131 A 
ATOM     11  C   UNL A   1      35.366  23.323  25.615  1.00  0.00     0.130 A 
ATOM     12  C   UNL A   1      34.071  25.189  24.747  1.00  0.00     0.021 A 
ATOM     13  O   UNL A   1      31.694  24.913  24.418  1.00  0.00    -0.475 OA
ATOM     14  C   UNL A   1      35.291  24.641  25.164  1.00  0.00     0.058 A 
ATOM     15  C   UNL A   1      34.006  26.583  24.352  1.00  0.00     0.025 C 
ATOM     16  C   UNL A   1      31.592  26.245  23.831  1.00  0.00     0.314 C 
BRANCH   8  17
ATOM     17  C   UNL A   1      31.762  22.184  25.166  1.00  0.00     0.039 C 
BRANCH  17  18
ATOM     18  C   UNL A   1      32.135  20.705  25.021  1.00  0.00     0.001 C 
ATOM     19  C   UNL A   1      32.355  20.269  23.577  1.00  0.00     0.004 C 
ENDBRANCH  17  18
ENDBRANCH   8  17
BRANCH  11  20
ATOM     20  O   UNL A   1      36.616  22.927  25.992  1.00  0.00    -0.406 OA
BRANCH  20  21
ATOM     21  C   UNL A   1      37.286  21.988  25.167  1.00  0.00     0.573 C 
ATOM     22  F   UNL A   1      38.623  22.053  25.346  1.00  0.00    -0.132 F 
ATOM     23  F   UNL A   1      36.857  20.732  25.408  1.00  0.00    -0.132 F 
ATOM     24  F   UNL A   1      37.020  22.283  23.876  1.00  0.00    -0.132 F 
ENDBRANCH  20  21
ENDBRANCH  11  20
BRANCH  16  25
ATOM     25  C   UNL A   1      30.251  26.855  24.304  1.00  0.00     0.429 C 
ATOM     26  F   UNL A   1      30.389  27.641  25.395  1.00  0.00    -0.167 F 
ATOM     27  F   UNL A   1      29.715  27.657  23.345  1.00  0.00    -0.167 F 
ATOM     28  F   UNL A   1      29.326  25.908  24.583  1.00  0.00    -0.167 F 
ENDBRANCH  16  25
ENDBRANCH   4   7
ENDBRANCH   2   3
ENDBRANCH   1   2
BRANCH   1  29
ATOM     29  C   UNL A   1      31.732  31.572  26.799  1.00  0.00     0.023 C 
BRANCH  29  30
ATOM     30  C   UNL A   1      32.934  32.441  27.142  1.00  0.00     0.116 C 
BRANCH  30  31
ATOM     31  N   UNL A   1      32.568  33.789  27.548  1.00  0.00    -0.352 N 
ATOM     32  C   UNL A   1      33.129  34.566  28.534  1.00  0.00     0.251 C 
ATOM     33  H   UNL A   1      31.822  34.198  27.053  1.00  0.00     0.163 HD
ATOM     34  O   UNL A   1      32.639  35.648  28.826  1.00  0.00    -0.269 OA
BRANCH  32  35
ATOM     35  C   UNL A   1      34.303  34.055  29.270  1.00  0.00     0.039 A 
ATOM     36  C   UNL A   1      34.093  33.206  30.359  1.00  0.00     0.014 A 
ATOM     37  C   UNL A   1      35.600  34.382  28.865  1.00  0.00     0.014 A 
ATOM     38  C   UNL A   1      35.188  32.630  31.004  1.00  0.00     0.010 A 
ATOM     39  C   UNL A   1      36.686  33.756  29.465  1.00  0.00     0.010 A 
ATOM     40  C   UNL A   1      36.491  32.874  30.539  1.00  0.00    -0.014 A 
BRANCH  40  41
ATOM     41  C   UNL A   1      37.662  32.211  31.158  1.00  0.00     0.031 A 
ATOM     42  C   UNL A   1      38.370  31.101  30.434  1.00  0.00     0.074 A 
ATOM     43  C   UNL A   1      38.043  32.562  32.401  1.00  0.00     0.049 A 
ATOM     44  N   UNL A   1      39.365  30.355  30.837  1.00  0.00    -0.248 NA
ATOM     45  C   UNL A   1      37.873  30.769  29.089  1.00  0.00     0.031 C 
ATOM     46  C   UNL A   1      37.402  33.587  33.226  1.00  0.00     0.029 A 
ATOM     47  N   UNL A   1      39.056  32.084  33.192  1.00  0.00    -0.354 N 
ATOM     48  C   UNL A   1      39.604  29.456  29.806  1.00  0.00     0.074 A 
ATOM     49  C   UNL A   1      38.617  29.718  28.779  1.00  0.00     0.031 C 
ATOM     50  C   UNL A   1      38.050  33.675  34.400  1.00  0.00     0.029 A 
ATOM     51  C   UNL A   1      39.129  32.693  34.422  1.00  0.00     0.049 A 
ATOM     52  H   UNL A   1      39.673  31.372  32.908  1.00  0.00     0.167 HD
ATOM     53  C   UNL A   1      40.571  28.514  29.713  1.00  0.00     0.037 A 
ATOM     54  C   UNL A   1      39.970  32.480  35.450  1.00  0.00     0.037 A 
ATOM     55  C   UNL A   1      41.567  28.276  30.723  1.00  0.00     0.049 A 
ATOM     56  C   UNL A   1      41.041  31.435  35.319  1.00  0.00     0.074 A 
ATOM     57  C   UNL A   1      42.629  27.388  30.696  1.00  0.00     0.029 A 
ATOM     58  N   UNL A   1      41.626  28.933  31.943  1.00  0.00    -0.354 N 
ATOM     59  N   UNL A   1      41.299  30.638  34.310  1.00  0.00    -0.248 NA
ATOM     60  C   UNL A   1      41.945  31.264  36.466  1.00  0.00     0.031 C 
ATOM     61  C   UNL A   1      43.309  27.483  31.914  1.00  0.00     0.029 A 
ATOM     62  C   UNL A   1      42.696  28.458  32.684  1.00  0.00     0.049 A 
ATOM     63  H   UNL A   1      41.000  29.633  32.238  1.00  0.00     0.167 HD
ATOM     64  C   UNL A   1      42.407  29.892  34.688  1.00  0.00     0.074 A 
ATOM     65  C   UNL A   1      42.780  30.339  36.014  1.00  0.00     0.031 C 
ATOM     66  C   UNL A   1      43.056  28.922  33.999  1.00  0.00     0.037 A 
BRANCH  53  67
ATOM     67  C   UNL A   1      40.598  27.675  28.470  1.00  0.00     0.057 A 
ATOM     68  C   UNL A   1      41.339  28.053  27.342  1.00  0.00     0.134 A 
ATOM     69  C   UNL A   1      39.899  26.463  28.408  1.00  0.00     0.134 A 
ATOM     70  F   UNL A   1      42.020  29.208  27.333  1.00  0.00    -0.206 F 
ATOM     71  C   UNL A   1      41.362  27.269  26.187  1.00  0.00     0.040 A 
ATOM     72  C   UNL A   1      39.935  25.659  27.268  1.00  0.00     0.040 A 
ATOM     73  F   UNL A   1      39.173  26.040  29.453  1.00  0.00    -0.206 F 
ATOM     74  C   UNL A   1      40.663  26.065  26.151  1.00  0.00     0.006 A 
ENDBRANCH  53  67
BRANCH  54  75
ATOM     75  C   UNL A   1      39.850  33.292  36.686  1.00  0.00     0.057 A 
ATOM     76  C   UNL A   1      40.600  34.463  36.852  1.00  0.00     0.134 A 
ATOM     77  C   UNL A   1      38.995  32.920  37.729  1.00  0.00     0.134 A 
ATOM     78  F   UNL A   1      41.450  34.860  35.894  1.00  0.00    -0.206 F 
ATOM     79  C   UNL A   1      40.516  35.225  38.017  1.00  0.00     0.040 A 
ATOM     80  C   UNL A   1      38.884  33.685  38.891  1.00  0.00     0.040 A 
ATOM     81  F   UNL A   1      38.244  31.813  37.626  1.00  0.00    -0.206 F 
ATOM     82  C   UNL A   1      39.652  34.838  39.040  1.00  0.00     0.006 A 
ENDBRANCH  54  75
BRANCH  66  83
ATOM     83  C   UNL A   1      44.255  28.305  34.654  1.00  0.00     0.057 A 
ATOM     84  C   UNL A   1      45.536  28.853  34.517  1.00  0.00     0.134 A 
ATOM     85  C   UNL A   1      44.118  27.170  35.465  1.00  0.00     0.134 A 
ATOM     86  F   UNL A   1      45.733  29.931  33.743  1.00  0.00    -0.206 F 
ATOM     87  C   UNL A   1      46.643  28.283  35.146  1.00  0.00     0.040 A 
ATOM     88  C   UNL A   1      45.214  26.606  36.118  1.00  0.00     0.040 A 
ATOM     89  F   UNL A   1      42.916  26.601  35.643  1.00  0.00    -0.206 F 
ATOM     90  C   UNL A   1      46.482  27.160  35.956  1.00  0.00     0.006 A 
ENDBRANCH  66  83
ENDBRANCH  40  41
ENDBRANCH  32  35
ENDBRANCH  30  31
ENDBRANCH  29  30
ENDBRANCH   1  29
TORSDOF 16
ENDMDL
