MODEL 1
REMARK VINA RESULT:     -11.5      0.000      0.000
REMARK SMILES COc1ccc(C(=O)C2=C(NCCCCNC(=O)c3ccc(-c4c5nc(c(-c6c(F)cccc6F)c6ccc([nH]6)c(-c6c(F)cccc6F)c6nc(c(-c7c(F)cccc7F)c7ccc4[nH]7)C=C6)C=C5)cc3)C(=O)N(CC(=O)[O-])[C@H]2c2ccccc2)cc1
REMARK SMILES IDX 13 1 12 2 11 3 10 5 9 6 80 7 73 8 75 9 74 10 7 11 8 12 6 13
REMARK SMILES IDX 3 14 4 15 88 16 5 17 87 18 2 19 1 20 81 21 82 22 86 23 83 24
REMARK SMILES IDX 85 25 84 26 76 27 77 28 78 29 79 30 14 31 15 32 16 33 17 34
REMARK SMILES IDX 18 36 19 37 20 38 72 39 21 40 71 41 22 42 23 43 24 44 65 45
REMARK SMILES IDX 25 46 70 47 64 48 66 49 26 50 69 51 63 52 62 53 27 55 53 56
REMARK SMILES IDX 36 57 52 58 37 59 40 60 51 61 67 62 38 63 39 64 50 66 68 67
REMARK SMILES IDX 41 68 28 69 29 70 34 71 30 72 31 73 33 74 35 75 32 76 54 77
REMARK SMILES IDX 55 78 60 79 56 80 57 81 59 82 61 83 58 84 42 85 43 86 48 87
REMARK SMILES IDX 44 88 45 89 47 90 49 91 46 92
REMARK H PARENT 11 4 16 35 66 54 40 65
REMARK Flexibility Score: inf
ROOT
ATOM      1  C   UNL A   1      37.269  22.492  24.628  1.00  0.00     0.023 C 
ENDROOT
BRANCH   1   2
ATOM      2  C   UNL A   1      36.506  22.963  23.392  1.00  0.00     0.113 C 
BRANCH   2   3
ATOM      3  N   UNL A   1      35.112  22.603  23.498  1.00  0.00    -0.380 N 
ATOM      4  H   UNL A   1      34.857  21.772  23.037  1.00  0.00     0.160 HD
BRANCH   3   5
ATOM      5  C   UNL A   1      34.091  23.249  24.144  1.00  0.00     0.110 C 
ATOM      6  C   UNL A   1      33.277  24.283  23.886  1.00  0.00     0.056 C 
ATOM      7  C   UNL A   1      32.261  24.560  24.956  1.00  0.00     0.153 C 
ATOM      8  C   UNL A   1      33.630  22.740  25.481  1.00  0.00     0.271 C 
ATOM      9  N   UNL A   1      32.540  23.478  25.870  1.00  0.00    -0.320 N 
ATOM     10  O   UNL A   1      34.160  21.821  26.088  1.00  0.00    -0.267 OA
BRANCH   6  11
ATOM     11  C   UNL A   1      33.230  24.972  22.586  1.00  0.00     0.193 C 
ATOM     12  O   UNL A   1      33.704  24.422  21.595  1.00  0.00    -0.289 OA
BRANCH  11  13
ATOM     13  C   UNL A   1      32.599  26.321  22.472  1.00  0.00     0.023 A 
ATOM     14  C   UNL A   1      31.287  28.818  22.526  1.00  0.00     0.118 A 
ATOM     15  C   UNL A   1      30.572  27.647  22.268  1.00  0.00     0.047 A 
ATOM     16  C   UNL A   1      32.666  28.741  22.694  1.00  0.00     0.047 A 
ATOM     17  C   UNL A   1      31.218  26.403  22.251  1.00  0.00     0.016 A 
ATOM     18  C   UNL A   1      33.318  27.506  22.622  1.00  0.00     0.016 A 
BRANCH  14  19
ATOM     19  O   UNL A   1      30.539  29.959  22.593  1.00  0.00    -0.497 OA
ATOM     20  C   UNL A   1      29.731  30.124  23.754  1.00  0.00     0.278 C 
ENDBRANCH  14  19
ENDBRANCH  11  13
ENDBRANCH   6  11
BRANCH   7  21
ATOM     21  C   UNL A   1      32.447  25.915  25.628  1.00  0.00    -0.021 A 
ATOM     22  C   UNL A   1      33.732  26.431  25.903  1.00  0.00     0.006 A 
ATOM     23  C   UNL A   1      31.332  26.708  25.933  1.00  0.00     0.006 A 
ATOM     24  C   UNL A   1      33.895  27.716  26.421  1.00  0.00     0.000 A 
ATOM     25  C   UNL A   1      31.499  27.988  26.468  1.00  0.00     0.000 A 
ATOM     26  C   UNL A   1      32.778  28.495  26.699  1.00  0.00     0.000 A 
ENDBRANCH   7  21
BRANCH   9  27
ATOM     27  C   UNL A   1      31.842  23.274  27.131  1.00  0.00     0.173 C 
BRANCH  27  28
ATOM     28  C   UNL A   1      30.379  22.884  27.000  1.00  0.00     0.061 C 
ATOM     29  O   UNL A   1      29.454  23.427  27.586  1.00  0.00    -0.548 OA
ATOM     30  O   UNL A   1      30.125  21.932  26.079  1.00  0.00    -0.548 OA
ENDBRANCH  27  28
ENDBRANCH   9  27
ENDBRANCH   3   5
ENDBRANCH   2   3
ENDBRANCH   1   2
BRANCH   1  31
ATOM     31  C   UNL A   1      37.816  21.066  24.538  1.00  0.00     0.023 C 
BRANCH  31  32
ATOM     32  C   UNL A   1      38.254  20.456  25.865  1.00  0.00     0.116 C 
BRANCH  32  33
ATOM     33  N   UNL A   1      39.362  19.524  25.724  1.00  0.00    -0.352 N 
ATOM     34  C   UNL A   1      40.701  19.725  25.950  1.00  0.00     0.251 C 
ATOM     35  H   UNL A   1      39.116  18.619  25.422  1.00  0.00     0.163 HD
ATOM     36  O   UNL A   1      41.514  18.858  25.643  1.00  0.00    -0.269 OA
BRANCH  34  37
ATOM     37  C   UNL A   1      41.167  20.997  26.543  1.00  0.00     0.039 A 
ATOM     38  C   UNL A   1      41.625  22.009  25.694  1.00  0.00     0.014 A 
ATOM     39  C   UNL A   1      41.164  21.191  27.926  1.00  0.00     0.014 A 
ATOM     40  C   UNL A   1      42.033  23.231  26.232  1.00  0.00     0.010 A 
ATOM     41  C   UNL A   1      41.488  22.438  28.453  1.00  0.00     0.010 A 
ATOM     42  C   UNL A   1      41.944  23.465  27.613  1.00  0.00    -0.014 A 
BRANCH  42  43
ATOM     43  C   UNL A   1      42.372  24.759  28.205  1.00  0.00     0.031 A 
ATOM     44  C   UNL A   1      41.368  25.867  28.387  1.00  0.00     0.074 A 
ATOM     45  C   UNL A   1      43.662  24.956  28.539  1.00  0.00     0.049 A 
ATOM     46  N   UNL A   1      41.551  27.089  28.818  1.00  0.00    -0.248 NA
ATOM     47  C   UNL A   1      39.976  25.570  28.008  1.00  0.00     0.031 C 
ATOM     48  C   UNL A   1      44.741  23.979  28.375  1.00  0.00     0.029 A 
ATOM     49  N   UNL A   1      44.288  26.052  29.080  1.00  0.00    -0.354 N 
ATOM     50  C   UNL A   1      40.306  27.703  28.753  1.00  0.00     0.074 A 
ATOM     51  C   UNL A   1      39.388  26.744  28.180  1.00  0.00     0.031 C 
ATOM     52  C   UNL A   1      45.888  24.512  28.826  1.00  0.00     0.029 A 
ATOM     53  C   UNL A   1      45.638  25.878  29.274  1.00  0.00     0.049 A 
ATOM     54  H   UNL A   1      43.815  26.884  29.308  1.00  0.00     0.167 HD
ATOM     55  C   UNL A   1      39.949  28.942  29.166  1.00  0.00     0.037 A 
ATOM     56  C   UNL A   1      46.567  26.729  29.751  1.00  0.00     0.037 A 
ATOM     57  C   UNL A   1      40.856  29.889  29.759  1.00  0.00     0.049 A 
ATOM     58  C   UNL A   1      46.144  28.106  30.187  1.00  0.00     0.074 A 
ATOM     59  C   UNL A   1      40.585  31.159  30.235  1.00  0.00     0.029 A 
ATOM     60  N   UNL A   1      42.208  29.664  29.962  1.00  0.00    -0.354 N 
ATOM     61  N   UNL A   1      44.952  28.653  30.169  1.00  0.00    -0.248 NA
ATOM     62  C   UNL A   1      47.195  28.982  30.723  1.00  0.00     0.031 C 
ATOM     63  C   UNL A   1      41.782  31.719  30.692  1.00  0.00     0.029 A 
ATOM     64  C   UNL A   1      42.787  30.775  30.552  1.00  0.00     0.049 A 
ATOM     65  H   UNL A   1      42.687  28.836  29.723  1.00  0.00     0.167 HD
ATOM     66  C   UNL A   1      45.104  29.915  30.731  1.00  0.00     0.074 A 
ATOM     67  C   UNL A   1      46.499  30.047  31.090  1.00  0.00     0.031 C 
ATOM     68  C   UNL A   1      44.173  30.879  30.930  1.00  0.00     0.037 A 
BRANCH  55  69
ATOM     69  C   UNL A   1      38.509  29.339  29.009  1.00  0.00     0.057 A 
ATOM     70  C   UNL A   1      37.980  29.712  27.766  1.00  0.00     0.134 A 
ATOM     71  C   UNL A   1      37.630  29.300  30.099  1.00  0.00     0.134 A 
ATOM     72  F   UNL A   1      38.771  29.784  26.685  1.00  0.00    -0.206 F 
ATOM     73  C   UNL A   1      36.635  30.051  27.616  1.00  0.00     0.040 A 
ATOM     74  C   UNL A   1      36.276  29.607  29.956  1.00  0.00     0.040 A 
ATOM     75  F   UNL A   1      38.068  28.946  31.316  1.00  0.00    -0.206 F 
ATOM     76  C   UNL A   1      35.777  29.989  28.712  1.00  0.00     0.006 A 
ENDBRANCH  55  69
BRANCH  56  77
ATOM     77  C   UNL A   1      47.990  26.311  29.858  1.00  0.00     0.057 A 
ATOM     78  C   UNL A   1      48.866  26.434  28.771  1.00  0.00     0.134 A 
ATOM     79  C   UNL A   1      48.495  25.729  31.026  1.00  0.00     0.134 A 
ATOM     80  F   UNL A   1      48.438  26.968  27.617  1.00  0.00    -0.206 F 
ATOM     81  C   UNL A   1      50.176  25.958  28.828  1.00  0.00     0.040 A 
ATOM     82  C   UNL A   1      49.814  25.277  31.108  1.00  0.00     0.040 A 
ATOM     83  F   UNL A   1      47.714  25.590  32.107  1.00  0.00    -0.206 F 
ATOM     84  C   UNL A   1      50.653  25.377  30.001  1.00  0.00     0.006 A 
ENDBRANCH  56  77
BRANCH  68  85
ATOM     85  C   UNL A   1      44.616  32.132  31.629  1.00  0.00     0.057 A 
ATOM     86  C   UNL A   1      45.047  33.265  30.928  1.00  0.00     0.134 A 
ATOM     87  C   UNL A   1      44.583  32.210  33.027  1.00  0.00     0.134 A 
ATOM     88  F   UNL A   1      45.113  33.254  29.589  1.00  0.00    -0.206 F 
ATOM     89  C   UNL A   1      45.462  34.420  31.595  1.00  0.00     0.040 A 
ATOM     90  C   UNL A   1      44.964  33.369  33.704  1.00  0.00     0.040 A 
ATOM     91  F   UNL A   1      44.168  31.165  33.760  1.00  0.00    -0.206 F 
ATOM     92  C   UNL A   1      45.415  34.476  32.987  1.00  0.00     0.006 A 
ENDBRANCH  68  85
ENDBRANCH  42  43
ENDBRANCH  34  37
ENDBRANCH  32  33
ENDBRANCH  31  32
ENDBRANCH   1  31
TORSDOF 17
ENDMDL
MODEL 2
REMARK VINA RESULT:     -11.5      3.298      8.136
REMARK SMILES COc1ccc(C(=O)C2=C(NCCCCNC(=O)c3ccc(-c4c5nc(c(-c6c(F)cccc6F)c6ccc([nH]6)c(-c6c(F)cccc6F)c6nc(c(-c7c(F)cccc7F)c7ccc4[nH]7)C=C6)C=C5)cc3)C(=O)N(CC(=O)[O-])[C@H]2c2ccccc2)cc1
REMARK SMILES IDX 13 1 12 2 11 3 10 5 9 6 80 7 73 8 75 9 74 10 7 11 8 12 6 13
REMARK SMILES IDX 3 14 4 15 88 16 5 17 87 18 2 19 1 20 81 21 82 22 86 23 83 24
REMARK SMILES IDX 85 25 84 26 76 27 77 28 78 29 79 30 14 31 15 32 16 33 17 34
REMARK SMILES IDX 18 36 19 37 20 38 72 39 21 40 71 41 22 42 23 43 24 44 65 45
REMARK SMILES IDX 25 46 70 47 64 48 66 49 26 50 69 51 63 52 62 53 27 55 53 56
REMARK SMILES IDX 36 57 52 58 37 59 40 60 51 61 67 62 38 63 39 64 50 66 68 67
REMARK SMILES IDX 41 68 28 69 29 70 34 71 30 72 31 73 33 74 35 75 32 76 54 77
REMARK SMILES IDX 55 78 60 79 56 80 57 81 59 82 61 83 58 84 42 85 43 86 48 87
REMARK SMILES IDX 44 88 45 89 47 90 49 91 46 92
REMARK H PARENT 11 4 16 35 66 54 40 65
REMARK Flexibility Score: inf
ROOT
ATOM      1  C   UNL A   1      32.607  27.243  23.196  1.00  0.00     0.023 C 
ENDROOT
BRANCH   1   2
ATOM      2  C   UNL A   1      33.538  26.288  22.452  1.00  0.00     0.113 C 
BRANCH   2   3
ATOM      3  N   UNL A   1      32.931  24.983  22.342  1.00  0.00    -0.380 N 
ATOM      4  H   UNL A   1      32.460  24.809  21.495  1.00  0.00     0.160 HD
BRANCH   3   5
ATOM      5  C   UNL A   1      32.913  23.950  23.243  1.00  0.00     0.110 C 
ATOM      6  C   UNL A   1      33.785  23.035  23.688  1.00  0.00     0.056 C 
ATOM      7  C   UNL A   1      33.246  22.127  24.756  1.00  0.00     0.153 C 
ATOM      8  C   UNL A   1      31.667  23.696  24.043  1.00  0.00     0.271 C 
ATOM      9  N   UNL A   1      31.930  22.691  24.940  1.00  0.00    -0.320 N 
ATOM     10  O   UNL A   1      30.616  24.302  23.893  1.00  0.00    -0.267 OA
BRANCH   6  11
ATOM     11  C   UNL A   1      35.212  23.030  23.326  1.00  0.00     0.193 C 
ATOM     12  O   UNL A   1      35.533  23.149  22.147  1.00  0.00    -0.289 OA
BRANCH  11  13
ATOM     13  C   UNL A   1      36.257  22.899  24.385  1.00  0.00     0.023 A 
ATOM     14  C   UNL A   1      38.433  22.679  26.166  1.00  0.00     0.118 A 
ATOM     15  C   UNL A   1      38.067  21.601  25.358  1.00  0.00     0.047 A 
ATOM     16  C   UNL A   1      37.670  23.843  26.124  1.00  0.00     0.047 A 
ATOM     17  C   UNL A   1      36.993  21.710  24.464  1.00  0.00     0.016 A 
ATOM     18  C   UNL A   1      36.566  23.931  25.272  1.00  0.00     0.016 A 
BRANCH  14  19
ATOM     19  O   UNL A   1      39.542  22.482  26.940  1.00  0.00    -0.497 OA
ATOM     20  C   UNL A   1      40.384  21.391  26.582  1.00  0.00     0.278 C 
ENDBRANCH  14  19
ENDBRANCH  11  13
ENDBRANCH   6  11
BRANCH   7  21
ATOM     21  C   UNL A   1      33.167  20.668  24.325  1.00  0.00    -0.021 A 
ATOM     22  C   UNL A   1      32.327  20.256  23.267  1.00  0.00     0.006 A 
ATOM     23  C   UNL A   1      33.985  19.708  24.937  1.00  0.00     0.006 A 
ATOM     24  C   UNL A   1      32.341  18.939  22.809  1.00  0.00     0.000 A 
ATOM     25  C   UNL A   1      33.982  18.385  24.487  1.00  0.00     0.000 A 
ATOM     26  C   UNL A   1      33.172  18.005  23.417  1.00  0.00     0.000 A 
ENDBRANCH   7  21
BRANCH   9  27
ATOM     27  C   UNL A   1      30.939  22.166  25.870  1.00  0.00     0.173 C 
BRANCH  27  28
ATOM     28  C   UNL A   1      30.543  23.114  26.990  1.00  0.00     0.061 C 
ATOM     29  O   UNL A   1      29.504  23.046  27.630  1.00  0.00    -0.548 OA
ATOM     30  O   UNL A   1      31.486  24.014  27.333  1.00  0.00    -0.548 OA
ENDBRANCH  27  28
ENDBRANCH   9  27
ENDBRANCH   3   5
ENDBRANCH   2   3
ENDBRANCH   1   2
BRANCH   1  31
ATOM     31  C   UNL A   1      33.107  27.681  24.574  1.00  0.00     0.023 C 
BRANCH  31  32
ATOM     32  C   UNL A   1      33.723  29.075  24.625  1.00  0.00     0.116 C 
BRANCH  32  33
ATOM     33  N   UNL A   1      32.840  30.067  25.218  1.00  0.00    -0.352 N 
ATOM     34  C   UNL A   1      32.948  30.718  26.421  1.00  0.00     0.251 C 
ATOM     35  H   UNL A   1      32.050  30.303  24.680  1.00  0.00     0.163 HD
ATOM     36  O   UNL A   1      32.029  31.424  26.824  1.00  0.00    -0.269 OA
BRANCH  34  37
ATOM     37  C   UNL A   1      34.165  30.550  27.245  1.00  0.00     0.039 A 
ATOM     38  C   UNL A   1      34.484  29.277  27.725  1.00  0.00     0.014 A 
ATOM     39  C   UNL A   1      34.983  31.640  27.554  1.00  0.00     0.014 A 
ATOM     40  C   UNL A   1      35.650  29.090  28.472  1.00  0.00     0.010 A 
ATOM     41  C   UNL A   1      36.185  31.438  28.223  1.00  0.00     0.010 A 
ATOM     42  C   UNL A   1      36.522  30.164  28.706  1.00  0.00    -0.014 A 
BRANCH  42  43
ATOM     43  C   UNL A   1      37.768  29.988  29.497  1.00  0.00     0.031 A 
ATOM     44  C   UNL A   1      38.884  29.134  28.954  1.00  0.00     0.074 A 
ATOM     45  C   UNL A   1      37.881  30.554  30.714  1.00  0.00     0.049 A 
ATOM     46  N   UNL A   1      40.018  28.798  29.515  1.00  0.00    -0.248 NA
ATOM     47  C   UNL A   1      38.688  28.559  27.612  1.00  0.00     0.031 C 
ATOM     48  C   UNL A   1      36.857  31.369  31.371  1.00  0.00     0.029 A 
ATOM     49  N   UNL A   1      38.911  30.522  31.622  1.00  0.00    -0.354 N 
ATOM     50  C   UNL A   1      40.660  27.971  28.602  1.00  0.00     0.074 A 
ATOM     51  C   UNL A   1      39.764  27.800  27.480  1.00  0.00     0.031 C 
ATOM     52  C   UNL A   1      37.319  31.776  32.565  1.00  0.00     0.029 A 
ATOM     53  C   UNL A   1      38.652  31.222  32.777  1.00  0.00     0.049 A 
ATOM     54  H   UNL A   1      39.756  30.043  31.462  1.00  0.00     0.167 HD
ATOM     55  C   UNL A   1      41.899  27.429  28.673  1.00  0.00     0.037 A 
ATOM     56  C   UNL A   1      39.403  31.389  33.882  1.00  0.00     0.037 A 
ATOM     57  C   UNL A   1      42.801  27.618  29.779  1.00  0.00     0.049 A 
ATOM     58  C   UNL A   1      40.770  30.761  33.940  1.00  0.00     0.074 A 
ATOM     59  C   UNL A   1      44.088  27.134  29.933  1.00  0.00     0.029 A 
ATOM     60  N   UNL A   1      42.511  28.356  30.915  1.00  0.00    -0.354 N 
ATOM     61  N   UNL A   1      41.385  30.026  33.046  1.00  0.00    -0.248 NA
ATOM     62  C   UNL A   1      41.554  30.998  35.160  1.00  0.00     0.031 C 
ATOM     63  C   UNL A   1      44.563  27.547  31.181  1.00  0.00     0.029 A 
ATOM     64  C   UNL A   1      43.593  28.335  31.779  1.00  0.00     0.049 A 
ATOM     65  H   UNL A   1      41.661  28.825  31.084  1.00  0.00     0.167 HD
ATOM     66  C   UNL A   1      42.640  29.752  33.575  1.00  0.00     0.074 A 
ATOM     67  C   UNL A   1      42.704  30.410  34.861  1.00  0.00     0.031 C 
ATOM     68  C   UNL A   1      43.650  29.020  33.044  1.00  0.00     0.037 A 
BRANCH  55  69
ATOM     69  C   UNL A   1      42.362  26.596  27.513  1.00  0.00     0.057 A 
ATOM     70  C   UNL A   1      43.084  27.153  26.449  1.00  0.00     0.134 A 
ATOM     71  C   UNL A   1      42.129  25.214  27.482  1.00  0.00     0.134 A 
ATOM     72  F   UNL A   1      43.328  28.471  26.410  1.00  0.00    -0.206 F 
ATOM     73  C   UNL A   1      43.540  26.371  25.386  1.00  0.00     0.040 A 
ATOM     74  C   UNL A   1      42.606  24.417  26.440  1.00  0.00     0.040 A 
ATOM     75  F   UNL A   1      41.450  24.615  28.471  1.00  0.00    -0.206 F 
ATOM     76  C   UNL A   1      43.310  24.997  25.386  1.00  0.00     0.006 A 
ENDBRANCH  55  69
BRANCH  56  77
ATOM     77  C   UNL A   1      38.896  32.192  35.026  1.00  0.00     0.057 A 
ATOM     78  C   UNL A   1      39.069  33.582  35.069  1.00  0.00     0.134 A 
ATOM     79  C   UNL A   1      38.278  31.588  36.127  1.00  0.00     0.134 A 
ATOM     80  F   UNL A   1      39.670  34.219  34.053  1.00  0.00    -0.206 F 
ATOM     81  C   UNL A   1      38.684  34.334  36.180  1.00  0.00     0.040 A 
ATOM     82  C   UNL A   1      37.859  32.332  37.231  1.00  0.00     0.040 A 
ATOM     83  F   UNL A   1      38.072  30.263  36.146  1.00  0.00    -0.206 F 
ATOM     84  C   UNL A   1      38.076  33.708  37.266  1.00  0.00     0.006 A 
ENDBRANCH  56  77
BRANCH  68  85
ATOM     85  C   UNL A   1      44.933  28.952  33.821  1.00  0.00     0.057 A 
ATOM     86  C   UNL A   1      45.956  29.894  33.659  1.00  0.00     0.134 A 
ATOM     87  C   UNL A   1      45.133  27.938  34.768  1.00  0.00     0.134 A 
ATOM     88  F   UNL A   1      45.834  30.884  32.761  1.00  0.00    -0.206 F 
ATOM     89  C   UNL A   1      47.146  29.812  34.385  1.00  0.00     0.040 A 
ATOM     90  C   UNL A   1      46.303  27.864  35.523  1.00  0.00     0.040 A 
ATOM     91  F   UNL A   1      44.188  27.010  34.983  1.00  0.00    -0.206 F 
ATOM     92  C   UNL A   1      47.319  28.797  35.325  1.00  0.00     0.006 A 
ENDBRANCH  68  85
ENDBRANCH  42  43
ENDBRANCH  34  37
ENDBRANCH  32  33
ENDBRANCH  31  32
ENDBRANCH   1  31
TORSDOF 17
ENDMDL
MODEL 3
REMARK VINA RESULT:     -11.4      3.331      7.205
REMARK SMILES COc1ccc(C(=O)C2=C(NCCCCNC(=O)c3ccc(-c4c5nc(c(-c6c(F)cccc6F)c6ccc([nH]6)c(-c6c(F)cccc6F)c6nc(c(-c7c(F)cccc7F)c7ccc4[nH]7)C=C6)C=C5)cc3)C(=O)N(CC(=O)[O-])[C@H]2c2ccccc2)cc1
REMARK SMILES IDX 13 1 12 2 11 3 10 5 9 6 80 7 73 8 75 9 74 10 7 11 8 12 6 13
REMARK SMILES IDX 3 14 4 15 88 16 5 17 87 18 2 19 1 20 81 21 82 22 86 23 83 24
REMARK SMILES IDX 85 25 84 26 76 27 77 28 78 29 79 30 14 31 15 32 16 33 17 34
REMARK SMILES IDX 18 36 19 37 20 38 72 39 21 40 71 41 22 42 23 43 24 44 65 45
REMARK SMILES IDX 25 46 70 47 64 48 66 49 26 50 69 51 63 52 62 53 27 55 53 56
REMARK SMILES IDX 36 57 52 58 37 59 40 60 51 61 67 62 38 63 39 64 50 66 68 67
REMARK SMILES IDX 41 68 28 69 29 70 34 71 30 72 31 73 33 74 35 75 32 76 54 77
REMARK SMILES IDX 55 78 60 79 56 80 57 81 59 82 61 83 58 84 42 85 43 86 48 87
REMARK SMILES IDX 44 88 45 89 47 90 49 91 46 92
REMARK H PARENT 11 4 16 35 66 54 40 65
REMARK Flexibility Score: inf
ROOT
ATOM      1  C   UNL A   1      32.467  27.382  23.012  1.00  0.00     0.023 C 
ENDROOT
BRANCH   1   2
ATOM      2  C   UNL A   1      33.563  26.441  22.516  1.00  0.00     0.113 C 
BRANCH   2   3
ATOM      3  N   UNL A   1      33.037  25.108  22.346  1.00  0.00    -0.380 N 
ATOM      4  H   UNL A   1      32.647  24.920  21.462  1.00  0.00     0.160 HD
BRANCH   3   5
ATOM      5  C   UNL A   1      33.001  24.064  23.234  1.00  0.00     0.110 C 
ATOM      6  C   UNL A   1      33.859  23.135  23.677  1.00  0.00     0.056 C 
ATOM      7  C   UNL A   1      33.301  22.220  24.728  1.00  0.00     0.153 C 
ATOM      8  C   UNL A   1      31.745  23.813  24.020  1.00  0.00     0.271 C 
ATOM      9  N   UNL A   1      31.989  22.795  24.907  1.00  0.00    -0.320 N 
ATOM     10  O   UNL A   1      30.702  24.432  23.868  1.00  0.00    -0.267 OA
BRANCH   6  11
ATOM     11  C   UNL A   1      35.289  23.120  23.328  1.00  0.00     0.193 C 
ATOM     12  O   UNL A   1      35.624  23.268  22.155  1.00  0.00    -0.289 OA
BRANCH  11  13
ATOM     13  C   UNL A   1      36.322  22.944  24.392  1.00  0.00     0.023 A 
ATOM     14  C   UNL A   1      38.478  22.636  26.185  1.00  0.00     0.118 A 
ATOM     15  C   UNL A   1      38.092  21.584  25.354  1.00  0.00     0.047 A 
ATOM     16  C   UNL A   1      37.743  23.819  26.160  1.00  0.00     0.047 A 
ATOM     17  C   UNL A   1      37.028  21.736  24.455  1.00  0.00     0.016 A 
ATOM     18  C   UNL A   1      36.648  23.950  25.301  1.00  0.00     0.016 A 
BRANCH  14  19
ATOM     19  O   UNL A   1      39.574  22.398  26.965  1.00  0.00    -0.497 OA
ATOM     20  C   UNL A   1      40.368  21.267  26.619  1.00  0.00     0.278 C 
ENDBRANCH  14  19
ENDBRANCH  11  13
ENDBRANCH   6  11
BRANCH   7  21
ATOM     21  C   UNL A   1      33.212  20.767  24.278  1.00  0.00    -0.021 A 
ATOM     22  C   UNL A   1      33.935  19.747  24.935  1.00  0.00     0.006 A 
ATOM     23  C   UNL A   1      32.352  20.405  23.232  1.00  0.00     0.006 A 
ATOM     24  C   UNL A   1      33.767  18.407  24.585  1.00  0.00     0.000 A 
ATOM     25  C   UNL A   1      32.200  19.063  22.874  1.00  0.00     0.000 A 
ATOM     26  C   UNL A   1      32.896  18.066  23.557  1.00  0.00     0.000 A 
ENDBRANCH   7  21
BRANCH   9  27
ATOM     27  C   UNL A   1      30.985  22.269  25.820  1.00  0.00     0.173 C 
BRANCH  27  28
ATOM     28  C   UNL A   1      30.750  23.104  27.068  1.00  0.00     0.061 C 
ATOM     29  O   UNL A   1      31.563  23.871  27.561  1.00  0.00    -0.548 OA
ATOM     30  O   UNL A   1      29.500  23.036  27.570  1.00  0.00    -0.548 OA
ENDBRANCH  27  28
ENDBRANCH   9  27
ENDBRANCH   3   5
ENDBRANCH   2   3
ENDBRANCH   1   2
BRANCH   1  31
ATOM     31  C   UNL A   1      32.616  27.828  24.469  1.00  0.00     0.023 C 
BRANCH  31  32
ATOM     32  C   UNL A   1      33.427  29.102  24.675  1.00  0.00     0.116 C 
BRANCH  32  33
ATOM     33  N   UNL A   1      32.685  30.144  25.368  1.00  0.00    -0.352 N 
ATOM     34  C   UNL A   1      32.953  30.748  26.571  1.00  0.00     0.251 C 
ATOM     35  H   UNL A   1      31.873  30.459  24.908  1.00  0.00     0.163 HD
ATOM     36  O   UNL A   1      32.134  31.514  27.070  1.00  0.00    -0.269 OA
BRANCH  34  37
ATOM     37  C   UNL A   1      34.219  30.459  27.277  1.00  0.00     0.039 A 
ATOM     38  C   UNL A   1      35.088  31.516  27.565  1.00  0.00     0.014 A 
ATOM     39  C   UNL A   1      34.557  29.155  27.647  1.00  0.00     0.014 A 
ATOM     40  C   UNL A   1      36.270  31.269  28.267  1.00  0.00     0.010 A 
ATOM     41  C   UNL A   1      35.690  28.923  28.419  1.00  0.00     0.010 A 
ATOM     42  C   UNL A   1      36.569  29.975  28.721  1.00  0.00    -0.014 A 
BRANCH  42  43
ATOM     43  C   UNL A   1      37.821  29.690  29.470  1.00  0.00     0.031 A 
ATOM     44  C   UNL A   1      38.043  30.317  30.821  1.00  0.00     0.074 A 
ATOM     45  C   UNL A   1      38.773  28.909  28.923  1.00  0.00     0.049 A 
ATOM     46  N   UNL A   1      39.091  30.253  31.602  1.00  0.00    -0.248 NA
ATOM     47  C   UNL A   1      36.951  31.149  31.354  1.00  0.00     0.031 C 
ATOM     48  C   UNL A   1      38.698  28.275  27.605  1.00  0.00     0.029 A 
ATOM     49  N   UNL A   1      39.997  28.521  29.408  1.00  0.00    -0.354 N 
ATOM     50  C   UNL A   1      38.788  31.039  32.707  1.00  0.00     0.074 A 
ATOM     51  C   UNL A   1      37.488  31.624  32.468  1.00  0.00     0.031 C 
ATOM     52  C   UNL A   1      39.816  27.561  27.396  1.00  0.00     0.029 A 
ATOM     53  C   UNL A   1      40.703  27.716  28.545  1.00  0.00     0.049 A 
ATOM     54  H   UNL A   1      40.337  28.792  30.290  1.00  0.00     0.167 HD
ATOM     55  C   UNL A   1      39.511  31.230  33.836  1.00  0.00     0.037 A 
ATOM     56  C   UNL A   1      41.930  27.174  28.666  1.00  0.00     0.037 A 
ATOM     57  C   UNL A   1      40.794  30.629  34.086  1.00  0.00     0.049 A 
ATOM     58  C   UNL A   1      42.718  27.417  29.926  1.00  0.00     0.074 A 
ATOM     59  C   UNL A   1      41.593  30.739  35.210  1.00  0.00     0.029 A 
ATOM     60  N   UNL A   1      41.461  29.800  33.198  1.00  0.00    -0.354 N 
ATOM     61  N   UNL A   1      42.394  28.120  30.985  1.00  0.00    -0.248 NA
ATOM     62  C   UNL A   1      44.039  26.780  30.012  1.00  0.00     0.031 C 
ATOM     63  C   UNL A   1      42.763  30.007  34.988  1.00  0.00     0.029 A 
ATOM     64  C   UNL A   1      42.667  29.396  33.748  1.00  0.00     0.049 A 
ATOM     65  H   UNL A   1      41.129  29.538  32.309  1.00  0.00     0.167 HD
ATOM     66  C   UNL A   1      43.449  27.971  31.877  1.00  0.00     0.074 A 
ATOM     67  C   UNL A   1      44.415  27.102  31.241  1.00  0.00     0.031 C 
ATOM     68  C   UNL A   1      43.605  28.507  33.112  1.00  0.00     0.037 A 
BRANCH  55  69
ATOM     69  C   UNL A   1      38.920  32.111  34.899  1.00  0.00     0.057 A 
ATOM     70  C   UNL A   1      38.253  31.577  36.010  1.00  0.00     0.134 A 
ATOM     71  C   UNL A   1      39.061  33.504  34.839  1.00  0.00     0.134 A 
ATOM     72  F   UNL A   1      38.070  30.253  36.121  1.00  0.00    -0.206 F 
ATOM     73  C   UNL A   1      37.732  32.396  37.013  1.00  0.00     0.040 A 
ATOM     74  C   UNL A   1      38.571  34.331  35.851  1.00  0.00     0.040 A 
ATOM     75  F   UNL A   1      39.693  34.081  33.807  1.00  0.00    -0.206 F 
ATOM     76  C   UNL A   1      37.899  33.777  36.939  1.00  0.00     0.006 A 
ENDBRANCH  55  69
BRANCH  56  77
ATOM     77  C   UNL A   1      42.497  26.336  27.576  1.00  0.00     0.057 A 
ATOM     78  C   UNL A   1      43.235  26.906  26.531  1.00  0.00     0.134 A 
ATOM     79  C   UNL A   1      42.269  24.956  27.521  1.00  0.00     0.134 A 
ATOM     80  F   UNL A   1      43.473  28.227  26.515  1.00  0.00    -0.206 F 
ATOM     81  C   UNL A   1      43.689  26.145  25.453  1.00  0.00     0.040 A 
ATOM     82  C   UNL A   1      42.745  24.176  26.466  1.00  0.00     0.040 A 
ATOM     83  F   UNL A   1      41.578  24.344  28.494  1.00  0.00    -0.206 F 
ATOM     84  C   UNL A   1      43.444  24.774  25.420  1.00  0.00     0.006 A 
ENDBRANCH  56  77
BRANCH  68  85
ATOM     85  C   UNL A   1      44.830  28.112  33.885  1.00  0.00     0.057 A 
ATOM     86  C   UNL A   1      46.016  28.855  33.833  1.00  0.00     0.134 A 
ATOM     87  C   UNL A   1      44.809  26.984  34.715  1.00  0.00     0.134 A 
ATOM     88  F   UNL A   1      46.107  29.940  33.050  1.00  0.00    -0.206 F 
ATOM     89  C   UNL A   1      47.149  28.470  34.554  1.00  0.00     0.040 A 
ATOM     90  C   UNL A   1      45.924  26.608  35.465  1.00  0.00     0.040 A 
ATOM     91  F   UNL A   1      43.701  26.235  34.821  1.00  0.00    -0.206 F 
ATOM     92  C   UNL A   1      47.103  27.347  35.377  1.00  0.00     0.006 A 
ENDBRANCH  68  85
ENDBRANCH  42  43
ENDBRANCH  34  37
ENDBRANCH  32  33
ENDBRANCH  31  32
ENDBRANCH   1  31
TORSDOF 17
ENDMDL
