MODEL 1
REMARK VINA RESULT:     -10.9      0.000      0.000
REMARK SMILES [NH3+][C@@H](CC(=O)NCCCCNC(=O)c1ccc(-c2c3nc(c(-c4c(F)cccc4F)c4ccc([nH]4)c(-c4c(F)cccc4F)c4nc(c(-c5c(F)cccc5F)c5ccc2[nH]5)C=C4)C=C3)cc1)[NH+]1CCOCC1
REMARK SMILES IDX 8 1 7 2 6 3 4 4 5 5 3 7 2 8 1 9 68 13 69 14 73 15 70 17
REMARK SMILES IDX 72 18 71 19 9 20 10 21 11 22 12 23 13 25 14 26 15 27 67 28
REMARK SMILES IDX 16 29 66 30 17 31 18 32 19 33 60 34 20 35 65 36 59 37 61 38
REMARK SMILES IDX 21 39 64 40 58 41 57 42 22 44 48 45 31 46 47 47 32 48 35 49
REMARK SMILES IDX 46 50 62 51 33 52 34 53 45 55 63 56 36 57 23 58 24 59 29 60
REMARK SMILES IDX 25 61 26 62 28 63 30 64 27 65 49 66 50 67 55 68 51 69 52 70
REMARK SMILES IDX 54 71 56 72 53 73 37 74 38 75 43 76 39 77 40 78 42 79 44 80
REMARK SMILES IDX 41 81
REMARK H PARENT 6 6 1 10 1 11 1 12 68 16 11 24 61 43 35 54
REMARK Flexibility Score: inf
ROOT
ATOM      1  C   UNL A   1      31.403  31.041  25.736  1.00  0.00     0.023 C 
ENDROOT
BRANCH   1   2
ATOM      2  C   UNL A   1      31.774  29.600  26.070  1.00  0.00     0.116 C 
BRANCH   2   3
ATOM      3  N   UNL A   1      32.267  28.878  24.919  1.00  0.00    -0.356 N 
ATOM      4  C   UNL A   1      31.635  28.555  23.761  1.00  0.00     0.232 C 
ATOM      5  O   UNL A   1      32.335  28.118  22.844  1.00  0.00    -0.275 OA
ATOM      6  H   UNL A   1      33.202  28.576  24.984  1.00  0.00     0.163 HD
BRANCH   4   7
ATOM      7  C   UNL A   1      30.161  28.796  23.558  1.00  0.00     0.232 C 
BRANCH   7   8
ATOM      8  C   UNL A   1      29.642  29.509  22.296  1.00  0.00     0.389 C 
BRANCH   8   9
ATOM      9  N   UNL A   1      30.647  30.179  21.492  1.00  0.00    -0.308 N 
ATOM     10  H   UNL A   1      31.307  29.490  21.131  1.00  0.00     0.349 HD
ATOM     11  H   UNL A   1      31.145  30.858  22.067  1.00  0.00     0.349 HD
ATOM     12  H   UNL A   1      30.195  30.658  20.714  1.00  0.00     0.349 HD
ENDBRANCH   8   9
BRANCH   8  13
ATOM     13  N   UNL A   1      28.452  30.333  22.277  1.00  0.00    -0.282 N 
ATOM     14  C   UNL A   1      27.883  30.854  21.031  1.00  0.00     0.296 C 
ATOM     15  C   UNL A   1      28.361  31.328  23.354  1.00  0.00     0.296 C 
ATOM     16  H   UNL A   1      27.824  29.550  22.453  1.00  0.00     0.353 HD
ATOM     17  C   UNL A   1      28.179  32.326  20.696  1.00  0.00     0.222 C 
ATOM     18  C   UNL A   1      28.762  32.746  22.930  1.00  0.00     0.222 C 
ATOM     19  O   UNL A   1      27.975  33.185  21.819  1.00  0.00    -0.370 OA
ENDBRANCH   8  13
ENDBRANCH   7   8
ENDBRANCH   4   7
ENDBRANCH   2   3
ENDBRANCH   1   2
BRANCH   1  20
ATOM     20  C   UNL A   1      31.412  32.008  26.921  1.00  0.00     0.023 C 
BRANCH  20  21
ATOM     21  C   UNL A   1      32.698  32.802  27.082  1.00  0.00     0.116 C 
BRANCH  21  22
ATOM     22  N   UNL A   1      32.487  34.112  27.676  1.00  0.00    -0.352 N 
ATOM     23  C   UNL A   1      33.157  34.716  28.711  1.00  0.00     0.251 C 
ATOM     24  H   UNL A   1      31.757  34.640  27.280  1.00  0.00     0.163 HD
ATOM     25  O   UNL A   1      32.767  35.785  29.156  1.00  0.00    -0.269 OA
BRANCH  23  26
ATOM     26  C   UNL A   1      34.334  34.047  29.300  1.00  0.00     0.039 A 
ATOM     27  C   UNL A   1      34.136  33.124  30.329  1.00  0.00     0.014 A 
ATOM     28  C   UNL A   1      35.622  34.320  28.831  1.00  0.00     0.014 A 
ATOM     29  C   UNL A   1      35.229  32.438  30.857  1.00  0.00     0.010 A 
ATOM     30  C   UNL A   1      36.696  33.573  29.294  1.00  0.00     0.010 A 
ATOM     31  C   UNL A   1      36.513  32.639  30.325  1.00  0.00    -0.014 A 
BRANCH  31  32
ATOM     32  C   UNL A   1      37.691  31.924  30.867  1.00  0.00     0.031 A 
ATOM     33  C   UNL A   1      38.237  32.309  32.213  1.00  0.00     0.074 A 
ATOM     34  C   UNL A   1      38.302  30.979  30.127  1.00  0.00     0.049 A 
ATOM     35  N   UNL A   1      39.303  31.867  32.832  1.00  0.00    -0.248 NA
ATOM     36  C   UNL A   1      37.509  33.357  32.947  1.00  0.00     0.031 C 
ATOM     37  C   UNL A   1      37.896  30.557  28.784  1.00  0.00     0.029 A 
ATOM     38  N   UNL A   1      39.402  30.208  30.398  1.00  0.00    -0.354 N 
ATOM     39  C   UNL A   1      39.384  32.601  34.009  1.00  0.00     0.074 A 
ATOM     40  C   UNL A   1      38.297  33.555  33.992  1.00  0.00     0.031 C 
ATOM     41  C   UNL A   1      38.720  29.585  28.362  1.00  0.00     0.029 A 
ATOM     42  C   UNL A   1      39.727  29.337  29.388  1.00  0.00     0.049 A 
ATOM     43  H   UNL A   1      39.910  30.272  31.238  1.00  0.00     0.167 HD
ATOM     44  C   UNL A   1      40.266  32.472  35.027  1.00  0.00     0.037 A 
ATOM     45  C   UNL A   1      40.726  28.439  29.305  1.00  0.00     0.037 A 
ATOM     46  C   UNL A   1      41.317  31.491  35.059  1.00  0.00     0.049 A 
ATOM     47  C   UNL A   1      41.674  28.291  30.463  1.00  0.00     0.074 A 
ATOM     48  C   UNL A   1      42.232  31.237  36.065  1.00  0.00     0.029 A 
ATOM     49  N   UNL A   1      41.588  30.596  34.034  1.00  0.00    -0.354 N 
ATOM     50  N   UNL A   1      41.704  28.951  31.596  1.00  0.00    -0.248 NA
ATOM     51  C   UNL A   1      42.716  27.264  30.336  1.00  0.00     0.031 C 
ATOM     52  C   UNL A   1      43.074  30.205  35.638  1.00  0.00     0.029 A 
ATOM     53  C   UNL A   1      42.658  29.790  34.382  1.00  0.00     0.049 A 
ATOM     54  H   UNL A   1      41.091  30.542  33.186  1.00  0.00     0.167 HD
ATOM     55  C   UNL A   1      42.747  28.399  32.329  1.00  0.00     0.074 A 
ATOM     56  C   UNL A   1      43.313  27.342  31.517  1.00  0.00     0.031 C 
ATOM     57  C   UNL A   1      43.196  28.735  33.563  1.00  0.00     0.037 A 
BRANCH  44  58
ATOM     58  C   UNL A   1      40.115  33.407  36.191  1.00  0.00     0.057 A 
ATOM     59  C   UNL A   1      40.818  34.618  36.261  1.00  0.00     0.134 A 
ATOM     60  C   UNL A   1      39.252  33.099  37.250  1.00  0.00     0.134 A 
ATOM     61  F   UNL A   1      41.674  34.964  35.289  1.00  0.00    -0.206 F 
ATOM     62  C   UNL A   1      40.691  35.473  37.357  1.00  0.00     0.040 A 
ATOM     63  C   UNL A   1      39.096  33.960  38.338  1.00  0.00     0.040 A 
ATOM     64  F   UNL A   1      38.547  31.958  37.246  1.00  0.00    -0.206 F 
ATOM     65  C   UNL A   1      39.823  35.148  38.397  1.00  0.00     0.006 A 
ENDBRANCH  44  58
BRANCH  45  66
ATOM     66  C   UNL A   1      40.858  27.579  28.103  1.00  0.00     0.057 A 
ATOM     67  C   UNL A   1      41.599  28.002  26.993  1.00  0.00     0.134 A 
ATOM     68  C   UNL A   1      40.242  26.324  28.026  1.00  0.00     0.134 A 
ATOM     69  F   UNL A   1      42.199  29.201  27.001  1.00  0.00    -0.206 F 
ATOM     70  C   UNL A   1      41.704  27.220  25.842  1.00  0.00     0.040 A 
ATOM     71  C   UNL A   1      40.358  25.521  26.891  1.00  0.00     0.040 A 
ATOM     72  F   UNL A   1      39.526  25.857  29.060  1.00  0.00    -0.206 F 
ATOM     73  C   UNL A   1      41.085  25.973  25.790  1.00  0.00     0.006 A 
ENDBRANCH  45  66
BRANCH  57  74
ATOM     74  C   UNL A   1      44.324  27.922  34.123  1.00  0.00     0.057 A 
ATOM     75  C   UNL A   1      45.661  28.307  33.972  1.00  0.00     0.134 A 
ATOM     76  C   UNL A   1      44.063  26.752  34.847  1.00  0.00     0.134 A 
ATOM     77  F   UNL A   1      45.976  29.411  33.277  1.00  0.00    -0.206 F 
ATOM     78  C   UNL A   1      46.703  27.543  34.500  1.00  0.00     0.040 A 
ATOM     79  C   UNL A   1      45.095  25.993  35.402  1.00  0.00     0.040 A 
ATOM     80  F   UNL A   1      42.802  26.333  35.036  1.00  0.00    -0.206 F 
ATOM     81  C   UNL A   1      46.419  26.385  35.222  1.00  0.00     0.006 A 
ENDBRANCH  57  74
ENDBRANCH  31  32
ENDBRANCH  23  26
ENDBRANCH  21  22
ENDBRANCH  20  21
ENDBRANCH   1  20
TORSDOF 14
ENDMDL
MODEL 2
REMARK VINA RESULT:     -10.9      0.630      6.624
REMARK SMILES [NH3+][C@@H](CC(=O)NCCCCNC(=O)c1ccc(-c2c3nc(c(-c4c(F)cccc4F)c4ccc([nH]4)c(-c4c(F)cccc4F)c4nc(c(-c5c(F)cccc5F)c5ccc2[nH]5)C=C4)C=C3)cc1)[NH+]1CCOCC1
REMARK SMILES IDX 8 1 7 2 6 3 4 4 5 5 3 7 2 8 1 9 68 13 69 14 73 15 70 17
REMARK SMILES IDX 72 18 71 19 9 20 10 21 11 22 12 23 13 25 14 26 15 27 67 28
REMARK SMILES IDX 16 29 66 30 17 31 18 32 19 33 60 34 20 35 65 36 59 37 61 38
REMARK SMILES IDX 21 39 64 40 58 41 57 42 22 44 48 45 31 46 47 47 32 48 35 49
REMARK SMILES IDX 46 50 62 51 33 52 34 53 45 55 63 56 36 57 23 58 24 59 29 60
REMARK SMILES IDX 25 61 26 62 28 63 30 64 27 65 49 66 50 67 55 68 51 69 52 70
REMARK SMILES IDX 54 71 56 72 53 73 37 74 38 75 43 76 39 77 40 78 42 79 44 80
REMARK SMILES IDX 41 81
REMARK H PARENT 6 6 1 10 1 11 1 12 68 16 11 24 61 43 35 54
REMARK Flexibility Score: inf
ROOT
ATOM      1  C   UNL A   1      31.832  30.387  26.823  1.00  0.00     0.023 C 
ENDROOT
BRANCH   1   2
ATOM      2  C   UNL A   1      32.907  30.010  25.808  1.00  0.00     0.116 C 
BRANCH   2   3
ATOM      3  N   UNL A   1      32.578  28.805  25.080  1.00  0.00    -0.356 N 
ATOM      4  C   UNL A   1      31.535  28.550  24.249  1.00  0.00     0.232 C 
ATOM      5  O   UNL A   1      31.588  27.513  23.584  1.00  0.00    -0.275 OA
ATOM      6  H   UNL A   1      33.205  28.057  25.205  1.00  0.00     0.163 HD
BRANCH   4   7
ATOM      7  C   UNL A   1      30.397  29.523  24.071  1.00  0.00     0.232 C 
BRANCH   7   8
ATOM      8  C   UNL A   1      29.746  29.736  22.692  1.00  0.00     0.389 C 
BRANCH   8   9
ATOM      9  N   UNL A   1      30.654  30.077  21.612  1.00  0.00    -0.308 N 
ATOM     10  H   UNL A   1      30.513  29.433  20.834  1.00  0.00     0.349 HD
ATOM     11  H   UNL A   1      31.616  30.007  21.943  1.00  0.00     0.349 HD
ATOM     12  H   UNL A   1      30.469  31.030  21.303  1.00  0.00     0.349 HD
ENDBRANCH   8   9
BRANCH   8  13
ATOM     13  N   UNL A   1      28.530  30.495  22.492  1.00  0.00    -0.282 N 
ATOM     14  C   UNL A   1      28.028  30.826  21.156  1.00  0.00     0.296 C 
ATOM     15  C   UNL A   1      28.329  31.614  23.422  1.00  0.00     0.296 C 
ATOM     16  H   UNL A   1      27.922  29.712  22.729  1.00  0.00     0.353 HD
ATOM     17  C   UNL A   1      28.289  32.255  20.651  1.00  0.00     0.222 C 
ATOM     18  C   UNL A   1      28.704  32.983  22.843  1.00  0.00     0.222 C 
ATOM     19  O   UNL A   1      27.978  33.240  21.637  1.00  0.00    -0.370 OA
ENDBRANCH   8  13
ENDBRANCH   7   8
ENDBRANCH   4   7
ENDBRANCH   2   3
ENDBRANCH   1   2
BRANCH   1  20
ATOM     20  C   UNL A   1      31.494  31.876  26.891  1.00  0.00     0.023 C 
BRANCH  20  21
ATOM     21  C   UNL A   1      32.699  32.802  26.875  1.00  0.00     0.116 C 
BRANCH  21  22
ATOM     22  N   UNL A   1      32.443  34.079  27.521  1.00  0.00    -0.352 N 
ATOM     23  C   UNL A   1      33.056  34.639  28.614  1.00  0.00     0.251 C 
ATOM     24  H   UNL A   1      31.726  34.619  27.116  1.00  0.00     0.163 HD
ATOM     25  O   UNL A   1      32.632  35.681  29.091  1.00  0.00    -0.269 OA
BRANCH  23  26
ATOM     26  C   UNL A   1      34.212  33.955  29.226  1.00  0.00     0.039 A 
ATOM     27  C   UNL A   1      35.497  34.422  28.938  1.00  0.00     0.014 A 
ATOM     28  C   UNL A   1      34.029  32.869  30.086  1.00  0.00     0.014 A 
ATOM     29  C   UNL A   1      36.598  33.827  29.553  1.00  0.00     0.010 A 
ATOM     30  C   UNL A   1      35.117  32.337  30.765  1.00  0.00     0.010 A 
ATOM     31  C   UNL A   1      36.413  32.798  30.490  1.00  0.00    -0.014 A 
BRANCH  31  32
ATOM     32  C   UNL A   1      37.565  32.148  31.157  1.00  0.00     0.031 A 
ATOM     33  C   UNL A   1      38.324  31.067  30.440  1.00  0.00     0.074 A 
ATOM     34  C   UNL A   1      37.886  32.485  32.420  1.00  0.00     0.049 A 
ATOM     35  N   UNL A   1      39.306  30.319  30.872  1.00  0.00    -0.248 NA
ATOM     36  C   UNL A   1      37.897  30.761  29.064  1.00  0.00     0.031 C 
ATOM     37  C   UNL A   1      37.189  33.481  33.238  1.00  0.00     0.029 A 
ATOM     38  N   UNL A   1      38.878  32.016  33.242  1.00  0.00    -0.354 N 
ATOM     39  C   UNL A   1      39.594  29.441  29.833  1.00  0.00     0.074 A 
ATOM     40  C   UNL A   1      38.645  29.708  28.775  1.00  0.00     0.031 C 
ATOM     41  C   UNL A   1      37.794  33.567  34.433  1.00  0.00     0.029 A 
ATOM     42  C   UNL A   1      38.898  32.615  34.478  1.00  0.00     0.049 A 
ATOM     43  H   UNL A   1      39.517  31.318  32.971  1.00  0.00     0.167 HD
ATOM     44  C   UNL A   1      40.578  28.515  29.756  1.00  0.00     0.037 A 
ATOM     45  C   UNL A   1      39.718  32.413  35.526  1.00  0.00     0.037 A 
ATOM     46  C   UNL A   1      41.546  28.284  30.795  1.00  0.00     0.049 A 
ATOM     47  C   UNL A   1      40.825  31.402  35.404  1.00  0.00     0.074 A 
ATOM     48  C   UNL A   1      42.618  27.410  30.797  1.00  0.00     0.029 A 
ATOM     49  N   UNL A   1      41.559  28.941  32.016  1.00  0.00    -0.354 N 
ATOM     50  N   UNL A   1      41.123  30.619  34.394  1.00  0.00    -0.248 NA
ATOM     51  C   UNL A   1      41.718  31.258  36.561  1.00  0.00     0.031 C 
ATOM     52  C   UNL A   1      43.266  27.519  32.032  1.00  0.00     0.029 A 
ATOM     53  C   UNL A   1      42.620  28.490  32.783  1.00  0.00     0.049 A 
ATOM     54  H   UNL A   1      40.911  29.627  32.295  1.00  0.00     0.167 HD
ATOM     55  C   UNL A   1      42.254  29.913  34.782  1.00  0.00     0.074 A 
ATOM     56  C   UNL A   1      42.595  30.371  36.113  1.00  0.00     0.031 C 
ATOM     57  C   UNL A   1      42.948  28.970  34.100  1.00  0.00     0.037 A 
BRANCH  44  58
ATOM     58  C   UNL A   1      40.658  27.699  28.500  1.00  0.00     0.057 A 
ATOM     59  C   UNL A   1      39.992  26.472  28.373  1.00  0.00     0.134 A 
ATOM     60  C   UNL A   1      41.401  28.146  27.401  1.00  0.00     0.134 A 
ATOM     61  F   UNL A   1      39.278  25.977  29.394  1.00  0.00    -0.206 F 
ATOM     62  C   UNL A   1      40.088  25.705  27.210  1.00  0.00     0.040 A 
ATOM     63  C   UNL A   1      41.482  27.402  26.223  1.00  0.00     0.040 A 
ATOM     64  F   UNL A   1      42.062  29.313  27.453  1.00  0.00    -0.206 F 
ATOM     65  C   UNL A   1      40.830  26.174  26.128  1.00  0.00     0.006 A 
ENDBRANCH  44  58
BRANCH  45  66
ATOM     66  C   UNL A   1      39.555  33.213  36.764  1.00  0.00     0.057 A 
ATOM     67  C   UNL A   1      40.287  34.390  36.963  1.00  0.00     0.134 A 
ATOM     68  C   UNL A   1      38.676  32.822  37.782  1.00  0.00     0.134 A 
ATOM     69  F   UNL A   1      41.156  34.808  36.031  1.00  0.00    -0.206 F 
ATOM     70  C   UNL A   1      40.170  35.136  38.136  1.00  0.00     0.040 A 
ATOM     71  C   UNL A   1      38.532  33.570  38.950  1.00  0.00     0.040 A 
ATOM     72  F   UNL A   1      37.938  31.710  37.648  1.00  0.00    -0.206 F 
ATOM     73  C   UNL A   1      39.287  34.728  39.134  1.00  0.00     0.006 A 
ENDBRANCH  45  66
BRANCH  57  74
ATOM     74  C   UNL A   1      44.169  28.409  34.764  1.00  0.00     0.057 A 
ATOM     75  C   UNL A   1      44.119  27.250  35.549  1.00  0.00     0.134 A 
ATOM     76  C   UNL A   1      45.416  29.022  34.592  1.00  0.00     0.134 A 
ATOM     77  F   UNL A   1      42.951  26.625  35.763  1.00  0.00    -0.206 F 
ATOM     78  C   UNL A   1      45.262  26.735  36.160  1.00  0.00     0.040 A 
ATOM     79  C   UNL A   1      46.572  28.502  35.177  1.00  0.00     0.040 A 
ATOM     80  F   UNL A   1      45.534  30.130  33.843  1.00  0.00    -0.206 F 
ATOM     81  C   UNL A   1      46.495  27.359  35.970  1.00  0.00     0.006 A 
ENDBRANCH  57  74
ENDBRANCH  31  32
ENDBRANCH  23  26
ENDBRANCH  21  22
ENDBRANCH  20  21
ENDBRANCH   1  20
TORSDOF 14
ENDMDL
MODEL 3
REMARK VINA RESULT:     -10.8      6.381     10.486
REMARK SMILES [NH3+][C@@H](CC(=O)NCCCCNC(=O)c1ccc(-c2c3nc(c(-c4c(F)cccc4F)c4ccc([nH]4)c(-c4c(F)cccc4F)c4nc(c(-c5c(F)cccc5F)c5ccc2[nH]5)C=C4)C=C3)cc1)[NH+]1CCOCC1
REMARK SMILES IDX 8 1 7 2 6 3 4 4 5 5 3 7 2 8 1 9 68 13 69 14 73 15 70 17
REMARK SMILES IDX 72 18 71 19 9 20 10 21 11 22 12 23 13 25 14 26 15 27 67 28
REMARK SMILES IDX 16 29 66 30 17 31 18 32 19 33 60 34 20 35 65 36 59 37 61 38
REMARK SMILES IDX 21 39 64 40 58 41 57 42 22 44 48 45 31 46 47 47 32 48 35 49
REMARK SMILES IDX 46 50 62 51 33 52 34 53 45 55 63 56 36 57 23 58 24 59 29 60
REMARK SMILES IDX 25 61 26 62 28 63 30 64 27 65 49 66 50 67 55 68 51 69 52 70
REMARK SMILES IDX 54 71 56 72 53 73 37 74 38 75 43 76 39 77 40 78 42 79 44 80
REMARK SMILES IDX 41 81
REMARK H PARENT 6 6 1 10 1 11 1 12 68 16 11 24 61 43 35 54
REMARK Flexibility Score: inf
ROOT
ATOM      1  C   UNL A   1      36.775  21.074  24.590  1.00  0.00     0.023 C 
ENDROOT
BRANCH   1   2
ATOM      2  C   UNL A   1      35.856  21.412  25.760  1.00  0.00     0.116 C 
BRANCH   2   3
ATOM      3  N   UNL A   1      34.707  22.187  25.351  1.00  0.00    -0.356 N 
ATOM      4  C   UNL A   1      33.556  21.784  24.753  1.00  0.00     0.232 C 
ATOM      5  O   UNL A   1      32.638  22.606  24.694  1.00  0.00    -0.275 OA
ATOM      6  H   UNL A   1      34.768  23.153  25.533  1.00  0.00     0.163 HD
BRANCH   4   7
ATOM      7  C   UNL A   1      33.362  20.374  24.258  1.00  0.00     0.232 C 
BRANCH   7   8
ATOM      8  C   UNL A   1      32.607  19.334  25.106  1.00  0.00     0.389 C 
BRANCH   8   9
ATOM      9  N   UNL A   1      32.961  19.291  26.513  1.00  0.00    -0.308 N 
ATOM     10  H   UNL A   1      32.613  18.425  26.924  1.00  0.00     0.349 HD
ATOM     11  H   UNL A   1      32.543  20.088  26.993  1.00  0.00     0.349 HD
ATOM     12  H   UNL A   1      33.975  19.330  26.609  1.00  0.00     0.349 HD
ENDBRANCH   8   9
BRANCH   8  13
ATOM     13  N   UNL A   1      32.373  17.971  24.677  1.00  0.00    -0.282 N 
ATOM     14  C   UNL A   1      32.623  16.824  25.553  1.00  0.00     0.296 C 
ATOM     15  C   UNL A   1      32.765  17.674  23.293  1.00  0.00     0.296 C 
ATOM     16  H   UNL A   1      31.360  18.048  24.759  1.00  0.00     0.353 HD
ATOM     17  C   UNL A   1      33.924  16.039  25.312  1.00  0.00     0.222 C 
ATOM     18  C   UNL A   1      34.120  16.968  23.165  1.00  0.00     0.222 C 
ATOM     19  O   UNL A   1      34.134  15.756  23.927  1.00  0.00    -0.370 OA
ENDBRANCH   8  13
ENDBRANCH   7   8
ENDBRANCH   4   7
ENDBRANCH   2   3
ENDBRANCH   1   2
BRANCH   1  20
ATOM     20  C   UNL A   1      37.752  19.926  24.840  1.00  0.00     0.023 C 
BRANCH  20  21
ATOM     21  C   UNL A   1      38.896  20.259  25.785  1.00  0.00     0.116 C 
BRANCH  21  22
ATOM     22  N   UNL A   1      39.923  19.231  25.818  1.00  0.00    -0.352 N 
ATOM     23  C   UNL A   1      41.267  19.352  26.076  1.00  0.00     0.251 C 
ATOM     24  H   UNL A   1      39.610  18.317  25.627  1.00  0.00     0.163 HD
ATOM     25  O   UNL A   1      42.006  18.387  25.951  1.00  0.00    -0.269 OA
BRANCH  23  26
ATOM     26  C   UNL A   1      41.812  20.663  26.476  1.00  0.00     0.039 A 
ATOM     27  C   UNL A   1      42.195  21.564  25.480  1.00  0.00     0.014 A 
ATOM     28  C   UNL A   1      41.932  21.008  27.825  1.00  0.00     0.014 A 
ATOM     29  C   UNL A   1      42.656  22.830  25.837  1.00  0.00     0.010 A 
ATOM     30  C   UNL A   1      42.305  22.298  28.177  1.00  0.00     0.010 A 
ATOM     31  C   UNL A   1      42.689  23.214  27.187  1.00  0.00    -0.014 A 
BRANCH  31  32
ATOM     32  C   UNL A   1      43.175  24.553  27.594  1.00  0.00     0.031 A 
ATOM     33  C   UNL A   1      42.186  25.601  28.023  1.00  0.00     0.074 A 
ATOM     34  C   UNL A   1      44.487  24.842  27.520  1.00  0.00     0.049 A 
ATOM     35  N   UNL A   1      42.392  26.854  28.340  1.00  0.00    -0.248 NA
ATOM     36  C   UNL A   1      40.771  25.197  28.067  1.00  0.00     0.031 C 
ATOM     37  C   UNL A   1      45.536  23.925  27.068  1.00  0.00     0.029 A 
ATOM     38  N   UNL A   1      45.163  25.998  27.817  1.00  0.00    -0.354 N 
ATOM     39  C   UNL A   1      41.134  27.389  28.592  1.00  0.00     0.074 A 
ATOM     40  C   UNL A   1      40.168  26.343  28.336  1.00  0.00     0.031 C 
ATOM     41  C   UNL A   1      46.724  24.545  27.144  1.00  0.00     0.029 A 
ATOM     42  C   UNL A   1      46.519  25.909  27.619  1.00  0.00     0.049 A 
ATOM     43  H   UNL A   1      44.718  26.813  28.142  1.00  0.00     0.167 HD
ATOM     44  C   UNL A   1      40.815  28.629  29.028  1.00  0.00     0.037 A 
ATOM     45  C   UNL A   1      47.484  26.828  27.804  1.00  0.00     0.037 A 
ATOM     46  C   UNL A   1      41.783  29.651  29.324  1.00  0.00     0.049 A 
ATOM     47  C   UNL A   1      47.108  28.189  28.321  1.00  0.00     0.074 A 
ATOM     48  C   UNL A   1      41.572  30.923  29.824  1.00  0.00     0.029 A 
ATOM     49  N   UNL A   1      43.153  29.508  29.153  1.00  0.00    -0.354 N 
ATOM     50  N   UNL A   1      45.920  28.664  28.612  1.00  0.00    -0.248 NA
ATOM     51  C   UNL A   1      48.207  29.137  28.547  1.00  0.00     0.031 C 
ATOM     52  C   UNL A   1      42.812  31.561  29.930  1.00  0.00     0.029 A 
ATOM     53  C   UNL A   1      43.799  30.671  29.534  1.00  0.00     0.049 A 
ATOM     54  H   UNL A   1      43.598  28.699  28.812  1.00  0.00     0.167 HD
ATOM     55  C   UNL A   1      46.132  29.953  29.085  1.00  0.00     0.074 A 
ATOM     56  C   UNL A   1      47.562  30.178  29.054  1.00  0.00     0.031 C 
ATOM     57  C   UNL A   1      45.225  30.868  29.507  1.00  0.00     0.037 A 
BRANCH  44  58
ATOM     58  C   UNL A   1      39.359  28.937  29.221  1.00  0.00     0.057 A 
ATOM     59  C   UNL A   1      38.720  28.741  30.454  1.00  0.00     0.134 A 
ATOM     60  C   UNL A   1      38.588  29.442  28.168  1.00  0.00     0.134 A 
ATOM     61  F   UNL A   1      39.398  28.242  31.498  1.00  0.00    -0.206 F 
ATOM     62  C   UNL A   1      37.361  29.007  30.622  1.00  0.00     0.040 A 
ATOM     63  C   UNL A   1      37.233  29.739  28.333  1.00  0.00     0.040 A 
ATOM     64  F   UNL A   1      39.135  29.656  26.962  1.00  0.00    -0.206 F 
ATOM     65  C   UNL A   1      36.614  29.514  29.561  1.00  0.00     0.006 A 
ENDBRANCH  44  58
BRANCH  45  66
ATOM     66  C   UNL A   1      48.903  26.482  27.543  1.00  0.00     0.057 A 
ATOM     67  C   UNL A   1      49.724  25.992  28.566  1.00  0.00     0.134 A 
ATOM     68  C   UNL A   1      49.476  26.639  26.275  1.00  0.00     0.134 A 
ATOM     69  F   UNL A   1      49.236  25.836  29.805  1.00  0.00    -0.206 F 
ATOM     70  C   UNL A   1      51.069  25.694  28.345  1.00  0.00     0.040 A 
ATOM     71  C   UNL A   1      50.813  26.322  26.034  1.00  0.00     0.040 A 
ATOM     72  F   UNL A   1      48.740  27.093  25.251  1.00  0.00    -0.206 F 
ATOM     73  C   UNL A   1      51.617  25.856  27.074  1.00  0.00     0.006 A 
ENDBRANCH  45  66
BRANCH  57  74
ATOM     74  C   UNL A   1      45.760  32.175  30.011  1.00  0.00     0.057 A 
ATOM     75  C   UNL A   1      45.929  33.280  29.167  1.00  0.00     0.134 A 
ATOM     76  C   UNL A   1      46.082  32.336  31.364  1.00  0.00     0.134 A 
ATOM     77  F   UNL A   1      45.651  33.184  27.858  1.00  0.00    -0.206 F 
ATOM     78  C   UNL A   1      46.425  34.492  29.648  1.00  0.00     0.040 A 
ATOM     79  C   UNL A   1      46.554  33.551  31.861  1.00  0.00     0.040 A 
ATOM     80  F   UNL A   1      45.933  31.318  32.226  1.00  0.00    -0.206 F 
ATOM     81  C   UNL A   1      46.734  34.631  31.000  1.00  0.00     0.006 A 
ENDBRANCH  57  74
ENDBRANCH  31  32
ENDBRANCH  23  26
ENDBRANCH  21  22
ENDBRANCH  20  21
ENDBRANCH   1  20
TORSDOF 14
ENDMDL
