MODEL 1
REMARK VINA RESULT:     -11.9      0.000      0.000
REMARK SMILES CCOc1cc(C(=O)NCCCCNC(=O)c2ccc(-c3c4nc(c(-c5c(F)cccc5F)c5ccc([nH]5)c(-c5c(F)cccc5F)c5nc(c(-c6c(F)cccc6F)c6ccc3[nH]6)C=C5)C=C4)cc2)ccc1OCc1ccc(Cl)c(Cl)c1
REMARK SMILES IDX 11 1 10 2 9 3 7 4 8 5 6 7 4 8 5 9 73 10 72 11 71 12 3 13
REMARK SMILES IDX 2 14 1 15 74 16 75 17 76 18 77 19 83 20 78 21 81 22 79 23
REMARK SMILES IDX 82 24 80 25 12 26 13 27 14 28 15 29 16 31 17 32 18 33 70 34
REMARK SMILES IDX 19 35 69 36 20 37 21 38 22 39 63 40 23 41 68 42 62 43 64 44
REMARK SMILES IDX 24 45 67 46 61 47 60 48 25 50 51 51 34 52 50 53 35 54 38 55
REMARK SMILES IDX 49 56 65 57 36 58 37 59 48 61 66 62 39 63 26 64 27 65 32 66
REMARK SMILES IDX 28 67 29 68 31 69 33 70 30 71 52 72 53 73 58 74 54 75 55 76
REMARK SMILES IDX 57 77 59 78 56 79 40 80 41 81 46 82 42 83 43 84 45 85 47 86
REMARK SMILES IDX 44 87
REMARK H PARENT 9 6 14 30 64 49 38 60
REMARK Flexibility Score: inf
ROOT
ATOM      1  C   UNL A   1      31.780  30.474  26.719  1.00  0.00     0.023 C 
ENDROOT
BRANCH   1   2
ATOM      2  C   UNL A   1      32.451  30.077  25.408  1.00  0.00     0.116 C 
BRANCH   2   3
ATOM      3  N   UNL A   1      31.522  29.577  24.404  1.00  0.00    -0.352 N 
ATOM      4  C   UNL A   1      31.279  28.274  24.021  1.00  0.00     0.251 C 
ATOM      5  O   UNL A   1      30.529  28.031  23.082  1.00  0.00    -0.269 OA
ATOM      6  H   UNL A   1      30.994  30.263  23.935  1.00  0.00     0.163 HD
BRANCH   4   7
ATOM      7  C   UNL A   1      31.951  27.161  24.732  1.00  0.00     0.043 A 
ATOM      8  C   UNL A   1      31.820  25.284  26.263  1.00  0.00     0.161 A 
ATOM      9  C   UNL A   1      31.243  26.428  25.694  1.00  0.00     0.064 A 
ATOM     10  C   UNL A   1      33.100  24.882  25.855  1.00  0.00     0.161 A 
ATOM     11  C   UNL A   1      33.813  25.650  24.929  1.00  0.00     0.051 A 
ATOM     12  C   UNL A   1      33.263  26.812  24.401  1.00  0.00     0.018 A 
BRANCH   8  13
ATOM     13  O   UNL A   1      31.087  24.462  27.079  1.00  0.00    -0.490 OA
BRANCH  13  14
ATOM     14  C   UNL A   1      30.380  23.434  26.377  1.00  0.00     0.226 C 
ATOM     15  C   UNL A   1      29.474  22.740  27.384  1.00  0.00     0.049 C 
ENDBRANCH  13  14
ENDBRANCH   8  13
BRANCH  10  16
ATOM     16  O   UNL A   1      33.758  23.742  26.238  1.00  0.00    -0.485 OA
BRANCH  16  17
ATOM     17  C   UNL A   1      34.341  22.944  25.201  1.00  0.00     0.265 C 
BRANCH  17  18
ATOM     18  C   UNL A   1      35.813  22.631  25.385  1.00  0.00    -0.009 A 
ATOM     19  C   UNL A   1      36.717  23.608  25.824  1.00  0.00     0.009 A 
ATOM     20  C   UNL A   1      36.302  21.350  25.091  1.00  0.00     0.029 A 
ATOM     21  C   UNL A   1      38.059  23.293  26.042  1.00  0.00     0.022 A 
ATOM     22  C   UNL A   1      37.647  21.030  25.303  1.00  0.00     0.060 A 
ATOM     23  C   UNL A   1      38.526  22.001  25.790  1.00  0.00     0.059 A 
ATOM     24  Cl  UNL A   1      38.149  19.414  24.953  1.00  0.00    -0.083 Cl
ATOM     25  Cl  UNL A   1      40.193  21.673  26.100  1.00  0.00    -0.083 Cl
ENDBRANCH  17  18
ENDBRANCH  16  17
ENDBRANCH  10  16
ENDBRANCH   4   7
ENDBRANCH   2   3
ENDBRANCH   1   2
BRANCH   1  26
ATOM     26  C   UNL A   1      31.514  31.965  26.907  1.00  0.00     0.023 C 
BRANCH  26  27
ATOM     27  C   UNL A   1      32.718  32.815  27.302  1.00  0.00     0.116 C 
BRANCH  27  28
ATOM     28  N   UNL A   1      32.380  34.189  27.644  1.00  0.00    -0.352 N 
ATOM     29  C   UNL A   1      32.963  35.048  28.551  1.00  0.00     0.251 C 
ATOM     30  H   UNL A   1      31.616  34.564  27.150  1.00  0.00     0.163 HD
ATOM     31  O   UNL A   1      32.468  36.148  28.757  1.00  0.00    -0.269 OA
BRANCH  29  32
ATOM     32  C   UNL A   1      34.162  34.627  29.310  1.00  0.00     0.039 A 
ATOM     33  C   UNL A   1      33.997  34.151  30.616  1.00  0.00     0.014 A 
ATOM     34  C   UNL A   1      35.436  34.681  28.744  1.00  0.00     0.014 A 
ATOM     35  C   UNL A   1      35.096  33.640  31.313  1.00  0.00     0.010 A 
ATOM     36  C   UNL A   1      36.514  34.098  29.406  1.00  0.00     0.010 A 
ATOM     37  C   UNL A   1      36.354  33.562  30.694  1.00  0.00    -0.014 A 
BRANCH  37  38
ATOM     38  C   UNL A   1      37.508  32.906  31.362  1.00  0.00     0.031 A 
ATOM     39  C   UNL A   1      38.168  31.708  30.737  1.00  0.00     0.074 A 
ATOM     40  C   UNL A   1      37.911  33.337  32.575  1.00  0.00     0.049 A 
ATOM     41  N   UNL A   1      39.121  30.946  31.211  1.00  0.00    -0.248 NA
ATOM     42  C   UNL A   1      37.670  31.294  29.416  1.00  0.00     0.031 C 
ATOM     43  C   UNL A   1      37.323  34.454  33.317  1.00  0.00     0.029 A 
ATOM     44  N   UNL A   1      38.903  32.874  33.406  1.00  0.00    -0.354 N 
ATOM     45  C   UNL A   1      39.322  29.955  30.259  1.00  0.00     0.074 A 
ATOM     46  C   UNL A   1      38.358  30.182  29.204  1.00  0.00     0.031 C 
ATOM     47  C   UNL A   1      37.978  34.603  34.480  1.00  0.00     0.029 A 
ATOM     48  C   UNL A   1      39.003  33.571  34.585  1.00  0.00     0.049 A 
ATOM     49  H   UNL A   1      39.486  32.115  33.176  1.00  0.00     0.167 HD
ATOM     50  C   UNL A   1      40.241  28.960  30.251  1.00  0.00     0.037 A 
ATOM     51  C   UNL A   1      39.824  33.393  35.638  1.00  0.00     0.037 A 
ATOM     52  C   UNL A   1      41.219  28.751  31.287  1.00  0.00     0.049 A 
ATOM     53  C   UNL A   1      40.836  32.283  35.606  1.00  0.00     0.074 A 
ATOM     54  C   UNL A   1      42.233  27.811  31.338  1.00  0.00     0.029 A 
ATOM     55  N   UNL A   1      41.305  29.495  32.453  1.00  0.00    -0.354 N 
ATOM     56  N   UNL A   1      41.060  31.396  34.667  1.00  0.00    -0.248 NA
ATOM     57  C   UNL A   1      41.714  32.152  36.777  1.00  0.00     0.031 C 
ATOM     58  C   UNL A   1      42.908  27.959  32.554  1.00  0.00     0.029 A 
ATOM     59  C   UNL A   1      42.343  29.022  33.240  1.00  0.00     0.049 A 
ATOM     60  H   UNL A   1      40.716  30.249  32.689  1.00  0.00     0.167 HD
ATOM     61  C   UNL A   1      42.119  30.620  35.121  1.00  0.00     0.074 A 
ATOM     62  C   UNL A   1      42.502  31.150  36.413  1.00  0.00     0.031 C 
ATOM     63  C   UNL A   1      42.719  29.565  34.520  1.00  0.00     0.037 A 
BRANCH  50  64
ATOM     64  C   UNL A   1      40.233  28.022  29.080  1.00  0.00     0.057 A 
ATOM     65  C   UNL A   1      40.964  28.290  27.914  1.00  0.00     0.134 A 
ATOM     66  C   UNL A   1      39.515  26.821  29.129  1.00  0.00     0.134 A 
ATOM     67  F   UNL A   1      41.664  29.429  27.799  1.00  0.00    -0.206 F 
ATOM     68  C   UNL A   1      40.956  27.413  26.829  1.00  0.00     0.040 A 
ATOM     69  C   UNL A   1      39.522  25.922  28.060  1.00  0.00     0.040 A 
ATOM     70  F   UNL A   1      38.799  26.497  30.216  1.00  0.00    -0.206 F 
ATOM     71  C   UNL A   1      40.239  26.221  26.903  1.00  0.00     0.006 A 
ENDBRANCH  50  64
BRANCH  51  72
ATOM     72  C   UNL A   1      39.741  34.305  36.808  1.00  0.00     0.057 A 
ATOM     73  C   UNL A   1      38.967  33.970  37.926  1.00  0.00     0.134 A 
ATOM     74  C   UNL A   1      40.419  35.529  36.836  1.00  0.00     0.134 A 
ATOM     75  F   UNL A   1      38.278  32.820  37.951  1.00  0.00    -0.206 F 
ATOM     76  C   UNL A   1      38.855  34.829  39.022  1.00  0.00     0.040 A 
ATOM     77  C   UNL A   1      40.335  36.386  37.934  1.00  0.00     0.040 A 
ATOM     78  F   UNL A   1      41.182  35.903  35.799  1.00  0.00    -0.206 F 
ATOM     79  C   UNL A   1      39.545  36.040  39.029  1.00  0.00     0.006 A 
ENDBRANCH  51  72
BRANCH  63  80
ATOM     80  C   UNL A   1      43.879  28.935  35.235  1.00  0.00     0.057 A 
ATOM     81  C   UNL A   1      45.194  29.373  35.040  1.00  0.00     0.134 A 
ATOM     82  C   UNL A   1      43.669  27.902  36.158  1.00  0.00     0.134 A 
ATOM     83  F   UNL A   1      45.464  30.349  34.160  1.00  0.00    -0.206 F 
ATOM     84  C   UNL A   1      46.263  28.793  35.726  1.00  0.00     0.040 A 
ATOM     85  C   UNL A   1      44.727  27.333  36.868  1.00  0.00     0.040 A 
ATOM     86  F   UNL A   1      42.431  27.441  36.396  1.00  0.00    -0.206 F 
ATOM     87  C   UNL A   1      46.030  27.775  36.648  1.00  0.00     0.006 A 
ENDBRANCH  63  80
ENDBRANCH  37  38
ENDBRANCH  29  32
ENDBRANCH  27  28
ENDBRANCH  26  27
ENDBRANCH   1  26
TORSDOF 16
ENDMDL
MODEL 2
REMARK VINA RESULT:     -11.8      4.967      9.535
REMARK SMILES CCOc1cc(C(=O)NCCCCNC(=O)c2ccc(-c3c4nc(c(-c5c(F)cccc5F)c5ccc([nH]5)c(-c5c(F)cccc5F)c5nc(c(-c6c(F)cccc6F)c6ccc3[nH]6)C=C5)C=C4)cc2)ccc1OCc1ccc(Cl)c(Cl)c1
REMARK SMILES IDX 11 1 10 2 9 3 7 4 8 5 6 7 4 8 5 9 73 10 72 11 71 12 3 13
REMARK SMILES IDX 2 14 1 15 74 16 75 17 76 18 77 19 83 20 78 21 81 22 79 23
REMARK SMILES IDX 82 24 80 25 12 26 13 27 14 28 15 29 16 31 17 32 18 33 70 34
REMARK SMILES IDX 19 35 69 36 20 37 21 38 22 39 63 40 23 41 68 42 62 43 64 44
REMARK SMILES IDX 24 45 67 46 61 47 60 48 25 50 51 51 34 52 50 53 35 54 38 55
REMARK SMILES IDX 49 56 65 57 36 58 37 59 48 61 66 62 39 63 26 64 27 65 32 66
REMARK SMILES IDX 28 67 29 68 31 69 33 70 30 71 52 72 53 73 58 74 54 75 55 76
REMARK SMILES IDX 57 77 59 78 56 79 40 80 41 81 46 82 42 83 43 84 45 85 47 86
REMARK SMILES IDX 44 87
REMARK H PARENT 9 6 14 30 64 49 38 60
REMARK Flexibility Score: inf
ROOT
ATOM      1  C   UNL A   1      36.722  19.358  24.948  1.00  0.00     0.023 C 
ENDROOT
BRANCH   1   2
ATOM      2  C   UNL A   1      35.354  20.033  24.931  1.00  0.00     0.116 C 
BRANCH   2   3
ATOM      3  N   UNL A   1      34.240  19.098  25.023  1.00  0.00    -0.352 N 
ATOM      4  C   UNL A   1      32.892  19.338  24.855  1.00  0.00     0.251 C 
ATOM      5  O   UNL A   1      32.071  18.452  25.067  1.00  0.00    -0.269 OA
ATOM      6  H   UNL A   1      34.483  18.167  25.232  1.00  0.00     0.163 HD
BRANCH   4   7
ATOM      7  C   UNL A   1      32.430  20.685  24.444  1.00  0.00     0.043 A 
ATOM      8  C   UNL A   1      31.814  22.952  25.048  1.00  0.00     0.161 A 
ATOM      9  C   UNL A   1      32.109  21.635  25.424  1.00  0.00     0.064 A 
ATOM     10  C   UNL A   1      31.851  23.306  23.692  1.00  0.00     0.161 A 
ATOM     11  C   UNL A   1      32.126  22.336  22.721  1.00  0.00     0.051 A 
ATOM     12  C   UNL A   1      32.370  21.019  23.089  1.00  0.00     0.018 A 
BRANCH   8  13
ATOM     13  O   UNL A   1      31.661  23.933  25.993  1.00  0.00    -0.490 OA
BRANCH  13  14
ATOM     14  C   UNL A   1      30.308  24.106  26.429  1.00  0.00     0.226 C 
ATOM     15  C   UNL A   1      29.892  25.523  26.059  1.00  0.00     0.049 C 
ENDBRANCH  13  14
ENDBRANCH   8  13
BRANCH  10  16
ATOM     16  O   UNL A   1      31.688  24.564  23.172  1.00  0.00    -0.485 OA
BRANCH  16  17
ATOM     17  C   UNL A   1      32.844  25.408  23.122  1.00  0.00     0.265 C 
BRANCH  17  18
ATOM     18  C   UNL A   1      32.840  26.559  24.109  1.00  0.00    -0.009 A 
ATOM     19  C   UNL A   1      33.728  26.594  25.192  1.00  0.00     0.009 A 
ATOM     20  C   UNL A   1      31.918  27.605  23.964  1.00  0.00     0.029 A 
ATOM     21  C   UNL A   1      33.752  27.686  26.061  1.00  0.00     0.022 A 
ATOM     22  C   UNL A   1      31.933  28.700  24.836  1.00  0.00     0.060 A 
ATOM     23  C   UNL A   1      32.860  28.746  25.880  1.00  0.00     0.059 A 
ATOM     24  Cl  UNL A   1      30.788  29.963  24.553  1.00  0.00    -0.083 Cl
ATOM     25  Cl  UNL A   1      32.956  30.074  26.980  1.00  0.00    -0.083 Cl
ENDBRANCH  17  18
ENDBRANCH  16  17
ENDBRANCH  10  16
ENDBRANCH   4   7
ENDBRANCH   2   3
ENDBRANCH   1   2
BRANCH   1  26
ATOM     26  C   UNL A   1      37.922  20.277  24.739  1.00  0.00     0.023 C 
BRANCH  26  27
ATOM     27  C   UNL A   1      38.910  20.360  25.898  1.00  0.00     0.116 C 
BRANCH  27  28
ATOM     28  N   UNL A   1      40.003  19.402  25.807  1.00  0.00    -0.352 N 
ATOM     29  C   UNL A   1      41.345  19.558  26.077  1.00  0.00     0.251 C 
ATOM     30  H   UNL A   1      39.742  18.503  25.504  1.00  0.00     0.163 HD
ATOM     31  O   UNL A   1      42.125  18.643  25.850  1.00  0.00    -0.269 OA
BRANCH  29  32
ATOM     32  C   UNL A   1      41.855  20.845  26.603  1.00  0.00     0.039 A 
ATOM     33  C   UNL A   1      42.342  21.795  25.698  1.00  0.00     0.014 A 
ATOM     34  C   UNL A   1      41.841  21.128  27.970  1.00  0.00     0.014 A 
ATOM     35  C   UNL A   1      42.721  23.060  26.156  1.00  0.00     0.010 A 
ATOM     36  C   UNL A   1      42.140  22.414  28.414  1.00  0.00     0.010 A 
ATOM     37  C   UNL A   1      42.574  23.397  27.511  1.00  0.00    -0.014 A 
BRANCH  37  38
ATOM     38  C   UNL A   1      42.846  24.773  28.001  1.00  0.00     0.031 A 
ATOM     39  C   UNL A   1      44.238  25.175  28.405  1.00  0.00     0.074 A 
ATOM     40  C   UNL A   1      41.825  25.639  28.163  1.00  0.00     0.049 A 
ATOM     41  N   UNL A   1      44.654  26.294  28.943  1.00  0.00    -0.248 NA
ATOM     42  C   UNL A   1      45.298  24.176  28.205  1.00  0.00     0.031 C 
ATOM     43  C   UNL A   1      40.420  25.359  27.860  1.00  0.00     0.029 A 
ATOM     44  N   UNL A   1      41.810  26.928  28.638  1.00  0.00    -0.354 N 
ATOM     45  C   UNL A   1      46.015  26.125  29.163  1.00  0.00     0.074 A 
ATOM     46  C   UNL A   1      46.345  24.779  28.748  1.00  0.00     0.031 C 
ATOM     47  C   UNL A   1      39.685  26.449  28.136  1.00  0.00     0.029 A 
ATOM     48  C   UNL A   1      40.556  27.488  28.671  1.00  0.00     0.049 A 
ATOM     49  H   UNL A   1      42.621  27.404  28.927  1.00  0.00     0.167 HD
ATOM     50  C   UNL A   1      46.913  27.017  29.645  1.00  0.00     0.037 A 
ATOM     51  C   UNL A   1      40.152  28.702  29.093  1.00  0.00     0.037 A 
ATOM     52  C   UNL A   1      46.589  28.365  30.031  1.00  0.00     0.049 A 
ATOM     53  C   UNL A   1      41.168  29.675  29.623  1.00  0.00     0.074 A 
ATOM     54  C   UNL A   1      47.442  29.364  30.469  1.00  0.00     0.029 A 
ATOM     55  N   UNL A   1      45.312  28.904  30.025  1.00  0.00    -0.354 N 
ATOM     56  N   UNL A   1      42.463  29.525  29.760  1.00  0.00    -0.248 NA
ATOM     57  C   UNL A   1      40.667  30.989  30.052  1.00  0.00     0.031 C 
ATOM     58  C   UNL A   1      46.674  30.495  30.767  1.00  0.00     0.029 A 
ATOM     59  C   UNL A   1      45.350  30.216  30.470  1.00  0.00     0.049 A 
ATOM     60  H   UNL A   1      44.498  28.426  29.745  1.00  0.00     0.167 HD
ATOM     61  C   UNL A   1      42.935  30.730  30.264  1.00  0.00     0.074 A 
ATOM     62  C   UNL A   1      41.789  31.606  30.395  1.00  0.00     0.031 C 
ATOM     63  C   UNL A   1      44.203  31.079  30.587  1.00  0.00     0.037 A 
BRANCH  50  64
ATOM     64  C   UNL A   1      48.337  26.561  29.776  1.00  0.00     0.057 A 
ATOM     65  C   UNL A   1      48.803  25.917  30.930  1.00  0.00     0.134 A 
ATOM     66  C   UNL A   1      49.245  26.737  28.724  1.00  0.00     0.134 A 
ATOM     67  F   UNL A   1      47.986  25.727  31.978  1.00  0.00    -0.206 F 
ATOM     68  C   UNL A   1      50.127  25.492  31.045  1.00  0.00     0.040 A 
ATOM     69  C   UNL A   1      50.565  26.292  28.817  1.00  0.00     0.040 A 
ATOM     70  F   UNL A   1      48.865  27.341  27.588  1.00  0.00    -0.206 F 
ATOM     71  C   UNL A   1      51.011  25.673  29.984  1.00  0.00     0.006 A 
ENDBRANCH  50  64
BRANCH  51  72
ATOM     72  C   UNL A   1      38.718  29.078  29.012  1.00  0.00     0.057 A 
ATOM     73  C   UNL A   1      38.157  29.520  27.807  1.00  0.00     0.134 A 
ATOM     74  C   UNL A   1      37.878  29.017  30.130  1.00  0.00     0.134 A 
ATOM     75  F   UNL A   1      38.916  29.619  26.706  1.00  0.00    -0.206 F 
ATOM     76  C   UNL A   1      36.818  29.904  27.721  1.00  0.00     0.040 A 
ATOM     77  C   UNL A   1      36.531  29.375  30.053  1.00  0.00     0.040 A 
ATOM     78  F   UNL A   1      38.353  28.595  31.311  1.00  0.00    -0.206 F 
ATOM     79  C   UNL A   1      36.000  29.828  28.846  1.00  0.00     0.006 A 
ENDBRANCH  51  72
BRANCH  63  80
ATOM     80  C   UNL A   1      44.427  32.479  31.080  1.00  0.00     0.057 A 
ATOM     81  C   UNL A   1      44.409  32.794  32.444  1.00  0.00     0.134 A 
ATOM     82  C   UNL A   1      44.702  33.515  30.178  1.00  0.00     0.134 A 
ATOM     83  F   UNL A   1      44.138  31.850  33.358  1.00  0.00    -0.206 F 
ATOM     84  C   UNL A   1      44.638  34.096  32.893  1.00  0.00     0.040 A 
ATOM     85  C   UNL A   1      44.957  34.814  30.617  1.00  0.00     0.040 A 
ATOM     86  F   UNL A   1      44.741  33.277  28.858  1.00  0.00    -0.206 F 
ATOM     87  C   UNL A   1      44.921  35.109  31.979  1.00  0.00     0.006 A 
ENDBRANCH  63  80
ENDBRANCH  37  38
ENDBRANCH  29  32
ENDBRANCH  27  28
ENDBRANCH  26  27
ENDBRANCH   1  26
TORSDOF 16
ENDMDL
MODEL 3
REMARK VINA RESULT:     -11.8      4.013      8.127
REMARK SMILES CCOc1cc(C(=O)NCCCCNC(=O)c2ccc(-c3c4nc(c(-c5c(F)cccc5F)c5ccc([nH]5)c(-c5c(F)cccc5F)c5nc(c(-c6c(F)cccc6F)c6ccc3[nH]6)C=C5)C=C4)cc2)ccc1OCc1ccc(Cl)c(Cl)c1
REMARK SMILES IDX 11 1 10 2 9 3 7 4 8 5 6 7 4 8 5 9 73 10 72 11 71 12 3 13
REMARK SMILES IDX 2 14 1 15 74 16 75 17 76 18 77 19 83 20 78 21 81 22 79 23
REMARK SMILES IDX 82 24 80 25 12 26 13 27 14 28 15 29 16 31 17 32 18 33 70 34
REMARK SMILES IDX 19 35 69 36 20 37 21 38 22 39 63 40 23 41 68 42 62 43 64 44
REMARK SMILES IDX 24 45 67 46 61 47 60 48 25 50 51 51 34 52 50 53 35 54 38 55
REMARK SMILES IDX 49 56 65 57 36 58 37 59 48 61 66 62 39 63 26 64 27 65 32 66
REMARK SMILES IDX 28 67 29 68 31 69 33 70 30 71 52 72 53 73 58 74 54 75 55 76
REMARK SMILES IDX 57 77 59 78 56 79 40 80 41 81 46 82 42 83 43 84 45 85 47 86
REMARK SMILES IDX 44 87
REMARK H PARENT 9 6 14 30 64 49 38 60
REMARK Flexibility Score: inf
ROOT
ATOM      1  C   UNL A   1      32.926  29.591  24.958  1.00  0.00     0.023 C 
ENDROOT
BRANCH   1   2
ATOM      2  C   UNL A   1      31.403  29.523  25.013  1.00  0.00     0.116 C 
BRANCH   2   3
ATOM      3  N   UNL A   1      30.760  29.781  23.732  1.00  0.00    -0.352 N 
ATOM      4  C   UNL A   1      30.315  28.879  22.788  1.00  0.00     0.251 C 
ATOM      5  O   UNL A   1      29.882  29.269  21.710  1.00  0.00    -0.269 OA
ATOM      6  H   UNL A   1      30.623  30.731  23.510  1.00  0.00     0.163 HD
BRANCH   4   7
ATOM      7  C   UNL A   1      30.387  27.425  23.069  1.00  0.00     0.043 A 
ATOM      8  C   UNL A   1      31.608  25.334  22.930  1.00  0.00     0.161 A 
ATOM      9  C   UNL A   1      31.451  26.674  22.550  1.00  0.00     0.064 A 
ATOM     10  C   UNL A   1      30.701  24.763  23.833  1.00  0.00     0.161 A 
ATOM     11  C   UNL A   1      29.617  25.511  24.306  1.00  0.00     0.051 A 
ATOM     12  C   UNL A   1      29.432  26.824  23.891  1.00  0.00     0.018 A 
BRANCH   8  13
ATOM     13  O   UNL A   1      32.727  24.630  22.568  1.00  0.00    -0.490 OA
BRANCH  13  14
ATOM     14  C   UNL A   1      33.945  25.371  22.708  1.00  0.00     0.226 C 
ATOM     15  C   UNL A   1      34.405  25.215  24.151  1.00  0.00     0.049 C 
ENDBRANCH  13  14
ENDBRANCH   8  13
BRANCH  10  16
ATOM     16  O   UNL A   1      30.772  23.507  24.378  1.00  0.00    -0.485 OA
BRANCH  16  17
ATOM     17  C   UNL A   1      31.809  23.266  25.336  1.00  0.00     0.265 C 
BRANCH  17  18
ATOM     18  C   UNL A   1      32.573  21.971  25.142  1.00  0.00    -0.009 A 
ATOM     19  C   UNL A   1      31.915  20.778  24.813  1.00  0.00     0.009 A 
ATOM     20  C   UNL A   1      33.964  21.943  25.316  1.00  0.00     0.029 A 
ATOM     21  C   UNL A   1      32.635  19.606  24.583  1.00  0.00     0.022 A 
ATOM     22  C   UNL A   1      34.690  20.768  25.092  1.00  0.00     0.060 A 
ATOM     23  C   UNL A   1      34.026  19.599  24.713  1.00  0.00     0.059 A 
ATOM     24  Cl  UNL A   1      36.406  20.840  25.290  1.00  0.00    -0.083 Cl
ATOM     25  Cl  UNL A   1      34.857  18.119  24.396  1.00  0.00    -0.083 Cl
ENDBRANCH  17  18
ENDBRANCH  16  17
ENDBRANCH  10  16
ENDBRANCH   4   7
ENDBRANCH   2   3
ENDBRANCH   1   2
BRANCH   1  26
ATOM     26  C   UNL A   1      33.671  28.511  25.738  1.00  0.00     0.023 C 
BRANCH  26  27
ATOM     27  C   UNL A   1      33.630  28.635  27.258  1.00  0.00     0.116 C 
BRANCH  27  28
ATOM     28  N   UNL A   1      33.676  30.010  27.736  1.00  0.00    -0.352 N 
ATOM     29  C   UNL A   1      34.710  30.715  28.313  1.00  0.00     0.251 C 
ATOM     30  H   UNL A   1      32.838  30.515  27.630  1.00  0.00     0.163 HD
ATOM     31  O   UNL A   1      34.518  31.848  28.732  1.00  0.00    -0.269 OA
BRANCH  29  32
ATOM     32  C   UNL A   1      36.043  30.089  28.469  1.00  0.00     0.039 A 
ATOM     33  C   UNL A   1      36.945  30.155  27.402  1.00  0.00     0.014 A 
ATOM     34  C   UNL A   1      36.413  29.456  29.657  1.00  0.00     0.014 A 
ATOM     35  C   UNL A   1      38.247  29.673  27.563  1.00  0.00     0.010 A 
ATOM     36  C   UNL A   1      37.733  29.052  29.844  1.00  0.00     0.010 A 
ATOM     37  C   UNL A   1      38.668  29.165  28.802  1.00  0.00    -0.014 A 
BRANCH  37  38
ATOM     38  C   UNL A   1      40.080  28.769  29.039  1.00  0.00     0.031 A 
ATOM     39  C   UNL A   1      41.051  29.743  29.648  1.00  0.00     0.074 A 
ATOM     40  C   UNL A   1      40.512  27.558  28.631  1.00  0.00     0.049 A 
ATOM     41  N   UNL A   1      42.339  29.615  29.844  1.00  0.00    -0.248 NA
ATOM     42  C   UNL A   1      40.507  31.045  30.063  1.00  0.00     0.031 C 
ATOM     43  C   UNL A   1      39.687  26.539  27.979  1.00  0.00     0.029 A 
ATOM     44  N   UNL A   1      41.759  26.986  28.690  1.00  0.00    -0.354 N 
ATOM     45  C   UNL A   1      42.761  30.823  30.386  1.00  0.00     0.074 A 
ATOM     46  C   UNL A   1      41.603  31.688  30.440  1.00  0.00     0.031 C 
ATOM     47  C   UNL A   1      40.444  25.461  27.719  1.00  0.00     0.029 A 
ATOM     48  C   UNL A   1      41.813  25.725  28.147  1.00  0.00     0.049 A 
ATOM     49  H   UNL A   1      42.540  27.437  29.084  1.00  0.00     0.167 HD
ATOM     50  C   UNL A   1      43.995  31.172  30.821  1.00  0.00     0.037 A 
ATOM     51  C   UNL A   1      42.851  24.879  28.003  1.00  0.00     0.037 A 
ATOM     52  C   UNL A   1      45.141  30.301  30.794  1.00  0.00     0.049 A 
ATOM     53  C   UNL A   1      44.211  25.289  28.494  1.00  0.00     0.074 A 
ATOM     54  C   UNL A   1      46.418  30.541  31.271  1.00  0.00     0.029 A 
ATOM     55  N   UNL A   1      45.148  29.021  30.260  1.00  0.00    -0.354 N 
ATOM     56  N   UNL A   1      44.580  26.408  29.067  1.00  0.00    -0.248 NA
ATOM     57  C   UNL A   1      45.299  24.315  28.324  1.00  0.00     0.031 C 
ATOM     58  C   UNL A   1      47.208  29.422  30.990  1.00  0.00     0.029 A 
ATOM     59  C   UNL A   1      46.413  28.467  30.379  1.00  0.00     0.049 A 
ATOM     60  H   UNL A   1      44.370  28.572  29.856  1.00  0.00     0.167 HD
ATOM     61  C   UNL A   1      45.932  26.264  29.350  1.00  0.00     0.074 A 
ATOM     62  C   UNL A   1      46.315  24.943  28.898  1.00  0.00     0.031 C 
ATOM     63  C   UNL A   1      46.778  27.147  29.933  1.00  0.00     0.037 A 
BRANCH  50  64
ATOM     64  C   UNL A   1      44.167  32.558  31.369  1.00  0.00     0.057 A 
ATOM     65  C   UNL A   1      43.984  32.842  32.729  1.00  0.00     0.134 A 
ATOM     66  C   UNL A   1      44.553  33.615  30.535  1.00  0.00     0.134 A 
ATOM     67  F   UNL A   1      43.605  31.876  33.579  1.00  0.00    -0.206 F 
ATOM     68  C   UNL A   1      44.150  34.133  33.234  1.00  0.00     0.040 A 
ATOM     69  C   UNL A   1      44.747  34.905  31.034  1.00  0.00     0.040 A 
ATOM     70  F   UNL A   1      44.751  33.413  29.223  1.00  0.00    -0.206 F 
ATOM     71  C   UNL A   1      44.539  35.168  32.387  1.00  0.00     0.006 A 
ENDBRANCH  50  64
BRANCH  51  72
ATOM     72  C   UNL A   1      42.643  23.545  27.384  1.00  0.00     0.057 A 
ATOM     73  C   UNL A   1      42.828  23.352  26.010  1.00  0.00     0.134 A 
ATOM     74  C   UNL A   1      42.246  22.437  28.143  1.00  0.00     0.134 A 
ATOM     75  F   UNL A   1      43.189  24.380  25.228  1.00  0.00    -0.206 F 
ATOM     76  C   UNL A   1      42.609  22.112  25.409  1.00  0.00     0.040 A 
ATOM     77  C   UNL A   1      42.046  21.185  27.559  1.00  0.00     0.040 A 
ATOM     78  F   UNL A   1      42.059  22.554  29.465  1.00  0.00    -0.206 F 
ATOM     79  C   UNL A   1      42.220  21.022  26.185  1.00  0.00     0.006 A 
ENDBRANCH  51  72
BRANCH  63  80
ATOM     80  C   UNL A   1      48.195  26.701  30.149  1.00  0.00     0.057 A 
ATOM     81  C   UNL A   1      48.578  25.986  31.290  1.00  0.00     0.134 A 
ATOM     82  C   UNL A   1      49.177  26.959  29.184  1.00  0.00     0.134 A 
ATOM     83  F   UNL A   1      47.689  25.718  32.257  1.00  0.00    -0.206 F 
ATOM     84  C   UNL A   1      49.895  25.558  31.472  1.00  0.00     0.040 A 
ATOM     85  C   UNL A   1      50.490  26.515  29.344  1.00  0.00     0.040 A 
ATOM     86  F   UNL A   1      48.872  27.634  28.065  1.00  0.00    -0.206 F 
ATOM     87  C   UNL A   1      50.853  25.816  30.493  1.00  0.00     0.006 A 
ENDBRANCH  63  80
ENDBRANCH  37  38
ENDBRANCH  29  32
ENDBRANCH  27  28
ENDBRANCH  26  27
ENDBRANCH   1  26
TORSDOF 16
ENDMDL
