MODEL 1
REMARK VINA RESULT:     -12.4      0.000      0.000
REMARK SMILES O=C(NCCCCNC(=O)c1cccc(Nc2ccnc3ccc(F)cc23)c1)c1ccc(-c2c3nc(c(-c4c(F)cccc4F)c4ccc([nH]4)c(-c4c(F)cccc4F)c4nc(c(-c5c(F)cccc5F)c5ccc2[nH]5)C=C4)C=C3)cc1
REMARK SMILES IDX 5 1 4 2 3 3 1 4 2 5 29 7 30 8 82 9 31 10 81 11 32 12 33 13
REMARK SMILES IDX 34 14 75 15 35 16 80 17 74 18 76 19 36 20 79 21 73 22 72 23
REMARK SMILES IDX 37 25 63 26 46 27 62 28 47 29 50 30 61 31 77 32 48 33 49 34
REMARK SMILES IDX 60 36 78 37 51 38 38 39 39 40 44 41 40 42 41 43 43 44 45 45
REMARK SMILES IDX 42 46 64 47 65 48 70 49 66 50 67 51 69 52 71 53 68 54 52 55
REMARK SMILES IDX 53 56 58 57 54 58 55 59 57 60 59 61 56 62 6 63 7 64 8 65
REMARK SMILES IDX 9 66 10 68 11 69 12 70 28 71 13 72 15 73 14 74 16 75 17 77
REMARK SMILES IDX 18 78 27 79 19 80 21 81 26 82 20 83 22 84 24 85 23 86 25 87
REMARK H PARENT 3 6 76 24 50 35 8 67 16 76
REMARK Flexibility Score: inf
ROOT
ATOM      1  C   UNL A   1      33.692  28.085  25.605  1.00  0.00     0.023 C 
ENDROOT
BRANCH   1   2
ATOM      2  C   UNL A   1      33.705  28.330  27.110  1.00  0.00     0.116 C 
BRANCH   2   3
ATOM      3  N   UNL A   1      33.621  29.737  27.467  1.00  0.00    -0.352 N 
ATOM      4  O   UNL A   1      34.249  31.707  28.355  1.00  0.00    -0.269 OA
ATOM      5  C   UNL A   1      34.558  30.567  28.037  1.00  0.00     0.251 C 
ATOM      6  H   UNL A   1      32.756  30.164  27.269  1.00  0.00     0.163 HD
BRANCH   5   7
ATOM      7  C   UNL A   1      35.929  30.075  28.299  1.00  0.00     0.039 A 
ATOM      8  C   UNL A   1      36.276  29.511  29.529  1.00  0.00     0.014 A 
ATOM      9  C   UNL A   1      36.881  30.172  27.280  1.00  0.00     0.014 A 
ATOM     10  C   UNL A   1      37.604  29.183  29.790  1.00  0.00     0.010 A 
ATOM     11  C   UNL A   1      38.197  29.767  27.517  1.00  0.00     0.010 A 
ATOM     12  C   UNL A   1      38.577  29.303  28.785  1.00  0.00    -0.014 A 
BRANCH  12  13
ATOM     13  C   UNL A   1      39.982  28.910  29.061  1.00  0.00     0.031 A 
ATOM     14  C   UNL A   1      40.927  29.857  29.746  1.00  0.00     0.074 A 
ATOM     15  C   UNL A   1      40.407  27.690  28.684  1.00  0.00     0.049 A 
ATOM     16  N   UNL A   1      42.198  29.701  30.022  1.00  0.00    -0.248 NA
ATOM     17  C   UNL A   1      40.377  31.153  30.169  1.00  0.00     0.031 C 
ATOM     18  C   UNL A   1      39.585  26.683  28.010  1.00  0.00     0.029 A 
ATOM     19  N   UNL A   1      41.633  27.089  28.810  1.00  0.00    -0.354 N 
ATOM     20  C   UNL A   1      42.604  30.881  30.631  1.00  0.00     0.074 A 
ATOM     21  C   UNL A   1      41.451  31.757  30.660  1.00  0.00     0.031 C 
ATOM     22  C   UNL A   1      40.323  25.583  27.802  1.00  0.00     0.029 A 
ATOM     23  C   UNL A   1      41.683  25.827  28.270  1.00  0.00     0.049 A 
ATOM     24  H   UNL A   1      42.403  27.521  29.245  1.00  0.00     0.167 HD
ATOM     25  C   UNL A   1      43.825  31.203  31.124  1.00  0.00     0.037 A 
ATOM     26  C   UNL A   1      42.712  24.971  28.142  1.00  0.00     0.037 A 
ATOM     27  C   UNL A   1      44.966  30.324  31.100  1.00  0.00     0.049 A 
ATOM     28  C   UNL A   1      44.063  25.364  28.661  1.00  0.00     0.074 A 
ATOM     29  C   UNL A   1      46.237  30.545  31.605  1.00  0.00     0.029 A 
ATOM     30  N   UNL A   1      44.979  29.059  30.531  1.00  0.00    -0.354 N 
ATOM     31  N   UNL A   1      44.426  26.471  29.261  1.00  0.00    -0.248 NA
ATOM     32  C   UNL A   1      45.149  24.391  28.484  1.00  0.00     0.031 C 
ATOM     33  C   UNL A   1      47.030  29.434  31.298  1.00  0.00     0.029 A 
ATOM     34  C   UNL A   1      46.240  28.497  30.650  1.00  0.00     0.049 A 
ATOM     35  H   UNL A   1      44.205  28.623  30.104  1.00  0.00     0.167 HD
ATOM     36  C   UNL A   1      45.774  26.319  29.557  1.00  0.00     0.074 A 
ATOM     37  C   UNL A   1      46.161  25.008  29.079  1.00  0.00     0.031 C 
ATOM     38  C   UNL A   1      46.612  27.188  30.175  1.00  0.00     0.037 A 
BRANCH  25  39
ATOM     39  C   UNL A   1      43.996  32.575  31.710  1.00  0.00     0.057 A 
ATOM     40  C   UNL A   1      44.343  33.682  30.925  1.00  0.00     0.134 A 
ATOM     41  C   UNL A   1      43.785  32.797  33.078  1.00  0.00     0.134 A 
ATOM     42  F   UNL A   1      44.569  33.539  29.611  1.00  0.00    -0.206 F 
ATOM     43  C   UNL A   1      44.501  34.953  31.481  1.00  0.00     0.040 A 
ATOM     44  C   UNL A   1      43.914  34.068  33.641  1.00  0.00     0.040 A 
ATOM     45  F   UNL A   1      43.442  31.785  33.888  1.00  0.00    -0.206 F 
ATOM     46  C   UNL A   1      44.281  35.150  32.844  1.00  0.00     0.006 A 
ENDBRANCH  25  39
BRANCH  26  47
ATOM     47  C   UNL A   1      42.492  23.660  27.484  1.00  0.00     0.057 A 
ATOM     48  C   UNL A   1      42.585  23.522  26.096  1.00  0.00     0.134 A 
ATOM     49  C   UNL A   1      42.213  22.509  28.232  1.00  0.00     0.134 A 
ATOM     50  F   UNL A   1      42.834  24.592  25.326  1.00  0.00    -0.206 F 
ATOM     51  C   UNL A   1      42.403  22.287  25.472  1.00  0.00     0.040 A 
ATOM     52  C   UNL A   1      42.055  21.263  27.624  1.00  0.00     0.040 A 
ATOM     53  F   UNL A   1      42.121  22.574  29.568  1.00  0.00    -0.206 F 
ATOM     54  C   UNL A   1      42.145  21.151  26.238  1.00  0.00     0.006 A 
ENDBRANCH  26  47
BRANCH  38  55
ATOM     55  C   UNL A   1      48.023  26.731  30.407  1.00  0.00     0.057 A 
ATOM     56  C   UNL A   1      49.057  27.032  29.512  1.00  0.00     0.134 A 
ATOM     57  C   UNL A   1      48.355  26.016  31.565  1.00  0.00     0.134 A 
ATOM     58  F   UNL A   1      48.802  27.701  28.378  1.00  0.00    -0.206 F 
ATOM     59  C   UNL A   1      50.369  26.621  29.752  1.00  0.00     0.040 A 
ATOM     60  C   UNL A   1      49.668  25.624  31.828  1.00  0.00     0.040 A 
ATOM     61  F   UNL A   1      47.412  25.702  32.466  1.00  0.00    -0.206 F 
ATOM     62  C   UNL A   1      50.679  25.921  30.918  1.00  0.00     0.006 A 
ENDBRANCH  38  55
ENDBRANCH  12  13
ENDBRANCH   5   7
ENDBRANCH   2   3
ENDBRANCH   1   2
BRANCH   1  63
ATOM     63  C   UNL A   1      33.309  29.282  24.735  1.00  0.00     0.023 C 
BRANCH  63  64
ATOM     64  C   UNL A   1      33.290  29.025  23.232  1.00  0.00     0.116 C 
BRANCH  64  65
ATOM     65  N   UNL A   1      32.020  29.352  22.613  1.00  0.00    -0.352 N 
ATOM     66  C   UNL A   1      30.892  28.601  22.412  1.00  0.00     0.251 C 
ATOM     67  H   UNL A   1      31.958  30.276  22.278  1.00  0.00     0.163 HD
ATOM     68  O   UNL A   1      29.968  29.085  21.761  1.00  0.00    -0.269 OA
BRANCH  66  69
ATOM     69  C   UNL A   1      30.760  27.224  22.937  1.00  0.00     0.041 A 
ATOM     70  C   UNL A   1      30.130  27.061  24.177  1.00  0.00     0.014 A 
ATOM     71  C   UNL A   1      31.372  26.126  22.321  1.00  0.00     0.039 A 
ATOM     72  C   UNL A   1      30.065  25.804  24.773  1.00  0.00     0.003 A 
ATOM     73  C   UNL A   1      31.309  24.857  22.911  1.00  0.00     0.039 A 
ATOM     74  C   UNL A   1      30.654  24.709  24.141  1.00  0.00     0.026 A 
BRANCH  73  75
ATOM     75  N   UNL A   1      32.118  23.797  22.428  1.00  0.00    -0.355 N 
ATOM     76  H   UNL A   1      31.888  23.341  21.586  1.00  0.00     0.167 HD
BRANCH  75  77
ATOM     77  C   UNL A   1      33.264  23.400  23.171  1.00  0.00     0.050 A 
ATOM     78  C   UNL A   1      34.263  24.349  23.408  1.00  0.00     0.047 A 
ATOM     79  C   UNL A   1      33.414  22.093  23.683  1.00  0.00     0.027 A 
ATOM     80  C   UNL A   1      35.318  24.006  24.220  1.00  0.00     0.114 A 
ATOM     81  C   UNL A   1      34.550  21.848  24.490  1.00  0.00     0.072 A 
ATOM     82  C   UNL A   1      32.496  21.044  23.453  1.00  0.00     0.051 A 
ATOM     83  N   UNL A   1      35.472  22.785  24.763  1.00  0.00    -0.256 NA
ATOM     84  C   UNL A   1      34.733  20.585  25.032  1.00  0.00     0.032 A 
ATOM     85  C   UNL A   1      32.723  19.785  23.997  1.00  0.00     0.124 A 
ATOM     86  C   UNL A   1      33.836  19.545  24.786  1.00  0.00     0.041 A 
ATOM     87  F   UNL A   1      31.859  18.791  23.756  1.00  0.00    -0.207 F 
ENDBRANCH  75  77
ENDBRANCH  73  75
ENDBRANCH  66  69
ENDBRANCH  64  65
ENDBRANCH  63  64
ENDBRANCH   1  63
TORSDOF 13
ENDMDL
MODEL 2
REMARK VINA RESULT:     -12.3      3.794      7.894
REMARK SMILES O=C(NCCCCNC(=O)c1cccc(Nc2ccnc3ccc(F)cc23)c1)c1ccc(-c2c3nc(c(-c4c(F)cccc4F)c4ccc([nH]4)c(-c4c(F)cccc4F)c4nc(c(-c5c(F)cccc5F)c5ccc2[nH]5)C=C4)C=C3)cc1
REMARK SMILES IDX 5 1 4 2 3 3 1 4 2 5 29 7 30 8 82 9 31 10 81 11 32 12 33 13
REMARK SMILES IDX 34 14 75 15 35 16 80 17 74 18 76 19 36 20 79 21 73 22 72 23
REMARK SMILES IDX 37 25 63 26 46 27 62 28 47 29 50 30 61 31 77 32 48 33 49 34
REMARK SMILES IDX 60 36 78 37 51 38 38 39 39 40 44 41 40 42 41 43 43 44 45 45
REMARK SMILES IDX 42 46 64 47 65 48 70 49 66 50 67 51 69 52 71 53 68 54 52 55
REMARK SMILES IDX 53 56 58 57 54 58 55 59 57 60 59 61 56 62 6 63 7 64 8 65
REMARK SMILES IDX 9 66 10 68 11 69 12 70 28 71 13 72 15 73 14 74 16 75 17 77
REMARK SMILES IDX 18 78 27 79 19 80 21 81 26 82 20 83 22 84 24 85 23 86 25 87
REMARK H PARENT 3 6 76 24 50 35 8 67 16 76
REMARK Flexibility Score: inf
ROOT
ATOM      1  C   UNL A   1      31.287  32.159  26.626  1.00  0.00     0.023 C 
ENDROOT
BRANCH   1   2
ATOM      2  C   UNL A   1      32.536  32.841  27.176  1.00  0.00     0.116 C 
BRANCH   2   3
ATOM      3  N   UNL A   1      32.299  34.203  27.626  1.00  0.00    -0.352 N 
ATOM      4  O   UNL A   1      32.528  36.057  28.881  1.00  0.00    -0.269 OA
ATOM      5  C   UNL A   1      32.955  34.952  28.575  1.00  0.00     0.251 C 
ATOM      6  H   UNL A   1      31.551  34.663  27.181  1.00  0.00     0.163 HD
BRANCH   5   7
ATOM      7  C   UNL A   1      34.155  34.413  29.252  1.00  0.00     0.039 A 
ATOM      8  C   UNL A   1      35.432  34.578  28.711  1.00  0.00     0.014 A 
ATOM      9  C   UNL A   1      33.992  33.738  30.465  1.00  0.00     0.014 A 
ATOM     10  C   UNL A   1      36.522  33.944  29.301  1.00  0.00     0.010 A 
ATOM     11  C   UNL A   1      35.099  33.169  31.099  1.00  0.00     0.010 A 
ATOM     12  C   UNL A   1      36.367  33.237  30.504  1.00  0.00    -0.014 A 
BRANCH  12  13
ATOM     13  C   UNL A   1      37.544  32.600  31.148  1.00  0.00     0.031 A 
ATOM     14  C   UNL A   1      38.231  31.426  30.510  1.00  0.00     0.074 A 
ATOM     15  C   UNL A   1      37.990  33.085  32.322  1.00  0.00     0.049 A 
ATOM     16  N   UNL A   1      39.238  30.716  30.953  1.00  0.00    -0.248 NA
ATOM     17  C   UNL A   1      37.715  30.983  29.206  1.00  0.00     0.031 C 
ATOM     18  C   UNL A   1      37.407  34.218  33.042  1.00  0.00     0.029 A 
ATOM     19  N   UNL A   1      39.034  32.686  33.118  1.00  0.00    -0.354 N 
ATOM     20  C   UNL A   1      39.464  29.734  29.997  1.00  0.00     0.074 A 
ATOM     21  C   UNL A   1      38.470  29.921  28.961  1.00  0.00     0.031 C 
ATOM     22  C   UNL A   1      38.114  34.437  34.160  1.00  0.00     0.029 A 
ATOM     23  C   UNL A   1      39.158  33.425  34.268  1.00  0.00     0.049 A 
ATOM     24  H   UNL A   1      39.635  31.942  32.886  1.00  0.00     0.167 HD
ATOM     25  C   UNL A   1      40.415  28.769  29.983  1.00  0.00     0.037 A 
ATOM     26  C   UNL A   1      40.001  33.290  35.308  1.00  0.00     0.037 A 
ATOM     27  C   UNL A   1      41.407  28.593  31.013  1.00  0.00     0.049 A 
ATOM     28  C   UNL A   1      41.020  32.190  35.288  1.00  0.00     0.074 A 
ATOM     29  C   UNL A   1      42.434  27.666  31.073  1.00  0.00     0.029 A 
ATOM     30  N   UNL A   1      41.490  29.354  32.170  1.00  0.00    -0.354 N 
ATOM     31  N   UNL A   1      41.242  31.287  34.364  1.00  0.00    -0.248 NA
ATOM     32  C   UNL A   1      41.907  32.088  36.455  1.00  0.00     0.031 C 
ATOM     33  C   UNL A   1      43.107  27.835  32.289  1.00  0.00     0.029 A 
ATOM     34  C   UNL A   1      42.535  28.903  32.962  1.00  0.00     0.049 A 
ATOM     35  H   UNL A   1      40.894  30.105  32.397  1.00  0.00     0.167 HD
ATOM     36  C   UNL A   1      42.308  30.526  34.824  1.00  0.00     0.074 A 
ATOM     37  C   UNL A   1      42.694  31.079  36.105  1.00  0.00     0.031 C 
ATOM     38  C   UNL A   1      42.914  29.466  34.233  1.00  0.00     0.037 A 
BRANCH  25  39
ATOM     39  C   UNL A   1      40.413  27.809  28.827  1.00  0.00     0.057 A 
ATOM     40  C   UNL A   1      39.644  26.638  28.833  1.00  0.00     0.134 A 
ATOM     41  C   UNL A   1      41.170  28.076  27.678  1.00  0.00     0.134 A 
ATOM     42  F   UNL A   1      38.903  26.317  29.904  1.00  0.00    -0.206 F 
ATOM     43  C   UNL A   1      39.651  25.753  27.753  1.00  0.00     0.040 A 
ATOM     44  C   UNL A   1      41.164  27.212  26.581  1.00  0.00     0.040 A 
ATOM     45  F   UNL A   1      41.922  29.184  27.600  1.00  0.00    -0.206 F 
ATOM     46  C   UNL A   1      40.409  26.042  26.620  1.00  0.00     0.006 A 
ENDBRANCH  25  39
BRANCH  26  47
ATOM     47  C   UNL A   1      39.901  34.226  36.454  1.00  0.00     0.057 A 
ATOM     48  C   UNL A   1      40.556  35.461  36.440  1.00  0.00     0.134 A 
ATOM     49  C   UNL A   1      39.123  33.919  37.578  1.00  0.00     0.134 A 
ATOM     50  F   UNL A   1      41.328  35.803  35.398  1.00  0.00    -0.206 F 
ATOM     51  C   UNL A   1      40.448  36.357  37.504  1.00  0.00     0.040 A 
ATOM     52  C   UNL A   1      38.983  34.816  38.637  1.00  0.00     0.040 A 
ATOM     53  F   UNL A   1      38.461  32.754  37.647  1.00  0.00    -0.206 F 
ATOM     54  C   UNL A   1      39.652  36.037  38.604  1.00  0.00     0.006 A 
ENDBRANCH  26  47
BRANCH  38  55
ATOM     55  C   UNL A   1      44.086  28.861  34.947  1.00  0.00     0.057 A 
ATOM     56  C   UNL A   1      43.948  27.761  35.803  1.00  0.00     0.134 A 
ATOM     57  C   UNL A   1      45.378  29.363  34.741  1.00  0.00     0.134 A 
ATOM     58  F   UNL A   1      42.736  27.243  36.054  1.00  0.00    -0.206 F 
ATOM     59  C   UNL A   1      45.051  27.194  36.442  1.00  0.00     0.040 A 
ATOM     60  C   UNL A   1      46.491  28.787  35.354  1.00  0.00     0.040 A 
ATOM     61  F   UNL A   1      45.580  30.411  33.928  1.00  0.00    -0.206 F 
ATOM     62  C   UNL A   1      46.329  27.703  36.212  1.00  0.00     0.006 A 
ENDBRANCH  38  55
ENDBRANCH  12  13
ENDBRANCH   5   7
ENDBRANCH   2   3
ENDBRANCH   1   2
BRANCH   1  63
ATOM     63  C   UNL A   1      31.470  30.726  26.128  1.00  0.00     0.023 C 
BRANCH  63  64
ATOM     64  C   UNL A   1      31.852  29.702  27.192  1.00  0.00     0.116 C 
BRANCH  64  65
ATOM     65  N   UNL A   1      33.279  29.643  27.440  1.00  0.00    -0.352 N 
ATOM     66  C   UNL A   1      34.268  28.895  26.857  1.00  0.00     0.251 C 
ATOM     67  H   UNL A   1      33.593  30.246  28.153  1.00  0.00     0.163 HD
ATOM     68  O   UNL A   1      35.405  28.952  27.322  1.00  0.00    -0.269 OA
BRANCH  66  69
ATOM     69  C   UNL A   1      34.006  28.009  25.701  1.00  0.00     0.041 A 
ATOM     70  C   UNL A   1      33.994  28.592  24.428  1.00  0.00     0.014 A 
ATOM     71  C   UNL A   1      33.624  26.671  25.855  1.00  0.00     0.039 A 
ATOM     72  C   UNL A   1      33.655  27.833  23.311  1.00  0.00     0.003 A 
ATOM     73  C   UNL A   1      33.283  25.899  24.736  1.00  0.00     0.039 A 
ATOM     74  C   UNL A   1      33.300  26.494  23.468  1.00  0.00     0.026 A 
BRANCH  73  75
ATOM     75  N   UNL A   1      32.670  24.630  24.897  1.00  0.00    -0.355 N 
ATOM     76  H   UNL A   1      31.808  24.437  24.463  1.00  0.00     0.167 HD
BRANCH  75  77
ATOM     77  C   UNL A   1      33.314  23.641  25.690  1.00  0.00     0.050 A 
ATOM     78  C   UNL A   1      32.736  23.292  26.914  1.00  0.00     0.047 A 
ATOM     79  C   UNL A   1      34.501  22.998  25.275  1.00  0.00     0.027 A 
ATOM     80  C   UNL A   1      33.290  22.260  27.634  1.00  0.00     0.114 A 
ATOM     81  C   UNL A   1      34.991  21.962  26.105  1.00  0.00     0.072 A 
ATOM     82  C   UNL A   1      35.199  23.316  24.088  1.00  0.00     0.051 A 
ATOM     83  N   UNL A   1      34.393  21.592  27.249  1.00  0.00    -0.256 NA
ATOM     84  C   UNL A   1      36.144  21.288  25.731  1.00  0.00     0.032 A 
ATOM     85  C   UNL A   1      36.361  22.630  23.756  1.00  0.00     0.124 A 
ATOM     86  C   UNL A   1      36.842  21.617  24.570  1.00  0.00     0.041 A 
ATOM     87  F   UNL A   1      37.028  22.952  22.641  1.00  0.00    -0.207 F 
ENDBRANCH  75  77
ENDBRANCH  73  75
ENDBRANCH  66  69
ENDBRANCH  64  65
ENDBRANCH  63  64
ENDBRANCH   1  63
TORSDOF 13
ENDMDL
MODEL 3
REMARK VINA RESULT:     -12.2      1.389      1.870
REMARK SMILES O=C(NCCCCNC(=O)c1cccc(Nc2ccnc3ccc(F)cc23)c1)c1ccc(-c2c3nc(c(-c4c(F)cccc4F)c4ccc([nH]4)c(-c4c(F)cccc4F)c4nc(c(-c5c(F)cccc5F)c5ccc2[nH]5)C=C4)C=C3)cc1
REMARK SMILES IDX 5 1 4 2 3 3 1 4 2 5 29 7 30 8 82 9 31 10 81 11 32 12 33 13
REMARK SMILES IDX 34 14 75 15 35 16 80 17 74 18 76 19 36 20 79 21 73 22 72 23
REMARK SMILES IDX 37 25 63 26 46 27 62 28 47 29 50 30 61 31 77 32 48 33 49 34
REMARK SMILES IDX 60 36 78 37 51 38 38 39 39 40 44 41 40 42 41 43 43 44 45 45
REMARK SMILES IDX 42 46 64 47 65 48 70 49 66 50 67 51 69 52 71 53 68 54 52 55
REMARK SMILES IDX 53 56 58 57 54 58 55 59 57 60 59 61 56 62 6 63 7 64 8 65
REMARK SMILES IDX 9 66 10 68 11 69 12 70 28 71 13 72 15 73 14 74 16 75 17 77
REMARK SMILES IDX 18 78 27 79 19 80 21 81 26 82 20 83 22 84 24 85 23 86 25 87
REMARK H PARENT 3 6 76 24 50 35 8 67 16 76
REMARK Flexibility Score: inf
ROOT
ATOM      1  C   UNL A   1      33.140  28.204  25.593  1.00  0.00     0.023 C 
ENDROOT
BRANCH   1   2
ATOM      2  C   UNL A   1      33.889  28.411  26.906  1.00  0.00     0.116 C 
BRANCH   2   3
ATOM      3  N   UNL A   1      33.773  29.762  27.430  1.00  0.00    -0.352 N 
ATOM      4  O   UNL A   1      34.346  31.617  28.567  1.00  0.00    -0.269 OA
ATOM      5  C   UNL A   1      34.682  30.529  28.120  1.00  0.00     0.251 C 
ATOM      6  H   UNL A   1      32.906  30.198  27.263  1.00  0.00     0.163 HD
BRANCH   5   7
ATOM      7  C   UNL A   1      36.054  30.027  28.356  1.00  0.00     0.039 A 
ATOM      8  C   UNL A   1      36.411  29.425  29.565  1.00  0.00     0.014 A 
ATOM      9  C   UNL A   1      36.997  30.154  27.333  1.00  0.00     0.014 A 
ATOM     10  C   UNL A   1      37.740  29.088  29.805  1.00  0.00     0.010 A 
ATOM     11  C   UNL A   1      38.314  29.740  27.546  1.00  0.00     0.010 A 
ATOM     12  C   UNL A   1      38.704  29.238  28.796  1.00  0.00    -0.014 A 
BRANCH  12  13
ATOM     13  C   UNL A   1      40.112  28.834  29.048  1.00  0.00     0.031 A 
ATOM     14  C   UNL A   1      41.073  29.772  29.723  1.00  0.00     0.074 A 
ATOM     15  C   UNL A   1      40.523  27.614  28.657  1.00  0.00     0.049 A 
ATOM     16  N   UNL A   1      42.347  29.606  29.978  1.00  0.00    -0.248 NA
ATOM     17  C   UNL A   1      40.537  31.069  30.162  1.00  0.00     0.031 C 
ATOM     18  C   UNL A   1      39.685  26.616  27.991  1.00  0.00     0.029 A 
ATOM     19  N   UNL A   1      41.747  27.005  28.761  1.00  0.00    -0.354 N 
ATOM     20  C   UNL A   1      42.770  30.781  30.588  1.00  0.00     0.074 A 
ATOM     21  C   UNL A   1      41.622  31.663  30.639  1.00  0.00     0.031 C 
ATOM     22  C   UNL A   1      40.413  25.512  27.765  1.00  0.00     0.029 A 
ATOM     23  C   UNL A   1      41.780  25.746  28.214  1.00  0.00     0.049 A 
ATOM     24  H   UNL A   1      42.527  27.429  29.187  1.00  0.00     0.167 HD
ATOM     25  C   UNL A   1      44.000  31.092  31.064  1.00  0.00     0.037 A 
ATOM     26  C   UNL A   1      42.802  24.884  28.065  1.00  0.00     0.037 A 
ATOM     27  C   UNL A   1      45.135  30.206  31.017  1.00  0.00     0.049 A 
ATOM     28  C   UNL A   1      44.164  25.266  28.565  1.00  0.00     0.074 A 
ATOM     29  C   UNL A   1      46.414  30.416  31.504  1.00  0.00     0.029 A 
ATOM     30  N   UNL A   1      45.131  28.944  30.441  1.00  0.00    -0.354 N 
ATOM     31  N   UNL A   1      44.543  26.368  29.166  1.00  0.00    -0.248 NA
ATOM     32  C   UNL A   1      45.241  24.287  28.366  1.00  0.00     0.031 C 
ATOM     33  C   UNL A   1      47.196  29.302  31.178  1.00  0.00     0.029 A 
ATOM     34  C   UNL A   1      46.391  28.374  30.538  1.00  0.00     0.049 A 
ATOM     35  H   UNL A   1      44.348  28.516  30.024  1.00  0.00     0.167 HD
ATOM     36  C   UNL A   1      45.894  26.206  29.440  1.00  0.00     0.074 A 
ATOM     37  C   UNL A   1      46.266  24.895  28.949  1.00  0.00     0.031 C 
ATOM     38  C   UNL A   1      46.747  27.065  30.049  1.00  0.00     0.037 A 
BRANCH  25  39
ATOM     39  C   UNL A   1      44.189  32.460  31.655  1.00  0.00     0.057 A 
ATOM     40  C   UNL A   1      44.578  33.560  30.879  1.00  0.00     0.134 A 
ATOM     41  C   UNL A   1      43.952  32.686  33.018  1.00  0.00     0.134 A 
ATOM     42  F   UNL A   1      44.830  33.412  29.569  1.00  0.00    -0.206 F 
ATOM     43  C   UNL A   1      44.751  34.826  31.439  1.00  0.00     0.040 A 
ATOM     44  C   UNL A   1      44.096  33.954  33.585  1.00  0.00     0.040 A 
ATOM     45  F   UNL A   1      43.568  31.681  33.819  1.00  0.00    -0.206 F 
ATOM     46  C   UNL A   1      44.505  35.027  32.797  1.00  0.00     0.006 A 
ENDBRANCH  25  39
BRANCH  26  47
ATOM     47  C   UNL A   1      42.564  23.578  27.404  1.00  0.00     0.057 A 
ATOM     48  C   UNL A   1      42.747  23.420  26.026  1.00  0.00     0.134 A 
ATOM     49  C   UNL A   1      42.177  22.450  28.139  1.00  0.00     0.134 A 
ATOM     50  F   UNL A   1      43.101  24.468  25.268  1.00  0.00    -0.206 F 
ATOM     51  C   UNL A   1      42.548  22.188  25.401  1.00  0.00     0.040 A 
ATOM     52  C   UNL A   1      42.001  21.207  27.531  1.00  0.00     0.040 A 
ATOM     53  F   UNL A   1      41.995  22.535  29.465  1.00  0.00    -0.206 F 
ATOM     54  C   UNL A   1      42.181  21.075  26.156  1.00  0.00     0.006 A 
ENDBRANCH  26  47
BRANCH  38  55
ATOM     55  C   UNL A   1      48.159  26.599  30.257  1.00  0.00     0.057 A 
ATOM     56  C   UNL A   1      49.178  26.890  29.343  1.00  0.00     0.134 A 
ATOM     57  C   UNL A   1      48.506  25.885  31.411  1.00  0.00     0.134 A 
ATOM     58  F   UNL A   1      48.908  27.557  28.211  1.00  0.00    -0.206 F 
ATOM     59  C   UNL A   1      50.492  26.470  29.560  1.00  0.00     0.040 A 
ATOM     60  C   UNL A   1      49.821  25.483  31.651  1.00  0.00     0.040 A 
ATOM     61  F   UNL A   1      47.578  25.580  32.330  1.00  0.00    -0.206 F 
ATOM     62  C   UNL A   1      50.817  25.771  30.722  1.00  0.00     0.006 A 
ENDBRANCH  38  55
ENDBRANCH  12  13
ENDBRANCH   5   7
ENDBRANCH   2   3
ENDBRANCH   1   2
BRANCH   1  63
ATOM     63  C   UNL A   1      33.905  28.564  24.321  1.00  0.00     0.023 C 
BRANCH  63  64
ATOM     64  C   UNL A   1      33.047  28.828  23.088  1.00  0.00     0.116 C 
BRANCH  64  65
ATOM     65  N   UNL A   1      33.277  27.875  22.019  1.00  0.00    -0.352 N 
ATOM     66  C   UNL A   1      33.009  26.535  21.929  1.00  0.00     0.251 C 
ATOM     67  H   UNL A   1      33.699  28.260  21.216  1.00  0.00     0.163 HD
ATOM     68  O   UNL A   1      33.399  25.919  20.938  1.00  0.00    -0.269 OA
BRANCH  66  69
ATOM     69  C   UNL A   1      32.285  25.804  22.992  1.00  0.00     0.041 A 
ATOM     70  C   UNL A   1      30.943  26.140  23.211  1.00  0.00     0.014 A 
ATOM     71  C   UNL A   1      32.930  24.922  23.868  1.00  0.00     0.039 A 
ATOM     72  C   UNL A   1      30.236  25.562  24.262  1.00  0.00     0.003 A 
ATOM     73  C   UNL A   1      32.225  24.335  24.926  1.00  0.00     0.039 A 
ATOM     74  C   UNL A   1      30.877  24.665  25.115  1.00  0.00     0.026 A 
BRANCH  73  75
ATOM     75  N   UNL A   1      32.916  23.637  25.951  1.00  0.00    -0.355 N 
ATOM     76  H   UNL A   1      32.937  23.995  26.868  1.00  0.00     0.167 HD
BRANCH  75  77
ATOM     77  C   UNL A   1      33.577  22.417  25.639  1.00  0.00     0.050 A 
ATOM     78  C   UNL A   1      32.799  21.273  25.439  1.00  0.00     0.047 A 
ATOM     79  C   UNL A   1      34.981  22.333  25.512  1.00  0.00     0.027 A 
ATOM     80  C   UNL A   1      33.421  20.117  25.028  1.00  0.00     0.114 A 
ATOM     81  C   UNL A   1      35.512  21.087  25.102  1.00  0.00     0.072 A 
ATOM     82  C   UNL A   1      35.863  23.411  25.750  1.00  0.00     0.051 A 
ATOM     83  N   UNL A   1      34.750  20.010  24.852  1.00  0.00    -0.256 NA
ATOM     84  C   UNL A   1      36.884  20.958  24.945  1.00  0.00     0.032 A 
ATOM     85  C   UNL A   1      37.234  23.238  25.601  1.00  0.00     0.124 A 
ATOM     86  C   UNL A   1      37.754  22.018  25.200  1.00  0.00     0.041 A 
ATOM     87  F   UNL A   1      38.064  24.259  25.849  1.00  0.00    -0.207 F 
ENDBRANCH  75  77
ENDBRANCH  73  75
ENDBRANCH  66  69
ENDBRANCH  64  65
ENDBRANCH  63  64
ENDBRANCH   1  63
TORSDOF 13
ENDMDL
