MODEL 1
REMARK VINA RESULT:     -11.9      0.000      0.000
REMARK SMILES Cc1cc(C[NH+]2C[C@@H](C)[C@H](C)C2)oc1C(=O)NCCCCNC(=O)c1ccc(-c2c3nc(c(-c4c(F)cccc4F)c4ccc([nH]4)c(-c4c(F)cccc4F)c4nc(c(-c5c(F)cccc5F)c5ccc2[nH]5)C=C4)C=C3)cc1
REMARK SMILES IDX 19 1 18 2 17 3 15 4 16 5 14 7 1 8 2 9 3 10 4 11 13 12 5 13
REMARK SMILES IDX 6 14 7 15 12 16 8 18 10 19 9 20 11 21 20 22 21 23 22 24
REMARK SMILES IDX 23 25 24 27 25 28 26 29 78 30 27 31 77 32 28 33 29 34 30 35
REMARK SMILES IDX 71 36 31 37 76 38 70 39 72 40 32 41 75 42 69 43 68 44 33 46
REMARK SMILES IDX 59 47 42 48 58 49 43 50 46 51 57 52 73 53 44 54 45 55 56 57
REMARK SMILES IDX 74 58 47 59 34 60 35 61 40 62 36 63 37 64 39 65 41 66 38 67
REMARK SMILES IDX 60 68 61 69 66 70 62 71 63 72 65 73 67 74 64 75 48 76 49 77
REMARK SMILES IDX 54 78 50 79 51 80 53 81 55 82 52 83
REMARK H PARENT 17 6 6 17 22 26 72 45 46 56
REMARK Flexibility Score: inf
ROOT
ATOM      1  C   UNL A   1      31.841  30.189  26.936  1.00  0.00     0.023 C 
ENDROOT
BRANCH   1   2
ATOM      2  C   UNL A   1      33.111  29.489  26.470  1.00  0.00     0.116 C 
BRANCH   2   3
ATOM      3  N   UNL A   1      33.002  28.054  26.378  1.00  0.00    -0.349 N 
ATOM      4  C   UNL A   1      32.354  27.290  25.429  1.00  0.00     0.287 C 
ATOM      5  O   UNL A   1      32.341  26.076  25.646  1.00  0.00    -0.266 OA
ATOM      6  H   UNL A   1      33.454  27.549  27.091  1.00  0.00     0.163 HD
BRANCH   4   7
ATOM      7  C   UNL A   1      31.699  27.894  24.276  1.00  0.00     0.194 A 
ATOM      8  C   UNL A   1      33.456  28.795  22.559  1.00  0.00     0.049 C 
ATOM      9  C   UNL A   1      32.102  28.505  23.089  1.00  0.00     0.001 A 
ATOM     10  C   UNL A   1      30.908  28.815  22.376  1.00  0.00     0.056 A 
ATOM     11  C   UNL A   1      29.852  28.427  23.162  1.00  0.00     0.159 A 
ATOM     12  O   UNL A   1      30.322  27.838  24.293  1.00  0.00    -0.450 OA
BRANCH  11  13
ATOM     13  C   UNL A   1      28.369  28.533  23.013  1.00  0.00     0.338 C 
BRANCH  13  14
ATOM     14  N   UNL A   1      27.876  29.882  22.718  1.00  0.00    -0.328 N 
ATOM     15  C   UNL A   1      28.464  30.936  23.547  1.00  0.00     0.266 C 
ATOM     16  C   UNL A   1      27.922  30.294  21.313  1.00  0.00     0.266 C 
ATOM     17  H   UNL A   1      26.892  29.780  22.964  1.00  0.00     0.348 HD
ATOM     18  C   UNL A   1      28.193  32.201  22.739  1.00  0.00     0.049 C 
ATOM     19  C   UNL A   1      28.476  31.721  21.315  1.00  0.00     0.049 C 
ATOM     20  C   UNL A   1      29.062  33.369  23.182  1.00  0.00     0.014 C 
ATOM     21  C   UNL A   1      27.872  32.592  20.226  1.00  0.00     0.014 C 
ENDBRANCH  13  14
ENDBRANCH  11  13
ENDBRANCH   4   7
ENDBRANCH   2   3
ENDBRANCH   1   2
BRANCH   1  22
ATOM     22  C   UNL A   1      31.761  31.693  26.677  1.00  0.00     0.023 C 
BRANCH  22  23
ATOM     23  C   UNL A   1      32.880  32.546  27.266  1.00  0.00     0.116 C 
BRANCH  23  24
ATOM     24  N   UNL A   1      32.478  33.909  27.588  1.00  0.00    -0.352 N 
ATOM     25  C   UNL A   1      33.008  34.808  28.486  1.00  0.00     0.251 C 
ATOM     26  H   UNL A   1      31.702  34.241  27.081  1.00  0.00     0.163 HD
ATOM     27  O   UNL A   1      32.463  35.896  28.655  1.00  0.00    -0.269 OA
BRANCH  25  28
ATOM     28  C   UNL A   1      34.200  34.452  29.284  1.00  0.00     0.039 A 
ATOM     29  C   UNL A   1      34.019  33.940  30.572  1.00  0.00     0.014 A 
ATOM     30  C   UNL A   1      35.486  34.589  28.760  1.00  0.00     0.014 A 
ATOM     31  C   UNL A   1      35.120  33.462  31.288  1.00  0.00     0.010 A 
ATOM     32  C   UNL A   1      36.568  34.031  29.435  1.00  0.00     0.010 A 
ATOM     33  C   UNL A   1      36.395  33.449  30.701  1.00  0.00    -0.014 A 
BRANCH  33  34
ATOM     34  C   UNL A   1      37.556  32.814  31.379  1.00  0.00     0.031 A 
ATOM     35  C   UNL A   1      38.220  31.609  30.774  1.00  0.00     0.074 A 
ATOM     36  C   UNL A   1      37.956  33.268  32.583  1.00  0.00     0.049 A 
ATOM     37  N   UNL A   1      39.178  30.860  31.261  1.00  0.00    -0.248 NA
ATOM     38  C   UNL A   1      37.719  31.165  29.464  1.00  0.00     0.031 C 
ATOM     39  C   UNL A   1      37.359  34.393  33.309  1.00  0.00     0.029 A 
ATOM     40  N   UNL A   1      38.956  32.832  33.418  1.00  0.00    -0.354 N 
ATOM     41  C   UNL A   1      39.377  29.850  30.330  1.00  0.00     0.074 A 
ATOM     42  C   UNL A   1      38.407  30.048  29.276  1.00  0.00     0.031 C 
ATOM     43  C   UNL A   1      38.019  34.571  34.465  1.00  0.00     0.029 A 
ATOM     44  C   UNL A   1      39.058  33.553  34.583  1.00  0.00     0.049 A 
ATOM     45  H   UNL A   1      39.543  32.072  33.202  1.00  0.00     0.167 HD
ATOM     46  C   UNL A   1      40.301  28.859  30.339  1.00  0.00     0.037 A 
ATOM     47  C   UNL A   1      39.889  33.407  35.632  1.00  0.00     0.037 A 
ATOM     48  C   UNL A   1      41.290  28.682  31.368  1.00  0.00     0.049 A 
ATOM     49  C   UNL A   1      40.912  32.307  35.613  1.00  0.00     0.074 A 
ATOM     50  C   UNL A   1      42.314  27.754  31.430  1.00  0.00     0.029 A 
ATOM     51  N   UNL A   1      41.378  29.453  32.519  1.00  0.00    -0.354 N 
ATOM     52  N   UNL A   1      41.136  31.403  34.691  1.00  0.00    -0.248 NA
ATOM     53  C   UNL A   1      41.803  32.210  36.778  1.00  0.00     0.031 C 
ATOM     54  C   UNL A   1      43.000  27.938  32.635  1.00  0.00     0.029 A 
ATOM     55  C   UNL A   1      42.428  29.008  33.305  1.00  0.00     0.049 A 
ATOM     56  H   UNL A   1      40.783  30.204  32.742  1.00  0.00     0.167 HD
ATOM     57  C   UNL A   1      42.205  30.646  35.152  1.00  0.00     0.074 A 
ATOM     58  C   UNL A   1      42.596  31.207  36.429  1.00  0.00     0.031 C 
ATOM     59  C   UNL A   1      42.809  29.580  34.570  1.00  0.00     0.037 A 
BRANCH  46  60
ATOM     60  C   UNL A   1      40.290  27.897  29.188  1.00  0.00     0.057 A 
ATOM     61  C   UNL A   1      39.519  26.728  29.209  1.00  0.00     0.134 A 
ATOM     62  C   UNL A   1      41.040  28.155  28.033  1.00  0.00     0.134 A 
ATOM     63  F   UNL A   1      38.788  26.416  30.291  1.00  0.00    -0.206 F 
ATOM     64  C   UNL A   1      39.514  25.835  28.136  1.00  0.00     0.040 A 
ATOM     65  C   UNL A   1      41.023  27.283  26.942  1.00  0.00     0.040 A 
ATOM     66  F   UNL A   1      41.797  29.259  27.942  1.00  0.00    -0.206 F 
ATOM     67  C   UNL A   1      40.264  26.115  26.995  1.00  0.00     0.006 A 
ENDBRANCH  46  60
BRANCH  47  68
ATOM     68  C   UNL A   1      39.809  34.344  36.781  1.00  0.00     0.057 A 
ATOM     69  C   UNL A   1      40.507  35.557  36.770  1.00  0.00     0.134 A 
ATOM     70  C   UNL A   1      39.048  34.048  37.918  1.00  0.00     0.134 A 
ATOM     71  F   UNL A   1      41.268  35.888  35.718  1.00  0.00    -0.206 F 
ATOM     72  C   UNL A   1      40.466  36.434  37.855  1.00  0.00     0.040 A 
ATOM     73  C   UNL A   1      38.980  34.926  39.001  1.00  0.00     0.040 A 
ATOM     74  F   UNL A   1      38.352  32.904  37.987  1.00  0.00    -0.206 F 
ATOM     75  C   UNL A   1      39.697  36.120  38.974  1.00  0.00     0.006 A 
ENDBRANCH  47  68
BRANCH  59  76
ATOM     76  C   UNL A   1      43.972  28.973  35.294  1.00  0.00     0.057 A 
ATOM     77  C   UNL A   1      45.284  29.418  35.090  1.00  0.00     0.134 A 
ATOM     78  C   UNL A   1      43.772  27.956  36.238  1.00  0.00     0.134 A 
ATOM     79  F   UNL A   1      45.542  30.379  34.190  1.00  0.00    -0.206 F 
ATOM     80  C   UNL A   1      46.359  28.860  35.783  1.00  0.00     0.040 A 
ATOM     81  C   UNL A   1      44.836  27.408  36.955  1.00  0.00     0.040 A 
ATOM     82  F   UNL A   1      42.540  27.490  36.487  1.00  0.00    -0.206 F 
ATOM     83  C   UNL A   1      46.135  27.856  36.725  1.00  0.00     0.006 A 
ENDBRANCH  59  76
ENDBRANCH  33  34
ENDBRANCH  25  28
ENDBRANCH  23  24
ENDBRANCH  22  23
ENDBRANCH   1  22
TORSDOF 13
ENDMDL
MODEL 2
REMARK VINA RESULT:     -11.9      4.904      9.332
REMARK SMILES Cc1cc(C[NH+]2C[C@@H](C)[C@H](C)C2)oc1C(=O)NCCCCNC(=O)c1ccc(-c2c3nc(c(-c4c(F)cccc4F)c4ccc([nH]4)c(-c4c(F)cccc4F)c4nc(c(-c5c(F)cccc5F)c5ccc2[nH]5)C=C4)C=C3)cc1
REMARK SMILES IDX 19 1 18 2 17 3 15 4 16 5 14 7 1 8 2 9 3 10 4 11 13 12 5 13
REMARK SMILES IDX 6 14 7 15 12 16 8 18 10 19 9 20 11 21 20 22 21 23 22 24
REMARK SMILES IDX 23 25 24 27 25 28 26 29 78 30 27 31 77 32 28 33 29 34 30 35
REMARK SMILES IDX 71 36 31 37 76 38 70 39 72 40 32 41 75 42 69 43 68 44 33 46
REMARK SMILES IDX 59 47 42 48 58 49 43 50 46 51 57 52 73 53 44 54 45 55 56 57
REMARK SMILES IDX 74 58 47 59 34 60 35 61 40 62 36 63 37 64 39 65 41 66 38 67
REMARK SMILES IDX 60 68 61 69 66 70 62 71 63 72 65 73 67 74 64 75 48 76 49 77
REMARK SMILES IDX 54 78 50 79 51 80 53 81 55 82 52 83
REMARK H PARENT 17 6 6 17 22 26 72 45 46 56
REMARK Flexibility Score: inf
ROOT
ATOM      1  C   UNL A   1      36.325  21.354  24.735  1.00  0.00     0.023 C 
ENDROOT
BRANCH   1   2
ATOM      2  C   UNL A   1      35.227  21.301  25.789  1.00  0.00     0.116 C 
BRANCH   2   3
ATOM      3  N   UNL A   1      34.315  20.193  25.646  1.00  0.00    -0.349 N 
ATOM      4  C   UNL A   1      32.981  20.203  25.294  1.00  0.00     0.287 C 
ATOM      5  O   UNL A   1      32.413  19.110  25.341  1.00  0.00    -0.266 OA
ATOM      6  H   UNL A   1      34.699  19.304  25.825  1.00  0.00     0.163 HD
BRANCH   4   7
ATOM      7  C   UNL A   1      32.293  21.436  24.934  1.00  0.00     0.194 A 
ATOM      8  C   UNL A   1      32.554  21.947  22.380  1.00  0.00     0.049 C 
ATOM      9  C   UNL A   1      32.085  22.174  23.769  1.00  0.00     0.001 A 
ATOM     10  C   UNL A   1      31.252  23.269  24.135  1.00  0.00     0.056 A 
ATOM     11  C   UNL A   1      31.029  23.177  25.486  1.00  0.00     0.159 A 
ATOM     12  O   UNL A   1      31.624  22.054  25.967  1.00  0.00    -0.450 OA
BRANCH  11  13
ATOM     13  C   UNL A   1      30.300  24.037  26.467  1.00  0.00     0.338 C 
BRANCH  13  14
ATOM     14  N   UNL A   1      30.685  25.452  26.447  1.00  0.00    -0.328 N 
ATOM     15  C   UNL A   1      32.123  25.691  26.572  1.00  0.00     0.266 C 
ATOM     16  C   UNL A   1      30.161  26.248  25.334  1.00  0.00     0.266 C 
ATOM     17  H   UNL A   1      30.220  25.784  27.292  1.00  0.00     0.348 HD
ATOM     18  C   UNL A   1      32.285  27.109  26.032  1.00  0.00     0.049 C 
ATOM     19  C   UNL A   1      31.338  27.089  24.833  1.00  0.00     0.049 C 
ATOM     20  C   UNL A   1      33.729  27.430  25.674  1.00  0.00     0.014 C 
ATOM     21  C   UNL A   1      30.915  28.464  24.342  1.00  0.00     0.014 C 
ENDBRANCH  13  14
ENDBRANCH  11  13
ENDBRANCH   4   7
ENDBRANCH   2   3
ENDBRANCH   1   2
BRANCH   1  22
ATOM     22  C   UNL A   1      37.409  20.280  24.831  1.00  0.00     0.023 C 
BRANCH  22  23
ATOM     23  C   UNL A   1      38.654  20.640  25.635  1.00  0.00     0.116 C 
BRANCH  23  24
ATOM     24  N   UNL A   1      39.685  19.610  25.623  1.00  0.00    -0.352 N 
ATOM     25  C   UNL A   1      41.005  19.663  26.009  1.00  0.00     0.251 C 
ATOM     26  H   UNL A   1      39.389  18.734  25.284  1.00  0.00     0.163 HD
ATOM     27  O   UNL A   1      41.729  18.685  25.845  1.00  0.00    -0.269 OA
BRANCH  25  28
ATOM     28  C   UNL A   1      41.569  20.907  26.574  1.00  0.00     0.039 A 
ATOM     29  C   UNL A   1      42.137  21.843  25.706  1.00  0.00     0.014 A 
ATOM     30  C   UNL A   1      41.510  21.169  27.944  1.00  0.00     0.014 A 
ATOM     31  C   UNL A   1      42.543  23.087  26.198  1.00  0.00     0.010 A 
ATOM     32  C   UNL A   1      41.831  22.438  28.418  1.00  0.00     0.010 A 
ATOM     33  C   UNL A   1      42.339  23.416  27.547  1.00  0.00    -0.014 A 
BRANCH  33  34
ATOM     34  C   UNL A   1      42.625  24.779  28.066  1.00  0.00     0.031 A 
ATOM     35  C   UNL A   1      44.012  25.143  28.517  1.00  0.00     0.074 A 
ATOM     36  C   UNL A   1      41.617  25.662  28.215  1.00  0.00     0.049 A 
ATOM     37  N   UNL A   1      44.436  26.244  29.086  1.00  0.00    -0.248 NA
ATOM     38  C   UNL A   1      45.057  24.123  28.334  1.00  0.00     0.031 C 
ATOM     39  C   UNL A   1      40.214  25.415  27.872  1.00  0.00     0.029 A 
ATOM     40  N   UNL A   1      41.615  26.944  28.705  1.00  0.00    -0.354 N 
ATOM     41  C   UNL A   1      45.784  26.039  29.348  1.00  0.00     0.074 A 
ATOM     42  C   UNL A   1      46.097  24.692  28.924  1.00  0.00     0.031 C 
ATOM     43  C   UNL A   1      39.495  26.517  28.140  1.00  0.00     0.029 A 
ATOM     44  C   UNL A   1      40.374  27.533  28.708  1.00  0.00     0.049 A 
ATOM     45  H   UNL A   1      42.428  27.399  29.026  1.00  0.00     0.167 HD
ATOM     46  C   UNL A   1      46.686  26.903  29.871  1.00  0.00     0.037 A 
ATOM     47  C   UNL A   1      39.985  28.752  29.128  1.00  0.00     0.037 A 
ATOM     48  C   UNL A   1      46.384  28.255  30.258  1.00  0.00     0.049 A 
ATOM     49  C   UNL A   1      41.008  29.696  29.695  1.00  0.00     0.074 A 
ATOM     50  C   UNL A   1      47.246  29.230  30.730  1.00  0.00     0.029 A 
ATOM     51  N   UNL A   1      45.119  28.823  30.219  1.00  0.00    -0.354 N 
ATOM     52  N   UNL A   1      42.294  29.514  29.869  1.00  0.00    -0.248 NA
ATOM     53  C   UNL A   1      40.526  31.019  30.119  1.00  0.00     0.031 C 
ATOM     54  C   UNL A   1      46.496  30.377  31.010  1.00  0.00     0.029 A 
ATOM     55  C   UNL A   1      45.174  30.130  30.675  1.00  0.00     0.049 A 
ATOM     56  H   UNL A   1      44.304  28.366  29.912  1.00  0.00     0.167 HD
ATOM     57  C   UNL A   1      42.778  30.703  30.399  1.00  0.00     0.074 A 
ATOM     58  C   UNL A   1      41.651  31.606  30.503  1.00  0.00     0.031 C 
ATOM     59  C   UNL A   1      44.044  31.018  30.767  1.00  0.00     0.037 A 
BRANCH  46  60
ATOM     60  C   UNL A   1      48.093  26.411  30.040  1.00  0.00     0.057 A 
ATOM     61  C   UNL A   1      48.517  25.774  31.214  1.00  0.00     0.134 A 
ATOM     62  C   UNL A   1      49.030  26.550  29.008  1.00  0.00     0.134 A 
ATOM     63  F   UNL A   1      47.673  25.621  32.246  1.00  0.00    -0.206 F 
ATOM     64  C   UNL A   1      49.828  25.320  31.368  1.00  0.00     0.040 A 
ATOM     65  C   UNL A   1      50.336  26.076  29.139  1.00  0.00     0.040 A 
ATOM     66  F   UNL A   1      48.690  27.145  27.854  1.00  0.00    -0.206 F 
ATOM     67  C   UNL A   1      50.740  25.465  30.325  1.00  0.00     0.006 A 
ENDBRANCH  46  60
BRANCH  47  68
ATOM     68  C   UNL A   1      38.564  29.164  29.005  1.00  0.00     0.057 A 
ATOM     69  C   UNL A   1      38.056  29.639  27.790  1.00  0.00     0.134 A 
ATOM     70  C   UNL A   1      37.685  29.106  30.093  1.00  0.00     0.134 A 
ATOM     71  F   UNL A   1      38.853  29.736  26.717  1.00  0.00    -0.206 F 
ATOM     72  C   UNL A   1      36.731  30.058  27.666  1.00  0.00     0.040 A 
ATOM     73  C   UNL A   1      36.352  29.500  29.977  1.00  0.00     0.040 A 
ATOM     74  F   UNL A   1      38.111  28.655  31.282  1.00  0.00    -0.206 F 
ATOM     75  C   UNL A   1      35.873  29.986  28.762  1.00  0.00     0.006 A 
ENDBRANCH  47  68
BRANCH  59  76
ATOM     76  C   UNL A   1      44.281  32.404  31.288  1.00  0.00     0.057 A 
ATOM     77  C   UNL A   1      44.229  32.698  32.655  1.00  0.00     0.134 A 
ATOM     78  C   UNL A   1      44.606  33.448  30.411  1.00  0.00     0.134 A 
ATOM     79  F   UNL A   1      43.910  31.745  33.544  1.00  0.00    -0.206 F 
ATOM     80  C   UNL A   1      44.470  33.987  33.133  1.00  0.00     0.040 A 
ATOM     81  C   UNL A   1      44.874  34.735  30.880  1.00  0.00     0.040 A 
ATOM     82  F   UNL A   1      44.680  33.231  29.090  1.00  0.00    -0.206 F 
ATOM     83  C   UNL A   1      44.801  35.009  32.244  1.00  0.00     0.006 A 
ENDBRANCH  59  76
ENDBRANCH  33  34
ENDBRANCH  25  28
ENDBRANCH  23  24
ENDBRANCH  22  23
ENDBRANCH   1  22
TORSDOF 13
ENDMDL
MODEL 3
REMARK VINA RESULT:     -11.7      1.022      6.478
REMARK SMILES Cc1cc(C[NH+]2C[C@@H](C)[C@H](C)C2)oc1C(=O)NCCCCNC(=O)c1ccc(-c2c3nc(c(-c4c(F)cccc4F)c4ccc([nH]4)c(-c4c(F)cccc4F)c4nc(c(-c5c(F)cccc5F)c5ccc2[nH]5)C=C4)C=C3)cc1
REMARK SMILES IDX 19 1 18 2 17 3 15 4 16 5 14 7 1 8 2 9 3 10 4 11 13 12 5 13
REMARK SMILES IDX 6 14 7 15 12 16 8 18 10 19 9 20 11 21 20 22 21 23 22 24
REMARK SMILES IDX 23 25 24 27 25 28 26 29 78 30 27 31 77 32 28 33 29 34 30 35
REMARK SMILES IDX 71 36 31 37 76 38 70 39 72 40 32 41 75 42 69 43 68 44 33 46
REMARK SMILES IDX 59 47 42 48 58 49 43 50 46 51 57 52 73 53 44 54 45 55 56 57
REMARK SMILES IDX 74 58 47 59 34 60 35 61 40 62 36 63 37 64 39 65 41 66 38 67
REMARK SMILES IDX 60 68 61 69 66 70 62 71 63 72 65 73 67 74 64 75 48 76 49 77
REMARK SMILES IDX 54 78 50 79 51 80 53 81 55 82 52 83
REMARK H PARENT 17 6 6 17 22 26 72 45 46 56
REMARK Flexibility Score: inf
ROOT
ATOM      1  C   UNL A   1      31.531  30.573  26.267  1.00  0.00     0.023 C 
ENDROOT
BRANCH   1   2
ATOM      2  C   UNL A   1      32.784  29.871  26.773  1.00  0.00     0.116 C 
BRANCH   2   3
ATOM      3  N   UNL A   1      33.673  29.413  25.734  1.00  0.00    -0.349 N 
ATOM      4  C   UNL A   1      33.433  28.510  24.719  1.00  0.00     0.287 C 
ATOM      5  O   UNL A   1      34.409  28.229  24.020  1.00  0.00    -0.266 OA
ATOM      6  H   UNL A   1      34.578  29.800  25.752  1.00  0.00     0.163 HD
BRANCH   4   7
ATOM      7  C   UNL A   1      32.121  27.908  24.524  1.00  0.00     0.194 A 
ATOM      8  C   UNL A   1      32.003  25.533  25.619  1.00  0.00     0.049 C 
ATOM      9  C   UNL A   1      31.495  26.713  24.877  1.00  0.00     0.001 A 
ATOM     10  C   UNL A   1      30.156  26.810  24.400  1.00  0.00     0.056 A 
ATOM     11  C   UNL A   1      30.040  28.015  23.754  1.00  0.00     0.159 A 
ATOM     12  O   UNL A   1      31.211  28.697  23.856  1.00  0.00    -0.450 OA
BRANCH  11  13
ATOM     13  C   UNL A   1      28.930  28.671  22.999  1.00  0.00     0.338 C 
BRANCH  13  14
ATOM     14  N   UNL A   1      29.235  30.018  22.508  1.00  0.00    -0.328 N 
ATOM     15  C   UNL A   1      28.552  30.378  21.263  1.00  0.00     0.266 C 
ATOM     16  C   UNL A   1      29.078  31.109  23.473  1.00  0.00     0.266 C 
ATOM     17  H   UNL A   1      30.233  29.929  22.322  1.00  0.00     0.348 HD
ATOM     18  C   UNL A   1      28.627  31.902  21.258  1.00  0.00     0.049 C 
ATOM     19  C   UNL A   1      28.348  32.227  22.725  1.00  0.00     0.049 C 
ATOM     20  C   UNL A   1      27.635  32.526  20.287  1.00  0.00     0.014 C 
ATOM     21  C   UNL A   1      28.790  33.615  23.158  1.00  0.00     0.014 C 
ENDBRANCH  13  14
ENDBRANCH  11  13
ENDBRANCH   4   7
ENDBRANCH   2   3
ENDBRANCH   1   2
BRANCH   1  22
ATOM     22  C   UNL A   1      31.446  32.077  26.523  1.00  0.00     0.023 C 
BRANCH  22  23
ATOM     23  C   UNL A   1      32.624  32.710  27.259  1.00  0.00     0.116 C 
BRANCH  23  24
ATOM     24  N   UNL A   1      32.404  34.098  27.645  1.00  0.00    -0.352 N 
ATOM     25  C   UNL A   1      33.064  34.886  28.560  1.00  0.00     0.251 C 
ATOM     26  H   UNL A   1      31.663  34.545  27.175  1.00  0.00     0.163 HD
ATOM     27  O   UNL A   1      32.665  36.024  28.788  1.00  0.00    -0.269 OA
BRANCH  25  28
ATOM     28  C   UNL A   1      34.222  34.351  29.308  1.00  0.00     0.039 A 
ATOM     29  C   UNL A   1      33.988  33.602  30.465  1.00  0.00     0.014 A 
ATOM     30  C   UNL A   1      35.528  34.555  28.860  1.00  0.00     0.014 A 
ATOM     31  C   UNL A   1      35.055  32.965  31.105  1.00  0.00     0.010 A 
ATOM     32  C   UNL A   1      36.576  33.850  29.445  1.00  0.00     0.010 A 
ATOM     33  C   UNL A   1      36.349  33.036  30.566  1.00  0.00    -0.014 A 
BRANCH  33  34
ATOM     34  C   UNL A   1      37.473  32.252  31.140  1.00  0.00     0.031 A 
ATOM     35  C   UNL A   1      37.999  32.573  32.511  1.00  0.00     0.074 A 
ATOM     36  C   UNL A   1      38.080  31.309  30.392  1.00  0.00     0.049 A 
ATOM     37  N   UNL A   1      39.031  32.069  33.142  1.00  0.00    -0.248 NA
ATOM     38  C   UNL A   1      37.293  33.624  33.262  1.00  0.00     0.031 C 
ATOM     39  C   UNL A   1      37.707  30.940  29.024  1.00  0.00     0.029 A 
ATOM     40  N   UNL A   1      39.149  30.494  30.673  1.00  0.00    -0.354 N 
ATOM     41  C   UNL A   1      39.108  32.755  34.347  1.00  0.00     0.074 A 
ATOM     42  C   UNL A   1      38.054  33.745  34.339  1.00  0.00     0.031 C 
ATOM     43  C   UNL A   1      38.517  29.958  28.597  1.00  0.00     0.029 A 
ATOM     44  C   UNL A   1      39.490  29.653  29.641  1.00  0.00     0.049 A 
ATOM     45  H   UNL A   1      39.627  30.512  31.534  1.00  0.00     0.167 HD
ATOM     46  C   UNL A   1      39.965  32.561  35.378  1.00  0.00     0.037 A 
ATOM     47  C   UNL A   1      40.478  28.745  29.543  1.00  0.00     0.037 A 
ATOM     48  C   UNL A   1      40.990  31.552  35.402  1.00  0.00     0.049 A 
ATOM     49  C   UNL A   1      41.409  28.541  30.705  1.00  0.00     0.074 A 
ATOM     50  C   UNL A   1      41.859  31.230  36.430  1.00  0.00     0.029 A 
ATOM     51  N   UNL A   1      41.284  30.701  34.347  1.00  0.00    -0.354 N 
ATOM     52  N   UNL A   1      41.424  29.147  31.867  1.00  0.00    -0.248 NA
ATOM     53  C   UNL A   1      42.457  27.523  30.545  1.00  0.00     0.031 C 
ATOM     54  C   UNL A   1      42.704  30.208  35.983  1.00  0.00     0.029 A 
ATOM     55  C   UNL A   1      42.334  29.867  34.692  1.00  0.00     0.049 A 
ATOM     56  H   UNL A   1      40.816  30.692  33.481  1.00  0.00     0.167 HD
ATOM     57  C   UNL A   1      42.464  28.569  32.584  1.00  0.00     0.074 A 
ATOM     58  C   UNL A   1      43.046  27.553  31.732  1.00  0.00     0.031 C 
ATOM     59  C   UNL A   1      42.899  28.856  33.836  1.00  0.00     0.037 A 
BRANCH  46  60
ATOM     60  C   UNL A   1      39.816  33.454  36.574  1.00  0.00     0.057 A 
ATOM     61  C   UNL A   1      38.990  33.113  37.653  1.00  0.00     0.134 A 
ATOM     62  C   UNL A   1      40.526  34.658  36.661  1.00  0.00     0.134 A 
ATOM     63  F   UNL A   1      38.272  31.980  37.627  1.00  0.00    -0.206 F 
ATOM     64  C   UNL A   1      38.854  33.949  38.763  1.00  0.00     0.040 A 
ATOM     65  C   UNL A   1      40.419  35.490  37.777  1.00  0.00     0.040 A 
ATOM     66  F   UNL A   1      41.340  35.044  35.666  1.00  0.00    -0.206 F 
ATOM     67  C   UNL A   1      39.575  35.140  38.829  1.00  0.00     0.006 A 
ENDBRANCH  46  60
BRANCH  47  68
ATOM     68  C   UNL A   1      40.627  27.937  28.306  1.00  0.00     0.057 A 
ATOM     69  C   UNL A   1      40.009  26.686  28.186  1.00  0.00     0.134 A 
ATOM     70  C   UNL A   1      41.395  28.384  27.224  1.00  0.00     0.134 A 
ATOM     71  F   UNL A   1      39.278  26.196  29.197  1.00  0.00    -0.206 F 
ATOM     72  C   UNL A   1      40.164  25.901  27.044  1.00  0.00     0.040 A 
ATOM     73  C   UNL A   1      41.539  27.618  26.066  1.00  0.00     0.040 A 
ATOM     74  F   UNL A   1      42.006  29.576  27.276  1.00  0.00    -0.206 F 
ATOM     75  C   UNL A   1      40.929  26.369  25.976  1.00  0.00     0.006 A 
ENDBRANCH  47  68
BRANCH  59  76
ATOM     76  C   UNL A   1      44.038  28.040  34.369  1.00  0.00     0.057 A 
ATOM     77  C   UNL A   1      43.831  26.811  35.007  1.00  0.00     0.134 A 
ATOM     78  C   UNL A   1      45.361  28.471  34.205  1.00  0.00     0.134 A 
ATOM     79  F   UNL A   1      42.587  26.350  35.206  1.00  0.00    -0.206 F 
ATOM     80  C   UNL A   1      44.899  26.048  35.482  1.00  0.00     0.040 A 
ATOM     81  C   UNL A   1      46.438  27.705  34.654  1.00  0.00     0.040 A 
ATOM     82  F   UNL A   1      45.628  29.635  33.596  1.00  0.00    -0.206 F 
ATOM     83  C   UNL A   1      46.208  26.492  35.300  1.00  0.00     0.006 A 
ENDBRANCH  59  76
ENDBRANCH  33  34
ENDBRANCH  25  28
ENDBRANCH  23  24
ENDBRANCH  22  23
ENDBRANCH   1  22
TORSDOF 13
ENDMDL
