MODEL 1
REMARK VINA RESULT:     -12.4      0.000      0.000
REMARK SMILES Cc1ccc(F)cc1NS(=O)(=O)c1ccc(C(=O)NCCCCNC(=O)c2ccc(-c3c4nc(c(-c5c(F)cccc5F)c5ccc([nH]5)c(-c5c(F)cccc5F)c5nc(c(-c6c(F)cccc6F)c6ccc3[nH]6)C=C5)C=C4)cc2)cc1
REMARK SMILES IDX 21 1 20 2 19 3 17 4 18 5 16 7 13 8 14 9 82 10 15 11 81 12
REMARK SMILES IDX 10 13 11 14 12 15 9 16 8 18 1 19 2 20 3 21 4 22 7 23 5 24
REMARK SMILES IDX 6 25 22 26 23 27 24 28 25 29 26 31 27 32 28 33 80 34 29 35
REMARK SMILES IDX 79 36 30 37 31 38 32 39 73 40 33 41 78 42 72 43 74 44 34 45
REMARK SMILES IDX 77 46 71 47 70 48 35 50 61 51 44 52 60 53 45 54 48 55 59 56
REMARK SMILES IDX 75 57 46 58 47 59 58 61 76 62 49 63 36 64 37 65 42 66 38 67
REMARK SMILES IDX 39 68 41 69 43 70 40 71 62 72 63 73 68 74 64 75 65 76 67 77
REMARK SMILES IDX 69 78 66 79 50 80 51 81 56 82 52 83 53 84 55 85 57 86 54 87
REMARK H PARENT 19 6 9 17 24 30 74 49 48 60
REMARK Flexibility Score: inf
ROOT
ATOM      1  C   UNL A   1      31.720  30.530  26.726  1.00  0.00     0.023 C 
ENDROOT
BRANCH   1   2
ATOM      2  C   UNL A   1      33.157  30.084  26.464  1.00  0.00     0.116 C 
BRANCH   2   3
ATOM      3  N   UNL A   1      33.348  29.746  25.069  1.00  0.00    -0.352 N 
ATOM      4  C   UNL A   1      33.142  28.557  24.421  1.00  0.00     0.251 C 
ATOM      5  O   UNL A   1      33.258  28.510  23.198  1.00  0.00    -0.269 OA
ATOM      6  H   UNL A   1      33.676  30.480  24.501  1.00  0.00     0.163 HD
BRANCH   4   7
ATOM      7  C   UNL A   1      32.735  27.337  25.155  1.00  0.00     0.039 A 
ATOM      8  C   UNL A   1      31.833  24.961  26.315  1.00  0.00     0.087 A 
ATOM      9  C   UNL A   1      30.909  25.919  25.880  1.00  0.00     0.023 A 
ATOM     10  C   UNL A   1      33.208  25.214  26.237  1.00  0.00     0.023 A 
ATOM     11  C   UNL A   1      31.361  27.090  25.274  1.00  0.00     0.015 A 
ATOM     12  C   UNL A   1      33.658  26.400  25.641  1.00  0.00     0.015 A 
BRANCH   8  13
ATOM     13  S   UNL A   1      31.226  23.412  26.948  1.00  0.00     0.261 S 
ATOM     14  O   UNL A   1      29.822  23.573  27.260  1.00  0.00    -0.201 OA
ATOM     15  O   UNL A   1      32.154  22.962  27.963  1.00  0.00    -0.201 OA
BRANCH  13  16
ATOM     16  N   UNL A   1      31.354  22.291  25.664  1.00  0.00    -0.279 N 
ATOM     17  H   UNL A   1      30.796  21.481  25.654  1.00  0.00     0.180 HD
BRANCH  16  18
ATOM     18  C   UNL A   1      32.283  22.545  24.598  1.00  0.00     0.055 A 
ATOM     19  C   UNL A   1      30.560  23.717  23.087  1.00  0.00     0.046 C 
ATOM     20  C   UNL A   1      31.952  23.271  23.437  1.00  0.00    -0.027 A 
ATOM     21  C   UNL A   1      32.956  23.499  22.471  1.00  0.00     0.008 A 
ATOM     22  C   UNL A   1      34.254  23.024  22.653  1.00  0.00     0.039 A 
ATOM     23  C   UNL A   1      33.571  22.019  24.734  1.00  0.00     0.066 A 
ATOM     24  C   UNL A   1      34.545  22.278  23.781  1.00  0.00     0.125 A 
ATOM     25  F   UNL A   1      35.780  21.791  23.953  1.00  0.00    -0.207 F 
ENDBRANCH  16  18
ENDBRANCH  13  16
ENDBRANCH   8  13
ENDBRANCH   4   7
ENDBRANCH   2   3
ENDBRANCH   1   2
BRANCH   1  26
ATOM     26  C   UNL A   1      31.525  32.049  26.770  1.00  0.00     0.023 C 
BRANCH  26  27
ATOM     27  C   UNL A   1      32.701  32.840  27.332  1.00  0.00     0.116 C 
BRANCH  27  28
ATOM     28  N   UNL A   1      32.370  34.223  27.640  1.00  0.00    -0.352 N 
ATOM     29  C   UNL A   1      32.966  35.062  28.551  1.00  0.00     0.251 C 
ATOM     30  H   UNL A   1      31.621  34.608  27.131  1.00  0.00     0.163 HD
ATOM     31  O   UNL A   1      32.503  36.175  28.771  1.00  0.00    -0.269 OA
BRANCH  29  32
ATOM     32  C   UNL A   1      34.151  34.590  29.294  1.00  0.00     0.039 A 
ATOM     33  C   UNL A   1      33.967  33.996  30.545  1.00  0.00     0.014 A 
ATOM     34  C   UNL A   1      35.429  34.701  28.741  1.00  0.00     0.014 A 
ATOM     35  C   UNL A   1      35.063  33.450  31.214  1.00  0.00     0.010 A 
ATOM     36  C   UNL A   1      36.510  34.100  29.378  1.00  0.00     0.010 A 
ATOM     37  C   UNL A   1      36.335  33.467  30.619  1.00  0.00    -0.014 A 
BRANCH  37  38
ATOM     38  C   UNL A   1      37.498  32.824  31.278  1.00  0.00     0.031 A 
ATOM     39  C   UNL A   1      38.154  31.630  30.647  1.00  0.00     0.074 A 
ATOM     40  C   UNL A   1      37.915  33.276  32.477  1.00  0.00     0.049 A 
ATOM     41  N   UNL A   1      39.133  30.889  31.102  1.00  0.00    -0.248 NA
ATOM     42  C   UNL A   1      37.624  31.192  29.347  1.00  0.00     0.031 C 
ATOM     43  C   UNL A   1      37.326  34.397  33.213  1.00  0.00     0.029 A 
ATOM     44  N   UNL A   1      38.928  32.839  33.293  1.00  0.00    -0.354 N 
ATOM     45  C   UNL A   1      39.321  29.891  30.155  1.00  0.00     0.074 A 
ATOM     46  C   UNL A   1      38.327  30.092  29.124  1.00  0.00     0.031 C 
ATOM     47  C   UNL A   1      38.000  34.571  34.361  1.00  0.00     0.029 A 
ATOM     48  C   UNL A   1      39.046  33.557  34.457  1.00  0.00     0.049 A 
ATOM     49  H   UNL A   1      39.515  32.082  33.065  1.00  0.00     0.167 HD
ATOM     50  C   UNL A   1      40.254  28.910  30.137  1.00  0.00     0.037 A 
ATOM     51  C   UNL A   1      39.899  33.410  35.489  1.00  0.00     0.037 A 
ATOM     52  C   UNL A   1      41.263  28.734  31.146  1.00  0.00     0.049 A 
ATOM     53  C   UNL A   1      40.929  32.317  35.438  1.00  0.00     0.074 A 
ATOM     54  C   UNL A   1      42.295  27.812  31.183  1.00  0.00     0.029 A 
ATOM     55  N   UNL A   1      41.367  29.498  32.298  1.00  0.00    -0.354 N 
ATOM     56  N   UNL A   1      41.143  31.425  34.501  1.00  0.00    -0.248 NA
ATOM     57  C   UNL A   1      41.843  32.214  36.585  1.00  0.00     0.031 C 
ATOM     58  C   UNL A   1      43.001  27.995  32.377  1.00  0.00     0.029 A 
ATOM     59  C   UNL A   1      42.434  29.057  33.062  1.00  0.00     0.049 A 
ATOM     60  H   UNL A   1      40.769  30.243  32.539  1.00  0.00     0.167 HD
ATOM     61  C   UNL A   1      42.230  30.676  34.930  1.00  0.00     0.074 A 
ATOM     62  C   UNL A   1      42.640  31.225  36.206  1.00  0.00     0.031 C 
ATOM     63  C   UNL A   1      42.836  29.627  34.323  1.00  0.00     0.037 A 
BRANCH  50  64
ATOM     64  C   UNL A   1      40.231  27.955  28.979  1.00  0.00     0.057 A 
ATOM     65  C   UNL A   1      40.944  28.208  27.800  1.00  0.00     0.134 A 
ATOM     66  C   UNL A   1      39.520  26.751  29.060  1.00  0.00     0.134 A 
ATOM     67  F   UNL A   1      41.634  29.349  27.655  1.00  0.00    -0.206 F 
ATOM     68  C   UNL A   1      40.933  27.308  26.734  1.00  0.00     0.040 A 
ATOM     69  C   UNL A   1      39.523  25.831  28.010  1.00  0.00     0.040 A 
ATOM     70  F   UNL A   1      38.820  26.445  30.163  1.00  0.00    -0.206 F 
ATOM     71  C   UNL A   1      40.227  26.111  26.840  1.00  0.00     0.006 A 
ENDBRANCH  50  64
BRANCH  51  72
ATOM     72  C   UNL A   1      39.836  34.336  36.647  1.00  0.00     0.057 A 
ATOM     73  C   UNL A   1      39.088  34.015  37.786  1.00  0.00     0.134 A 
ATOM     74  C   UNL A   1      40.503  35.566  36.639  1.00  0.00     0.134 A 
ATOM     75  F   UNL A   1      38.413  32.858  37.844  1.00  0.00    -0.206 F 
ATOM     76  C   UNL A   1      38.986  34.892  38.866  1.00  0.00     0.040 A 
ATOM     77  C   UNL A   1      40.428  36.445  37.723  1.00  0.00     0.040 A 
ATOM     78  F   UNL A   1      41.241  35.929  35.581  1.00  0.00    -0.206 F 
ATOM     79  C   UNL A   1      39.662  36.111  38.837  1.00  0.00     0.006 A 
ENDBRANCH  51  72
BRANCH  63  80
ATOM     80  C   UNL A   1      44.027  29.031  35.011  1.00  0.00     0.057 A 
ATOM     81  C   UNL A   1      43.901  27.991  35.939  1.00  0.00     0.134 A 
ATOM     82  C   UNL A   1      45.320  29.478  34.708  1.00  0.00     0.134 A 
ATOM     83  F   UNL A   1      42.689  27.528  36.281  1.00  0.00    -0.206 F 
ATOM     84  C   UNL A   1      45.018  27.429  36.560  1.00  0.00     0.040 A 
ATOM     85  C   UNL A   1      46.446  28.907  35.303  1.00  0.00     0.040 A 
ATOM     86  F   UNL A   1      45.509  30.466  33.821  1.00  0.00    -0.206 F 
ATOM     87  C   UNL A   1      46.295  27.884  36.236  1.00  0.00     0.006 A 
ENDBRANCH  63  80
ENDBRANCH  37  38
ENDBRANCH  29  32
ENDBRANCH  27  28
ENDBRANCH  26  27
ENDBRANCH   1  26
TORSDOF 14
ENDMDL
MODEL 2
REMARK VINA RESULT:     -12.4      0.481      6.211
REMARK SMILES Cc1ccc(F)cc1NS(=O)(=O)c1ccc(C(=O)NCCCCNC(=O)c2ccc(-c3c4nc(c(-c5c(F)cccc5F)c5ccc([nH]5)c(-c5c(F)cccc5F)c5nc(c(-c6c(F)cccc6F)c6ccc3[nH]6)C=C5)C=C4)cc2)cc1
REMARK SMILES IDX 21 1 20 2 19 3 17 4 18 5 16 7 13 8 14 9 82 10 15 11 81 12
REMARK SMILES IDX 10 13 11 14 12 15 9 16 8 18 1 19 2 20 3 21 4 22 7 23 5 24
REMARK SMILES IDX 6 25 22 26 23 27 24 28 25 29 26 31 27 32 28 33 80 34 29 35
REMARK SMILES IDX 79 36 30 37 31 38 32 39 73 40 33 41 78 42 72 43 74 44 34 45
REMARK SMILES IDX 77 46 71 47 70 48 35 50 61 51 44 52 60 53 45 54 48 55 59 56
REMARK SMILES IDX 75 57 46 58 47 59 58 61 76 62 49 63 36 64 37 65 42 66 38 67
REMARK SMILES IDX 39 68 41 69 43 70 40 71 62 72 63 73 68 74 64 75 65 76 67 77
REMARK SMILES IDX 69 78 66 79 50 80 51 81 56 82 52 83 53 84 55 85 57 86 54 87
REMARK H PARENT 19 6 9 17 24 30 74 49 48 60
REMARK Flexibility Score: inf
ROOT
ATOM      1  C   UNL A   1      31.550  30.614  26.415  1.00  0.00     0.023 C 
ENDROOT
BRANCH   1   2
ATOM      2  C   UNL A   1      32.977  30.117  26.191  1.00  0.00     0.116 C 
BRANCH   2   3
ATOM      3  N   UNL A   1      33.179  29.729  24.811  1.00  0.00    -0.352 N 
ATOM      4  C   UNL A   1      33.016  28.507  24.213  1.00  0.00     0.251 C 
ATOM      5  O   UNL A   1      33.133  28.414  22.993  1.00  0.00    -0.269 OA
ATOM      6  H   UNL A   1      33.481  30.450  24.212  1.00  0.00     0.163 HD
BRANCH   4   7
ATOM      7  C   UNL A   1      32.653  27.305  24.998  1.00  0.00     0.039 A 
ATOM      8  C   UNL A   1      31.839  24.948  26.257  1.00  0.00     0.087 A 
ATOM      9  C   UNL A   1      30.880  25.847  25.775  1.00  0.00     0.023 A 
ATOM     10  C   UNL A   1      33.203  25.252  26.175  1.00  0.00     0.023 A 
ATOM     11  C   UNL A   1      31.289  27.008  25.120  1.00  0.00     0.015 A 
ATOM     12  C   UNL A   1      33.609  26.429  25.530  1.00  0.00     0.015 A 
BRANCH   8  13
ATOM     13  S   UNL A   1      31.290  23.404  26.954  1.00  0.00     0.261 S 
ATOM     14  O   UNL A   1      29.879  23.522  27.251  1.00  0.00    -0.201 OA
ATOM     15  O   UNL A   1      32.229  23.037  27.993  1.00  0.00    -0.201 OA
BRANCH  13  16
ATOM     16  N   UNL A   1      31.473  22.234  25.721  1.00  0.00    -0.279 N 
ATOM     17  H   UNL A   1      30.947  21.403  25.743  1.00  0.00     0.180 HD
BRANCH  16  18
ATOM     18  C   UNL A   1      32.400  22.478  24.651  1.00  0.00     0.055 A 
ATOM     19  C   UNL A   1      30.654  23.557  23.097  1.00  0.00     0.046 C 
ATOM     20  C   UNL A   1      32.056  23.157  23.467  1.00  0.00    -0.027 A 
ATOM     21  C   UNL A   1      33.058  23.381  22.498  1.00  0.00     0.008 A 
ATOM     22  C   UNL A   1      34.367  22.946  22.699  1.00  0.00     0.039 A 
ATOM     23  C   UNL A   1      33.700  21.990  24.808  1.00  0.00     0.066 A 
ATOM     24  C   UNL A   1      34.672  22.244  23.851  1.00  0.00     0.125 A 
ATOM     25  F   UNL A   1      35.918  21.794  24.043  1.00  0.00    -0.207 F 
ENDBRANCH  16  18
ENDBRANCH  13  16
ENDBRANCH   8  13
ENDBRANCH   4   7
ENDBRANCH   2   3
ENDBRANCH   1   2
BRANCH   1  26
ATOM     26  C   UNL A   1      31.425  32.132  26.582  1.00  0.00     0.023 C 
BRANCH  26  27
ATOM     27  C   UNL A   1      32.614  32.813  27.253  1.00  0.00     0.116 C 
BRANCH  27  28
ATOM     28  N   UNL A   1      32.348  34.192  27.633  1.00  0.00    -0.352 N 
ATOM     29  C   UNL A   1      32.998  34.962  28.566  1.00  0.00     0.251 C 
ATOM     30  H   UNL A   1      31.603  34.631  27.160  1.00  0.00     0.163 HD
ATOM     31  O   UNL A   1      32.587  36.081  28.849  1.00  0.00    -0.269 OA
BRANCH  29  32
ATOM     32  C   UNL A   1      34.179  34.407  29.257  1.00  0.00     0.039 A 
ATOM     33  C   UNL A   1      33.994  33.728  30.464  1.00  0.00     0.014 A 
ATOM     34  C   UNL A   1      35.454  34.527  28.698  1.00  0.00     0.014 A 
ATOM     35  C   UNL A   1      35.083  33.107  31.077  1.00  0.00     0.010 A 
ATOM     36  C   UNL A   1      36.525  33.855  29.276  1.00  0.00     0.010 A 
ATOM     37  C   UNL A   1      36.348  33.137  30.469  1.00  0.00    -0.014 A 
BRANCH  37  38
ATOM     38  C   UNL A   1      37.502  32.419  31.064  1.00  0.00     0.031 A 
ATOM     39  C   UNL A   1      38.117  32.914  32.342  1.00  0.00     0.074 A 
ATOM     40  C   UNL A   1      38.035  31.366  30.416  1.00  0.00     0.049 A 
ATOM     41  N   UNL A   1      39.170  32.467  32.979  1.00  0.00    -0.248 NA
ATOM     42  C   UNL A   1      37.483  34.082  32.974  1.00  0.00     0.031 C 
ATOM     43  C   UNL A   1      37.557  30.823  29.142  1.00  0.00     0.029 A 
ATOM     44  N   UNL A   1      39.105  30.569  30.735  1.00  0.00    -0.354 N 
ATOM     45  C   UNL A   1      39.333  33.308  34.072  1.00  0.00     0.074 A 
ATOM     46  C   UNL A   1      38.301  34.319  33.988  1.00  0.00     0.031 C 
ATOM     47  C   UNL A   1      38.317  29.770  28.800  1.00  0.00     0.029 A 
ATOM     48  C   UNL A   1      39.354  29.584  29.810  1.00  0.00     0.049 A 
ATOM     49  H   UNL A   1      39.643  30.691  31.551  1.00  0.00     0.167 HD
ATOM     50  C   UNL A   1      40.247  33.230  35.068  1.00  0.00     0.037 A 
ATOM     51  C   UNL A   1      40.315  28.642  29.779  1.00  0.00     0.037 A 
ATOM     52  C   UNL A   1      41.249  32.203  35.167  1.00  0.00     0.049 A 
ATOM     53  C   UNL A   1      41.312  28.573  30.902  1.00  0.00     0.074 A 
ATOM     54  C   UNL A   1      42.178  31.998  36.173  1.00  0.00     0.029 A 
ATOM     55  N   UNL A   1      41.454  31.208  34.224  1.00  0.00    -0.354 N 
ATOM     56  N   UNL A   1      41.411  29.331  31.968  1.00  0.00    -0.248 NA
ATOM     57  C   UNL A   1      42.329  27.514  30.823  1.00  0.00     0.031 C 
ATOM     58  C   UNL A   1      42.968  30.900  35.820  1.00  0.00     0.029 A 
ATOM     59  C   UNL A   1      42.505  30.397  34.615  1.00  0.00     0.049 A 
ATOM     60  H   UNL A   1      40.930  31.096  33.397  1.00  0.00     0.167 HD
ATOM     61  C   UNL A   1      42.476  28.823  32.698  1.00  0.00     0.074 A 
ATOM     62  C   UNL A   1      42.986  27.686  31.960  1.00  0.00     0.031 C 
ATOM     63  C   UNL A   1      42.989  29.260  33.874  1.00  0.00     0.037 A 
BRANCH  50  64
ATOM     64  C   UNL A   1      40.197  34.282  36.137  1.00  0.00     0.057 A 
ATOM     65  C   UNL A   1      40.932  35.470  36.038  1.00  0.00     0.134 A 
ATOM     66  C   UNL A   1      39.374  34.122  37.258  1.00  0.00     0.134 A 
ATOM     67  F   UNL A   1      41.749  35.678  34.994  1.00  0.00    -0.206 F 
ATOM     68  C   UNL A   1      40.867  36.452  37.027  1.00  0.00     0.040 A 
ATOM     69  C   UNL A   1      39.282  35.109  38.242  1.00  0.00     0.040 A 
ATOM     70  F   UNL A   1      38.639  33.009  37.413  1.00  0.00    -0.206 F 
ATOM     71  C   UNL A   1      40.034  36.276  38.130  1.00  0.00     0.006 A 
ENDBRANCH  50  64
BRANCH  51  72
ATOM     72  C   UNL A   1      40.368  27.666  28.661  1.00  0.00     0.057 A 
ATOM     73  C   UNL A   1      41.128  27.926  27.515  1.00  0.00     0.134 A 
ATOM     74  C   UNL A   1      39.652  26.465  28.702  1.00  0.00     0.134 A 
ATOM     75  F   UNL A   1      41.821  29.070  27.411  1.00  0.00    -0.206 F 
ATOM     76  C   UNL A   1      41.155  27.039  26.438  1.00  0.00     0.040 A 
ATOM     77  C   UNL A   1      39.688  25.557  27.642  1.00  0.00     0.040 A 
ATOM     78  F   UNL A   1      38.911  26.155  29.775  1.00  0.00    -0.206 F 
ATOM     79  C   UNL A   1      40.436  25.847  26.502  1.00  0.00     0.006 A 
ENDBRANCH  51  72
BRANCH  63  80
ATOM     80  C   UNL A   1      44.133  28.483  34.453  1.00  0.00     0.057 A 
ATOM     81  C   UNL A   1      45.464  28.838  34.213  1.00  0.00     0.134 A 
ATOM     82  C   UNL A   1      43.895  27.389  35.296  1.00  0.00     0.134 A 
ATOM     83  F   UNL A   1      45.758  29.868  33.404  1.00  0.00    -0.206 F 
ATOM     84  C   UNL A   1      46.522  28.120  34.773  1.00  0.00     0.040 A 
ATOM     85  C   UNL A   1      44.942  26.679  35.883  1.00  0.00     0.040 A 
ATOM     86  F   UNL A   1      42.640  27.002  35.573  1.00  0.00    -0.206 F 
ATOM     87  C   UNL A   1      46.261  27.042  35.616  1.00  0.00     0.006 A 
ENDBRANCH  63  80
ENDBRANCH  37  38
ENDBRANCH  29  32
ENDBRANCH  27  28
ENDBRANCH  26  27
ENDBRANCH   1  26
TORSDOF 14
ENDMDL
MODEL 3
REMARK VINA RESULT:     -12.4      4.389      9.237
REMARK SMILES Cc1ccc(F)cc1NS(=O)(=O)c1ccc(C(=O)NCCCCNC(=O)c2ccc(-c3c4nc(c(-c5c(F)cccc5F)c5ccc([nH]5)c(-c5c(F)cccc5F)c5nc(c(-c6c(F)cccc6F)c6ccc3[nH]6)C=C5)C=C4)cc2)cc1
REMARK SMILES IDX 21 1 20 2 19 3 17 4 18 5 16 7 13 8 14 9 82 10 15 11 81 12
REMARK SMILES IDX 10 13 11 14 12 15 9 16 8 18 1 19 2 20 3 21 4 22 7 23 5 24
REMARK SMILES IDX 6 25 22 26 23 27 24 28 25 29 26 31 27 32 28 33 80 34 29 35
REMARK SMILES IDX 79 36 30 37 31 38 32 39 73 40 33 41 78 42 72 43 74 44 34 45
REMARK SMILES IDX 77 46 71 47 70 48 35 50 61 51 44 52 60 53 45 54 48 55 59 56
REMARK SMILES IDX 75 57 46 58 47 59 58 61 76 62 49 63 36 64 37 65 42 66 38 67
REMARK SMILES IDX 39 68 41 69 43 70 40 71 62 72 63 73 68 74 64 75 65 76 67 77
REMARK SMILES IDX 69 78 66 79 50 80 51 81 56 82 52 83 53 84 55 85 57 86 54 87
REMARK H PARENT 19 6 9 17 24 30 74 49 48 60
REMARK Flexibility Score: inf
ROOT
ATOM      1  C   UNL A   1      36.629  21.075  24.835  1.00  0.00     0.023 C 
ENDROOT
BRANCH   1   2
ATOM      2  C   UNL A   1      35.205  20.557  25.023  1.00  0.00     0.116 C 
BRANCH   2   3
ATOM      3  N   UNL A   1      34.624  21.072  26.245  1.00  0.00    -0.352 N 
ATOM      4  C   UNL A   1      33.931  22.234  26.461  1.00  0.00     0.251 C 
ATOM      5  O   UNL A   1      33.419  22.433  27.560  1.00  0.00    -0.269 OA
ATOM      6  H   UNL A   1      34.745  20.504  27.039  1.00  0.00     0.163 HD
BRANCH   4   7
ATOM      7  C   UNL A   1      33.744  23.234  25.386  1.00  0.00     0.039 A 
ATOM      8  C   UNL A   1      33.142  25.162  23.456  1.00  0.00     0.087 A 
ATOM      9  C   UNL A   1      32.379  23.991  23.532  1.00  0.00     0.023 A 
ATOM     10  C   UNL A   1      34.248  25.346  24.294  1.00  0.00     0.023 A 
ATOM     11  C   UNL A   1      32.663  23.044  24.516  1.00  0.00     0.015 A 
ATOM     12  C   UNL A   1      34.539  24.383  25.271  1.00  0.00     0.015 A 
BRANCH   8  13
ATOM     13  S   UNL A   1      32.665  26.420  22.289  1.00  0.00     0.261 S 
ATOM     14  O   UNL A   1      31.967  25.777  21.196  1.00  0.00    -0.201 OA
ATOM     15  O   UNL A   1      33.828  27.241  22.033  1.00  0.00    -0.201 OA
BRANCH  13  16
ATOM     16  N   UNL A   1      31.549  27.426  23.106  1.00  0.00    -0.279 N 
ATOM     17  H   UNL A   1      30.758  27.774  22.636  1.00  0.00     0.180 HD
BRANCH  16  18
ATOM     18  C   UNL A   1      31.779  27.758  24.485  1.00  0.00     0.055 A 
ATOM     19  C   UNL A   1      30.097  26.038  25.400  1.00  0.00     0.046 C 
ATOM     20  C   UNL A   1      31.176  27.073  25.557  1.00  0.00    -0.027 A 
ATOM     21  C   UNL A   1      31.506  27.454  26.876  1.00  0.00     0.008 A 
ATOM     22  C   UNL A   1      32.412  28.483  27.124  1.00  0.00     0.039 A 
ATOM     23  C   UNL A   1      32.635  28.831  24.750  1.00  0.00     0.066 A 
ATOM     24  C   UNL A   1      32.960  29.169  26.055  1.00  0.00     0.125 A 
ATOM     25  F   UNL A   1      33.809  30.180  26.280  1.00  0.00    -0.207 F 
ENDBRANCH  16  18
ENDBRANCH  13  16
ENDBRANCH   8  13
ENDBRANCH   4   7
ENDBRANCH   2   3
ENDBRANCH   1   2
BRANCH   1  26
ATOM     26  C   UNL A   1      37.716  20.000  24.944  1.00  0.00     0.023 C 
BRANCH  26  27
ATOM     27  C   UNL A   1      38.930  20.385  25.782  1.00  0.00     0.116 C 
BRANCH  27  28
ATOM     28  N   UNL A   1      39.991  19.390  25.750  1.00  0.00    -0.352 N 
ATOM     29  C   UNL A   1      41.317  19.544  26.072  1.00  0.00     0.251 C 
ATOM     30  H   UNL A   1      39.724  18.488  25.458  1.00  0.00     0.163 HD
ATOM     31  O   UNL A   1      42.114  18.630  25.893  1.00  0.00    -0.269 OA
BRANCH  29  32
ATOM     32  C   UNL A   1      41.782  20.842  26.601  1.00  0.00     0.039 A 
ATOM     33  C   UNL A   1      42.241  21.808  25.702  1.00  0.00     0.014 A 
ATOM     34  C   UNL A   1      41.728  21.113  27.970  1.00  0.00     0.014 A 
ATOM     35  C   UNL A   1      42.585  23.075  26.173  1.00  0.00     0.010 A 
ATOM     36  C   UNL A   1      42.010  22.396  28.429  1.00  0.00     0.010 A 
ATOM     37  C   UNL A   1      42.438  23.388  27.534  1.00  0.00    -0.014 A 
BRANCH  37  38
ATOM     38  C   UNL A   1      42.724  24.752  28.042  1.00  0.00     0.031 A 
ATOM     39  C   UNL A   1      44.121  25.127  28.444  1.00  0.00     0.074 A 
ATOM     40  C   UNL A   1      41.712  25.626  28.204  1.00  0.00     0.049 A 
ATOM     41  N   UNL A   1      44.557  26.241  28.976  1.00  0.00    -0.248 NA
ATOM     42  C   UNL A   1      45.163  24.106  28.251  1.00  0.00     0.031 C 
ATOM     43  C   UNL A   1      40.304  25.361  27.896  1.00  0.00     0.029 A 
ATOM     44  N   UNL A   1      41.710  26.913  28.680  1.00  0.00    -0.354 N 
ATOM     45  C   UNL A   1      45.914  26.048  29.195  1.00  0.00     0.074 A 
ATOM     46  C   UNL A   1      46.222  24.695  28.784  1.00  0.00     0.031 C 
ATOM     47  C   UNL A   1      39.580  26.458  28.171  1.00  0.00     0.029 A 
ATOM     48  C   UNL A   1      40.464  27.491  28.704  1.00  0.00     0.049 A 
ATOM     49  H   UNL A   1      42.526  27.379  28.975  1.00  0.00     0.167 HD
ATOM     50  C   UNL A   1      46.826  26.927  29.675  1.00  0.00     0.037 A 
ATOM     51  C   UNL A   1      40.079  28.713  29.116  1.00  0.00     0.037 A 
ATOM     52  C   UNL A   1      46.523  28.282  30.050  1.00  0.00     0.049 A 
ATOM     53  C   UNL A   1      41.112  29.672  29.636  1.00  0.00     0.074 A 
ATOM     54  C   UNL A   1      47.389  29.271  30.483  1.00  0.00     0.029 A 
ATOM     55  N   UNL A   1      45.253  28.838  30.036  1.00  0.00    -0.354 N 
ATOM     56  N   UNL A   1      42.406  29.500  29.771  1.00  0.00    -0.248 NA
ATOM     57  C   UNL A   1      40.636  30.997  30.057  1.00  0.00     0.031 C 
ATOM     58  C   UNL A   1      46.637  30.415  30.766  1.00  0.00     0.029 A 
ATOM     59  C   UNL A   1      45.309  30.152  30.470  1.00  0.00     0.049 A 
ATOM     60  H   UNL A   1      44.433  28.368  29.760  1.00  0.00     0.167 HD
ATOM     61  C   UNL A   1      42.900  30.701  30.261  1.00  0.00     0.074 A 
ATOM     62  C   UNL A   1      41.770  31.598  30.390  1.00  0.00     0.031 C 
ATOM     63  C   UNL A   1      44.175  31.033  30.577  1.00  0.00     0.037 A 
BRANCH  50  64
ATOM     64  C   UNL A   1      48.242  26.450  29.812  1.00  0.00     0.057 A 
ATOM     65  C   UNL A   1      49.186  26.641  28.794  1.00  0.00     0.134 A 
ATOM     66  C   UNL A   1      48.676  25.829  30.989  1.00  0.00     0.134 A 
ATOM     67  F   UNL A   1      48.830  27.218  27.637  1.00  0.00    -0.206 F 
ATOM     68  C   UNL A   1      50.506  26.211  28.934  1.00  0.00     0.040 A 
ATOM     69  C   UNL A   1      50.001  25.417  31.150  1.00  0.00     0.040 A 
ATOM     70  F   UNL A   1      47.825  25.620  32.004  1.00  0.00    -0.206 F 
ATOM     71  C   UNL A   1      50.919  25.604  30.119  1.00  0.00     0.006 A 
ENDBRANCH  50  64
BRANCH  51  72
ATOM     72  C   UNL A   1      38.652  29.115  29.028  1.00  0.00     0.057 A 
ATOM     73  C   UNL A   1      38.110  29.588  27.828  1.00  0.00     0.134 A 
ATOM     74  C   UNL A   1      37.805  29.055  30.140  1.00  0.00     0.134 A 
ATOM     75  F   UNL A   1      38.879  29.685  26.733  1.00  0.00    -0.206 F 
ATOM     76  C   UNL A   1      36.782  30.008  27.740  1.00  0.00     0.040 A 
ATOM     77  C   UNL A   1      36.468  29.451  30.062  1.00  0.00     0.040 A 
ATOM     78  F   UNL A   1      38.262  28.605  31.317  1.00  0.00    -0.206 F 
ATOM     79  C   UNL A   1      35.955  29.936  28.860  1.00  0.00     0.006 A 
ENDBRANCH  51  72
BRANCH  63  80
ATOM     80  C   UNL A   1      44.420  32.433  31.056  1.00  0.00     0.057 A 
ATOM     81  C   UNL A   1      44.679  33.483  30.167  1.00  0.00     0.134 A 
ATOM     82  C   UNL A   1      44.355  32.739  32.421  1.00  0.00     0.134 A 
ATOM     83  F   UNL A   1      44.767  33.252  28.849  1.00  0.00    -0.206 F 
ATOM     84  C   UNL A   1      44.885  34.787  30.621  1.00  0.00     0.040 A 
ATOM     85  C   UNL A   1      44.534  34.042  32.885  1.00  0.00     0.040 A 
ATOM     86  F   UNL A   1      44.103  31.778  33.324  1.00  0.00    -0.206 F 
ATOM     87  C   UNL A   1      44.806  35.069  31.984  1.00  0.00     0.006 A 
ENDBRANCH  63  80
ENDBRANCH  37  38
ENDBRANCH  29  32
ENDBRANCH  27  28
ENDBRANCH  26  27
ENDBRANCH   1  26
TORSDOF 14
ENDMDL
