MODEL 1
REMARK VINA RESULT:     -14.8      0.000      0.000
REMARK SMILES Cc1ccc(C2=NN(C(=O)CCC(=O)NCCCCNC(=O)c3ccc(-c4c5nc(c(-c6c(F)cccc6F)c6ccc([nH]6)c(-c6c(F)cccc6F)c6nc(c(-c7c(F)cccc7F)c7ccc4[nH]7)C=C6)C=C5)cc3)[C@H](C[C@@H]3C=c4cccc(C)c4=NC3=O)C2)cc1
REMARK SMILES IDX 16 1 15 2 13 3 14 4 12 6 11 7 9 8 10 9 8 10 6 11 7 12 91 13
REMARK SMILES IDX 77 14 5 15 1 16 2 17 3 18 93 19 4 20 92 21 78 22 79 23 80 24
REMARK SMILES IDX 89 25 81 26 88 27 90 28 82 29 87 30 83 31 85 32 84 33 86 34
REMARK SMILES IDX 17 35 18 36 19 37 20 38 21 39 22 41 23 42 24 43 76 44 25 45
REMARK SMILES IDX 75 46 26 47 27 48 28 49 69 50 29 51 74 52 68 53 70 54 30 55
REMARK SMILES IDX 73 56 67 57 66 58 31 60 57 61 40 62 56 63 41 64 44 65 55 66
REMARK SMILES IDX 71 67 42 68 43 69 54 71 72 72 45 73 32 74 33 75 38 76 34 77
REMARK SMILES IDX 35 78 37 79 39 80 36 81 58 82 59 83 64 84 60 85 61 86 63 87
REMARK SMILES IDX 65 88 62 89 46 90 47 91 52 92 48 93 49 94 51 95 53 96 50 97
REMARK H PARENT 15 5 20 40 70 59 44 70
REMARK Flexibility Score: inf
ROOT
ATOM      1  C   UNL A   1      40.650  28.883  28.550  1.00  0.00     0.116 C 
ENDROOT
BRANCH   1   2
ATOM      2  N   UNL A   1      41.380  29.546  29.825  1.00  0.00    -0.356 N 
ATOM      3  C   UNL A   1      41.375  29.368  31.170  1.00  0.00     0.220 C 
ATOM      4  O   UNL A   1      42.011  30.200  31.826  1.00  0.00    -0.275 OA
ATOM      5  H   UNL A   1      41.990  30.270  29.557  1.00  0.00     0.163 HD
BRANCH   3   6
ATOM      6  C   UNL A   1      40.648  28.247  31.875  1.00  0.00     0.110 C 
BRANCH   6   7
ATOM      7  C   UNL A   1      39.269  27.822  31.407  1.00  0.00     0.112 C 
BRANCH   7   8
ATOM      8  C   UNL A   1      38.123  28.399  32.215  1.00  0.00     0.243 C 
ATOM      9  O   UNL A   1      37.705  27.830  33.221  1.00  0.00    -0.273 OA
BRANCH   8  10
ATOM     10  N   UNL A   1      37.517  29.545  31.631  1.00  0.00    -0.230 N 
ATOM     11  C   UNL A   1      36.966  30.336  28.963  1.00  0.00     0.070 C 
ATOM     12  N   UNL A   1      36.738  29.212  30.006  1.00  0.00    -0.174 NA
ATOM     13  C   UNL A   1      38.246  31.829  29.786  1.00  0.00     0.086 C 
ATOM     14  C   UNL A   1      38.284  31.249  31.757  1.00  0.00     0.118 C 
BRANCH  11  15
ATOM     15  C   UNL A   1      35.625  30.310  27.824  1.00  0.00    -0.002 A 
ATOM     16  C   UNL A   1      31.587  29.755  26.234  1.00  0.00     0.044 C 
ATOM     17  C   UNL A   1      33.001  30.103  26.590  1.00  0.00    -0.051 A 
ATOM     18  C   UNL A   1      33.412  31.254  27.277  1.00  0.00     0.004 A 
ATOM     19  C   UNL A   1      33.961  29.164  26.318  1.00  0.00     0.004 A 
ATOM     20  C   UNL A   1      34.708  31.365  27.876  1.00  0.00     0.010 A 
ATOM     21  C   UNL A   1      35.231  29.305  26.880  1.00  0.00     0.010 A 
ENDBRANCH  11  15
BRANCH  14  22
ATOM     22  C   UNL A   1      37.491  32.024  33.085  1.00  0.00     0.045 C 
BRANCH  22  23
ATOM     23  C   UNL A   1      36.207  32.885  32.768  1.00  0.00     0.106 C 
ATOM     24  C   UNL A   1      36.214  33.716  31.509  1.00  0.00    -0.003 C 
ATOM     25  C   UNL A   1      35.661  33.857  33.831  1.00  0.00     0.253 C 
ATOM     26  C   UNL A   1      35.059  34.240  31.100  1.00  0.00    -0.003 A 
ATOM     27  N   UNL A   1      34.524  34.597  33.486  1.00  0.00    -0.212 NA
ATOM     28  O   UNL A   1      36.172  33.918  34.946  1.00  0.00    -0.272 OA
ATOM     29  C   UNL A   1      34.635  34.348  29.729  1.00  0.00     0.010 A 
ATOM     30  C   UNL A   1      34.239  34.770  32.226  1.00  0.00     0.077 A 
ATOM     31  C   UNL A   1      33.459  34.914  29.437  1.00  0.00     0.001 A 
ATOM     32  C   UNL A   1      33.114  35.659  31.748  1.00  0.00    -0.025 A 
ATOM     33  C   UNL A   1      32.749  35.654  30.450  1.00  0.00     0.005 A 
ATOM     34  C   UNL A   1      32.590  36.679  32.703  1.00  0.00     0.047 C 
ENDBRANCH  22  23
ENDBRANCH  14  22
ENDBRANCH   8  10
ENDBRANCH   7   8
ENDBRANCH   6   7
ENDBRANCH   3   6
ENDBRANCH   1   2
BRANCH   1  35
ATOM     35  C   UNL A   1      41.367  28.693  26.471  1.00  0.00     0.023 C 
BRANCH  35  36
ATOM     36  C   UNL A   1      41.247  26.933  25.696  1.00  0.00     0.023 C 
BRANCH  36  37
ATOM     37  C   UNL A   1      42.727  25.919  25.403  1.00  0.00     0.116 C 
BRANCH  37  38
ATOM     38  N   UNL A   1      42.651  24.397  25.505  1.00  0.00    -0.352 N 
ATOM     39  C   UNL A   1      42.681  23.427  26.517  1.00  0.00     0.251 C 
ATOM     40  H   UNL A   1      42.556  23.983  24.617  1.00  0.00     0.163 HD
ATOM     41  O   UNL A   1      43.276  22.370  26.274  1.00  0.00    -0.269 OA
BRANCH  39  42
ATOM     42  C   UNL A   1      41.737  23.498  27.724  1.00  0.00     0.039 A 
ATOM     43  C   UNL A   1      41.455  24.861  27.986  1.00  0.00     0.014 A 
ATOM     44  C   UNL A   1      42.396  22.834  28.731  1.00  0.00     0.014 A 
ATOM     45  C   UNL A   1      42.464  25.618  28.569  1.00  0.00     0.010 A 
ATOM     46  C   UNL A   1      43.525  23.506  29.126  1.00  0.00     0.010 A 
ATOM     47  C   UNL A   1      43.583  24.908  28.976  1.00  0.00    -0.014 A 
BRANCH  47  48
ATOM     48  C   UNL A   1      44.848  25.480  29.361  1.00  0.00     0.031 A 
ATOM     49  C   UNL A   1      45.974  25.096  28.490  1.00  0.00     0.074 A 
ATOM     50  C   UNL A   1      44.928  26.430  30.322  1.00  0.00     0.049 A 
ATOM     51  N   UNL A   1      47.211  25.127  28.833  1.00  0.00    -0.248 NA
ATOM     52  C   UNL A   1      45.776  24.504  27.160  1.00  0.00     0.031 C 
ATOM     53  C   UNL A   1      46.031  27.363  30.527  1.00  0.00     0.029 A 
ATOM     54  N   UNL A   1      44.093  26.672  31.418  1.00  0.00    -0.354 N 
ATOM     55  C   UNL A   1      47.931  24.976  27.667  1.00  0.00     0.074 A 
ATOM     56  C   UNL A   1      47.029  24.362  26.743  1.00  0.00     0.031 C 
ATOM     57  C   UNL A   1      45.967  27.847  31.778  1.00  0.00     0.029 A 
ATOM     58  C   UNL A   1      44.926  27.107  32.469  1.00  0.00     0.049 A 
ATOM     59  H   UNL A   1      43.115  26.561  31.449  1.00  0.00     0.167 HD
ATOM     60  C   UNL A   1      49.126  25.616  27.565  1.00  0.00     0.037 A 
ATOM     61  C   UNL A   1      45.116  26.415  33.635  1.00  0.00     0.037 A 
ATOM     62  C   UNL A   1      49.512  26.138  28.883  1.00  0.00     0.049 A 
ATOM     63  C   UNL A   1      46.541  25.913  33.804  1.00  0.00     0.074 A 
ATOM     64  C   UNL A   1      49.515  27.407  29.437  1.00  0.00     0.029 A 
ATOM     65  N   UNL A   1      49.608  25.251  29.953  1.00  0.00    -0.354 N 
ATOM     66  N   UNL A   1      47.451  25.984  32.870  1.00  0.00    -0.248 NA
ATOM     67  C   UNL A   1      47.048  25.251  35.005  1.00  0.00     0.031 C 
ATOM     68  C   UNL A   1      49.537  27.268  30.854  1.00  0.00     0.029 A 
ATOM     69  C   UNL A   1      49.581  25.919  31.163  1.00  0.00     0.049 A 
ATOM     70  H   UNL A   1      49.687  24.274  29.859  1.00  0.00     0.167 HD
ATOM     71  C   UNL A   1      48.594  25.342  33.268  1.00  0.00     0.074 A 
ATOM     72  C   UNL A   1      48.307  24.949  34.636  1.00  0.00     0.031 C 
ATOM     73  C   UNL A   1      49.646  25.157  32.412  1.00  0.00     0.037 A 
BRANCH  60  74
ATOM     74  C   UNL A   1      49.790  26.018  26.255  1.00  0.00     0.057 A 
ATOM     75  C   UNL A   1      51.136  25.671  26.030  1.00  0.00     0.134 A 
ATOM     76  C   UNL A   1      49.236  26.804  25.218  1.00  0.00     0.134 A 
ATOM     77  F   UNL A   1      51.816  24.906  26.895  1.00  0.00    -0.206 F 
ATOM     78  C   UNL A   1      51.867  26.097  24.910  1.00  0.00     0.040 A 
ATOM     79  C   UNL A   1      49.950  27.223  24.086  1.00  0.00     0.040 A 
ATOM     80  F   UNL A   1      47.977  27.241  25.216  1.00  0.00    -0.206 F 
ATOM     81  C   UNL A   1      51.277  26.879  23.932  1.00  0.00     0.006 A 
ENDBRANCH  60  74
BRANCH  61  82
ATOM     82  C   UNL A   1      43.894  25.721  34.113  1.00  0.00     0.057 A 
ATOM     83  C   UNL A   1      43.821  24.335  33.891  1.00  0.00     0.134 A 
ATOM     84  C   UNL A   1      43.151  26.247  35.176  1.00  0.00     0.134 A 
ATOM     85  F   UNL A   1      44.458  23.786  32.846  1.00  0.00    -0.206 F 
ATOM     86  C   UNL A   1      43.222  23.483  34.820  1.00  0.00     0.040 A 
ATOM     87  C   UNL A   1      42.548  25.402  36.111  1.00  0.00     0.040 A 
ATOM     88  F   UNL A   1      43.160  27.564  35.426  1.00  0.00    -0.206 F 
ATOM     89  C   UNL A   1      42.637  24.017  35.964  1.00  0.00     0.006 A 
ENDBRANCH  61  82
BRANCH  73  90
ATOM     90  C   UNL A   1      50.858  24.268  32.637  1.00  0.00     0.057 A 
ATOM     91  C   UNL A   1      52.194  24.670  32.502  1.00  0.00     0.134 A 
ATOM     92  C   UNL A   1      50.691  22.960  33.161  1.00  0.00     0.134 A 
ATOM     93  F   UNL A   1      52.527  25.914  32.141  1.00  0.00    -0.206 F 
ATOM     94  C   UNL A   1      53.272  23.821  32.798  1.00  0.00     0.040 A 
ATOM     95  C   UNL A   1      51.756  22.138  33.535  1.00  0.00     0.040 A 
ATOM     96  F   UNL A   1      49.478  22.423  33.358  1.00  0.00    -0.206 F 
ATOM     97  C   UNL A   1      53.057  22.557  33.332  1.00  0.00     0.006 A 
ENDBRANCH  73  90
ENDBRANCH  47  48
ENDBRANCH  39  42
ENDBRANCH  37  38
ENDBRANCH  36  37
ENDBRANCH  35  36
ENDBRANCH   1  35
TORSDOF 17
ENDMDL
MODEL 2
REMARK VINA RESULT:     -14.2      4.817     13.125
REMARK SMILES Cc1ccc(C2=NN(C(=O)CCC(=O)NCCCCNC(=O)c3ccc(-c4c5nc(c(-c6c(F)cccc6F)c6ccc([nH]6)c(-c6c(F)cccc6F)c6nc(c(-c7c(F)cccc7F)c7ccc4[nH]7)C=C6)C=C5)cc3)[C@H](C[C@@H]3C=c4cccc(C)c4=NC3=O)C2)cc1
REMARK SMILES IDX 16 1 15 2 13 3 14 4 12 6 11 7 9 8 10 9 8 10 6 11 7 12 91 13
REMARK SMILES IDX 77 14 5 15 1 16 2 17 3 18 93 19 4 20 92 21 78 22 79 23 80 24
REMARK SMILES IDX 89 25 81 26 88 27 90 28 82 29 87 30 83 31 85 32 84 33 86 34
REMARK SMILES IDX 17 35 18 36 19 37 20 38 21 39 22 41 23 42 24 43 76 44 25 45
REMARK SMILES IDX 75 46 26 47 27 48 28 49 69 50 29 51 74 52 68 53 70 54 30 55
REMARK SMILES IDX 73 56 67 57 66 58 31 60 57 61 40 62 56 63 41 64 44 65 55 66
REMARK SMILES IDX 71 67 42 68 43 69 54 71 72 72 45 73 32 74 33 75 38 76 34 77
REMARK SMILES IDX 35 78 37 79 39 80 36 81 58 82 59 83 64 84 60 85 61 86 63 87
REMARK SMILES IDX 65 88 62 89 46 90 47 91 52 92 48 93 49 94 51 95 53 96 50 97
REMARK H PARENT 15 5 20 40 70 59 44 70
REMARK Flexibility Score: inf
ROOT
ATOM      1  C   UNL A   1      45.094  22.541  35.386  1.00  0.00     0.116 C 
ENDROOT
BRANCH   1   2
ATOM      2  N   UNL A   1      45.328  20.947  35.377  1.00  0.00    -0.356 N 
ATOM      3  C   UNL A   1      46.187  20.076  34.788  1.00  0.00     0.220 C 
ATOM      4  O   UNL A   1      45.938  18.877  34.956  1.00  0.00    -0.275 OA
ATOM      5  H   UNL A   1      44.677  20.482  35.950  1.00  0.00     0.163 HD
BRANCH   3   6
ATOM      6  C   UNL A   1      47.383  20.491  33.964  1.00  0.00     0.110 C 
BRANCH   6   7
ATOM      7  C   UNL A   1      48.649  19.654  33.987  1.00  0.00     0.112 C 
BRANCH   7   8
ATOM      8  C   UNL A   1      49.661  20.070  35.035  1.00  0.00     0.243 C 
ATOM      9  O   UNL A   1      50.820  19.664  34.996  1.00  0.00    -0.273 OA
BRANCH   8  10
ATOM     10  N   UNL A   1      49.115  20.835  36.103  1.00  0.00    -0.230 N 
ATOM     11  C   UNL A   1      49.779  23.330  37.278  1.00  0.00     0.070 C 
ATOM     12  N   UNL A   1      49.415  22.636  35.941  1.00  0.00    -0.174 NA
ATOM     13  C   UNL A   1      49.931  21.871  38.825  1.00  0.00     0.086 C 
ATOM     14  C   UNL A   1      49.142  20.229  37.875  1.00  0.00     0.118 C 
BRANCH  11  15
ATOM     15  C   UNL A   1      49.285  25.015  37.175  1.00  0.00    -0.002 A 
ATOM     16  C   UNL A   1      47.381  28.661  35.685  1.00  0.00     0.044 C 
ATOM     17  C   UNL A   1      48.032  27.526  36.416  1.00  0.00    -0.051 A 
ATOM     18  C   UNL A   1      47.369  26.571  37.199  1.00  0.00     0.004 A 
ATOM     19  C   UNL A   1      49.374  27.342  36.211  1.00  0.00     0.004 A 
ATOM     20  C   UNL A   1      47.987  25.338  37.586  1.00  0.00     0.010 A 
ATOM     21  C   UNL A   1      49.969  26.150  36.626  1.00  0.00     0.010 A 
ENDBRANCH  11  15
BRANCH  14  22
ATOM     22  C   UNL A   1      47.592  19.512  38.150  1.00  0.00     0.045 C 
BRANCH  22  23
ATOM     23  C   UNL A   1      47.194  19.183  39.641  1.00  0.00     0.106 C 
ATOM     24  C   UNL A   1      46.652  17.806  39.934  1.00  0.00    -0.003 C 
ATOM     25  C   UNL A   1      46.222  20.113  40.392  1.00  0.00     0.253 C 
ATOM     26  C   UNL A   1      46.553  17.431  41.208  1.00  0.00    -0.003 A 
ATOM     27  N   UNL A   1      45.903  19.763  41.709  1.00  0.00    -0.212 NA
ATOM     28  O   UNL A   1      45.810  21.144  39.867  1.00  0.00    -0.272 OA
ATOM     29  C   UNL A   1      46.831  16.111  41.711  1.00  0.00     0.010 A 
ATOM     30  C   UNL A   1      46.061  18.527  42.091  1.00  0.00     0.077 A 
ATOM     31  C   UNL A   1      46.677  15.847  43.012  1.00  0.00     0.001 A 
ATOM     32  C   UNL A   1      45.624  18.019  43.447  1.00  0.00    -0.025 A 
ATOM     33  C   UNL A   1      45.978  16.784  43.856  1.00  0.00     0.005 A 
ATOM     34  C   UNL A   1      44.622  18.834  44.196  1.00  0.00     0.047 C 
ENDBRANCH  22  23
ENDBRANCH  14  22
ENDBRANCH   8  10
ENDBRANCH   7   8
ENDBRANCH   6   7
ENDBRANCH   3   6
ENDBRANCH   1   2
BRANCH   1  35
ATOM     35  C   UNL A   1      43.496  23.725  34.429  1.00  0.00     0.023 C 
BRANCH  35  36
ATOM     36  C   UNL A   1      41.808  23.770  35.359  1.00  0.00     0.023 C 
BRANCH  36  37
ATOM     37  C   UNL A   1      41.357  25.155  36.445  1.00  0.00     0.116 C 
BRANCH  37  38
ATOM     38  N   UNL A   1      41.324  26.582  35.903  1.00  0.00    -0.352 N 
ATOM     39  C   UNL A   1      41.737  27.856  36.320  1.00  0.00     0.251 C 
ATOM     40  H   UNL A   1      40.895  26.618  35.017  1.00  0.00     0.163 HD
ATOM     41  O   UNL A   1      41.003  28.811  36.042  1.00  0.00    -0.269 OA
BRANCH  39  42
ATOM     42  C   UNL A   1      43.177  28.121  36.775  1.00  0.00     0.039 A 
ATOM     43  C   UNL A   1      43.504  29.461  36.455  1.00  0.00     0.014 A 
ATOM     44  C   UNL A   1      43.935  27.167  36.137  1.00  0.00     0.014 A 
ATOM     45  C   UNL A   1      43.738  29.756  35.117  1.00  0.00     0.010 A 
ATOM     46  C   UNL A   1      43.953  27.361  34.779  1.00  0.00     0.010 A 
ATOM     47  C   UNL A   1      43.782  28.664  34.265  1.00  0.00    -0.014 A 
BRANCH  47  48
ATOM     48  C   UNL A   1      43.748  28.719  32.825  1.00  0.00     0.031 A 
ATOM     49  C   UNL A   1      42.406  28.525  32.244  1.00  0.00     0.074 A 
ATOM     50  C   UNL A   1      44.831  29.104  32.109  1.00  0.00     0.049 A 
ATOM     51  N   UNL A   1      42.175  28.134  31.044  1.00  0.00    -0.248 NA
ATOM     52  C   UNL A   1      41.178  28.642  33.043  1.00  0.00     0.031 C 
ATOM     53  C   UNL A   1      44.832  29.587  30.733  1.00  0.00     0.029 A 
ATOM     54  N   UNL A   1      46.192  29.010  32.419  1.00  0.00    -0.354 N 
ATOM     55  C   UNL A   1      40.834  28.362  30.823  1.00  0.00     0.074 A 
ATOM     56  C   UNL A   1      40.243  28.432  32.122  1.00  0.00     0.031 C 
ATOM     57  C   UNL A   1      46.071  29.468  30.229  1.00  0.00     0.029 A 
ATOM     58  C   UNL A   1      46.862  28.744  31.208  1.00  0.00     0.049 A 
ATOM     59  H   UNL A   1      46.601  29.111  33.309  1.00  0.00     0.167 HD
ATOM     60  C   UNL A   1      40.442  28.707  29.567  1.00  0.00     0.037 A 
ATOM     61  C   UNL A   1      47.542  27.585  30.944  1.00  0.00     0.037 A 
ATOM     62  C   UNL A   1      41.557  28.495  28.635  1.00  0.00     0.049 A 
ATOM     63  C   UNL A   1      46.912  26.766  29.830  1.00  0.00     0.074 A 
ATOM     64  C   UNL A   1      42.432  29.355  27.992  1.00  0.00     0.029 A 
ATOM     65  N   UNL A   1      42.133  27.229  28.555  1.00  0.00    -0.354 N 
ATOM     66  N   UNL A   1      45.756  27.044  29.289  1.00  0.00    -0.248 NA
ATOM     67  C   UNL A   1      47.495  25.549  29.267  1.00  0.00     0.031 C 
ATOM     68  C   UNL A   1      43.574  28.602  27.593  1.00  0.00     0.029 A 
ATOM     69  C   UNL A   1      43.381  27.281  27.963  1.00  0.00     0.049 A 
ATOM     70  H   UNL A   1      41.705  26.404  28.878  1.00  0.00     0.167 HD
ATOM     71  C   UNL A   1      45.395  26.062  28.404  1.00  0.00     0.074 A 
ATOM     72  C   UNL A   1      46.546  25.177  28.387  1.00  0.00     0.031 C 
ATOM     73  C   UNL A   1      44.161  26.052  27.810  1.00  0.00     0.037 A 
BRANCH  60  74
ATOM     74  C   UNL A   1      39.181  29.492  29.233  1.00  0.00     0.057 A 
ATOM     75  C   UNL A   1      38.204  28.906  28.406  1.00  0.00     0.134 A 
ATOM     76  C   UNL A   1      38.883  30.828  29.589  1.00  0.00     0.134 A 
ATOM     77  F   UNL A   1      38.307  27.637  27.992  1.00  0.00    -0.206 F 
ATOM     78  C   UNL A   1      37.067  29.592  27.948  1.00  0.00     0.040 A 
ATOM     79  C   UNL A   1      37.744  31.519  29.151  1.00  0.00     0.040 A 
ATOM     80  F   UNL A   1      39.663  31.574  30.370  1.00  0.00    -0.206 F 
ATOM     81  C   UNL A   1      36.833  30.906  28.316  1.00  0.00     0.006 A 
ENDBRANCH  60  74
BRANCH  61  82
ATOM     82  C   UNL A   1      48.246  27.033  32.130  1.00  0.00     0.057 A 
ATOM     83  C   UNL A   1      47.598  26.003  32.832  1.00  0.00     0.134 A 
ATOM     84  C   UNL A   1      49.640  27.102  32.220  1.00  0.00     0.134 A 
ATOM     85  F   UNL A   1      46.258  25.930  32.836  1.00  0.00    -0.206 F 
ATOM     86  C   UNL A   1      48.317  24.956  33.409  1.00  0.00     0.040 A 
ATOM     87  C   UNL A   1      50.370  26.059  32.795  1.00  0.00     0.040 A 
ATOM     88  F   UNL A   1      50.316  28.076  31.592  1.00  0.00    -0.206 F 
ATOM     89  C   UNL A   1      49.707  24.955  33.335  1.00  0.00     0.006 A 
ENDBRANCH  61  82
BRANCH  73  90
ATOM     90  C   UNL A   1      43.547  24.917  27.009  1.00  0.00     0.057 A 
ATOM     91  C   UNL A   1      43.736  24.698  25.637  1.00  0.00     0.134 A 
ATOM     92  C   UNL A   1      42.827  23.889  27.672  1.00  0.00     0.134 A 
ATOM     93  F   UNL A   1      44.496  25.504  24.889  1.00  0.00    -0.206 F 
ATOM     94  C   UNL A   1      43.200  23.586  24.969  1.00  0.00     0.040 A 
ATOM     95  C   UNL A   1      42.360  22.739  27.032  1.00  0.00     0.040 A 
ATOM     96  F   UNL A   1      42.563  23.940  28.985  1.00  0.00    -0.206 F 
ATOM     97  C   UNL A   1      42.524  22.593  25.667  1.00  0.00     0.006 A 
ENDBRANCH  73  90
ENDBRANCH  47  48
ENDBRANCH  39  42
ENDBRANCH  37  38
ENDBRANCH  36  37
ENDBRANCH  35  36
ENDBRANCH   1  35
TORSDOF 17
ENDMDL
MODEL 3
REMARK VINA RESULT:     -14.2      4.662     12.426
REMARK SMILES Cc1ccc(C2=NN(C(=O)CCC(=O)NCCCCNC(=O)c3ccc(-c4c5nc(c(-c6c(F)cccc6F)c6ccc([nH]6)c(-c6c(F)cccc6F)c6nc(c(-c7c(F)cccc7F)c7ccc4[nH]7)C=C6)C=C5)cc3)[C@H](C[C@@H]3C=c4cccc(C)c4=NC3=O)C2)cc1
REMARK SMILES IDX 16 1 15 2 13 3 14 4 12 6 11 7 9 8 10 9 8 10 6 11 7 12 91 13
REMARK SMILES IDX 77 14 5 15 1 16 2 17 3 18 93 19 4 20 92 21 78 22 79 23 80 24
REMARK SMILES IDX 89 25 81 26 88 27 90 28 82 29 87 30 83 31 85 32 84 33 86 34
REMARK SMILES IDX 17 35 18 36 19 37 20 38 21 39 22 41 23 42 24 43 76 44 25 45
REMARK SMILES IDX 75 46 26 47 27 48 28 49 69 50 29 51 74 52 68 53 70 54 30 55
REMARK SMILES IDX 73 56 67 57 66 58 31 60 57 61 40 62 56 63 41 64 44 65 55 66
REMARK SMILES IDX 71 67 42 68 43 69 54 71 72 72 45 73 32 74 33 75 38 76 34 77
REMARK SMILES IDX 35 78 37 79 39 80 36 81 58 82 59 83 64 84 60 85 61 86 63 87
REMARK SMILES IDX 65 88 62 89 46 90 47 91 52 92 48 93 49 94 51 95 53 96 50 97
REMARK H PARENT 15 5 20 40 70 59 44 70
REMARK Flexibility Score: inf
ROOT
ATOM      1  C   UNL A   1      33.602  26.517  26.119  1.00  0.00     0.116 C 
ENDROOT
BRANCH   1   2
ATOM      2  N   UNL A   1      33.542  25.085  25.383  1.00  0.00    -0.356 N 
ATOM      3  C   UNL A   1      34.403  24.069  25.125  1.00  0.00     0.220 C 
ATOM      4  O   UNL A   1      33.971  23.168  24.398  1.00  0.00    -0.275 OA
ATOM      5  H   UNL A   1      32.643  24.897  25.028  1.00  0.00     0.163 HD
BRANCH   3   6
ATOM      6  C   UNL A   1      35.814  23.996  25.658  1.00  0.00     0.110 C 
BRANCH   6   7
ATOM      7  C   UNL A   1      36.915  23.379  24.815  1.00  0.00     0.112 C 
BRANCH   7   8
ATOM      8  C   UNL A   1      37.698  22.280  25.507  1.00  0.00     0.243 C 
ATOM      9  O   UNL A   1      37.150  21.242  25.870  1.00  0.00    -0.273 OA
BRANCH   8  10
ATOM     10  N   UNL A   1      39.045  22.624  25.807  1.00  0.00    -0.230 N 
ATOM     11  C   UNL A   1      41.324  21.136  26.607  1.00  0.00     0.070 C 
ATOM     12  N   UNL A   1      40.231  21.257  25.516  1.00  0.00    -0.174 NA
ATOM     13  C   UNL A   1      40.955  22.558  28.152  1.00  0.00     0.086 C 
ATOM     14  C   UNL A   1      39.494  23.703  27.270  1.00  0.00     0.118 C 
BRANCH  11  15
ATOM     15  C   UNL A   1      42.748  20.402  25.880  1.00  0.00    -0.002 A 
ATOM     16  C   UNL A   1      46.734  18.636  25.514  1.00  0.00     0.044 C 
ATOM     17  C   UNL A   1      45.318  19.121  25.429  1.00  0.00    -0.051 A 
ATOM     18  C   UNL A   1      44.181  18.394  25.810  1.00  0.00     0.004 A 
ATOM     19  C   UNL A   1      45.128  20.423  25.050  1.00  0.00     0.004 A 
ATOM     20  C   UNL A   1      42.911  19.020  26.021  1.00  0.00     0.010 A 
ATOM     21  C   UNL A   1      43.873  21.008  25.229  1.00  0.00     0.010 A 
ENDBRANCH  11  15
BRANCH  14  22
ATOM     22  C   UNL A   1      39.666  25.304  26.638  1.00  0.00     0.045 C 
BRANCH  22  23
ATOM     23  C   UNL A   1      41.070  26.007  26.802  1.00  0.00     0.106 C 
ATOM     24  C   UNL A   1      41.157  27.480  26.487  1.00  0.00    -0.003 C 
ATOM     25  C   UNL A   1      42.303  25.418  26.091  1.00  0.00     0.253 C 
ATOM     26  C   UNL A   1      42.256  28.134  26.859  1.00  0.00    -0.003 A 
ATOM     27  N   UNL A   1      43.517  26.091  26.270  1.00  0.00    -0.212 NA
ATOM     28  O   UNL A   1      42.220  24.370  25.456  1.00  0.00    -0.272 OA
ATOM     29  C   UNL A   1      42.288  29.476  27.380  1.00  0.00     0.010 A 
ATOM     30  C   UNL A   1      43.499  27.343  26.632  1.00  0.00     0.077 A 
ATOM     31  C   UNL A   1      43.457  30.038  27.702  1.00  0.00     0.001 A 
ATOM     32  C   UNL A   1      44.745  28.194  26.724  1.00  0.00    -0.025 A 
ATOM     33  C   UNL A   1      44.690  29.423  27.279  1.00  0.00     0.005 A 
ATOM     34  C   UNL A   1      45.958  27.722  25.992  1.00  0.00     0.047 C 
ENDBRANCH  22  23
ENDBRANCH  14  22
ENDBRANCH   8  10
ENDBRANCH   7   8
ENDBRANCH   6   7
ENDBRANCH   3   6
ENDBRANCH   1   2
BRANCH   1  35
ATOM     35  C   UNL A   1      32.368  28.317  25.779  1.00  0.00     0.023 C 
BRANCH  35  36
ATOM     36  C   UNL A   1      33.292  30.004  25.888  1.00  0.00     0.023 C 
BRANCH  36  37
ATOM     37  C   UNL A   1      34.090  30.555  27.425  1.00  0.00     0.116 C 
BRANCH  37  38
ATOM     38  N   UNL A   1      35.510  31.118  27.398  1.00  0.00    -0.352 N 
ATOM     39  C   UNL A   1      36.724  30.892  28.063  1.00  0.00     0.251 C 
ATOM     40  H   UNL A   1      35.597  31.838  26.731  1.00  0.00     0.163 HD
ATOM     41  O   UNL A   1      37.421  31.880  28.325  1.00  0.00    -0.269 OA
BRANCH  39  42
ATOM     42  C   UNL A   1      37.341  29.491  28.149  1.00  0.00     0.039 A 
ATOM     43  C   UNL A   1      36.815  28.844  29.293  1.00  0.00     0.014 A 
ATOM     44  C   UNL A   1      38.700  29.701  28.169  1.00  0.00     0.014 A 
ATOM     45  C   UNL A   1      37.283  29.265  30.532  1.00  0.00     0.010 A 
ATOM     46  C   UNL A   1      39.097  30.333  29.320  1.00  0.00     0.010 A 
ATOM     47  C   UNL A   1      38.336  30.166  30.497  1.00  0.00    -0.014 A 
BRANCH  47  48
ATOM     48  C   UNL A   1      38.819  30.939  31.614  1.00  0.00     0.031 A 
ATOM     49  C   UNL A   1      39.651  30.176  32.562  1.00  0.00     0.074 A 
ATOM     50  C   UNL A   1      38.664  32.283  31.659  1.00  0.00     0.049 A 
ATOM     51  N   UNL A   1      39.850  30.498  33.788  1.00  0.00    -0.248 NA
ATOM     52  C   UNL A   1      40.242  28.874  32.221  1.00  0.00     0.031 C 
ATOM     53  C   UNL A   1      39.426  33.215  32.484  1.00  0.00     0.029 A 
ATOM     54  N   UNL A   1      37.686  33.095  31.075  1.00  0.00    -0.354 N 
ATOM     55  C   UNL A   1      40.891  29.706  34.224  1.00  0.00     0.074 A 
ATOM     56  C   UNL A   1      40.917  28.591  33.330  1.00  0.00     0.031 C 
ATOM     57  C   UNL A   1      38.741  34.365  32.590  1.00  0.00     0.029 A 
ATOM     58  C   UNL A   1      37.440  34.144  31.983  1.00  0.00     0.049 A 
ATOM     59  H   UNL A   1      37.255  32.960  30.200  1.00  0.00     0.167 HD
ATOM     60  C   UNL A   1      41.750  30.225  35.141  1.00  0.00     0.037 A 
ATOM     61  C   UNL A   1      36.247  34.341  32.625  1.00  0.00     0.037 A 
ATOM     62  C   UNL A   1      41.196  31.477  35.672  1.00  0.00     0.049 A 
ATOM     63  C   UNL A   1      36.342  34.152  34.131  1.00  0.00     0.074 A 
ATOM     64  C   UNL A   1      41.497  32.812  35.463  1.00  0.00     0.029 A 
ATOM     65  N   UNL A   1      39.931  31.455  36.257  1.00  0.00    -0.354 N 
ATOM     66  N   UNL A   1      37.401  33.690  34.739  1.00  0.00    -0.248 NA
ATOM     67  C   UNL A   1      35.252  34.416  35.067  1.00  0.00     0.031 C 
ATOM     68  C   UNL A   1      40.368  33.585  35.858  1.00  0.00     0.029 A 
ATOM     69  C   UNL A   1      39.393  32.726  36.338  1.00  0.00     0.049 A 
ATOM     70  H   UNL A   1      39.479  30.640  36.572  1.00  0.00     0.167 HD
ATOM     71  C   UNL A   1      37.147  33.515  36.073  1.00  0.00     0.074 A 
ATOM     72  C   UNL A   1      35.802  34.038  36.236  1.00  0.00     0.031 C 
ATOM     73  C   UNL A   1      38.055  32.911  36.902  1.00  0.00     0.037 A 
BRANCH  60  74
ATOM     74  C   UNL A   1      43.189  29.771  35.341  1.00  0.00     0.057 A 
ATOM     75  C   UNL A   1      44.213  30.375  34.586  1.00  0.00     0.134 A 
ATOM     76  C   UNL A   1      43.650  28.714  36.160  1.00  0.00     0.134 A 
ATOM     77  F   UNL A   1      43.966  31.411  33.773  1.00  0.00    -0.206 F 
ATOM     78  C   UNL A   1      45.550  29.945  34.613  1.00  0.00     0.040 A 
ATOM     79  C   UNL A   1      44.985  28.285  36.208  1.00  0.00     0.040 A 
ATOM     80  F   UNL A   1      42.858  28.006  36.964  1.00  0.00    -0.206 F 
ATOM     81  C   UNL A   1      45.942  28.894  35.424  1.00  0.00     0.006 A 
ENDBRANCH  60  74
BRANCH  61  82
ATOM     82  C   UNL A   1      35.066  34.012  31.787  1.00  0.00     0.057 A 
ATOM     83  C   UNL A   1      34.430  35.081  31.134  1.00  0.00     0.134 A 
ATOM     84  C   UNL A   1      34.932  32.738  31.225  1.00  0.00     0.134 A 
ATOM     85  F   UNL A   1      34.470  36.313  31.665  1.00  0.00    -0.206 F 
ATOM     86  C   UNL A   1      33.879  34.930  29.861  1.00  0.00     0.040 A 
ATOM     87  C   UNL A   1      34.382  32.575  29.951  1.00  0.00     0.040 A 
ATOM     88  F   UNL A   1      35.495  31.672  31.812  1.00  0.00    -0.206 F 
ATOM     89  C   UNL A   1      33.911  33.683  29.244  1.00  0.00     0.006 A 
ENDBRANCH  61  82
BRANCH  73  90
ATOM     90  C   UNL A   1      37.814  32.441  38.326  1.00  0.00     0.057 A 
ATOM     91  C   UNL A   1      37.327  31.178  38.691  1.00  0.00     0.134 A 
ATOM     92  C   UNL A   1      38.225  33.248  39.419  1.00  0.00     0.134 A 
ATOM     93  F   UNL A   1      37.014  30.249  37.782  1.00  0.00    -0.206 F 
ATOM     94  C   UNL A   1      37.198  30.777  40.030  1.00  0.00     0.040 A 
ATOM     95  C   UNL A   1      38.176  32.826  40.749  1.00  0.00     0.040 A 
ATOM     96  F   UNL A   1      38.720  34.482  39.245  1.00  0.00    -0.206 F 
ATOM     97  C   UNL A   1      37.638  31.593  41.064  1.00  0.00     0.006 A 
ENDBRANCH  73  90
ENDBRANCH  47  48
ENDBRANCH  39  42
ENDBRANCH  37  38
ENDBRANCH  36  37
ENDBRANCH  35  36
ENDBRANCH   1  35
TORSDOF 17
ENDMDL
