MODEL 1
REMARK VINA RESULT:     -10.3      0.000      0.000
REMARK SMILES CC[C@H]1CC[C@](O)([C@H](F)C(=O)NCCCCNC(=O)c2ccc(-c3c4nc(c(-c5c(F)cccc5F)c5ccc([nH]5)c(-c5c(F)cccc5F)c5nc(c(-c6c(F)cccc6F)c6ccc3[nH]6)C=C5)C=C4)cc2)CC1
REMARK SMILES IDX 14 1 13 2 12 3 10 4 11 5 8 7 9 8 6 9 3 10 4 11 75 12 5 13
REMARK SMILES IDX 74 14 2 15 1 16 7 17 15 19 16 20 17 21 18 22 19 24 20 25
REMARK SMILES IDX 21 26 73 27 22 28 72 29 23 30 24 31 25 32 66 33 26 34 71 35
REMARK SMILES IDX 65 36 67 37 27 38 70 39 64 40 63 41 28 43 54 44 37 45 53 46
REMARK SMILES IDX 38 47 41 48 52 49 68 50 39 51 40 52 51 54 69 55 42 56 29 57
REMARK SMILES IDX 30 58 35 59 31 60 32 61 34 62 36 63 33 64 55 65 56 66 61 67
REMARK SMILES IDX 57 68 58 69 60 70 62 71 59 72 43 73 44 74 49 75 45 76 46 77
REMARK SMILES IDX 48 78 50 79 47 80
REMARK H PARENT 12 6 7 18 17 23 67 42 41 53
REMARK Flexibility Score: inf
ROOT
ATOM      1  C   UNL A   1      33.348  34.899  28.796  1.00  0.00     0.023 C 
ENDROOT
BRANCH   1   2
ATOM      2  C   UNL A   1      33.410  36.196  29.583  1.00  0.00     0.116 C 
BRANCH   2   3
ATOM      3  N   UNL A   1      32.465  36.326  30.661  1.00  0.00    -0.353 N 
ATOM      4  C   UNL A   1      32.763  36.281  31.998  1.00  0.00     0.257 C 
ATOM      5  O   UNL A   1      31.930  36.751  32.780  1.00  0.00    -0.272 OA
ATOM      6  H   UNL A   1      31.521  36.458  30.415  1.00  0.00     0.163 HD
BRANCH   4   7
ATOM      7  C   UNL A   1      34.082  35.678  32.502  1.00  0.00     0.286 C 
ATOM      8  F   UNL A   1      34.651  36.434  33.497  1.00  0.00    -0.234 F 
BRANCH   7   9
ATOM      9  C   UNL A   1      34.156  34.166  32.891  1.00  0.00     0.105 C 
ATOM     10  C   UNL A   1      36.933  32.884  32.827  1.00  0.00    -0.011 C 
ATOM     11  C   UNL A   1      36.466  33.826  33.949  1.00  0.00     0.006 C 
ATOM     12  C   UNL A   1      36.029  32.854  31.583  1.00  0.00     0.006 C 
ATOM     13  C   UNL A   1      34.956  33.852  34.160  1.00  0.00     0.039 C 
ATOM     14  C   UNL A   1      34.555  33.199  31.757  1.00  0.00     0.039 C 
BRANCH  10  15
ATOM     15  C   UNL A   1      37.209  31.462  33.365  1.00  0.00    -0.000 C 
ATOM     16  C   UNL A   1      38.433  31.442  34.279  1.00  0.00     0.004 C 
ENDBRANCH  10  15
BRANCH   9  17
ATOM     17  O   UNL A   1      32.774  33.818  33.211  1.00  0.00    -0.386 OA
ATOM     18  H   UNL A   1      32.288  33.638  32.390  1.00  0.00     0.211 HD
ENDBRANCH   9  17
ENDBRANCH   7   9
ENDBRANCH   4   7
ENDBRANCH   2   3
ENDBRANCH   1   2
BRANCH   1  19
ATOM     19  C   UNL A   1      34.584  34.605  27.945  1.00  0.00     0.023 C 
BRANCH  19  20
ATOM     20  C   UNL A   1      35.164  33.195  28.052  1.00  0.00     0.116 C 
BRANCH  20  21
ATOM     21  N   UNL A   1      34.191  32.135  27.839  1.00  0.00    -0.352 N 
ATOM     22  C   UNL A   1      34.361  30.766  27.868  1.00  0.00     0.251 C 
ATOM     23  H   UNL A   1      33.275  32.439  27.645  1.00  0.00     0.163 HD
ATOM     24  O   UNL A   1      33.439  30.024  27.563  1.00  0.00    -0.269 OA
BRANCH  22  25
ATOM     25  C   UNL A   1      35.678  30.195  28.232  1.00  0.00     0.039 A 
ATOM     26  C   UNL A   1      36.699  30.189  27.279  1.00  0.00     0.014 A 
ATOM     27  C   UNL A   1      35.910  29.684  29.511  1.00  0.00     0.014 A 
ATOM     28  C   UNL A   1      37.977  29.745  27.635  1.00  0.00     0.010 A 
ATOM     29  C   UNL A   1      37.202  29.328  29.889  1.00  0.00     0.010 A 
ATOM     30  C   UNL A   1      38.250  29.349  28.955  1.00  0.00    -0.014 A 
BRANCH  30  31
ATOM     31  C   UNL A   1      39.620  28.950  29.371  1.00  0.00     0.031 A 
ATOM     32  C   UNL A   1      40.432  29.844  30.270  1.00  0.00     0.074 A 
ATOM     33  C   UNL A   1      40.166  27.817  28.890  1.00  0.00     0.049 A 
ATOM     34  N   UNL A   1      41.657  29.689  30.705  1.00  0.00    -0.248 NA
ATOM     35  C   UNL A   1      39.793  31.092  30.712  1.00  0.00     0.031 C 
ATOM     36  C   UNL A   1      39.516  26.892  27.960  1.00  0.00     0.029 A 
ATOM     37  N   UNL A   1      41.400  27.254  29.107  1.00  0.00    -0.354 N 
ATOM     38  C   UNL A   1      41.940  30.827  31.452  1.00  0.00     0.074 A 
ATOM     39  C   UNL A   1      40.782  31.689  31.357  1.00  0.00     0.031 C 
ATOM     40  C   UNL A   1      40.345  25.867  27.707  1.00  0.00     0.029 A 
ATOM     41  C   UNL A   1      41.598  26.077  28.427  1.00  0.00     0.049 A 
ATOM     42  H   UNL A   1      42.079  27.657  29.696  1.00  0.00     0.167 HD
ATOM     43  C   UNL A   1      43.050  31.118  32.170  1.00  0.00     0.037 A 
ATOM     44  C   UNL A   1      42.668  25.260  28.382  1.00  0.00     0.037 A 
ATOM     45  C   UNL A   1      44.194  30.249  32.281  1.00  0.00     0.049 A 
ATOM     46  C   UNL A   1      43.885  25.593  29.198  1.00  0.00     0.074 A 
ATOM     47  C   UNL A   1      45.335  30.420  33.044  1.00  0.00     0.029 A 
ATOM     48  N   UNL A   1      44.344  29.050  31.599  1.00  0.00    -0.354 N 
ATOM     49  N   UNL A   1      44.105  26.629  29.971  1.00  0.00    -0.248 NA
ATOM     50  C   UNL A   1      44.999  24.635  29.149  1.00  0.00     0.031 C 
ATOM     51  C   UNL A   1      46.200  29.351  32.782  1.00  0.00     0.029 A 
ATOM     52  C   UNL A   1      45.572  28.484  31.903  1.00  0.00     0.049 A 
ATOM     53  H   UNL A   1      43.677  28.660  30.989  1.00  0.00     0.167 HD
ATOM     54  C   UNL A   1      45.367  26.436  30.520  1.00  0.00     0.074 A 
ATOM     55  C   UNL A   1      45.857  25.175  30.002  1.00  0.00     0.031 C 
ATOM     56  C   UNL A   1      46.053  27.229  31.380  1.00  0.00     0.037 A 
BRANCH  43  57
ATOM     57  C   UNL A   1      43.078  32.440  32.887  1.00  0.00     0.057 A 
ATOM     58  C   UNL A   1      42.582  32.592  34.189  1.00  0.00     0.134 A 
ATOM     59  C   UNL A   1      43.610  33.576  32.265  1.00  0.00     0.134 A 
ATOM     60  F   UNL A   1      42.049  31.547  34.840  1.00  0.00    -0.206 F 
ATOM     61  C   UNL A   1      42.573  33.832  34.829  1.00  0.00     0.040 A 
ATOM     62  C   UNL A   1      43.637  34.817  32.907  1.00  0.00     0.040 A 
ATOM     63  F   UNL A   1      44.110  33.504  31.022  1.00  0.00    -0.206 F 
ATOM     64  C   UNL A   1      43.105  34.949  34.188  1.00  0.00     0.006 A 
ENDBRANCH  43  57
BRANCH  44  65
ATOM     65  C   UNL A   1      42.617  24.027  27.556  1.00  0.00     0.057 A 
ATOM     66  C   UNL A   1      42.275  22.792  28.118  1.00  0.00     0.134 A 
ATOM     67  C   UNL A   1      42.890  24.058  26.183  1.00  0.00     0.134 A 
ATOM     68  F   UNL A   1      42.021  22.696  29.431  1.00  0.00    -0.206 F 
ATOM     69  C   UNL A   1      42.219  21.629  27.350  1.00  0.00     0.040 A 
ATOM     70  C   UNL A   1      42.813  22.906  25.397  1.00  0.00     0.040 A 
ATOM     71  F   UNL A   1      43.214  25.212  25.582  1.00  0.00    -0.206 F 
ATOM     72  C   UNL A   1      42.480  21.686  25.981  1.00  0.00     0.006 A 
ENDBRANCH  44  65
BRANCH  56  73
ATOM     73  C   UNL A   1      47.396  26.741  31.844  1.00  0.00     0.057 A 
ATOM     74  C   UNL A   1      47.542  25.904  32.957  1.00  0.00     0.134 A 
ATOM     75  C   UNL A   1      48.559  27.089  31.142  1.00  0.00     0.134 A 
ATOM     76  F   UNL A   1      46.472  25.541  33.681  1.00  0.00    -0.206 F 
ATOM     77  C   UNL A   1      48.797  25.453  33.372  1.00  0.00     0.040 A 
ATOM     78  C   UNL A   1      49.815  26.621  31.530  1.00  0.00     0.040 A 
ATOM     79  F   UNL A   1      48.491  27.880  30.060  1.00  0.00    -0.206 F 
ATOM     80  C   UNL A   1      49.937  25.806  32.653  1.00  0.00     0.006 A 
ENDBRANCH  56  73
ENDBRANCH  30  31
ENDBRANCH  22  25
ENDBRANCH  20  21
ENDBRANCH  19  20
ENDBRANCH   1  19
TORSDOF 14
ENDMDL
MODEL 2
REMARK VINA RESULT:     -10.1      4.672     10.573
REMARK SMILES CC[C@H]1CC[C@](O)([C@H](F)C(=O)NCCCCNC(=O)c2ccc(-c3c4nc(c(-c5c(F)cccc5F)c5ccc([nH]5)c(-c5c(F)cccc5F)c5nc(c(-c6c(F)cccc6F)c6ccc3[nH]6)C=C5)C=C4)cc2)CC1
REMARK SMILES IDX 14 1 13 2 12 3 10 4 11 5 8 7 9 8 6 9 3 10 4 11 75 12 5 13
REMARK SMILES IDX 74 14 2 15 1 16 7 17 15 19 16 20 17 21 18 22 19 24 20 25
REMARK SMILES IDX 21 26 73 27 22 28 72 29 23 30 24 31 25 32 66 33 26 34 71 35
REMARK SMILES IDX 65 36 67 37 27 38 70 39 64 40 63 41 28 43 54 44 37 45 53 46
REMARK SMILES IDX 38 47 41 48 52 49 68 50 39 51 40 52 51 54 69 55 42 56 29 57
REMARK SMILES IDX 30 58 35 59 31 60 32 61 34 62 36 63 33 64 55 65 56 66 61 67
REMARK SMILES IDX 57 68 58 69 60 70 62 71 59 72 43 73 44 74 49 75 45 76 46 77
REMARK SMILES IDX 48 78 50 79 47 80
REMARK H PARENT 12 6 7 18 17 23 67 42 41 53
REMARK Flexibility Score: inf
ROOT
ATOM      1  C   UNL A   1      44.792  21.938  24.130  1.00  0.00     0.023 C 
ENDROOT
BRANCH   1   2
ATOM      2  C   UNL A   1      45.797  22.720  24.957  1.00  0.00     0.116 C 
BRANCH   2   3
ATOM      3  N   UNL A   1      46.684  23.583  24.222  1.00  0.00    -0.353 N 
ATOM      4  C   UNL A   1      47.033  24.861  24.573  1.00  0.00     0.257 C 
ATOM      5  O   UNL A   1      48.049  25.333  24.054  1.00  0.00    -0.272 OA
ATOM      6  H   UNL A   1      47.075  23.222  23.393  1.00  0.00     0.163 HD
BRANCH   4   7
ATOM      7  C   UNL A   1      46.198  25.670  25.575  1.00  0.00     0.286 C 
ATOM      8  F   UNL A   1      46.777  25.712  26.819  1.00  0.00    -0.234 F 
BRANCH   7   9
ATOM      9  C   UNL A   1      45.677  27.094  25.196  1.00  0.00     0.105 C 
ATOM     10  C   UNL A   1      43.947  28.508  27.285  1.00  0.00    -0.011 C 
ATOM     11  C   UNL A   1      45.475  28.379  27.404  1.00  0.00     0.006 C 
ATOM     12  C   UNL A   1      43.302  27.627  26.201  1.00  0.00     0.006 C 
ATOM     13  C   UNL A   1      46.199  28.239  26.070  1.00  0.00     0.039 C 
ATOM     14  C   UNL A   1      44.152  27.224  25.004  1.00  0.00     0.039 C 
BRANCH  10  15
ATOM     15  C   UNL A   1      43.516  29.985  27.151  1.00  0.00    -0.000 C 
ATOM     16  C   UNL A   1      44.412  30.903  27.981  1.00  0.00     0.004 C 
ENDBRANCH  10  15
BRANCH   9  17
ATOM     17  O   UNL A   1      46.243  27.332  23.871  1.00  0.00    -0.386 OA
ATOM     18  H   UNL A   1      47.064  26.824  23.773  1.00  0.00     0.211 HD
ENDBRANCH   9  17
ENDBRANCH   7   9
ENDBRANCH   4   7
ENDBRANCH   2   3
ENDBRANCH   1   2
BRANCH   1  19
ATOM     19  C   UNL A   1      44.984  20.422  24.151  1.00  0.00     0.023 C 
BRANCH  19  20
ATOM     20  C   UNL A   1      44.499  19.691  25.403  1.00  0.00     0.116 C 
BRANCH  20  21
ATOM     21  N   UNL A   1      43.136  19.192  25.307  1.00  0.00    -0.352 N 
ATOM     22  C   UNL A   1      41.964  19.737  25.790  1.00  0.00     0.251 C 
ATOM     23  H   UNL A   1      43.033  18.339  24.826  1.00  0.00     0.163 HD
ATOM     24  O   UNL A   1      40.913  19.119  25.698  1.00  0.00    -0.269 OA
BRANCH  22  25
ATOM     25  C   UNL A   1      41.986  21.060  26.456  1.00  0.00     0.039 A 
ATOM     26  C   UNL A   1      41.970  21.113  27.852  1.00  0.00     0.014 A 
ATOM     27  C   UNL A   1      42.040  22.239  25.711  1.00  0.00     0.014 A 
ATOM     28  C   UNL A   1      42.090  22.347  28.500  1.00  0.00     0.010 A 
ATOM     29  C   UNL A   1      42.250  23.455  26.356  1.00  0.00     0.010 A 
ATOM     30  C   UNL A   1      42.273  23.525  27.758  1.00  0.00    -0.014 A 
BRANCH  30  31
ATOM     31  C   UNL A   1      42.482  24.834  28.430  1.00  0.00     0.031 A 
ATOM     32  C   UNL A   1      43.797  25.147  29.092  1.00  0.00     0.074 A 
ATOM     33  C   UNL A   1      41.470  25.720  28.507  1.00  0.00     0.049 A 
ATOM     34  N   UNL A   1      44.154  26.213  29.764  1.00  0.00    -0.248 NA
ATOM     35  C   UNL A   1      44.838  24.111  29.016  1.00  0.00     0.031 C 
ATOM     36  C   UNL A   1      40.124  25.518  27.967  1.00  0.00     0.029 A 
ATOM     37  N   UNL A   1      41.412  26.965  29.083  1.00  0.00    -0.354 N 
ATOM     38  C   UNL A   1      45.448  25.965  30.206  1.00  0.00     0.074 A 
ATOM     39  C   UNL A   1      45.788  24.625  29.780  1.00  0.00     0.031 C 
ATOM     40  C   UNL A   1      39.383  26.609  28.214  1.00  0.00     0.029 A 
ATOM     41  C   UNL A   1      40.186  27.574  28.960  1.00  0.00     0.049 A 
ATOM     42  H   UNL A   1      42.177  27.383  29.541  1.00  0.00     0.167 HD
ATOM     43  C   UNL A   1      46.287  26.786  30.882  1.00  0.00     0.037 A 
ATOM     44  C   UNL A   1      39.754  28.771  29.401  1.00  0.00     0.037 A 
ATOM     45  C   UNL A   1      45.954  28.128  31.287  1.00  0.00     0.049 A 
ATOM     46  C   UNL A   1      40.704  29.674  30.137  1.00  0.00     0.074 A 
ATOM     47  C   UNL A   1      46.761  29.064  31.911  1.00  0.00     0.029 A 
ATOM     48  N   UNL A   1      44.711  28.719  31.118  1.00  0.00    -0.354 N 
ATOM     49  N   UNL A   1      41.954  29.462  30.471  1.00  0.00    -0.248 NA
ATOM     50  C   UNL A   1      40.189  30.988  30.545  1.00  0.00     0.031 C 
ATOM     51  C   UNL A   1      45.988  30.202  32.168  1.00  0.00     0.029 A 
ATOM     52  C   UNL A   1      44.720  29.999  31.650  1.00  0.00     0.049 A 
ATOM     53  H   UNL A   1      43.937  28.292  30.684  1.00  0.00     0.167 HD
ATOM     54  C   UNL A   1      42.384  30.623  31.103  1.00  0.00     0.074 A 
ATOM     55  C   UNL A   1      41.262  31.540  31.092  1.00  0.00     0.031 C 
ATOM     56  C   UNL A   1      43.598  30.905  31.637  1.00  0.00     0.037 A 
BRANCH  43  57
ATOM     57  C   UNL A   1      47.645  26.243  31.232  1.00  0.00     0.057 A 
ATOM     58  C   UNL A   1      48.724  26.306  30.339  1.00  0.00     0.134 A 
ATOM     59  C   UNL A   1      47.877  25.652  32.480  1.00  0.00     0.134 A 
ATOM     60  F   UNL A   1      48.570  26.849  29.123  1.00  0.00    -0.206 F 
ATOM     61  C   UNL A   1      49.969  25.760  30.657  1.00  0.00     0.040 A 
ATOM     62  C   UNL A   1      49.127  25.132  32.822  1.00  0.00     0.040 A 
ATOM     63  F   UNL A   1      46.892  25.565  33.388  1.00  0.00    -0.206 F 
ATOM     64  C   UNL A   1      50.174  25.174  31.904  1.00  0.00     0.006 A 
ENDBRANCH  43  57
BRANCH  44  65
ATOM     65  C   UNL A   1      38.359  29.196  29.124  1.00  0.00     0.057 A 
ATOM     66  C   UNL A   1      37.381  29.168  30.125  1.00  0.00     0.134 A 
ATOM     67  C   UNL A   1      37.974  29.658  27.859  1.00  0.00     0.134 A 
ATOM     68  F   UNL A   1      37.684  28.718  31.351  1.00  0.00    -0.206 F 
ATOM     69  C   UNL A   1      36.068  29.571  29.877  1.00  0.00     0.040 A 
ATOM     70  C   UNL A   1      36.671  30.089  27.604  1.00  0.00     0.040 A 
ATOM     71  F   UNL A   1      38.867  29.719  26.860  1.00  0.00    -0.206 F 
ATOM     72  C   UNL A   1      35.712  30.042  28.614  1.00  0.00     0.006 A 
ENDBRANCH  44  65
BRANCH  56  73
ATOM     73  C   UNL A   1      43.790  32.273  32.226  1.00  0.00     0.057 A 
ATOM     74  C   UNL A   1      44.231  33.359  31.460  1.00  0.00     0.134 A 
ATOM     75  C   UNL A   1      43.495  32.514  33.575  1.00  0.00     0.134 A 
ATOM     76  F   UNL A   1      44.543  33.196  30.164  1.00  0.00    -0.206 F 
ATOM     77  C   UNL A   1      44.400  34.628  32.019  1.00  0.00     0.040 A 
ATOM     78  C   UNL A   1      43.631  33.783  34.138  1.00  0.00     0.040 A 
ATOM     79  F   UNL A   1      43.058  31.521  34.365  1.00  0.00    -0.206 F 
ATOM     80  C   UNL A   1      44.092  34.844  33.361  1.00  0.00     0.006 A 
ENDBRANCH  56  73
ENDBRANCH  30  31
ENDBRANCH  22  25
ENDBRANCH  20  21
ENDBRANCH  19  20
ENDBRANCH   1  19
TORSDOF 14
ENDMDL
MODEL 3
REMARK VINA RESULT:     -10.0      3.352      6.110
REMARK SMILES CC[C@H]1CC[C@](O)([C@H](F)C(=O)NCCCCNC(=O)c2ccc(-c3c4nc(c(-c5c(F)cccc5F)c5ccc([nH]5)c(-c5c(F)cccc5F)c5nc(c(-c6c(F)cccc6F)c6ccc3[nH]6)C=C5)C=C4)cc2)CC1
REMARK SMILES IDX 14 1 13 2 12 3 10 4 11 5 8 7 9 8 6 9 3 10 4 11 75 12 5 13
REMARK SMILES IDX 74 14 2 15 1 16 7 17 15 19 16 20 17 21 18 22 19 24 20 25
REMARK SMILES IDX 21 26 73 27 22 28 72 29 23 30 24 31 25 32 66 33 26 34 71 35
REMARK SMILES IDX 65 36 67 37 27 38 70 39 64 40 63 41 28 43 54 44 37 45 53 46
REMARK SMILES IDX 38 47 41 48 52 49 68 50 39 51 40 52 51 54 69 55 42 56 29 57
REMARK SMILES IDX 30 58 35 59 31 60 32 61 34 62 36 63 33 64 55 65 56 66 61 67
REMARK SMILES IDX 57 68 58 69 60 70 62 71 59 72 43 73 44 74 49 75 45 76 46 77
REMARK SMILES IDX 48 78 50 79 47 80
REMARK H PARENT 12 6 7 18 17 23 67 42 41 53
REMARK Flexibility Score: inf
ROOT
ATOM      1  C   UNL A   1      31.447  27.649  26.852  1.00  0.00     0.023 C 
ENDROOT
BRANCH   1   2
ATOM      2  C   UNL A   1      30.903  26.501  26.019  1.00  0.00     0.116 C 
BRANCH   2   3
ATOM      3  N   UNL A   1      30.756  25.242  26.699  1.00  0.00    -0.353 N 
ATOM      4  C   UNL A   1      31.679  24.229  26.719  1.00  0.00     0.257 C 
ATOM      5  O   UNL A   1      31.570  23.380  27.610  1.00  0.00    -0.272 OA
ATOM      6  H   UNL A   1      29.917  25.095  27.194  1.00  0.00     0.163 HD
BRANCH   4   7
ATOM      7  C   UNL A   1      32.806  24.155  25.679  1.00  0.00     0.286 C 
ATOM      8  F   UNL A   1      33.682  25.205  25.789  1.00  0.00    -0.234 F 
BRANCH   7   9
ATOM      9  C   UNL A   1      33.608  22.827  25.482  1.00  0.00     0.105 C 
ATOM     10  C   UNL A   1      36.586  23.122  24.848  1.00  0.00    -0.011 C 
ATOM     11  C   UNL A   1      35.999  23.330  26.254  1.00  0.00     0.006 C 
ATOM     12  C   UNL A   1      35.548  23.045  23.714  1.00  0.00     0.006 C 
ATOM     13  C   UNL A   1      34.708  22.565  26.516  1.00  0.00     0.039 C 
ATOM     14  C   UNL A   1      34.142  22.570  24.059  1.00  0.00     0.039 C 
BRANCH  10  15
ATOM     15  C   UNL A   1      37.555  21.919  24.815  1.00  0.00    -0.000 C 
ATOM     16  C   UNL A   1      38.640  22.051  25.883  1.00  0.00     0.004 C 
ENDBRANCH  10  15
BRANCH   9  17
ATOM     17  O   UNL A   1      32.613  21.781  25.703  1.00  0.00    -0.386 OA
ATOM     18  H   UNL A   1      31.757  22.068  25.347  1.00  0.00     0.211 HD
ENDBRANCH   9  17
ENDBRANCH   7   9
ENDBRANCH   4   7
ENDBRANCH   2   3
ENDBRANCH   1   2
BRANCH   1  19
ATOM     19  C   UNL A   1      32.648  28.371  26.244  1.00  0.00     0.023 C 
BRANCH  19  20
ATOM     20  C   UNL A   1      33.809  28.679  27.190  1.00  0.00     0.116 C 
BRANCH  20  21
ATOM     21  N   UNL A   1      33.777  30.021  27.750  1.00  0.00    -0.352 N 
ATOM     22  C   UNL A   1      34.764  30.721  28.412  1.00  0.00     0.251 C 
ATOM     23  H   UNL A   1      32.925  30.502  27.641  1.00  0.00     0.163 HD
ATOM     24  O   UNL A   1      34.521  31.814  28.904  1.00  0.00    -0.269 OA
BRANCH  22  25
ATOM     25  C   UNL A   1      36.114  30.129  28.561  1.00  0.00     0.039 A 
ATOM     26  C   UNL A   1      37.004  30.200  27.486  1.00  0.00     0.014 A 
ATOM     27  C   UNL A   1      36.506  29.526  29.757  1.00  0.00     0.014 A 
ATOM     28  C   UNL A   1      38.315  29.736  27.641  1.00  0.00     0.010 A 
ATOM     29  C   UNL A   1      37.835  29.149  29.938  1.00  0.00     0.010 A 
ATOM     30  C   UNL A   1      38.754  29.244  28.881  1.00  0.00    -0.014 A 
BRANCH  30  31
ATOM     31  C   UNL A   1      40.164  28.822  29.087  1.00  0.00     0.031 A 
ATOM     32  C   UNL A   1      41.160  29.769  29.701  1.00  0.00     0.074 A 
ATOM     33  C   UNL A   1      40.572  27.610  28.661  1.00  0.00     0.049 A 
ATOM     34  N   UNL A   1      42.439  29.599  29.920  1.00  0.00    -0.248 NA
ATOM     35  C   UNL A   1      40.656  31.094  30.090  1.00  0.00     0.031 C 
ATOM     36  C   UNL A   1      39.728  26.619  27.991  1.00  0.00     0.029 A 
ATOM     37  N   UNL A   1      41.806  27.010  28.718  1.00  0.00    -0.354 N 
ATOM     38  C   UNL A   1      42.895  30.800  30.451  1.00  0.00     0.074 A 
ATOM     39  C   UNL A   1      41.768  31.708  30.462  1.00  0.00     0.031 C 
ATOM     40  C   UNL A   1      40.461  25.528  27.723  1.00  0.00     0.029 A 
ATOM     41  C   UNL A   1      41.833  25.751  28.168  1.00  0.00     0.049 A 
ATOM     42  H   UNL A   1      42.596  27.441  29.117  1.00  0.00     0.167 HD
ATOM     43  C   UNL A   1      44.129  31.111  30.912  1.00  0.00     0.037 A 
ATOM     44  C   UNL A   1      42.848  24.876  28.032  1.00  0.00     0.037 A 
ATOM     45  C   UNL A   1      45.244  30.199  30.920  1.00  0.00     0.049 A 
ATOM     46  C   UNL A   1      44.208  25.235  28.563  1.00  0.00     0.074 A 
ATOM     47  C   UNL A   1      46.514  30.396  31.433  1.00  0.00     0.029 A 
ATOM     48  N   UNL A   1      45.224  28.922  30.380  1.00  0.00    -0.354 N 
ATOM     49  N   UNL A   1      44.603  26.341  29.144  1.00  0.00    -0.248 NA
ATOM     50  C   UNL A   1      45.260  24.217  28.432  1.00  0.00     0.031 C 
ATOM     51  C   UNL A   1      47.279  29.257  31.155  1.00  0.00     0.029 A 
ATOM     52  C   UNL A   1      46.468  28.328  30.523  1.00  0.00     0.049 A 
ATOM     53  H   UNL A   1      44.441  28.500  29.957  1.00  0.00     0.167 HD
ATOM     54  C   UNL A   1      45.939  26.145  29.473  1.00  0.00     0.074 A 
ATOM     55  C   UNL A   1      46.281  24.806  29.038  1.00  0.00     0.031 C 
ATOM     56  C   UNL A   1      46.801  26.995  30.085  1.00  0.00     0.037 A 
BRANCH  43  57
ATOM     57  C   UNL A   1      44.335  32.505  31.437  1.00  0.00     0.057 A 
ATOM     58  C   UNL A   1      44.107  32.836  32.780  1.00  0.00     0.134 A 
ATOM     59  C   UNL A   1      44.769  33.531  30.587  1.00  0.00     0.134 A 
ATOM     60  F   UNL A   1      43.679  31.906  33.647  1.00  0.00    -0.206 F 
ATOM     61  C   UNL A   1      44.259  34.142  33.248  1.00  0.00     0.040 A 
ATOM     62  C   UNL A   1      44.957  34.835  31.051  1.00  0.00     0.040 A 
ATOM     63  F   UNL A   1      45.016  33.285  29.292  1.00  0.00    -0.206 F 
ATOM     64  C   UNL A   1      44.689  35.146  32.382  1.00  0.00     0.006 A 
ENDBRANCH  43  57
BRANCH  44  65
ATOM     65  C   UNL A   1      42.602  23.559  27.393  1.00  0.00     0.057 A 
ATOM     66  C   UNL A   1      42.235  22.442  28.152  1.00  0.00     0.134 A 
ATOM     67  C   UNL A   1      42.710  23.390  26.007  1.00  0.00     0.134 A 
ATOM     68  F   UNL A   1      42.135  22.537  29.486  1.00  0.00    -0.206 F 
ATOM     69  C   UNL A   1      41.996  21.201  27.560  1.00  0.00     0.040 A 
ATOM     70  C   UNL A   1      42.448  22.160  25.399  1.00  0.00     0.040 A 
ATOM     71  F   UNL A   1      43.048  24.423  25.222  1.00  0.00    -0.206 F 
ATOM     72  C   UNL A   1      42.095  21.060  26.177  1.00  0.00     0.006 A 
ENDBRANCH  44  65
BRANCH  56  73
ATOM     73  C   UNL A   1      48.191  26.492  30.353  1.00  0.00     0.057 A 
ATOM     74  C   UNL A   1      48.519  25.793  31.521  1.00  0.00     0.134 A 
ATOM     75  C   UNL A   1      49.208  26.680  29.407  1.00  0.00     0.134 A 
ATOM     76  F   UNL A   1      47.595  25.588  32.473  1.00  0.00    -0.206 F 
ATOM     77  C   UNL A   1      49.814  25.326  31.754  1.00  0.00     0.040 A 
ATOM     78  C   UNL A   1      50.499  26.191  29.614  1.00  0.00     0.040 A 
ATOM     79  F   UNL A   1      48.961  27.331  28.260  1.00  0.00    -0.206 F 
ATOM     80  C   UNL A   1      50.807  25.518  30.795  1.00  0.00     0.006 A 
ENDBRANCH  56  73
ENDBRANCH  30  31
ENDBRANCH  22  25
ENDBRANCH  20  21
ENDBRANCH  19  20
ENDBRANCH   1  19
TORSDOF 14
ENDMDL
