MODEL 1
REMARK VINA RESULT:     -12.3      0.000      0.000
REMARK SMILES CS(=O)(=O)c1ccc(C2=NN(c3ccc(C(=O)NCCCCNC(=O)c4ccc(-c5c6nc(c(-c7c(F)cccc7F)c7ccc([nH]7)c(-c7c(F)cccc7F)c7nc(c(-c8c(F)cccc8F)c8ccc5[nH]8)C=C7)C=C6)cc4)cc3)[C@H](c3cccs3)C2)cc1
REMARK SMILES IDX 20 1 19 2 18 3 16 4 17 5 15 7 12 8 13 9 81 10 14 11 80 12
REMARK SMILES IDX 11 13 9 14 10 15 88 16 82 17 8 18 5 19 6 20 90 21 7 22 89 23
REMARK SMILES IDX 2 24 1 25 3 26 4 27 83 28 84 29 87 30 85 31 86 32 21 33
REMARK SMILES IDX 22 34 23 35 24 36 25 38 26 39 27 40 79 41 28 42 78 43 29 44
REMARK SMILES IDX 30 45 31 46 72 47 32 48 77 49 71 50 73 51 33 52 76 53 70 54
REMARK SMILES IDX 69 55 34 57 60 58 43 59 59 60 44 61 47 62 58 63 74 64 45 65
REMARK SMILES IDX 46 66 57 68 75 69 48 70 35 71 36 72 41 73 37 74 38 75 40 76
REMARK SMILES IDX 42 77 39 78 61 79 62 80 67 81 63 82 64 83 66 84 68 85 65 86
REMARK SMILES IDX 49 87 50 88 55 89 51 90 52 91 54 92 56 93 53 94
REMARK H PARENT 18 6 23 37 73 56 47 67
REMARK Flexibility Score: inf
ROOT
ATOM      1  C   UNL A   1      39.966  20.066  26.571  1.00  0.00     0.023 C 
ENDROOT
BRANCH   1   2
ATOM      2  C   UNL A   1      39.123  21.039  25.745  1.00  0.00     0.116 C 
BRANCH   2   3
ATOM      3  N   UNL A   1      39.520  22.411  25.994  1.00  0.00    -0.352 N 
ATOM      4  C   UNL A   1      38.790  23.574  26.005  1.00  0.00     0.251 C 
ATOM      5  O   UNL A   1      39.359  24.616  26.331  1.00  0.00    -0.269 OA
ATOM      6  H   UNL A   1      40.478  22.530  26.190  1.00  0.00     0.163 HD
BRANCH   4   7
ATOM      7  C   UNL A   1      37.335  23.603  25.699  1.00  0.00     0.039 A 
ATOM      8  C   UNL A   1      34.613  23.748  24.984  1.00  0.00     0.060 A 
ATOM      9  C   UNL A   1      35.603  23.691  23.999  1.00  0.00     0.029 A 
ATOM     10  C   UNL A   1      34.996  23.667  26.323  1.00  0.00     0.029 A 
ATOM     11  C   UNL A   1      36.955  23.621  24.352  1.00  0.00     0.016 A 
ATOM     12  C   UNL A   1      36.341  23.571  26.678  1.00  0.00     0.016 A 
BRANCH   8  13
ATOM     13  N   UNL A   1      33.276  23.875  24.664  1.00  0.00    -0.257 N 
ATOM     14  C   UNL A   1      31.505  24.983  24.342  1.00  0.00     0.071 C 
ATOM     15  N   UNL A   1      32.794  25.065  24.249  1.00  0.00    -0.176 NA
ATOM     16  C   UNL A   1      30.965  23.710  24.935  1.00  0.00     0.091 C 
ATOM     17  C   UNL A   1      32.260  22.888  25.033  1.00  0.00     0.154 C 
BRANCH  14  18
ATOM     18  C   UNL A   1      30.628  26.077  23.902  1.00  0.00    -0.002 A 
ATOM     19  C   UNL A   1      29.061  28.235  23.135  1.00  0.00     0.067 A 
ATOM     20  C   UNL A   1      30.443  28.291  22.941  1.00  0.00     0.021 A 
ATOM     21  C   UNL A   1      28.454  27.100  23.690  1.00  0.00     0.021 A 
ATOM     22  C   UNL A   1      31.228  27.211  23.342  1.00  0.00     0.011 A 
ATOM     23  C   UNL A   1      29.243  26.012  24.073  1.00  0.00     0.011 A 
BRANCH  19  24
ATOM     24  S   UNL A   1      28.050  29.609  22.635  1.00  0.00     0.175 S 
ATOM     25  C   UNL A   1      28.806  30.991  23.451  1.00  0.00     0.163 C 
ATOM     26  O   UNL A   1      26.734  29.405  23.208  1.00  0.00    -0.224 OA
ATOM     27  O   UNL A   1      28.221  29.782  21.204  1.00  0.00    -0.224 OA
ENDBRANCH  19  24
ENDBRANCH  14  18
BRANCH  17  28
ATOM     28  C   UNL A   1      32.325  21.604  24.221  1.00  0.00     0.030 A 
ATOM     29  C   UNL A   1      32.112  21.493  22.854  1.00  0.00     0.017 A 
ATOM     30  S   UNL A   1      32.591  20.056  24.913  1.00  0.00    -0.147 S 
ATOM     31  C   UNL A   1      32.182  20.151  22.384  1.00  0.00     0.012 A 
ATOM     32  C   UNL A   1      32.462  19.269  23.402  1.00  0.00     0.065 A 
ENDBRANCH  17  28
ENDBRANCH   8  13
ENDBRANCH   4   7
ENDBRANCH   2   3
ENDBRANCH   1   2
BRANCH   1  33
ATOM     33  C   UNL A   1      41.030  19.317  25.768  1.00  0.00     0.023 C 
BRANCH  33  34
ATOM     34  C   UNL A   1      42.424  19.929  25.821  1.00  0.00     0.116 C 
BRANCH  34  35
ATOM     35  N   UNL A   1      43.395  19.217  25.003  1.00  0.00    -0.352 N 
ATOM     36  C   UNL A   1      44.569  19.690  24.465  1.00  0.00     0.251 C 
ATOM     37  H   UNL A   1      43.185  18.275  24.810  1.00  0.00     0.163 HD
ATOM     38  O   UNL A   1      45.239  18.998  23.709  1.00  0.00    -0.269 OA
BRANCH  36  39
ATOM     39  C   UNL A   1      44.988  21.069  24.781  1.00  0.00     0.039 A 
ATOM     40  C   UNL A   1      44.760  22.075  23.838  1.00  0.00     0.014 A 
ATOM     41  C   UNL A   1      45.531  21.372  26.033  1.00  0.00     0.014 A 
ATOM     42  C   UNL A   1      44.995  23.406  24.187  1.00  0.00     0.010 A 
ATOM     43  C   UNL A   1      45.703  22.701  26.399  1.00  0.00     0.010 A 
ATOM     44  C   UNL A   1      45.419  23.730  25.486  1.00  0.00    -0.014 A 
BRANCH  44  45
ATOM     45  C   UNL A   1      45.540  25.138  25.931  1.00  0.00     0.031 A 
ATOM     46  C   UNL A   1      46.874  25.824  25.908  1.00  0.00     0.074 A 
ATOM     47  C   UNL A   1      44.463  25.767  26.437  1.00  0.00     0.049 A 
ATOM     48  N   UNL A   1      47.202  27.009  26.353  1.00  0.00    -0.248 NA
ATOM     49  C   UNL A   1      47.994  25.064  25.333  1.00  0.00     0.031 C 
ATOM     50  C   UNL A   1      43.120  25.194  26.544  1.00  0.00     0.029 A 
ATOM     51  N   UNL A   1      44.331  27.024  26.973  1.00  0.00    -0.354 N 
ATOM     52  C   UNL A   1      48.564  27.136  26.120  1.00  0.00     0.074 A 
ATOM     53  C   UNL A   1      49.012  25.884  25.544  1.00  0.00     0.031 C 
ATOM     54  C   UNL A   1      42.296  26.104  27.090  1.00  0.00     0.029 A 
ATOM     55  C   UNL A   1      43.060  27.305  27.411  1.00  0.00     0.049 A 
ATOM     56  H   UNL A   1      45.077  27.663  27.037  1.00  0.00     0.167 HD
ATOM     57  C   UNL A   1      49.364  28.203  26.345  1.00  0.00     0.037 A 
ATOM     58  C   UNL A   1      42.570  28.402  28.017  1.00  0.00     0.037 A 
ATOM     59  C   UNL A   1      48.912  29.448  26.907  1.00  0.00     0.049 A 
ATOM     60  C   UNL A   1      43.490  29.554  28.309  1.00  0.00     0.074 A 
ATOM     61  C   UNL A   1      49.630  30.612  27.117  1.00  0.00     0.029 A 
ATOM     62  N   UNL A   1      47.622  29.686  27.361  1.00  0.00    -0.354 N 
ATOM     63  N   UNL A   1      44.763  29.686  28.025  1.00  0.00    -0.248 NA
ATOM     64  C   UNL A   1      42.907  30.703  29.014  1.00  0.00     0.031 C 
ATOM     65  C   UNL A   1      48.787  31.539  27.740  1.00  0.00     0.029 A 
ATOM     66  C   UNL A   1      47.533  30.967  27.881  1.00  0.00     0.049 A 
ATOM     67  H   UNL A   1      46.881  29.040  27.320  1.00  0.00     0.167 HD
ATOM     68  C   UNL A   1      45.130  30.938  28.499  1.00  0.00     0.074 A 
ATOM     69  C   UNL A   1      43.942  31.532  29.077  1.00  0.00     0.031 C 
ATOM     70  C   UNL A   1      46.344  31.540  28.460  1.00  0.00     0.037 A 
BRANCH  57  71
ATOM     71  C   UNL A   1      50.813  28.062  25.982  1.00  0.00     0.057 A 
ATOM     72  C   UNL A   1      51.258  28.189  24.659  1.00  0.00     0.134 A 
ATOM     73  C   UNL A   1      51.776  27.803  26.965  1.00  0.00     0.134 A 
ATOM     74  F   UNL A   1      50.383  28.424  23.668  1.00  0.00    -0.206 F 
ATOM     75  C   UNL A   1      52.601  28.029  24.321  1.00  0.00     0.040 A 
ATOM     76  C   UNL A   1      53.129  27.669  26.643  1.00  0.00     0.040 A 
ATOM     77  F   UNL A   1      51.421  27.675  28.251  1.00  0.00    -0.206 F 
ATOM     78  C   UNL A   1      53.542  27.772  25.316  1.00  0.00     0.006 A 
ENDBRANCH  57  71
BRANCH  58  79
ATOM     79  C   UNL A   1      41.131  28.469  28.376  1.00  0.00     0.057 A 
ATOM     80  C   UNL A   1      40.698  28.121  29.660  1.00  0.00     0.134 A 
ATOM     81  C   UNL A   1      40.162  28.885  27.456  1.00  0.00     0.134 A 
ATOM     82  F   UNL A   1      41.579  27.695  30.577  1.00  0.00    -0.206 F 
ATOM     83  C   UNL A   1      39.350  28.176  30.015  1.00  0.00     0.040 A 
ATOM     84  C   UNL A   1      38.813  28.966  27.804  1.00  0.00     0.040 A 
ATOM     85  F   UNL A   1      40.515  29.236  26.211  1.00  0.00    -0.206 F 
ATOM     86  C   UNL A   1      38.403  28.606  29.087  1.00  0.00     0.006 A 
ENDBRANCH  58  79
BRANCH  70  87
ATOM     87  C   UNL A   1      46.445  32.916  29.047  1.00  0.00     0.057 A 
ATOM     88  C   UNL A   1      46.170  34.060  28.288  1.00  0.00     0.134 A 
ATOM     89  C   UNL A   1      46.772  33.096  30.398  1.00  0.00     0.134 A 
ATOM     90  F   UNL A   1      45.867  33.954  26.985  1.00  0.00    -0.206 F 
ATOM     91  C   UNL A   1      46.227  35.337  28.848  1.00  0.00     0.040 A 
ATOM     92  C   UNL A   1      46.810  34.366  30.975  1.00  0.00     0.040 A 
ATOM     93  F   UNL A   1      47.041  32.040  31.180  1.00  0.00    -0.206 F 
ATOM     94  C   UNL A   1      46.541  35.491  30.198  1.00  0.00     0.006 A 
ENDBRANCH  70  87
ENDBRANCH  44  45
ENDBRANCH  36  39
ENDBRANCH  34  35
ENDBRANCH  33  34
ENDBRANCH   1  33
TORSDOF 15
ENDMDL
MODEL 2
REMARK VINA RESULT:     -12.2      6.258     11.986
REMARK SMILES CS(=O)(=O)c1ccc(C2=NN(c3ccc(C(=O)NCCCCNC(=O)c4ccc(-c5c6nc(c(-c7c(F)cccc7F)c7ccc([nH]7)c(-c7c(F)cccc7F)c7nc(c(-c8c(F)cccc8F)c8ccc5[nH]8)C=C7)C=C6)cc4)cc3)[C@H](c3cccs3)C2)cc1
REMARK SMILES IDX 20 1 19 2 18 3 16 4 17 5 15 7 12 8 13 9 81 10 14 11 80 12
REMARK SMILES IDX 11 13 9 14 10 15 88 16 82 17 8 18 5 19 6 20 90 21 7 22 89 23
REMARK SMILES IDX 2 24 1 25 3 26 4 27 83 28 84 29 87 30 85 31 86 32 21 33
REMARK SMILES IDX 22 34 23 35 24 36 25 38 26 39 27 40 79 41 28 42 78 43 29 44
REMARK SMILES IDX 30 45 31 46 72 47 32 48 77 49 71 50 73 51 33 52 76 53 70 54
REMARK SMILES IDX 69 55 34 57 60 58 43 59 59 60 44 61 47 62 58 63 74 64 45 65
REMARK SMILES IDX 46 66 57 68 75 69 48 70 35 71 36 72 41 73 37 74 38 75 40 76
REMARK SMILES IDX 42 77 39 78 61 79 62 80 67 81 63 82 64 83 66 84 68 85 65 86
REMARK SMILES IDX 49 87 50 88 55 89 51 90 52 91 54 92 56 93 53 94
REMARK H PARENT 18 6 23 37 73 56 47 67
REMARK Flexibility Score: inf
ROOT
ATOM      1  C   UNL A   1      34.365  32.783  28.671  1.00  0.00     0.023 C 
ENDROOT
BRANCH   1   2
ATOM      2  C   UNL A   1      34.017  31.514  27.890  1.00  0.00     0.116 C 
BRANCH   2   3
ATOM      3  N   UNL A   1      32.810  31.701  27.109  1.00  0.00    -0.352 N 
ATOM      4  C   UNL A   1      32.119  30.837  26.295  1.00  0.00     0.251 C 
ATOM      5  O   UNL A   1      31.060  31.223  25.801  1.00  0.00    -0.269 OA
ATOM      6  H   UNL A   1      32.417  32.602  27.173  1.00  0.00     0.163 HD
BRANCH   4   7
ATOM      7  C   UNL A   1      32.574  29.443  26.046  1.00  0.00     0.039 A 
ATOM      8  C   UNL A   1      33.463  26.786  25.739  1.00  0.00     0.060 A 
ATOM      9  C   UNL A   1      32.756  27.170  26.882  1.00  0.00     0.029 A 
ATOM     10  C   UNL A   1      33.661  27.727  24.728  1.00  0.00     0.029 A 
ATOM     11  C   UNL A   1      32.316  28.489  27.038  1.00  0.00     0.016 A 
ATOM     12  C   UNL A   1      33.201  29.036  24.868  1.00  0.00     0.016 A 
BRANCH   8  13
ATOM     13  N   UNL A   1      33.958  25.507  25.587  1.00  0.00    -0.257 N 
ATOM     14  C   UNL A   1      35.516  24.092  25.385  1.00  0.00     0.071 C 
ATOM     15  N   UNL A   1      35.234  25.235  25.926  1.00  0.00    -0.176 NA
ATOM     16  C   UNL A   1      34.443  23.492  24.516  1.00  0.00     0.091 C 
ATOM     17  C   UNL A   1      33.293  24.473  24.791  1.00  0.00     0.154 C 
BRANCH  14  18
ATOM     18  C   UNL A   1      36.811  23.433  25.601  1.00  0.00    -0.002 A 
ATOM     19  C   UNL A   1      39.186  22.072  26.056  1.00  0.00     0.067 A 
ATOM     20  C   UNL A   1      38.151  21.431  25.371  1.00  0.00     0.021 A 
ATOM     21  C   UNL A   1      39.050  23.395  26.497  1.00  0.00     0.021 A 
ATOM     22  C   UNL A   1      36.954  22.113  25.158  1.00  0.00     0.011 A 
ATOM     23  C   UNL A   1      37.854  24.081  26.265  1.00  0.00     0.011 A 
BRANCH  19  24
ATOM     24  S   UNL A   1      40.714  21.210  26.340  1.00  0.00     0.175 S 
ATOM     25  C   UNL A   1      41.139  21.666  28.001  1.00  0.00     0.163 C 
ATOM     26  O   UNL A   1      41.701  21.780  25.443  1.00  0.00    -0.224 OA
ATOM     27  O   UNL A   1      40.426  19.787  26.322  1.00  0.00    -0.224 OA
ENDBRANCH  19  24
ENDBRANCH  14  18
BRANCH  17  28
ATOM     28  C   UNL A   1      32.042  23.904  25.441  1.00  0.00     0.030 A 
ATOM     29  C   UNL A   1      30.941  24.633  25.868  1.00  0.00     0.017 A 
ATOM     30  S   UNL A   1      31.845  22.243  25.828  1.00  0.00    -0.147 S 
ATOM     31  C   UNL A   1      29.946  23.830  26.493  1.00  0.00     0.012 A 
ATOM     32  C   UNL A   1      30.302  22.503  26.515  1.00  0.00     0.065 A 
ENDBRANCH  17  28
ENDBRANCH   8  13
ENDBRANCH   4   7
ENDBRANCH   2   3
ENDBRANCH   1   2
BRANCH   1  33
ATOM     33  C   UNL A   1      33.354  33.919  28.506  1.00  0.00     0.023 C 
BRANCH  33  34
ATOM     34  C   UNL A   1      33.794  35.258  29.083  1.00  0.00     0.116 C 
BRANCH  34  35
ATOM     35  N   UNL A   1      32.833  35.823  30.020  1.00  0.00    -0.352 N 
ATOM     36  C   UNL A   1      32.807  35.710  31.390  1.00  0.00     0.251 C 
ATOM     37  H   UNL A   1      32.108  36.356  29.621  1.00  0.00     0.163 HD
ATOM     38  O   UNL A   1      31.873  36.160  32.042  1.00  0.00    -0.269 OA
BRANCH  36  39
ATOM     39  C   UNL A   1      33.908  34.993  32.063  1.00  0.00     0.039 A 
ATOM     40  C   UNL A   1      33.733  33.648  32.396  1.00  0.00     0.014 A 
ATOM     41  C   UNL A   1      35.130  35.632  32.289  1.00  0.00     0.014 A 
ATOM     42  C   UNL A   1      34.819  32.915  32.877  1.00  0.00     0.010 A 
ATOM     43  C   UNL A   1      36.225  34.885  32.706  1.00  0.00     0.010 A 
ATOM     44  C   UNL A   1      36.083  33.517  32.987  1.00  0.00    -0.014 A 
BRANCH  44  45
ATOM     45  C   UNL A   1      37.283  32.731  33.357  1.00  0.00     0.031 A 
ATOM     46  C   UNL A   1      38.009  33.021  34.637  1.00  0.00     0.074 A 
ATOM     47  C   UNL A   1      37.767  31.817  32.494  1.00  0.00     0.049 A 
ATOM     48  N   UNL A   1      39.131  32.519  35.083  1.00  0.00    -0.248 NA
ATOM     49  C   UNL A   1      37.406  34.031  35.520  1.00  0.00     0.031 C 
ATOM     50  C   UNL A   1      37.170  31.470  31.203  1.00  0.00     0.029 A 
ATOM     51  N   UNL A   1      38.884  31.022  32.568  1.00  0.00    -0.354 N 
ATOM     52  C   UNL A   1      39.373  33.154  36.293  1.00  0.00     0.074 A 
ATOM     53  C   UNL A   1      38.310  34.119  36.484  1.00  0.00     0.031 C 
ATOM     54  C   UNL A   1      37.914  30.518  30.617  1.00  0.00     0.029 A 
ATOM     55  C   UNL A   1      39.062  30.220  31.467  1.00  0.00     0.049 A 
ATOM     56  H   UNL A   1      39.499  31.027  33.336  1.00  0.00     0.167 HD
ATOM     57  C   UNL A   1      40.378  32.940  37.173  1.00  0.00     0.037 A 
ATOM     58  C   UNL A   1      40.048  29.353  31.171  1.00  0.00     0.037 A 
ATOM     59  C   UNL A   1      41.427  31.973  36.983  1.00  0.00     0.049 A 
ATOM     60  C   UNL A   1      41.184  29.173  32.139  1.00  0.00     0.074 A 
ATOM     61  C   UNL A   1      42.455  31.634  37.845  1.00  0.00     0.029 A 
ATOM     62  N   UNL A   1      41.586  31.196  35.845  1.00  0.00    -0.354 N 
ATOM     63  N   UNL A   1      41.367  29.733  33.309  1.00  0.00    -0.248 NA
ATOM     64  C   UNL A   1      42.252  28.248  31.739  1.00  0.00     0.031 C 
ATOM     65  C   UNL A   1      43.264  30.686  37.209  1.00  0.00     0.029 A 
ATOM     66  C   UNL A   1      42.716  30.404  35.968  1.00  0.00     0.049 A 
ATOM     67  H   UNL A   1      40.986  31.207  35.065  1.00  0.00     0.167 HD
ATOM     68  C   UNL A   1      42.561  29.217  33.794  1.00  0.00     0.074 A 
ATOM     69  C   UNL A   1      43.052  28.288  32.797  1.00  0.00     0.031 C 
ATOM     70  C   UNL A   1      43.195  29.490  34.961  1.00  0.00     0.037 A 
BRANCH  57  71
ATOM     71  C   UNL A   1      40.386  33.774  38.420  1.00  0.00     0.057 A 
ATOM     72  C   UNL A   1      39.631  33.421  39.548  1.00  0.00     0.134 A 
ATOM     73  C   UNL A   1      41.159  34.938  38.500  1.00  0.00     0.134 A 
ATOM     74  F   UNL A   1      38.857  32.325  39.531  1.00  0.00    -0.206 F 
ATOM     75  C   UNL A   1      39.618  34.214  40.695  1.00  0.00     0.040 A 
ATOM     76  C   UNL A   1      41.177  35.725  39.653  1.00  0.00     0.040 A 
ATOM     77  F   UNL A   1      41.909  35.330  37.460  1.00  0.00    -0.206 F 
ATOM     78  C   UNL A   1      40.397  35.368  40.752  1.00  0.00     0.006 A 
ENDBRANCH  57  71
BRANCH  58  79
ATOM     79  C   UNL A   1      39.996  28.577  29.907  1.00  0.00     0.057 A 
ATOM     80  C   UNL A   1      39.273  27.381  29.833  1.00  0.00     0.134 A 
ATOM     81  C   UNL A   1      40.654  29.010  28.750  1.00  0.00     0.134 A 
ATOM     82  F   UNL A   1      38.639  26.907  30.915  1.00  0.00    -0.206 F 
ATOM     83  C   UNL A   1      39.213  26.637  28.653  1.00  0.00     0.040 A 
ATOM     84  C   UNL A   1      40.584  28.287  27.558  1.00  0.00     0.040 A 
ATOM     85  F   UNL A   1      41.359  30.150  28.757  1.00  0.00    -0.206 F 
ATOM     86  C   UNL A   1      39.866  27.094  27.509  1.00  0.00     0.006 A 
ENDBRANCH  58  79
BRANCH  70  87
ATOM     87  C   UNL A   1      44.481  28.767  35.228  1.00  0.00     0.057 A 
ATOM     88  C   UNL A   1      45.718  29.314  34.870  1.00  0.00     0.134 A 
ATOM     89  C   UNL A   1      44.485  27.535  35.895  1.00  0.00     0.134 A 
ATOM     90  F   UNL A   1      45.780  30.483  34.214  1.00  0.00    -0.206 F 
ATOM     91  C   UNL A   1      46.916  28.657  35.155  1.00  0.00     0.040 A 
ATOM     92  C   UNL A   1      45.676  26.879  36.206  1.00  0.00     0.040 A 
ATOM     93  F   UNL A   1      43.333  26.959  36.270  1.00  0.00    -0.206 F 
ATOM     94  C   UNL A   1      46.897  27.439  35.832  1.00  0.00     0.006 A 
ENDBRANCH  70  87
ENDBRANCH  44  45
ENDBRANCH  36  39
ENDBRANCH  34  35
ENDBRANCH  33  34
ENDBRANCH   1  33
TORSDOF 15
ENDMDL
MODEL 3
REMARK VINA RESULT:     -12.1      5.801     12.361
REMARK SMILES CS(=O)(=O)c1ccc(C2=NN(c3ccc(C(=O)NCCCCNC(=O)c4ccc(-c5c6nc(c(-c7c(F)cccc7F)c7ccc([nH]7)c(-c7c(F)cccc7F)c7nc(c(-c8c(F)cccc8F)c8ccc5[nH]8)C=C7)C=C6)cc4)cc3)[C@H](c3cccs3)C2)cc1
REMARK SMILES IDX 20 1 19 2 18 3 16 4 17 5 15 7 12 8 13 9 81 10 14 11 80 12
REMARK SMILES IDX 11 13 9 14 10 15 88 16 82 17 8 18 5 19 6 20 90 21 7 22 89 23
REMARK SMILES IDX 2 24 1 25 3 26 4 27 83 28 84 29 87 30 85 31 86 32 21 33
REMARK SMILES IDX 22 34 23 35 24 36 25 38 26 39 27 40 79 41 28 42 78 43 29 44
REMARK SMILES IDX 30 45 31 46 72 47 32 48 77 49 71 50 73 51 33 52 76 53 70 54
REMARK SMILES IDX 69 55 34 57 60 58 43 59 59 60 44 61 47 62 58 63 74 64 45 65
REMARK SMILES IDX 46 66 57 68 75 69 48 70 35 71 36 72 41 73 37 74 38 75 40 76
REMARK SMILES IDX 42 77 39 78 61 79 62 80 67 81 63 82 64 83 66 84 68 85 65 86
REMARK SMILES IDX 49 87 50 88 55 89 51 90 52 91 54 92 56 93 53 94
REMARK H PARENT 18 6 23 37 73 56 47 67
REMARK Flexibility Score: inf
ROOT
ATOM      1  C   UNL A   1      37.702  33.383  28.898  1.00  0.00     0.023 C 
ENDROOT
BRANCH   1   2
ATOM      2  C   UNL A   1      38.457  34.286  29.875  1.00  0.00     0.116 C 
BRANCH   2   3
ATOM      3  N   UNL A   1      37.560  34.835  30.873  1.00  0.00    -0.352 N 
ATOM      4  C   UNL A   1      37.437  34.576  32.216  1.00  0.00     0.251 C 
ATOM      5  O   UNL A   1      36.638  35.248  32.867  1.00  0.00    -0.269 OA
ATOM      6  H   UNL A   1      36.930  35.509  30.529  1.00  0.00     0.163 HD
BRANCH   4   7
ATOM      7  C   UNL A   1      38.278  33.565  32.911  1.00  0.00     0.039 A 
ATOM      8  C   UNL A   1      40.005  31.720  34.158  1.00  0.00     0.060 A 
ATOM      9  C   UNL A   1      40.416  33.036  33.934  1.00  0.00     0.029 A 
ATOM     10  C   UNL A   1      38.702  31.358  33.812  1.00  0.00     0.029 A 
ATOM     11  C   UNL A   1      39.562  33.953  33.313  1.00  0.00     0.016 A 
ATOM     12  C   UNL A   1      37.838  32.276  33.217  1.00  0.00     0.016 A 
BRANCH   8  13
ATOM     13  N   UNL A   1      40.848  30.780  34.716  1.00  0.00    -0.257 N 
ATOM     14  C   UNL A   1      41.794  28.891  34.786  1.00  0.00     0.071 C 
ATOM     15  N   UNL A   1      41.325  29.771  33.959  1.00  0.00    -0.176 NA
ATOM     16  C   UNL A   1      41.595  29.187  36.247  1.00  0.00     0.091 C 
ATOM     17  C   UNL A   1      41.029  30.613  36.159  1.00  0.00     0.154 C 
BRANCH  14  18
ATOM     18  C   UNL A   1      42.469  27.673  34.317  1.00  0.00    -0.002 A 
ATOM     19  C   UNL A   1      43.782  25.347  33.566  1.00  0.00     0.067 A 
ATOM     20  C   UNL A   1      42.916  25.319  34.661  1.00  0.00     0.021 A 
ATOM     21  C   UNL A   1      43.981  26.523  32.831  1.00  0.00     0.021 A 
ATOM     22  C   UNL A   1      42.270  26.493  35.044  1.00  0.00     0.011 A 
ATOM     23  C   UNL A   1      43.317  27.693  33.207  1.00  0.00     0.011 A 
BRANCH  19  24
ATOM     24  S   UNL A   1      44.617  23.857  33.072  1.00  0.00     0.175 S 
ATOM     25  C   UNL A   1      43.783  22.594  33.999  1.00  0.00     0.163 C 
ATOM     26  O   UNL A   1      45.982  23.950  33.554  1.00  0.00    -0.224 OA
ATOM     27  O   UNL A   1      44.337  23.642  31.665  1.00  0.00    -0.224 OA
ENDBRANCH  19  24
ENDBRANCH  14  18
BRANCH  17  28
ATOM     28  C   UNL A   1      41.843  31.720  36.811  1.00  0.00     0.030 A 
ATOM     29  C   UNL A   1      41.365  32.965  37.193  1.00  0.00     0.017 A 
ATOM     30  S   UNL A   1      43.532  31.614  37.095  1.00  0.00    -0.147 S 
ATOM     31  C   UNL A   1      42.377  33.814  37.724  1.00  0.00     0.012 A 
ATOM     32  C   UNL A   1      43.603  33.190  37.750  1.00  0.00     0.065 A 
ENDBRANCH  17  28
ENDBRANCH   8  13
ENDBRANCH   4   7
ENDBRANCH   2   3
ENDBRANCH   1   2
BRANCH   1  33
ATOM     33  C   UNL A   1      36.193  33.630  28.853  1.00  0.00     0.023 C 
BRANCH  33  34
ATOM     34  C   UNL A   1      35.364  32.690  29.718  1.00  0.00     0.116 C 
BRANCH  34  35
ATOM     35  N   UNL A   1      34.417  31.890  28.953  1.00  0.00    -0.352 N 
ATOM     36  C   UNL A   1      34.626  30.682  28.331  1.00  0.00     0.251 C 
ATOM     37  H   UNL A   1      33.509  32.262  28.871  1.00  0.00     0.163 HD
ATOM     38  O   UNL A   1      33.756  30.174  27.634  1.00  0.00    -0.269 OA
BRANCH  36  39
ATOM     39  C   UNL A   1      35.940  30.026  28.480  1.00  0.00     0.039 A 
ATOM     40  C   UNL A   1      36.856  30.104  27.428  1.00  0.00     0.014 A 
ATOM     41  C   UNL A   1      36.285  29.407  29.684  1.00  0.00     0.014 A 
ATOM     42  C   UNL A   1      38.157  29.637  27.617  1.00  0.00     0.010 A 
ATOM     43  C   UNL A   1      37.598  29.001  29.892  1.00  0.00     0.010 A 
ATOM     44  C   UNL A   1      38.548  29.129  28.866  1.00  0.00    -0.014 A 
BRANCH  44  45
ATOM     45  C   UNL A   1      39.956  28.758  29.142  1.00  0.00     0.031 A 
ATOM     46  C   UNL A   1      40.877  29.736  29.810  1.00  0.00     0.074 A 
ATOM     47  C   UNL A   1      40.425  27.572  28.710  1.00  0.00     0.049 A 
ATOM     48  N   UNL A   1      42.160  29.638  30.041  1.00  0.00    -0.248 NA
ATOM     49  C   UNL A   1      40.278  31.004  30.255  1.00  0.00     0.031 C 
ATOM     50  C   UNL A   1      39.637  26.551  28.017  1.00  0.00     0.029 A 
ATOM     51  N   UNL A   1      41.685  27.031  28.776  1.00  0.00    -0.354 N 
ATOM     52  C   UNL A   1      42.526  30.832  30.648  1.00  0.00     0.074 A 
ATOM     53  C   UNL A   1      41.338  31.660  30.701  1.00  0.00     0.031 C 
ATOM     54  C   UNL A   1      40.425  25.499  27.742  1.00  0.00     0.029 A 
ATOM     55  C   UNL A   1      41.781  25.789  28.197  1.00  0.00     0.049 A 
ATOM     56  H   UNL A   1      42.447  27.490  29.197  1.00  0.00     0.167 HD
ATOM     57  C   UNL A   1      43.734  31.196  31.135  1.00  0.00     0.037 A 
ATOM     58  C   UNL A   1      42.846  24.982  28.038  1.00  0.00     0.037 A 
ATOM     59  C   UNL A   1      44.908  30.365  31.090  1.00  0.00     0.049 A 
ATOM     60  C   UNL A   1      44.190  25.431  28.538  1.00  0.00     0.074 A 
ATOM     61  C   UNL A   1      46.164  30.616  31.613  1.00  0.00     0.029 A 
ATOM     62  N   UNL A   1      44.972  29.123  30.474  1.00  0.00    -0.354 N 
ATOM     63  N   UNL A   1      44.509  26.536  29.168  1.00  0.00    -0.248 NA
ATOM     64  C   UNL A   1      45.323  24.528  28.294  1.00  0.00     0.031 C 
ATOM     65  C   UNL A   1      47.000  29.548  31.274  1.00  0.00     0.029 A 
ATOM     66  C   UNL A   1      46.255  28.611  30.575  1.00  0.00     0.049 A 
ATOM     67  H   UNL A   1      44.217  28.673  30.032  1.00  0.00     0.167 HD
ATOM     68  C   UNL A   1      45.873  26.453  29.413  1.00  0.00     0.074 A 
ATOM     69  C   UNL A   1      46.319  25.184  28.875  1.00  0.00     0.031 C 
ATOM     70  C   UNL A   1      46.684  27.349  30.027  1.00  0.00     0.037 A 
BRANCH  57  71
ATOM     71  C   UNL A   1      43.839  32.558  31.757  1.00  0.00     0.057 A 
ATOM     72  C   UNL A   1      43.906  33.721  30.978  1.00  0.00     0.134 A 
ATOM     73  C   UNL A   1      43.868  32.710  33.149  1.00  0.00     0.134 A 
ATOM     74  F   UNL A   1      43.897  33.642  29.638  1.00  0.00    -0.206 F 
ATOM     75  C   UNL A   1      44.031  34.982  31.559  1.00  0.00     0.040 A 
ATOM     76  C   UNL A   1      43.965  33.970  33.743  1.00  0.00     0.040 A 
ATOM     77  F   UNL A   1      43.802  31.639  33.953  1.00  0.00    -0.206 F 
ATOM     78  C   UNL A   1      44.057  35.110  32.946  1.00  0.00     0.006 A 
ENDBRANCH  57  71
BRANCH  58  79
ATOM     79  C   UNL A   1      42.681  23.657  27.390  1.00  0.00     0.057 A 
ATOM     80  C   UNL A   1      42.816  23.518  26.004  1.00  0.00     0.134 A 
ATOM     81  C   UNL A   1      42.393  22.505  28.132  1.00  0.00     0.134 A 
ATOM     82  F   UNL A   1      43.071  24.591  25.240  1.00  0.00    -0.206 F 
ATOM     83  C   UNL A   1      42.663  22.281  25.376  1.00  0.00     0.040 A 
ATOM     84  C   UNL A   1      42.259  21.258  27.519  1.00  0.00     0.040 A 
ATOM     85  F   UNL A   1      42.256  22.573  29.463  1.00  0.00    -0.206 F 
ATOM     86  C   UNL A   1      42.389  21.145  26.136  1.00  0.00     0.006 A 
ENDBRANCH  58  79
BRANCH  70  87
ATOM     87  C   UNL A   1      48.132  26.984  30.161  1.00  0.00     0.057 A 
ATOM     88  C   UNL A   1      48.614  26.294  31.279  1.00  0.00     0.134 A 
ATOM     89  C   UNL A   1      49.043  27.282  29.139  1.00  0.00     0.134 A 
ATOM     90  F   UNL A   1      47.794  25.994  32.298  1.00  0.00    -0.206 F 
ATOM     91  C   UNL A   1      49.955  25.921  31.383  1.00  0.00     0.040 A 
ATOM     92  C   UNL A   1      50.381  26.895  29.221  1.00  0.00     0.040 A 
ATOM     93  F   UNL A   1      48.644  27.937  28.039  1.00  0.00    -0.206 F 
ATOM     94  C   UNL A   1      50.841  26.215  30.348  1.00  0.00     0.006 A 
ENDBRANCH  70  87
ENDBRANCH  44  45
ENDBRANCH  36  39
ENDBRANCH  34  35
ENDBRANCH  33  34
ENDBRANCH   1  33
TORSDOF 15
ENDMDL
