MODEL 1
REMARK VINA RESULT:     -13.2      0.000      0.000
REMARK SMILES C[C@@H]1CC(C)(C)C[C@@](CC(=O)Nc2cccc(C(F)(F)F)c2)(C(=O)NCCCCNC(=O)c2ccc(-c3c4nc(c(-c5c(F)cccc5F)c5ccc([nH]5)c(-c5c(F)cccc5F)c5nc(c(-c6c(F)cccc6F)c6ccc3[nH]6)C=C5)C=C4)cc2)C1
REMARK SMILES IDX 26 1 25 2 23 3 24 4 8 6 1 7 2 8 3 9 87 10 4 11 5 12 6 13
REMARK SMILES IDX 7 14 9 15 10 16 11 17 12 18 13 20 14 21 22 22 15 23 17 24
REMARK SMILES IDX 16 25 18 26 19 27 20 28 21 29 27 30 28 31 29 32 30 33 31 34
REMARK SMILES IDX 32 36 33 37 34 38 86 39 35 40 85 41 36 42 37 43 38 44 79 45
REMARK SMILES IDX 39 46 84 47 78 48 80 49 40 50 83 51 77 52 76 53 41 55 67 56
REMARK SMILES IDX 50 57 66 58 51 59 54 60 65 61 81 62 52 63 53 64 64 66 82 67
REMARK SMILES IDX 55 68 42 69 43 70 48 71 44 72 45 73 47 74 49 75 46 76 68 77
REMARK SMILES IDX 69 78 74 79 70 80 71 81 73 82 75 83 72 84 56 85 57 86 62 87
REMARK SMILES IDX 58 88 59 89 61 90 63 91 60 92
REMARK H PARENT 25 5 12 19 30 35 80 54 54 65
REMARK Flexibility Score: inf
ROOT
ATOM      1  C   UNL A   1      36.310  21.421  25.581  1.00  0.00     0.116 C 
ENDROOT
BRANCH   1   2
ATOM      2  N   UNL A   1      35.324  21.507  26.663  1.00  0.00    -0.356 N 
ATOM      3  C   UNL A   1      34.144  22.199  26.828  1.00  0.00     0.226 C 
ATOM      4  O   UNL A   1      33.565  21.997  27.899  1.00  0.00    -0.274 OA
ATOM      5  H   UNL A   1      35.556  20.951  27.441  1.00  0.00     0.163 HD
BRANCH   3   6
ATOM      6  C   UNL A   1      33.534  23.176  25.742  1.00  0.00     0.059 C 
ATOM      7  C   UNL A   1      33.633  25.745  23.493  1.00  0.00     0.008 C 
ATOM      8  C   UNL A   1      34.300  24.375  23.487  1.00  0.00    -0.013 C 
ATOM      9  C   UNL A   1      33.546  23.372  22.642  1.00  0.00     0.009 C 
ATOM     10  C   UNL A   1      34.655  23.729  24.829  1.00  0.00     0.020 C 
ATOM     11  C   UNL A   1      32.364  22.672  23.343  1.00  0.00    -0.034 C 
ATOM     12  C   UNL A   1      31.087  23.526  23.305  1.00  0.00     0.011 C 
ATOM     13  C   UNL A   1      32.090  21.415  22.474  1.00  0.00     0.011 C 
ATOM     14  C   UNL A   1      32.654  22.248  24.823  1.00  0.00     0.024 C 
BRANCH   6  15
ATOM     15  C   UNL A   1      32.835  24.246  26.619  1.00  0.00     0.117 C 
BRANCH  15  16
ATOM     16  C   UNL A   1      31.381  24.634  26.680  1.00  0.00     0.225 C 
ATOM     17  O   UNL A   1      30.596  23.804  27.168  1.00  0.00    -0.275 OA
ATOM     18  N   UNL A   1      30.807  25.819  26.371  1.00  0.00    -0.326 N 
ATOM     19  H   UNL A   1      29.886  25.843  26.720  1.00  0.00     0.169 HD
BRANCH  18  20
ATOM     20  C   UNL A   1      31.096  27.029  25.713  1.00  0.00     0.041 A 
ATOM     21  C   UNL A   1      31.829  27.937  26.500  1.00  0.00     0.026 A 
ATOM     22  C   UNL A   1      30.631  27.467  24.474  1.00  0.00     0.039 A 
ATOM     23  C   UNL A   1      31.974  29.275  26.140  1.00  0.00     0.003 A 
ATOM     24  C   UNL A   1      30.669  28.847  24.150  1.00  0.00     0.058 A 
ATOM     25  C   UNL A   1      31.363  29.737  24.985  1.00  0.00     0.013 A 
BRANCH  24  26
ATOM     26  C   UNL A   1      29.900  29.409  22.972  1.00  0.00     0.416 C 
ATOM     27  F   UNL A   1      29.225  30.557  23.285  1.00  0.00    -0.166 F 
ATOM     28  F   UNL A   1      30.701  29.729  21.921  1.00  0.00    -0.166 F 
ATOM     29  F   UNL A   1      28.953  28.560  22.495  1.00  0.00    -0.166 F 
ENDBRANCH  24  26
ENDBRANCH  18  20
ENDBRANCH  15  16
ENDBRANCH   6  15
ENDBRANCH   3   6
ENDBRANCH   1   2
BRANCH   1  30
ATOM     30  C   UNL A   1      36.357  20.051  24.884  1.00  0.00     0.023 C 
BRANCH  30  31
ATOM     31  C   UNL A   1      37.700  19.302  24.916  1.00  0.00     0.023 C 
BRANCH  31  32
ATOM     32  C   UNL A   1      38.867  19.978  25.644  1.00  0.00     0.116 C 
BRANCH  32  33
ATOM     33  N   UNL A   1      40.083  19.180  25.673  1.00  0.00    -0.352 N 
ATOM     34  C   UNL A   1      41.370  19.493  26.049  1.00  0.00     0.251 C 
ATOM     35  H   UNL A   1      39.964  18.252  25.369  1.00  0.00     0.163 HD
ATOM     36  O   UNL A   1      42.253  18.659  25.885  1.00  0.00    -0.269 OA
BRANCH  34  37
ATOM     37  C   UNL A   1      41.728  20.817  26.622  1.00  0.00     0.039 A 
ATOM     38  C   UNL A   1      42.289  21.778  25.771  1.00  0.00     0.014 A 
ATOM     39  C   UNL A   1      41.584  21.111  27.979  1.00  0.00     0.014 A 
ATOM     40  C   UNL A   1      42.642  23.041  26.264  1.00  0.00     0.010 A 
ATOM     41  C   UNL A   1      41.866  22.397  28.455  1.00  0.00     0.010 A 
ATOM     42  C   UNL A   1      42.401  23.376  27.606  1.00  0.00    -0.014 A 
BRANCH  42  43
ATOM     43  C   UNL A   1      42.703  24.742  28.118  1.00  0.00     0.031 A 
ATOM     44  C   UNL A   1      44.102  25.127  28.519  1.00  0.00     0.074 A 
ATOM     45  C   UNL A   1      41.703  25.635  28.268  1.00  0.00     0.049 A 
ATOM     46  N   UNL A   1      44.544  26.264  29.001  1.00  0.00    -0.248 NA
ATOM     47  C   UNL A   1      45.136  24.091  28.387  1.00  0.00     0.031 C 
ATOM     48  C   UNL A   1      40.292  25.379  27.979  1.00  0.00     0.029 A 
ATOM     49  N   UNL A   1      41.719  26.935  28.714  1.00  0.00    -0.354 N 
ATOM     50  C   UNL A   1      45.900  26.075  29.237  1.00  0.00     0.074 A 
ATOM     51  C   UNL A   1      46.194  24.696  28.905  1.00  0.00     0.031 C 
ATOM     52  C   UNL A   1      39.582  26.489  28.234  1.00  0.00     0.029 A 
ATOM     53  C   UNL A   1      40.479  27.526  28.734  1.00  0.00     0.049 A 
ATOM     54  H   UNL A   1      42.542  27.399  28.990  1.00  0.00     0.167 HD
ATOM     55  C   UNL A   1      46.825  26.970  29.666  1.00  0.00     0.037 A 
ATOM     56  C   UNL A   1      40.101  28.760  29.116  1.00  0.00     0.037 A 
ATOM     57  C   UNL A   1      46.536  28.345  29.989  1.00  0.00     0.049 A 
ATOM     58  C   UNL A   1      41.141  29.741  29.582  1.00  0.00     0.074 A 
ATOM     59  C   UNL A   1      47.413  29.343  30.377  1.00  0.00     0.029 A 
ATOM     60  N   UNL A   1      45.270  28.913  29.971  1.00  0.00    -0.354 N 
ATOM     61  N   UNL A   1      42.434  29.572  29.721  1.00  0.00    -0.248 NA
ATOM     62  C   UNL A   1      40.671  31.090  29.928  1.00  0.00     0.031 C 
ATOM     63  C   UNL A   1      46.672  30.501  30.644  1.00  0.00     0.029 A 
ATOM     64  C   UNL A   1      45.341  30.240  30.364  1.00  0.00     0.049 A 
ATOM     65  H   UNL A   1      44.444  28.442  29.716  1.00  0.00     0.167 HD
ATOM     66  C   UNL A   1      42.935  30.796  30.146  1.00  0.00     0.074 A 
ATOM     67  C   UNL A   1      41.809  31.704  30.223  1.00  0.00     0.031 C 
ATOM     68  C   UNL A   1      44.213  31.137  30.444  1.00  0.00     0.037 A 
BRANCH  55  69
ATOM     69  C   UNL A   1      48.239  26.481  29.813  1.00  0.00     0.057 A 
ATOM     70  C   UNL A   1      48.693  25.866  30.989  1.00  0.00     0.134 A 
ATOM     71  C   UNL A   1      49.158  26.616  28.765  1.00  0.00     0.134 A 
ATOM     72  F   UNL A   1      47.869  25.710  32.037  1.00  0.00    -0.206 F 
ATOM     73  C   UNL A   1      50.017  25.444  31.132  1.00  0.00     0.040 A 
ATOM     74  C   UNL A   1      50.475  26.168  28.884  1.00  0.00     0.040 A 
ATOM     75  F   UNL A   1      48.792  27.184  27.606  1.00  0.00    -0.206 F 
ATOM     76  C   UNL A   1      50.912  25.591  30.074  1.00  0.00     0.006 A 
ENDBRANCH  55  69
BRANCH  56  77
ATOM     77  C   UNL A   1      38.668  29.146  29.051  1.00  0.00     0.057 A 
ATOM     78  C   UNL A   1      38.090  29.600  27.860  1.00  0.00     0.134 A 
ATOM     79  C   UNL A   1      37.839  29.058  30.176  1.00  0.00     0.134 A 
ATOM     80  F   UNL A   1      38.836  29.724  26.752  1.00  0.00    -0.206 F 
ATOM     81  C   UNL A   1      36.745  29.969  27.793  1.00  0.00     0.040 A 
ATOM     82  C   UNL A   1      36.487  29.398  30.118  1.00  0.00     0.040 A 
ATOM     83  F   UNL A   1      38.329  28.621  31.346  1.00  0.00    -0.206 F 
ATOM     84  C   UNL A   1      35.938  29.862  28.924  1.00  0.00     0.006 A 
ENDBRANCH  56  77
BRANCH  68  85
ATOM     85  C   UNL A   1      44.468  32.561  30.850  1.00  0.00     0.057 A 
ATOM     86  C   UNL A   1      44.737  33.566  29.910  1.00  0.00     0.134 A 
ATOM     87  C   UNL A   1      44.424  32.937  32.198  1.00  0.00     0.134 A 
ATOM     88  F   UNL A   1      44.806  33.275  28.602  1.00  0.00    -0.206 F 
ATOM     89  C   UNL A   1      44.987  34.883  30.300  1.00  0.00     0.040 A 
ATOM     90  C   UNL A   1      44.642  34.256  32.599  1.00  0.00     0.040 A 
ATOM     91  F   UNL A   1      44.162  32.028  33.151  1.00  0.00    -0.206 F 
ATOM     92  C   UNL A   1      44.933  35.233  31.649  1.00  0.00     0.006 A 
ENDBRANCH  68  85
ENDBRANCH  42  43
ENDBRANCH  34  37
ENDBRANCH  32  33
ENDBRANCH  31  32
ENDBRANCH  30  31
ENDBRANCH   1  30
TORSDOF 15
ENDMDL
MODEL 2
REMARK VINA RESULT:     -13.2      0.856      1.978
REMARK SMILES C[C@@H]1CC(C)(C)C[C@@](CC(=O)Nc2cccc(C(F)(F)F)c2)(C(=O)NCCCCNC(=O)c2ccc(-c3c4nc(c(-c5c(F)cccc5F)c5ccc([nH]5)c(-c5c(F)cccc5F)c5nc(c(-c6c(F)cccc6F)c6ccc3[nH]6)C=C5)C=C4)cc2)C1
REMARK SMILES IDX 26 1 25 2 23 3 24 4 8 6 1 7 2 8 3 9 87 10 4 11 5 12 6 13
REMARK SMILES IDX 7 14 9 15 10 16 11 17 12 18 13 20 14 21 22 22 15 23 17 24
REMARK SMILES IDX 16 25 18 26 19 27 20 28 21 29 27 30 28 31 29 32 30 33 31 34
REMARK SMILES IDX 32 36 33 37 34 38 86 39 35 40 85 41 36 42 37 43 38 44 79 45
REMARK SMILES IDX 39 46 84 47 78 48 80 49 40 50 83 51 77 52 76 53 41 55 67 56
REMARK SMILES IDX 50 57 66 58 51 59 54 60 65 61 81 62 52 63 53 64 64 66 82 67
REMARK SMILES IDX 55 68 42 69 43 70 48 71 44 72 45 73 47 74 49 75 46 76 68 77
REMARK SMILES IDX 69 78 74 79 70 80 71 81 73 82 75 83 72 84 56 85 57 86 62 87
REMARK SMILES IDX 58 88 59 89 61 90 63 91 60 92
REMARK H PARENT 25 5 12 19 30 35 80 54 54 65
REMARK Flexibility Score: inf
ROOT
ATOM      1  C   UNL A   1      36.359  21.182  25.384  1.00  0.00     0.116 C 
ENDROOT
BRANCH   1   2
ATOM      2  N   UNL A   1      35.429  21.240  26.516  1.00  0.00    -0.356 N 
ATOM      3  C   UNL A   1      34.250  21.913  26.753  1.00  0.00     0.226 C 
ATOM      4  O   UNL A   1      33.730  21.687  27.848  1.00  0.00    -0.274 OA
ATOM      5  H   UNL A   1      35.709  20.675  27.273  1.00  0.00     0.163 HD
BRANCH   3   6
ATOM      6  C   UNL A   1      33.573  22.897  25.714  1.00  0.00     0.059 C 
ATOM      7  C   UNL A   1      33.495  25.562  23.580  1.00  0.00     0.008 C 
ATOM      8  C   UNL A   1      34.245  24.238  23.509  1.00  0.00    -0.013 C 
ATOM      9  C   UNL A   1      33.546  23.228  22.626  1.00  0.00     0.009 C 
ATOM     10  C   UNL A   1      34.650  23.556  24.820  1.00  0.00     0.020 C 
ATOM     11  C   UNL A   1      32.415  22.427  23.303  1.00  0.00    -0.034 C 
ATOM     12  C   UNL A   1      31.088  23.201  23.309  1.00  0.00     0.011 C 
ATOM     13  C   UNL A   1      32.211  21.194  22.380  1.00  0.00     0.011 C 
ATOM     14  C   UNL A   1      32.744  21.957  24.761  1.00  0.00     0.024 C 
BRANCH   6  15
ATOM     15  C   UNL A   1      32.817  23.883  26.641  1.00  0.00     0.117 C 
BRANCH  15  16
ATOM     16  C   UNL A   1      31.336  24.049  26.859  1.00  0.00     0.225 C 
ATOM     17  O   UNL A   1      30.750  23.137  27.467  1.00  0.00    -0.275 OA
ATOM     18  N   UNL A   1      30.553  25.115  26.578  1.00  0.00    -0.326 N 
ATOM     19  H   UNL A   1      29.685  25.018  27.033  1.00  0.00     0.169 HD
BRANCH  18  20
ATOM     20  C   UNL A   1      30.575  26.319  25.848  1.00  0.00     0.041 A 
ATOM     21  C   UNL A   1      29.756  26.298  24.704  1.00  0.00     0.026 A 
ATOM     22  C   UNL A   1      31.395  27.429  26.045  1.00  0.00     0.039 A 
ATOM     23  C   UNL A   1      29.851  27.273  23.713  1.00  0.00     0.003 A 
ATOM     24  C   UNL A   1      31.586  28.363  24.995  1.00  0.00     0.058 A 
ATOM     25  C   UNL A   1      30.790  28.283  23.842  1.00  0.00     0.013 A 
BRANCH  24  26
ATOM     26  C   UNL A   1      32.694  29.396  25.041  1.00  0.00     0.416 C 
ATOM     27  F   UNL A   1      32.270  30.597  25.539  1.00  0.00    -0.166 F 
ATOM     28  F   UNL A   1      33.736  29.019  25.828  1.00  0.00    -0.166 F 
ATOM     29  F   UNL A   1      33.212  29.682  23.819  1.00  0.00    -0.166 F 
ENDBRANCH  24  26
ENDBRANCH  18  20
ENDBRANCH  15  16
ENDBRANCH   6  15
ENDBRANCH   3   6
ENDBRANCH   1   2
BRANCH   1  30
ATOM     30  C   UNL A   1      36.476  19.790  24.739  1.00  0.00     0.023 C 
BRANCH  30  31
ATOM     31  C   UNL A   1      37.800  19.037  24.951  1.00  0.00     0.023 C 
BRANCH  31  32
ATOM     32  C   UNL A   1      38.882  19.734  25.783  1.00  0.00     0.116 C 
BRANCH  32  33
ATOM     33  N   UNL A   1      40.172  19.063  25.749  1.00  0.00    -0.352 N 
ATOM     34  C   UNL A   1      41.444  19.518  26.018  1.00  0.00     0.251 C 
ATOM     35  H   UNL A   1      40.128  18.116  25.487  1.00  0.00     0.163 HD
ATOM     36  O   UNL A   1      42.394  18.769  25.818  1.00  0.00    -0.269 OA
BRANCH  34  37
ATOM     37  C   UNL A   1      41.704  20.894  26.518  1.00  0.00     0.039 A 
ATOM     38  C   UNL A   1      41.528  21.147  27.883  1.00  0.00     0.014 A 
ATOM     39  C   UNL A   1      42.054  21.945  25.670  1.00  0.00     0.014 A 
ATOM     40  C   UNL A   1      41.762  22.427  28.403  1.00  0.00     0.010 A 
ATOM     41  C   UNL A   1      42.360  23.205  26.198  1.00  0.00     0.010 A 
ATOM     42  C   UNL A   1      42.215  23.462  27.569  1.00  0.00    -0.014 A 
BRANCH  42  43
ATOM     43  C   UNL A   1      42.539  24.805  28.127  1.00  0.00     0.031 A 
ATOM     44  C   UNL A   1      43.939  25.145  28.564  1.00  0.00     0.074 A 
ATOM     45  C   UNL A   1      41.558  25.717  28.287  1.00  0.00     0.049 A 
ATOM     46  N   UNL A   1      44.399  26.256  29.088  1.00  0.00    -0.248 NA
ATOM     47  C   UNL A   1      44.951  24.088  28.420  1.00  0.00     0.031 C 
ATOM     48  C   UNL A   1      40.146  25.504  27.965  1.00  0.00     0.029 A 
ATOM     49  N   UNL A   1      41.596  27.003  28.771  1.00  0.00    -0.354 N 
ATOM     50  C   UNL A   1      45.746  26.028  29.341  1.00  0.00     0.074 A 
ATOM     51  C   UNL A   1      46.013  24.653  28.973  1.00  0.00     0.031 C 
ATOM     52  C   UNL A   1      39.458  26.622  28.240  1.00  0.00     0.029 A 
ATOM     53  C   UNL A   1      40.370  27.622  28.787  1.00  0.00     0.049 A 
ATOM     54  H   UNL A   1      42.424  27.439  29.075  1.00  0.00     0.167 HD
ATOM     55  C   UNL A   1      46.683  26.887  29.813  1.00  0.00     0.037 A 
ATOM     56  C   UNL A   1      40.014  28.854  29.199  1.00  0.00     0.037 A 
ATOM     57  C   UNL A   1      46.421  28.258  30.171  1.00  0.00     0.049 A 
ATOM     58  C   UNL A   1      41.068  29.795  29.712  1.00  0.00     0.074 A 
ATOM     59  C   UNL A   1      47.314  29.223  30.605  1.00  0.00     0.029 A 
ATOM     60  N   UNL A   1      45.170  28.857  30.149  1.00  0.00    -0.354 N 
ATOM     61  N   UNL A   1      42.354  29.592  29.869  1.00  0.00    -0.248 NA
ATOM     62  C   UNL A   1      40.625  31.144  30.090  1.00  0.00     0.031 C 
ATOM     63  C   UNL A   1      46.596  30.390  30.893  1.00  0.00     0.029 A 
ATOM     64  C   UNL A   1      45.264  30.170  30.582  1.00  0.00     0.049 A 
ATOM     65  H   UNL A   1      44.337  28.414  29.865  1.00  0.00     0.167 HD
ATOM     66  C   UNL A   1      42.877  30.790  30.338  1.00  0.00     0.074 A 
ATOM     67  C   UNL A   1      41.770  31.722  30.423  1.00  0.00     0.031 C 
ATOM     68  C   UNL A   1      44.157  31.091  30.668  1.00  0.00     0.037 A 
BRANCH  55  69
ATOM     69  C   UNL A   1      48.083  26.360  29.970  1.00  0.00     0.057 A 
ATOM     70  C   UNL A   1      49.032  26.458  28.942  1.00  0.00     0.134 A 
ATOM     71  C   UNL A   1      48.493  25.757  31.166  1.00  0.00     0.134 A 
ATOM     72  F   UNL A   1      48.706  27.017  27.767  1.00  0.00    -0.206 F 
ATOM     73  C   UNL A   1      50.320  25.938  29.082  1.00  0.00     0.040 A 
ATOM     74  C   UNL A   1      49.789  25.262  31.329  1.00  0.00     0.040 A 
ATOM     75  F   UNL A   1      47.643  25.639  32.197  1.00  0.00    -0.206 F 
ATOM     76  C   UNL A   1      50.703  25.341  30.281  1.00  0.00     0.006 A 
ENDBRANCH  55  69
BRANCH  56  77
ATOM     77  C   UNL A   1      38.592  29.275  29.120  1.00  0.00     0.057 A 
ATOM     78  C   UNL A   1      37.763  29.257  30.247  1.00  0.00     0.134 A 
ATOM     79  C   UNL A   1      38.031  29.717  27.915  1.00  0.00     0.134 A 
ATOM     80  F   UNL A   1      38.237  28.827  31.427  1.00  0.00    -0.206 F 
ATOM     81  C   UNL A   1      36.424  29.646  30.178  1.00  0.00     0.040 A 
ATOM     82  C   UNL A   1      36.702  30.134  27.836  1.00  0.00     0.040 A 
ATOM     83  F   UNL A   1      38.774  29.766  26.800  1.00  0.00    -0.206 F 
ATOM     84  C   UNL A   1      35.893  30.093  28.970  1.00  0.00     0.006 A 
ENDBRANCH  56  77
BRANCH  68  85
ATOM     85  C   UNL A   1      44.437  32.496  31.121  1.00  0.00     0.057 A 
ATOM     86  C   UNL A   1      44.402  32.863  32.474  1.00  0.00     0.134 A 
ATOM     87  C   UNL A   1      44.765  33.492  30.193  1.00  0.00     0.134 A 
ATOM     88  F   UNL A   1      44.083  31.963  33.416  1.00  0.00    -0.206 F 
ATOM     89  C   UNL A   1      44.650  34.176  32.881  1.00  0.00     0.040 A 
ATOM     90  C   UNL A   1      45.045  34.801  30.590  1.00  0.00     0.040 A 
ATOM     91  F   UNL A   1      44.826  33.209  28.883  1.00  0.00    -0.206 F 
ATOM     92  C   UNL A   1      44.979  35.148  31.938  1.00  0.00     0.006 A 
ENDBRANCH  68  85
ENDBRANCH  42  43
ENDBRANCH  34  37
ENDBRANCH  32  33
ENDBRANCH  31  32
ENDBRANCH  30  31
ENDBRANCH   1  30
TORSDOF 15
ENDMDL
MODEL 3
REMARK VINA RESULT:     -13.1      0.373      6.113
REMARK SMILES C[C@@H]1CC(C)(C)C[C@@](CC(=O)Nc2cccc(C(F)(F)F)c2)(C(=O)NCCCCNC(=O)c2ccc(-c3c4nc(c(-c5c(F)cccc5F)c5ccc([nH]5)c(-c5c(F)cccc5F)c5nc(c(-c6c(F)cccc6F)c6ccc3[nH]6)C=C5)C=C4)cc2)C1
REMARK SMILES IDX 26 1 25 2 23 3 24 4 8 6 1 7 2 8 3 9 87 10 4 11 5 12 6 13
REMARK SMILES IDX 7 14 9 15 10 16 11 17 12 18 13 20 14 21 22 22 15 23 17 24
REMARK SMILES IDX 16 25 18 26 19 27 20 28 21 29 27 30 28 31 29 32 30 33 31 34
REMARK SMILES IDX 32 36 33 37 34 38 86 39 35 40 85 41 36 42 37 43 38 44 79 45
REMARK SMILES IDX 39 46 84 47 78 48 80 49 40 50 83 51 77 52 76 53 41 55 67 56
REMARK SMILES IDX 50 57 66 58 51 59 54 60 65 61 81 62 52 63 53 64 64 66 82 67
REMARK SMILES IDX 55 68 42 69 43 70 48 71 44 72 45 73 47 74 49 75 46 76 68 77
REMARK SMILES IDX 69 78 74 79 70 80 71 81 73 82 75 83 72 84 56 85 57 86 62 87
REMARK SMILES IDX 58 88 59 89 61 90 63 91 60 92
REMARK H PARENT 25 5 12 19 30 35 80 54 54 65
REMARK Flexibility Score: inf
ROOT
ATOM      1  C   UNL A   1      36.325  21.239  25.310  1.00  0.00     0.116 C 
ENDROOT
BRANCH   1   2
ATOM      2  N   UNL A   1      35.473  21.439  26.487  1.00  0.00    -0.356 N 
ATOM      3  C   UNL A   1      34.360  22.210  26.742  1.00  0.00     0.226 C 
ATOM      4  O   UNL A   1      33.894  22.097  27.878  1.00  0.00    -0.274 OA
ATOM      5  H   UNL A   1      35.760  20.908  27.265  1.00  0.00     0.163 HD
BRANCH   3   6
ATOM      6  C   UNL A   1      33.688  23.169  25.676  1.00  0.00     0.059 C 
ATOM      7  C   UNL A   1      33.644  25.729  23.416  1.00  0.00     0.008 C 
ATOM      8  C   UNL A   1      34.341  24.374  23.389  1.00  0.00    -0.013 C 
ATOM      9  C   UNL A   1      33.578  23.352  22.577  1.00  0.00     0.009 C 
ATOM     10  C   UNL A   1      34.761  23.742  24.719  1.00  0.00     0.020 C 
ATOM     11  C   UNL A   1      32.438  22.629  23.326  1.00  0.00    -0.034 C 
ATOM     12  C   UNL A   1      31.142  23.454  23.333  1.00  0.00     0.011 C 
ATOM     13  C   UNL A   1      32.159  21.362  22.472  1.00  0.00     0.011 C 
ATOM     14  C   UNL A   1      32.794  22.217  24.795  1.00  0.00     0.024 C 
BRANCH   6  15
ATOM     15  C   UNL A   1      33.000  24.227  26.575  1.00  0.00     0.117 C 
BRANCH  15  16
ATOM     16  C   UNL A   1      31.541  24.591  26.683  1.00  0.00     0.225 C 
ATOM     17  O   UNL A   1      30.782  23.736  27.170  1.00  0.00    -0.275 OA
ATOM     18  N   UNL A   1      30.942  25.773  26.419  1.00  0.00    -0.326 N 
ATOM     19  H   UNL A   1      30.030  25.774  26.792  1.00  0.00     0.169 HD
BRANCH  18  20
ATOM     20  C   UNL A   1      31.196  27.005  25.785  1.00  0.00     0.041 A 
ATOM     21  C   UNL A   1      31.962  27.892  26.564  1.00  0.00     0.026 A 
ATOM     22  C   UNL A   1      30.671  27.476  24.582  1.00  0.00     0.039 A 
ATOM     23  C   UNL A   1      32.085  29.240  26.237  1.00  0.00     0.003 A 
ATOM     24  C   UNL A   1      30.689  28.866  24.299  1.00  0.00     0.058 A 
ATOM     25  C   UNL A   1      31.419  29.733  25.126  1.00  0.00     0.013 A 
BRANCH  24  26
ATOM     26  C   UNL A   1      29.864  29.459  23.175  1.00  0.00     0.416 C 
ATOM     27  F   UNL A   1      28.777  28.691  22.861  1.00  0.00    -0.166 F 
ATOM     28  F   UNL A   1      29.371  30.690  23.472  1.00  0.00    -0.166 F 
ATOM     29  F   UNL A   1      30.555  29.586  22.012  1.00  0.00    -0.166 F 
ENDBRANCH  24  26
ENDBRANCH  18  20
ENDBRANCH  15  16
ENDBRANCH   6  15
ENDBRANCH   3   6
ENDBRANCH   1   2
BRANCH   1  30
ATOM     30  C   UNL A   1      36.385  19.782  24.820  1.00  0.00     0.023 C 
BRANCH  30  31
ATOM     31  C   UNL A   1      37.737  19.063  24.946  1.00  0.00     0.023 C 
BRANCH  31  32
ATOM     32  C   UNL A   1      38.873  19.816  25.647  1.00  0.00     0.116 C 
BRANCH  32  33
ATOM     33  N   UNL A   1      40.115  19.062  25.730  1.00  0.00    -0.352 N 
ATOM     34  C   UNL A   1      41.392  19.443  26.079  1.00  0.00     0.251 C 
ATOM     35  H   UNL A   1      40.026  18.111  25.493  1.00  0.00     0.163 HD
ATOM     36  O   UNL A   1      42.302  18.628  25.972  1.00  0.00    -0.269 OA
BRANCH  34  37
ATOM     37  C   UNL A   1      41.707  20.816  26.555  1.00  0.00     0.039 A 
ATOM     38  C   UNL A   1      41.543  21.099  27.916  1.00  0.00     0.014 A 
ATOM     39  C   UNL A   1      42.095  21.839  25.688  1.00  0.00     0.014 A 
ATOM     40  C   UNL A   1      41.828  22.377  28.414  1.00  0.00     0.010 A 
ATOM     41  C   UNL A   1      42.451  23.094  26.195  1.00  0.00     0.010 A 
ATOM     42  C   UNL A   1      42.319  23.380  27.562  1.00  0.00    -0.014 A 
BRANCH  42  43
ATOM     43  C   UNL A   1      42.696  24.719  28.097  1.00  0.00     0.031 A 
ATOM     44  C   UNL A   1      41.658  25.788  28.309  1.00  0.00     0.074 A 
ATOM     45  C   UNL A   1      43.991  24.994  28.353  1.00  0.00     0.049 A 
ATOM     46  N   UNL A   1      41.808  27.014  28.749  1.00  0.00    -0.248 NA
ATOM     47  C   UNL A   1      40.274  25.445  27.955  1.00  0.00     0.031 C 
ATOM     48  C   UNL A   1      45.110  24.076  28.136  1.00  0.00     0.029 A 
ATOM     49  N   UNL A   1      44.588  26.132  28.841  1.00  0.00    -0.354 N 
ATOM     50  C   UNL A   1      40.543  27.588  28.715  1.00  0.00     0.074 A 
ATOM     51  C   UNL A   1      39.650  26.597  28.152  1.00  0.00     0.031 C 
ATOM     52  C   UNL A   1      46.251  24.676  28.507  1.00  0.00     0.029 A 
ATOM     53  C   UNL A   1      45.953  26.032  28.958  1.00  0.00     0.049 A 
ATOM     54  H   UNL A   1      44.084  26.942  29.085  1.00  0.00     0.167 HD
ATOM     55  C   UNL A   1      40.151  28.816  29.135  1.00  0.00     0.037 A 
ATOM     56  C   UNL A   1      46.867  26.929  29.376  1.00  0.00     0.037 A 
ATOM     57  C   UNL A   1      41.037  29.801  29.704  1.00  0.00     0.049 A 
ATOM     58  C   UNL A   1      46.412  28.283  29.846  1.00  0.00     0.074 A 
ATOM     59  C   UNL A   1      40.726  31.051  30.211  1.00  0.00     0.029 A 
ATOM     60  N   UNL A   1      42.410  29.651  29.830  1.00  0.00    -0.354 N 
ATOM     61  N   UNL A   1      45.200  28.781  29.886  1.00  0.00    -0.248 NA
ATOM     62  C   UNL A   1      47.452  29.194  30.346  1.00  0.00     0.031 C 
ATOM     63  C   UNL A   1      41.917  31.678  30.598  1.00  0.00     0.029 A 
ATOM     64  C   UNL A   1      42.963  30.795  30.386  1.00  0.00     0.049 A 
ATOM     65  H   UNL A   1      42.917  28.850  29.565  1.00  0.00     0.167 HD
ATOM     66  C   UNL A   1      45.327  30.051  30.435  1.00  0.00     0.074 A 
ATOM     67  C   UNL A   1      46.732  30.238  30.731  1.00  0.00     0.031 C 
ATOM     68  C   UNL A   1      44.365  30.976  30.673  1.00  0.00     0.037 A 
BRANCH  55  69
ATOM     69  C   UNL A   1      38.695  29.161  28.991  1.00  0.00     0.057 A 
ATOM     70  C   UNL A   1      38.154  29.603  27.774  1.00  0.00     0.134 A 
ATOM     71  C   UNL A   1      37.817  29.042  30.076  1.00  0.00     0.134 A 
ATOM     72  F   UNL A   1      38.938  29.747  26.695  1.00  0.00    -0.206 F 
ATOM     73  C   UNL A   1      36.807  29.952  27.654  1.00  0.00     0.040 A 
ATOM     74  C   UNL A   1      36.462  29.358  29.960  1.00  0.00     0.040 A 
ATOM     75  F   UNL A   1      38.261  28.615  31.268  1.00  0.00    -0.206 F 
ATOM     76  C   UNL A   1      35.956  29.826  28.749  1.00  0.00     0.006 A 
ENDBRANCH  55  69
BRANCH  56  77
ATOM     77  C   UNL A   1      48.306  26.562  29.391  1.00  0.00     0.057 A 
ATOM     78  C   UNL A   1      48.858  25.822  30.443  1.00  0.00     0.134 A 
ATOM     79  C   UNL A   1      49.162  26.935  28.348  1.00  0.00     0.134 A 
ATOM     80  F   UNL A   1      48.093  25.451  31.481  1.00  0.00    -0.206 F 
ATOM     81  C   UNL A   1      50.211  25.479  30.466  1.00  0.00     0.040 A 
ATOM     82  C   UNL A   1      50.511  26.578  28.344  1.00  0.00     0.040 A 
ATOM     83  F   UNL A   1      48.693  27.638  27.306  1.00  0.00    -0.206 F 
ATOM     84  C   UNL A   1      51.040  25.852  29.409  1.00  0.00     0.006 A 
ENDBRANCH  56  77
BRANCH  68  85
ATOM     85  C   UNL A   1      44.796  32.265  31.315  1.00  0.00     0.057 A 
ATOM     86  C   UNL A   1      44.857  32.419  32.708  1.00  0.00     0.134 A 
ATOM     87  C   UNL A   1      45.174  33.362  30.530  1.00  0.00     0.134 A 
ATOM     88  F   UNL A   1      44.497  31.413  33.520  1.00  0.00    -0.206 F 
ATOM     89  C   UNL A   1      45.244  33.626  33.293  1.00  0.00     0.040 A 
ATOM     90  C   UNL A   1      45.592  34.564  31.103  1.00  0.00     0.040 A 
ATOM     91  F   UNL A   1      45.149  33.281  29.191  1.00  0.00    -0.206 F 
ATOM     92  C   UNL A   1      45.620  34.701  32.489  1.00  0.00     0.006 A 
ENDBRANCH  68  85
ENDBRANCH  42  43
ENDBRANCH  34  37
ENDBRANCH  32  33
ENDBRANCH  31  32
ENDBRANCH  30  31
ENDBRANCH   1  30
TORSDOF 15
ENDMDL
