MODEL 1
REMARK VINA RESULT:     -12.8      0.000      0.000
REMARK SMILES Cc1cc(C(=O)NCCCCNC(=O)c2ccc(-c3c4nc(c(-c5c(F)cccc5F)c5ccc([nH]5)c(-c5c(F)cccc5F)c5nc(c(-c6c(F)cccc6F)c6ccc3[nH]6)C=C5)C=C4)cc2)nc(N2CCN(c3ccccc3Cl)CC2)n1
REMARK SMILES IDX 9 1 8 2 7 3 5 4 6 5 4 7 1 8 2 9 3 10 84 11 70 12 69 13 71 14
REMARK SMILES IDX 72 15 83 16 73 17 82 18 74 19 75 20 76 21 80 22 77 23 79 24
REMARK SMILES IDX 81 25 78 26 10 27 11 28 12 29 13 30 14 32 15 33 16 34 68 35
REMARK SMILES IDX 17 36 67 37 18 38 19 39 20 40 61 41 21 42 66 43 60 44 62 45
REMARK SMILES IDX 22 46 65 47 59 48 58 49 23 51 49 52 32 53 48 54 33 55 36 56
REMARK SMILES IDX 47 57 63 58 34 59 35 60 46 62 64 63 37 64 24 65 25 66 30 67
REMARK SMILES IDX 26 68 27 69 29 70 31 71 28 72 50 73 51 74 56 75 52 76 53 77
REMARK SMILES IDX 55 78 57 79 54 80 38 81 39 82 44 83 40 84 41 85 43 86 45 87
REMARK SMILES IDX 42 88
REMARK H PARENT 7 6 12 31 62 50 36 61
REMARK Flexibility Score: inf
ROOT
ATOM      1  C   UNL A   1      31.712  30.804  26.099  1.00  0.00     0.023 C 
ENDROOT
BRANCH   1   2
ATOM      2  C   UNL A   1      32.931  29.903  26.307  1.00  0.00     0.116 C 
BRANCH   2   3
ATOM      3  N   UNL A   1      33.592  29.688  25.043  1.00  0.00    -0.351 N 
ATOM      4  C   UNL A   1      33.389  28.774  24.039  1.00  0.00     0.270 C 
ATOM      5  O   UNL A   1      34.225  28.781  23.132  1.00  0.00    -0.268 OA
ATOM      6  H   UNL A   1      34.329  30.317  24.867  1.00  0.00     0.163 HD
BRANCH   4   7
ATOM      7  C   UNL A   1      32.211  27.841  23.969  1.00  0.00     0.133 A 
ATOM      8  C   UNL A   1      28.528  27.458  23.487  1.00  0.00     0.067 C 
ATOM      9  C   UNL A   1      29.991  27.172  23.666  1.00  0.00     0.044 A 
ATOM     10  C   UNL A   1      30.890  28.203  23.857  1.00  0.00     0.058 A 
ATOM     11  N   UNL A   1      30.362  25.877  23.676  1.00  0.00    -0.218 NA
ATOM     12  C   UNL A   1      31.651  25.607  23.917  1.00  0.00     0.226 A 
ATOM     13  N   UNL A   1      32.581  26.551  24.034  1.00  0.00    -0.208 NA
BRANCH  12  14
ATOM     14  N   UNL A   1      32.078  24.317  24.108  1.00  0.00    -0.337 N 
ATOM     15  C   UNL A   1      33.029  23.722  23.173  1.00  0.00     0.141 C 
ATOM     16  C   UNL A   1      31.016  23.427  24.608  1.00  0.00     0.141 C 
ATOM     17  C   UNL A   1      33.646  22.444  23.801  1.00  0.00     0.138 C 
ATOM     18  C   UNL A   1      31.610  22.135  25.196  1.00  0.00     0.138 C 
ATOM     19  N   UNL A   1      32.572  21.550  24.250  1.00  0.00    -0.367 N 
BRANCH  19  20
ATOM     20  C   UNL A   1      32.649  20.181  24.110  1.00  0.00     0.056 A 
ATOM     21  C   UNL A   1      33.086  19.385  25.179  1.00  0.00     0.027 A 
ATOM     22  C   UNL A   1      32.307  19.529  22.906  1.00  0.00     0.064 A 
ATOM     23  C   UNL A   1      33.178  17.994  25.057  1.00  0.00     0.002 A 
ATOM     24  C   UNL A   1      32.407  18.140  22.781  1.00  0.00     0.023 A 
ATOM     25  Cl  UNL A   1      31.815  20.415  21.499  1.00  0.00    -0.082 Cl
ATOM     26  C   UNL A   1      32.843  17.372  23.858  1.00  0.00     0.002 A 
ENDBRANCH  19  20
ENDBRANCH  12  14
ENDBRANCH   4   7
ENDBRANCH   2   3
ENDBRANCH   1   2
BRANCH   1  27
ATOM     27  C   UNL A   1      31.572  31.898  27.164  1.00  0.00     0.023 C 
BRANCH  27  28
ATOM     28  C   UNL A   1      32.782  32.818  27.288  1.00  0.00     0.116 C 
BRANCH  28  29
ATOM     29  N   UNL A   1      32.421  34.195  27.589  1.00  0.00    -0.352 N 
ATOM     30  C   UNL A   1      32.987  35.043  28.511  1.00  0.00     0.251 C 
ATOM     31  H   UNL A   1      31.676  34.566  27.066  1.00  0.00     0.163 HD
ATOM     32  O   UNL A   1      32.503  36.143  28.725  1.00  0.00    -0.269 OA
BRANCH  30  33
ATOM     33  C   UNL A   1      34.164  34.581  29.272  1.00  0.00     0.039 A 
ATOM     34  C   UNL A   1      33.964  34.018  30.534  1.00  0.00     0.014 A 
ATOM     35  C   UNL A   1      35.445  34.663  28.721  1.00  0.00     0.014 A 
ATOM     36  C   UNL A   1      35.051  33.476  31.221  1.00  0.00     0.010 A 
ATOM     37  C   UNL A   1      36.514  34.064  29.378  1.00  0.00     0.010 A 
ATOM     38  C   UNL A   1      36.325  33.463  30.632  1.00  0.00    -0.014 A 
BRANCH  38  39
ATOM     39  C   UNL A   1      37.475  32.821  31.310  1.00  0.00     0.031 A 
ATOM     40  C   UNL A   1      38.144  31.628  30.689  1.00  0.00     0.074 A 
ATOM     41  C   UNL A   1      37.867  33.269  32.518  1.00  0.00     0.049 A 
ATOM     42  N   UNL A   1      39.115  30.889  31.159  1.00  0.00    -0.248 NA
ATOM     43  C   UNL A   1      37.632  31.192  29.381  1.00  0.00     0.031 C 
ATOM     44  C   UNL A   1      37.259  34.383  33.247  1.00  0.00     0.029 A 
ATOM     45  N   UNL A   1      38.864  32.830  33.352  1.00  0.00    -0.354 N 
ATOM     46  C   UNL A   1      39.319  29.892  30.215  1.00  0.00     0.074 A 
ATOM     47  C   UNL A   1      38.337  30.090  29.171  1.00  0.00     0.031 C 
ATOM     48  C   UNL A   1      37.909  34.554  34.409  1.00  0.00     0.029 A 
ATOM     49  C   UNL A   1      38.956  33.543  34.521  1.00  0.00     0.049 A 
ATOM     50  H   UNL A   1      39.457  32.075  33.132  1.00  0.00     0.167 HD
ATOM     51  C   UNL A   1      40.255  28.912  30.208  1.00  0.00     0.037 A 
ATOM     52  C   UNL A   1      39.789  33.394  35.568  1.00  0.00     0.037 A 
ATOM     53  C   UNL A   1      41.247  28.737  31.235  1.00  0.00     0.049 A 
ATOM     54  C   UNL A   1      40.827  32.309  35.532  1.00  0.00     0.074 A 
ATOM     55  C   UNL A   1      42.279  27.818  31.288  1.00  0.00     0.029 A 
ATOM     56  N   UNL A   1      41.326  29.497  32.392  1.00  0.00    -0.354 N 
ATOM     57  N   UNL A   1      41.056  31.416  34.599  1.00  0.00    -0.248 NA
ATOM     58  C   UNL A   1      41.727  32.214  36.690  1.00  0.00     0.031 C 
ATOM     59  C   UNL A   1      42.963  27.999  32.495  1.00  0.00     0.029 A 
ATOM     60  C   UNL A   1      42.381  29.057  33.174  1.00  0.00     0.049 A 
ATOM     61  H   UNL A   1      40.723  30.240  32.623  1.00  0.00     0.167 HD
ATOM     62  C   UNL A   1      42.140  30.671  35.044  1.00  0.00     0.074 A 
ATOM     63  C   UNL A   1      42.530  31.223  36.325  1.00  0.00     0.031 C 
ATOM     64  C   UNL A   1      42.757  29.624  34.444  1.00  0.00     0.037 A 
BRANCH  51  65
ATOM     65  C   UNL A   1      40.245  27.962  29.047  1.00  0.00     0.057 A 
ATOM     66  C   UNL A   1      40.964  28.224  27.873  1.00  0.00     0.134 A 
ATOM     67  C   UNL A   1      39.524  26.764  29.110  1.00  0.00     0.134 A 
ATOM     68  F   UNL A   1      41.664  29.361  27.744  1.00  0.00    -0.206 F 
ATOM     69  C   UNL A   1      40.941  27.343  26.791  1.00  0.00     0.040 A 
ATOM     70  C   UNL A   1      39.514  25.862  28.044  1.00  0.00     0.040 A 
ATOM     71  F   UNL A   1      38.818  26.449  30.205  1.00  0.00    -0.206 F 
ATOM     72  C   UNL A   1      40.219  26.155  26.877  1.00  0.00     0.006 A 
ENDBRANCH  51  65
BRANCH  52  73
ATOM     73  C   UNL A   1      39.695  34.320  36.724  1.00  0.00     0.057 A 
ATOM     74  C   UNL A   1      38.943  33.983  37.855  1.00  0.00     0.134 A 
ATOM     75  C   UNL A   1      40.357  35.553  36.731  1.00  0.00     0.134 A 
ATOM     76  F   UNL A   1      38.274  32.822  37.899  1.00  0.00    -0.206 F 
ATOM     77  C   UNL A   1      38.838  34.847  38.946  1.00  0.00     0.040 A 
ATOM     78  C   UNL A   1      40.279  36.417  37.824  1.00  0.00     0.040 A 
ATOM     79  F   UNL A   1      41.101  35.928  35.680  1.00  0.00    -0.206 F 
ATOM     80  C   UNL A   1      39.513  36.066  38.934  1.00  0.00     0.006 A 
ENDBRANCH  52  73
BRANCH  64  81
ATOM     81  C   UNL A   1      43.938  29.029  35.153  1.00  0.00     0.057 A 
ATOM     82  C   UNL A   1      45.240  29.494  34.934  1.00  0.00     0.134 A 
ATOM     83  C   UNL A   1      43.762  28.008  36.095  1.00  0.00     0.134 A 
ATOM     84  F   UNL A   1      45.476  30.461  34.034  1.00  0.00    -0.206 F 
ATOM     85  C   UNL A   1      46.331  28.950  35.615  1.00  0.00     0.040 A 
ATOM     86  C   UNL A   1      44.840  27.473  36.800  1.00  0.00     0.040 A 
ATOM     87  F   UNL A   1      42.538  27.525  36.355  1.00  0.00    -0.206 F 
ATOM     88  C   UNL A   1      46.131  27.941  36.557  1.00  0.00     0.006 A 
ENDBRANCH  64  81
ENDBRANCH  38  39
ENDBRANCH  30  33
ENDBRANCH  28  29
ENDBRANCH  27  28
ENDBRANCH   1  27
TORSDOF 13
ENDMDL
MODEL 2
REMARK VINA RESULT:     -12.8      2.103      6.370
REMARK SMILES Cc1cc(C(=O)NCCCCNC(=O)c2ccc(-c3c4nc(c(-c5c(F)cccc5F)c5ccc([nH]5)c(-c5c(F)cccc5F)c5nc(c(-c6c(F)cccc6F)c6ccc3[nH]6)C=C5)C=C4)cc2)nc(N2CCN(c3ccccc3Cl)CC2)n1
REMARK SMILES IDX 9 1 8 2 7 3 5 4 6 5 4 7 1 8 2 9 3 10 84 11 70 12 69 13 71 14
REMARK SMILES IDX 72 15 83 16 73 17 82 18 74 19 75 20 76 21 80 22 77 23 79 24
REMARK SMILES IDX 81 25 78 26 10 27 11 28 12 29 13 30 14 32 15 33 16 34 68 35
REMARK SMILES IDX 17 36 67 37 18 38 19 39 20 40 61 41 21 42 66 43 60 44 62 45
REMARK SMILES IDX 22 46 65 47 59 48 58 49 23 51 49 52 32 53 48 54 33 55 36 56
REMARK SMILES IDX 47 57 63 58 34 59 35 60 46 62 64 63 37 64 24 65 25 66 30 67
REMARK SMILES IDX 26 68 27 69 29 70 31 71 28 72 50 73 51 74 56 75 52 76 53 77
REMARK SMILES IDX 55 78 57 79 54 80 38 81 39 82 44 83 40 84 41 85 43 86 45 87
REMARK SMILES IDX 42 88
REMARK H PARENT 7 6 12 31 62 50 36 61
REMARK Flexibility Score: inf
ROOT
ATOM      1  C   UNL A   1      34.500  30.605  27.380  1.00  0.00     0.023 C 
ENDROOT
BRANCH   1   2
ATOM      2  C   UNL A   1      34.178  29.167  26.972  1.00  0.00     0.116 C 
BRANCH   2   3
ATOM      3  N   UNL A   1      33.022  28.706  27.703  1.00  0.00    -0.351 N 
ATOM      4  C   UNL A   1      31.890  28.035  27.311  1.00  0.00     0.270 C 
ATOM      5  O   UNL A   1      31.022  27.900  28.177  1.00  0.00    -0.268 OA
ATOM      6  H   UNL A   1      33.051  28.911  28.665  1.00  0.00     0.163 HD
BRANCH   4   7
ATOM      7  C   UNL A   1      31.692  27.431  25.947  1.00  0.00     0.133 A 
ATOM      8  C   UNL A   1      30.668  27.954  22.396  1.00  0.00     0.067 C 
ATOM      9  C   UNL A   1      31.195  27.350  23.664  1.00  0.00     0.044 A 
ATOM     10  C   UNL A   1      31.146  28.053  24.851  1.00  0.00     0.058 A 
ATOM     11  N   UNL A   1      31.667  26.090  23.590  1.00  0.00    -0.218 NA
ATOM     12  C   UNL A   1      32.064  25.511  24.729  1.00  0.00     0.226 A 
ATOM     13  N   UNL A   1      32.114  26.157  25.892  1.00  0.00    -0.208 NA
BRANCH  12  14
ATOM     14  N   UNL A   1      32.400  24.182  24.766  1.00  0.00    -0.337 N 
ATOM     15  C   UNL A   1      33.483  23.683  23.922  1.00  0.00     0.141 C 
ATOM     16  C   UNL A   1      31.233  23.296  24.915  1.00  0.00     0.141 C 
ATOM     17  C   UNL A   1      33.927  22.282  24.418  1.00  0.00     0.138 C 
ATOM     18  C   UNL A   1      31.661  21.889  25.365  1.00  0.00     0.138 C 
ATOM     19  N   UNL A   1      32.756  21.401  24.514  1.00  0.00    -0.367 N 
BRANCH  19  20
ATOM     20  C   UNL A   1      32.806  20.071  24.157  1.00  0.00     0.056 A 
ATOM     21  C   UNL A   1      33.327  19.119  25.045  1.00  0.00     0.027 A 
ATOM     22  C   UNL A   1      32.352  19.613  22.901  1.00  0.00     0.064 A 
ATOM     23  C   UNL A   1      33.393  17.765  24.700  1.00  0.00     0.002 A 
ATOM     24  C   UNL A   1      32.425  18.262  22.552  1.00  0.00     0.023 A 
ATOM     25  Cl  UNL A   1      31.747  20.707  21.699  1.00  0.00    -0.082 Cl
ATOM     26  C   UNL A   1      32.946  17.337  23.454  1.00  0.00     0.002 A 
ENDBRANCH  19  20
ENDBRANCH  12  14
ENDBRANCH   4   7
ENDBRANCH   2   3
ENDBRANCH   1   2
BRANCH   1  27
ATOM     27  C   UNL A   1      33.256  31.443  27.700  1.00  0.00     0.023 C 
BRANCH  27  28
ATOM     28  C   UNL A   1      33.185  32.776  26.965  1.00  0.00     0.116 C 
BRANCH  28  29
ATOM     29  N   UNL A   1      32.673  33.856  27.794  1.00  0.00    -0.352 N 
ATOM     30  C   UNL A   1      33.228  34.398  28.928  1.00  0.00     0.251 C 
ATOM     31  H   UNL A   1      31.819  34.249  27.505  1.00  0.00     0.163 HD
ATOM     32  O   UNL A   1      32.623  35.235  29.579  1.00  0.00    -0.269 OA
BRANCH  30  33
ATOM     33  C   UNL A   1      34.551  33.917  29.372  1.00  0.00     0.039 A 
ATOM     34  C   UNL A   1      34.621  33.117  30.514  1.00  0.00     0.014 A 
ATOM     35  C   UNL A   1      35.701  34.215  28.637  1.00  0.00     0.014 A 
ATOM     36  C   UNL A   1      35.846  32.562  30.887  1.00  0.00     0.010 A 
ATOM     37  C   UNL A   1      36.906  33.608  28.971  1.00  0.00     0.010 A 
ATOM     38  C   UNL A   1      36.987  32.774  30.098  1.00  0.00    -0.014 A 
BRANCH  38  39
ATOM     39  C   UNL A   1      38.279  32.128  30.430  1.00  0.00     0.031 A 
ATOM     40  C   UNL A   1      39.254  32.820  31.340  1.00  0.00     0.074 A 
ATOM     41  C   UNL A   1      38.600  30.955  29.854  1.00  0.00     0.049 A 
ATOM     42  N   UNL A   1      40.458  32.451  31.693  1.00  0.00    -0.248 NA
ATOM     43  C   UNL A   1      38.829  34.111  31.902  1.00  0.00     0.031 C 
ATOM     44  C   UNL A   1      37.760  30.216  28.910  1.00  0.00     0.029 A 
ATOM     45  N   UNL A   1      39.731  30.185  29.968  1.00  0.00    -0.354 N 
ATOM     46  C   UNL A   1      40.940  33.470  32.503  1.00  0.00     0.074 A 
ATOM     47  C   UNL A   1      39.921  34.495  32.548  1.00  0.00     0.031 C 
ATOM     48  C   UNL A   1      38.394  29.089  28.548  1.00  0.00     0.029 A 
ATOM     49  C   UNL A   1      39.696  29.043  29.206  1.00  0.00     0.049 A 
ATOM     50  H   UNL A   1      40.493  30.429  30.541  1.00  0.00     0.167 HD
ATOM     51  C   UNL A   1      42.119  33.535  33.167  1.00  0.00     0.037 A 
ATOM     52  C   UNL A   1      40.614  28.071  29.054  1.00  0.00     0.037 A 
ATOM     53  C   UNL A   1      43.118  32.500  33.141  1.00  0.00     0.049 A 
ATOM     54  C   UNL A   1      41.909  28.159  29.812  1.00  0.00     0.074 A 
ATOM     55  C   UNL A   1      44.315  32.440  33.832  1.00  0.00     0.029 A 
ATOM     56  N   UNL A   1      43.035  31.344  32.381  1.00  0.00    -0.354 N 
ATOM     57  N   UNL A   1      42.324  29.094  30.631  1.00  0.00    -0.248 NA
ATOM     58  C   UNL A   1      42.860  27.053  29.629  1.00  0.00     0.031 C 
ATOM     59  C   UNL A   1      44.974  31.264  33.462  1.00  0.00     0.029 A 
ATOM     60  C   UNL A   1      44.169  30.571  32.571  1.00  0.00     0.049 A 
ATOM     61  H   UNL A   1      42.283  31.106  31.792  1.00  0.00     0.167 HD
ATOM     62  C   UNL A   1      43.570  28.679  31.082  1.00  0.00     0.074 A 
ATOM     63  C   UNL A   1      43.839  27.402  30.452  1.00  0.00     0.031 C 
ATOM     64  C   UNL A   1      44.415  29.299  31.940  1.00  0.00     0.037 A 
BRANCH  51  65
ATOM     65  C   UNL A   1      42.381  34.768  33.980  1.00  0.00     0.057 A 
ATOM     66  C   UNL A   1      42.046  34.842  35.339  1.00  0.00     0.134 A 
ATOM     67  C   UNL A   1      42.993  35.888  33.403  1.00  0.00     0.134 A 
ATOM     68  F   UNL A   1      41.445  33.809  35.947  1.00  0.00    -0.206 F 
ATOM     69  C   UNL A   1      42.280  35.997  36.086  1.00  0.00     0.040 A 
ATOM     70  C   UNL A   1      43.256  37.039  34.148  1.00  0.00     0.040 A 
ATOM     71  F   UNL A   1      43.344  35.883  32.109  1.00  0.00    -0.206 F 
ATOM     72  C   UNL A   1      42.892  37.098  35.492  1.00  0.00     0.006 A 
ENDBRANCH  51  65
BRANCH  52  73
ATOM     73  C   UNL A   1      40.325  26.914  28.172  1.00  0.00     0.057 A 
ATOM     74  C   UNL A   1      39.503  25.867  28.606  1.00  0.00     0.134 A 
ATOM     75  C   UNL A   1      40.854  26.827  26.880  1.00  0.00     0.134 A 
ATOM     76  F   UNL A   1      38.981  25.887  29.841  1.00  0.00    -0.206 F 
ATOM     77  C   UNL A   1      39.229  24.768  27.791  1.00  0.00     0.040 A 
ATOM     78  C   UNL A   1      40.570  25.745  26.045  1.00  0.00     0.040 A 
ATOM     79  F   UNL A   1      41.641  27.803  26.403  1.00  0.00    -0.206 F 
ATOM     80  C   UNL A   1      39.760  24.708  26.504  1.00  0.00     0.006 A 
ENDBRANCH  52  73
BRANCH  64  81
ATOM     81  C   UNL A   1      45.695  28.591  32.273  1.00  0.00     0.057 A 
ATOM     82  C   UNL A   1      46.873  28.818  31.552  1.00  0.00     0.134 A 
ATOM     83  C   UNL A   1      45.756  27.703  33.354  1.00  0.00     0.134 A 
ATOM     84  F   UNL A   1      46.876  29.648  30.497  1.00  0.00    -0.206 F 
ATOM     85  C   UNL A   1      48.065  28.172  31.883  1.00  0.00     0.040 A 
ATOM     86  C   UNL A   1      46.947  27.068  33.710  1.00  0.00     0.040 A 
ATOM     87  F   UNL A   1      44.663  27.447  34.089  1.00  0.00    -0.206 F 
ATOM     88  C   UNL A   1      48.105  27.299  32.970  1.00  0.00     0.006 A 
ENDBRANCH  64  81
ENDBRANCH  38  39
ENDBRANCH  30  33
ENDBRANCH  28  29
ENDBRANCH  27  28
ENDBRANCH   1  27
TORSDOF 13
ENDMDL
MODEL 3
REMARK VINA RESULT:     -12.8      5.245     10.061
REMARK SMILES Cc1cc(C(=O)NCCCCNC(=O)c2ccc(-c3c4nc(c(-c5c(F)cccc5F)c5ccc([nH]5)c(-c5c(F)cccc5F)c5nc(c(-c6c(F)cccc6F)c6ccc3[nH]6)C=C5)C=C4)cc2)nc(N2CCN(c3ccccc3Cl)CC2)n1
REMARK SMILES IDX 9 1 8 2 7 3 5 4 6 5 4 7 1 8 2 9 3 10 84 11 70 12 69 13 71 14
REMARK SMILES IDX 72 15 83 16 73 17 82 18 74 19 75 20 76 21 80 22 77 23 79 24
REMARK SMILES IDX 81 25 78 26 10 27 11 28 12 29 13 30 14 32 15 33 16 34 68 35
REMARK SMILES IDX 17 36 67 37 18 38 19 39 20 40 61 41 21 42 66 43 60 44 62 45
REMARK SMILES IDX 22 46 65 47 59 48 58 49 23 51 49 52 32 53 48 54 33 55 36 56
REMARK SMILES IDX 47 57 63 58 34 59 35 60 46 62 64 63 37 64 24 65 25 66 30 67
REMARK SMILES IDX 26 68 27 69 29 70 31 71 28 72 50 73 51 74 56 75 52 76 53 77
REMARK SMILES IDX 55 78 57 79 54 80 38 81 39 82 44 83 40 84 41 85 43 86 45 87
REMARK SMILES IDX 42 88
REMARK H PARENT 7 6 12 31 62 50 36 61
REMARK Flexibility Score: inf
ROOT
ATOM      1  C   UNL A   1      37.313  20.922  24.688  1.00  0.00     0.023 C 
ENDROOT
BRANCH   1   2
ATOM      2  C   UNL A   1      36.254  21.181  25.761  1.00  0.00     0.116 C 
BRANCH   2   3
ATOM      3  N   UNL A   1      36.083  22.603  25.936  1.00  0.00    -0.351 N 
ATOM      4  C   UNL A   1      35.208  23.503  25.378  1.00  0.00     0.270 C 
ATOM      5  O   UNL A   1      35.413  24.688  25.652  1.00  0.00    -0.268 OA
ATOM      6  H   UNL A   1      36.712  23.004  26.578  1.00  0.00     0.163 HD
BRANCH   4   7
ATOM      7  C   UNL A   1      34.026  23.121  24.530  1.00  0.00     0.133 A 
ATOM      8  C   UNL A   1      32.133  20.395  22.820  1.00  0.00     0.067 C 
ATOM      9  C   UNL A   1      32.543  21.725  23.381  1.00  0.00     0.044 A 
ATOM     10  C   UNL A   1      33.762  21.876  24.012  1.00  0.00     0.058 A 
ATOM     11  N   UNL A   1      31.692  22.753  23.198  1.00  0.00    -0.218 NA
ATOM     12  C   UNL A   1      32.082  23.961  23.621  1.00  0.00     0.226 A 
ATOM     13  N   UNL A   1      33.208  24.162  24.303  1.00  0.00    -0.208 NA
BRANCH  12  14
ATOM     14  N   UNL A   1      31.351  25.083  23.326  1.00  0.00    -0.337 N 
ATOM     15  C   UNL A   1      31.997  26.222  22.679  1.00  0.00     0.141 C 
ATOM     16  C   UNL A   1      30.348  25.404  24.357  1.00  0.00     0.141 C 
ATOM     17  C   UNL A   1      30.917  27.176  22.105  1.00  0.00     0.138 C 
ATOM     18  C   UNL A   1      29.294  26.384  23.815  1.00  0.00     0.138 C 
ATOM     19  N   UNL A   1      29.956  27.521  23.159  1.00  0.00    -0.367 N 
BRANCH  19  20
ATOM     20  C   UNL A   1      29.425  28.787  23.284  1.00  0.00     0.056 A 
ATOM     21  C   UNL A   1      28.183  29.094  22.711  1.00  0.00     0.027 A 
ATOM     22  C   UNL A   1      30.099  29.819  23.973  1.00  0.00     0.064 A 
ATOM     23  C   UNL A   1      27.629  30.373  22.819  1.00  0.00     0.002 A 
ATOM     24  C   UNL A   1      29.550  31.101  24.075  1.00  0.00     0.023 A 
ATOM     25  Cl  UNL A   1      31.669  29.575  24.668  1.00  0.00    -0.082 Cl
ATOM     26  C   UNL A   1      28.314  31.378  23.498  1.00  0.00     0.002 A 
ENDBRANCH  19  20
ENDBRANCH  12  14
ENDBRANCH   4   7
ENDBRANCH   2   3
ENDBRANCH   1   2
BRANCH   1  27
ATOM     27  C   UNL A   1      38.192  19.700  24.980  1.00  0.00     0.023 C 
BRANCH  27  28
ATOM     28  C   UNL A   1      39.333  19.961  25.957  1.00  0.00     0.116 C 
BRANCH  28  29
ATOM     29  N   UNL A   1      40.359  18.931  25.922  1.00  0.00    -0.352 N 
ATOM     30  C   UNL A   1      41.715  19.070  26.105  1.00  0.00     0.251 C 
ATOM     31  H   UNL A   1      40.042  18.017  25.743  1.00  0.00     0.163 HD
ATOM     32  O   UNL A   1      42.465  18.121  25.940  1.00  0.00    -0.269 OA
BRANCH  30  33
ATOM     33  C   UNL A   1      42.251  20.398  26.461  1.00  0.00     0.039 A 
ATOM     34  C   UNL A   1      42.754  21.209  25.441  1.00  0.00     0.014 A 
ATOM     35  C   UNL A   1      42.212  20.851  27.781  1.00  0.00     0.014 A 
ATOM     36  C   UNL A   1      43.163  22.509  25.740  1.00  0.00     0.010 A 
ATOM     37  C   UNL A   1      42.559  22.167  28.065  1.00  0.00     0.010 A 
ATOM     38  C   UNL A   1      43.035  23.007  27.046  1.00  0.00    -0.014 A 
BRANCH  38  39
ATOM     39  C   UNL A   1      43.388  24.410  27.368  1.00  0.00     0.031 A 
ATOM     40  C   UNL A   1      44.822  24.854  27.324  1.00  0.00     0.074 A 
ATOM     41  C   UNL A   1      42.425  25.260  27.770  1.00  0.00     0.049 A 
ATOM     42  N   UNL A   1      45.337  26.014  27.638  1.00  0.00    -0.248 NA
ATOM     43  C   UNL A   1      45.810  23.850  26.900  1.00  0.00     0.031 C 
ATOM     44  C   UNL A   1      41.006  24.929  27.906  1.00  0.00     0.029 A 
ATOM     45  N   UNL A   1      42.499  26.576  28.152  1.00  0.00    -0.354 N 
ATOM     46  C   UNL A   1      46.708  25.875  27.466  1.00  0.00     0.074 A 
ATOM     47  C   UNL A   1      46.949  24.505  27.070  1.00  0.00     0.031 C 
ATOM     48  C   UNL A   1      40.339  26.019  28.320  1.00  0.00     0.029 A 
ATOM     49  C   UNL A   1      41.287  27.113  28.509  1.00  0.00     0.049 A 
ATOM     50  H   UNL A   1      43.341  27.086  28.167  1.00  0.00     0.167 HD
ATOM     51  C   UNL A   1      47.676  26.813  27.604  1.00  0.00     0.037 A 
ATOM     52  C   UNL A   1      40.977  28.348  28.945  1.00  0.00     0.037 A 
ATOM     53  C   UNL A   1      47.428  28.182  27.971  1.00  0.00     0.049 A 
ATOM     54  C   UNL A   1      42.066  29.374  29.078  1.00  0.00     0.074 A 
ATOM     55  C   UNL A   1      48.331  29.224  28.072  1.00  0.00     0.029 A 
ATOM     56  N   UNL A   1      46.183  28.696  28.298  1.00  0.00    -0.354 N 
ATOM     57  N   UNL A   1      43.350  29.251  28.844  1.00  0.00    -0.248 NA
ATOM     58  C   UNL A   1      41.663  30.714  29.529  1.00  0.00     0.031 C 
ATOM     59  C   UNL A   1      47.638  30.362  28.496  1.00  0.00     0.029 A 
ATOM     60  C   UNL A   1      46.296  30.039  28.619  1.00  0.00     0.049 A 
ATOM     61  H   UNL A   1      45.342  28.184  28.301  1.00  0.00     0.167 HD
ATOM     62  C   UNL A   1      43.904  30.499  29.093  1.00  0.00     0.074 A 
ATOM     63  C   UNL A   1      42.815  31.369  29.486  1.00  0.00     0.031 C 
ATOM     64  C   UNL A   1      45.199  30.890  29.003  1.00  0.00     0.037 A 
BRANCH  51  65
ATOM     65  C   UNL A   1      49.090  26.381  27.351  1.00  0.00     0.057 A 
ATOM     66  C   UNL A   1      49.649  26.400  26.066  1.00  0.00     0.134 A 
ATOM     67  C   UNL A   1      49.909  25.959  28.406  1.00  0.00     0.134 A 
ATOM     68  F   UNL A   1      48.914  26.781  25.011  1.00  0.00    -0.206 F 
ATOM     69  C   UNL A   1      50.961  25.984  25.834  1.00  0.00     0.040 A 
ATOM     70  C   UNL A   1      51.231  25.566  28.190  1.00  0.00     0.040 A 
ATOM     71  F   UNL A   1      49.439  25.921  29.661  1.00  0.00    -0.206 F 
ATOM     72  C   UNL A   1      51.758  25.571  26.899  1.00  0.00     0.006 A 
ENDBRANCH  51  65
BRANCH  52  73
ATOM     73  C   UNL A   1      39.567  28.690  29.255  1.00  0.00     0.057 A 
ATOM     74  C   UNL A   1      38.713  29.185  28.263  1.00  0.00     0.134 A 
ATOM     75  C   UNL A   1      39.038  28.526  30.539  1.00  0.00     0.134 A 
ATOM     76  F   UNL A   1      39.168  29.379  27.016  1.00  0.00    -0.206 F 
ATOM     77  C   UNL A   1      37.387  29.520  28.540  1.00  0.00     0.040 A 
ATOM     78  C   UNL A   1      37.708  28.834  30.826  1.00  0.00     0.040 A 
ATOM     79  F   UNL A   1      39.804  28.046  31.531  1.00  0.00    -0.206 F 
ATOM     80  C   UNL A   1      36.880  29.338  29.825  1.00  0.00     0.006 A 
ENDBRANCH  52  73
BRANCH  64  81
ATOM     81  C   UNL A   1      45.502  32.327  29.305  1.00  0.00     0.057 A 
ATOM     82  C   UNL A   1      45.875  32.749  30.587  1.00  0.00     0.134 A 
ATOM     83  C   UNL A   1      45.461  33.292  28.291  1.00  0.00     0.134 A 
ATOM     84  F   UNL A   1      45.920  31.875  31.605  1.00  0.00    -0.206 F 
ATOM     85  C   UNL A   1      46.178  34.085  30.854  1.00  0.00     0.040 A 
ATOM     86  C   UNL A   1      45.785  34.626  28.539  1.00  0.00     0.040 A 
ATOM     87  F   UNL A   1      45.119  32.950  27.039  1.00  0.00    -0.206 F 
ATOM     88  C   UNL A   1      46.141  35.026  29.826  1.00  0.00     0.006 A 
ENDBRANCH  64  81
ENDBRANCH  38  39
ENDBRANCH  30  33
ENDBRANCH  28  29
ENDBRANCH  27  28
ENDBRANCH   1  27
TORSDOF 13
ENDMDL
