MODEL 1
REMARK VINA RESULT:     -12.6      0.000      0.000
REMARK SMILES Cc1cc(C)cc(N(C)S(=O)(=O)c2ccc(F)c(C(=O)NCCCCNC(=O)c3ccc(-c4c5nc(c(-c6c(F)cccc6F)c6ccc([nH]6)c(-c6c(F)cccc6F)c6nc(c(-c7c(F)cccc7F)c7ccc4[nH]7)C=C6)C=C5)cc3)c2)c1
REMARK SMILES IDX 23 1 22 2 21 3 19 4 20 5 18 7 13 8 14 9 83 10 15 11 16 12
REMARK SMILES IDX 17 13 10 14 11 15 12 16 8 17 9 18 7 19 1 20 2 21 3 22 84 23
REMARK SMILES IDX 4 24 5 25 6 26 24 27 25 28 26 29 27 30 28 32 29 33 30 34
REMARK SMILES IDX 82 35 31 36 81 37 32 38 33 39 34 40 75 41 35 42 80 43 74 44
REMARK SMILES IDX 76 45 36 46 79 47 73 48 72 49 37 51 63 52 46 53 62 54 47 55
REMARK SMILES IDX 50 56 61 57 77 58 48 59 49 60 60 62 78 63 51 64 38 65 39 66
REMARK SMILES IDX 44 67 40 68 41 69 43 70 45 71 42 72 64 73 65 74 70 75 66 76
REMARK SMILES IDX 67 77 69 78 71 79 68 80 52 81 53 82 58 83 54 84 55 85 57 86
REMARK SMILES IDX 59 87 56 88
REMARK H PARENT 21 6 26 31 76 50 50 61
REMARK Flexibility Score: inf
ROOT
ATOM      1  C   UNL A   1      38.808  22.693  26.318  1.00  0.00     0.023 C 
ENDROOT
BRANCH   1   2
ATOM      2  C   UNL A   1      37.562  23.462  25.897  1.00  0.00     0.116 C 
BRANCH   2   3
ATOM      3  N   UNL A   1      37.339  23.464  24.464  1.00  0.00    -0.352 N 
ATOM      4  C   UNL A   1      36.320  22.953  23.704  1.00  0.00     0.254 C 
ATOM      5  O   UNL A   1      36.396  23.075  22.479  1.00  0.00    -0.269 OA
ATOM      6  H   UNL A   1      38.047  23.912  23.945  1.00  0.00     0.163 HD
BRANCH   4   7
ATOM      7  C   UNL A   1      35.154  22.221  24.256  1.00  0.00     0.076 A 
ATOM      8  C   UNL A   1      32.888  22.416  25.122  1.00  0.00     0.089 A 
ATOM      9  C   UNL A   1      32.924  21.054  25.469  1.00  0.00     0.025 A 
ATOM     10  C   UNL A   1      33.971  22.971  24.445  1.00  0.00     0.039 A 
ATOM     11  C   UNL A   1      34.079  20.301  25.266  1.00  0.00     0.041 A 
ATOM     12  C   UNL A   1      35.208  20.909  24.729  1.00  0.00     0.136 A 
ATOM     13  F   UNL A   1      36.352  20.210  24.750  1.00  0.00    -0.206 F 
BRANCH   8  14
ATOM     14  S   UNL A   1      31.519  23.322  25.835  1.00  0.00     0.264 S 
ATOM     15  O   UNL A   1      32.099  23.966  27.000  1.00  0.00    -0.201 OA
ATOM     16  O   UNL A   1      30.478  22.323  25.990  1.00  0.00    -0.201 OA
BRANCH  14  17
ATOM     17  N   UNL A   1      30.889  24.585  24.828  1.00  0.00    -0.269 N 
ATOM     18  C   UNL A   1      30.629  24.196  23.412  1.00  0.00     0.164 C 
BRANCH  17  19
ATOM     19  C   UNL A   1      31.605  25.893  24.961  1.00  0.00     0.052 A 
ATOM     20  C   UNL A   1      34.045  28.169  23.068  1.00  0.00     0.044 C 
ATOM     21  C   UNL A   1      33.107  27.658  24.125  1.00  0.00    -0.049 A 
ATOM     22  C   UNL A   1      32.845  28.433  25.254  1.00  0.00     0.007 A 
ATOM     23  C   UNL A   1      32.492  26.400  23.994  1.00  0.00     0.030 A 
ATOM     24  C   UNL A   1      32.020  27.940  26.266  1.00  0.00    -0.049 A 
ATOM     25  C   UNL A   1      31.741  28.791  27.470  1.00  0.00     0.044 C 
ATOM     26  C   UNL A   1      31.460  26.655  26.135  1.00  0.00     0.030 A 
ENDBRANCH  17  19
ENDBRANCH  14  17
ENDBRANCH   8  14
ENDBRANCH   4   7
ENDBRANCH   2   3
ENDBRANCH   1   2
BRANCH   1  27
ATOM     27  C   UNL A   1      39.071  21.370  25.604  1.00  0.00     0.023 C 
BRANCH  27  28
ATOM     28  C   UNL A   1      39.468  20.190  26.483  1.00  0.00     0.116 C 
BRANCH  28  29
ATOM     29  N   UNL A   1      40.581  19.411  25.963  1.00  0.00    -0.352 N 
ATOM     30  C   UNL A   1      41.926  19.711  25.930  1.00  0.00     0.251 C 
ATOM     31  H   UNL A   1      40.338  18.539  25.578  1.00  0.00     0.163 HD
ATOM     32  O   UNL A   1      42.717  18.947  25.403  1.00  0.00    -0.269 OA
BRANCH  30  33
ATOM     33  C   UNL A   1      42.399  20.995  26.493  1.00  0.00     0.039 A 
ATOM     34  C   UNL A   1      42.801  22.001  25.610  1.00  0.00     0.014 A 
ATOM     35  C   UNL A   1      42.408  21.220  27.871  1.00  0.00     0.014 A 
ATOM     36  C   UNL A   1      43.120  23.267  26.106  1.00  0.00     0.010 A 
ATOM     37  C   UNL A   1      42.653  22.501  28.357  1.00  0.00     0.010 A 
ATOM     38  C   UNL A   1      42.999  23.540  27.478  1.00  0.00    -0.014 A 
BRANCH  38  39
ATOM     39  C   UNL A   1      43.212  24.909  28.012  1.00  0.00     0.031 A 
ATOM     40  C   UNL A   1      44.586  25.351  28.427  1.00  0.00     0.074 A 
ATOM     41  C   UNL A   1      42.156  25.728  28.187  1.00  0.00     0.049 A 
ATOM     42  N   UNL A   1      44.956  26.471  28.994  1.00  0.00    -0.248 NA
ATOM     43  C   UNL A   1      45.687  24.401  28.198  1.00  0.00     0.031 C 
ATOM     44  C   UNL A   1      40.766  25.398  27.864  1.00  0.00     0.029 A 
ATOM     45  N   UNL A   1      42.085  27.005  28.685  1.00  0.00    -0.354 N 
ATOM     46  C   UNL A   1      46.324  26.353  29.203  1.00  0.00     0.074 A 
ATOM     47  C   UNL A   1      46.713  25.037  28.747  1.00  0.00     0.031 C 
ATOM     48  C   UNL A   1      39.986  26.455  28.145  1.00  0.00     0.029 A 
ATOM     49  C   UNL A   1      40.812  27.522  28.703  1.00  0.00     0.049 A 
ATOM     50  H   UNL A   1      42.873  27.503  29.001  1.00  0.00     0.167 HD
ATOM     51  C   UNL A   1      47.182  27.272  29.705  1.00  0.00     0.037 A 
ATOM     52  C   UNL A   1      40.361  28.719  29.123  1.00  0.00     0.037 A 
ATOM     53  C   UNL A   1      46.800  28.594  30.122  1.00  0.00     0.049 A 
ATOM     54  C   UNL A   1      41.336  29.721  29.676  1.00  0.00     0.074 A 
ATOM     55  C   UNL A   1      47.609  29.613  30.592  1.00  0.00     0.029 A 
ATOM     56  N   UNL A   1      45.504  29.083  30.109  1.00  0.00    -0.354 N 
ATOM     57  N   UNL A   1      42.633  29.611  29.824  1.00  0.00    -0.248 NA
ATOM     58  C   UNL A   1      40.787  31.011  30.119  1.00  0.00     0.031 C 
ATOM     59  C   UNL A   1      46.798  30.709  30.897  1.00  0.00     0.029 A 
ATOM     60  C   UNL A   1      45.489  30.386  30.577  1.00  0.00     0.049 A 
ATOM     61  H   UNL A   1      44.712  28.579  29.813  1.00  0.00     0.167 HD
ATOM     62  C   UNL A   1      43.059  30.823  30.353  1.00  0.00     0.074 A 
ATOM     63  C   UNL A   1      41.884  31.658  30.489  1.00  0.00     0.031 C 
ATOM     64  C   UNL A   1      44.312  31.207  30.694  1.00  0.00     0.037 A 
BRANCH  51  65
ATOM     65  C   UNL A   1      48.628  26.890  29.811  1.00  0.00     0.057 A 
ATOM     66  C   UNL A   1      49.509  27.111  28.745  1.00  0.00     0.134 A 
ATOM     67  C   UNL A   1      49.132  26.239  30.944  1.00  0.00     0.134 A 
ATOM     68  F   UNL A   1      49.088  27.725  27.628  1.00  0.00    -0.206 F 
ATOM     69  C   UNL A   1      50.837  26.684  28.796  1.00  0.00     0.040 A 
ATOM     70  C   UNL A   1      50.465  25.829  31.017  1.00  0.00     0.040 A 
ATOM     71  F   UNL A   1      48.342  26.010  32.004  1.00  0.00    -0.206 F 
ATOM     72  C   UNL A   1      51.318  26.042  29.936  1.00  0.00     0.006 A 
ENDBRANCH  51  65
BRANCH  52  73
ATOM     73  C   UNL A   1      38.918  29.049  29.006  1.00  0.00     0.057 A 
ATOM     74  C   UNL A   1      38.356  29.477  27.797  1.00  0.00     0.134 A 
ATOM     75  C   UNL A   1      38.067  28.950  30.113  1.00  0.00     0.134 A 
ATOM     76  F   UNL A   1      39.119  29.599  26.701  1.00  0.00    -0.206 F 
ATOM     77  C   UNL A   1      37.003  29.805  27.696  1.00  0.00     0.040 A 
ATOM     78  C   UNL A   1      36.708  29.253  30.021  1.00  0.00     0.040 A 
ATOM     79  F   UNL A   1      38.544  28.528  31.293  1.00  0.00    -0.206 F 
ATOM     80  C   UNL A   1      36.173  29.687  28.810  1.00  0.00     0.006 A 
ENDBRANCH  52  73
BRANCH  64  81
ATOM     81  C   UNL A   1      44.493  32.597  31.225  1.00  0.00     0.057 A 
ATOM     82  C   UNL A   1      44.770  33.661  30.355  1.00  0.00     0.134 A 
ATOM     83  C   UNL A   1      44.479  32.867  32.597  1.00  0.00     0.134 A 
ATOM     84  F   UNL A   1      44.808  33.464  29.028  1.00  0.00    -0.206 F 
ATOM     85  C   UNL A   1      45.042  34.942  30.835  1.00  0.00     0.040 A 
ATOM     86  C   UNL A   1      44.727  34.150  33.088  1.00  0.00     0.040 A 
ATOM     87  F   UNL A   1      44.210  31.894  33.479  1.00  0.00    -0.206 F 
ATOM     88  C   UNL A   1      45.020  35.188  32.206  1.00  0.00     0.006 A 
ENDBRANCH  64  81
ENDBRANCH  38  39
ENDBRANCH  30  33
ENDBRANCH  28  29
ENDBRANCH  27  28
ENDBRANCH   1  27
TORSDOF 14
ENDMDL
MODEL 2
REMARK VINA RESULT:     -12.6      1.965      2.676
REMARK SMILES Cc1cc(C)cc(N(C)S(=O)(=O)c2ccc(F)c(C(=O)NCCCCNC(=O)c3ccc(-c4c5nc(c(-c6c(F)cccc6F)c6ccc([nH]6)c(-c6c(F)cccc6F)c6nc(c(-c7c(F)cccc7F)c7ccc4[nH]7)C=C6)C=C5)cc3)c2)c1
REMARK SMILES IDX 23 1 22 2 21 3 19 4 20 5 18 7 13 8 14 9 83 10 15 11 16 12
REMARK SMILES IDX 17 13 10 14 11 15 12 16 8 17 9 18 7 19 1 20 2 21 3 22 84 23
REMARK SMILES IDX 4 24 5 25 6 26 24 27 25 28 26 29 27 30 28 32 29 33 30 34
REMARK SMILES IDX 82 35 31 36 81 37 32 38 33 39 34 40 75 41 35 42 80 43 74 44
REMARK SMILES IDX 76 45 36 46 79 47 73 48 72 49 37 51 63 52 46 53 62 54 47 55
REMARK SMILES IDX 50 56 61 57 77 58 48 59 49 60 60 62 78 63 51 64 38 65 39 66
REMARK SMILES IDX 44 67 40 68 41 69 43 70 45 71 42 72 64 73 65 74 70 75 66 76
REMARK SMILES IDX 67 77 69 78 71 79 68 80 52 81 53 82 58 83 54 84 55 85 57 86
REMARK SMILES IDX 59 87 56 88
REMARK H PARENT 21 6 26 31 76 50 50 61
REMARK Flexibility Score: inf
ROOT
ATOM      1  C   UNL A   1      37.174  21.116  24.493  1.00  0.00     0.023 C 
ENDROOT
BRANCH   1   2
ATOM      2  C   UNL A   1      36.895  22.241  25.482  1.00  0.00     0.116 C 
BRANCH   2   3
ATOM      3  N   UNL A   1      35.925  21.888  26.501  1.00  0.00    -0.352 N 
ATOM      4  C   UNL A   1      34.563  21.749  26.447  1.00  0.00     0.254 C 
ATOM      5  O   UNL A   1      33.970  21.460  27.488  1.00  0.00    -0.269 OA
ATOM      6  H   UNL A   1      36.314  21.720  27.390  1.00  0.00     0.163 HD
BRANCH   4   7
ATOM      7  C   UNL A   1      33.751  21.967  25.225  1.00  0.00     0.076 A 
ATOM      8  C   UNL A   1      32.292  23.509  24.034  1.00  0.00     0.089 A 
ATOM      9  C   UNL A   1      32.035  22.503  23.085  1.00  0.00     0.025 A 
ATOM     10  C   UNL A   1      33.209  23.261  25.051  1.00  0.00     0.039 A 
ATOM     11  C   UNL A   1      32.582  21.230  23.237  1.00  0.00     0.041 A 
ATOM     12  C   UNL A   1      33.375  20.952  24.344  1.00  0.00     0.136 A 
ATOM     13  F   UNL A   1      33.702  19.670  24.561  1.00  0.00    -0.206 F 
BRANCH   8  14
ATOM     14  S   UNL A   1      31.188  24.914  23.933  1.00  0.00     0.264 S 
ATOM     15  O   UNL A   1      31.044  25.341  25.313  1.00  0.00    -0.201 OA
ATOM     16  O   UNL A   1      30.044  24.412  23.195  1.00  0.00    -0.201 OA
BRANCH  14  17
ATOM     17  N   UNL A   1      31.826  26.267  23.055  1.00  0.00    -0.269 N 
ATOM     18  C   UNL A   1      33.314  26.343  23.000  1.00  0.00     0.164 C 
BRANCH  17  19
ATOM     19  C   UNL A   1      31.178  27.576  23.385  1.00  0.00     0.052 A 
ATOM     20  C   UNL A   1      31.540  30.575  25.749  1.00  0.00     0.044 C 
ATOM     21  C   UNL A   1      31.029  29.683  24.654  1.00  0.00    -0.049 A 
ATOM     22  C   UNL A   1      29.944  30.088  23.878  1.00  0.00     0.007 A 
ATOM     23  C   UNL A   1      31.627  28.434  24.405  1.00  0.00     0.030 A 
ATOM     24  C   UNL A   1      29.428  29.239  22.897  1.00  0.00    -0.049 A 
ATOM     25  C   UNL A   1      28.266  29.695  22.064  1.00  0.00     0.044 C 
ATOM     26  C   UNL A   1      30.011  27.973  22.705  1.00  0.00     0.030 A 
ENDBRANCH  17  19
ENDBRANCH  14  17
ENDBRANCH   8  14
ENDBRANCH   4   7
ENDBRANCH   2   3
ENDBRANCH   1   2
BRANCH   1  27
ATOM     27  C   UNL A   1      37.929  19.903  25.029  1.00  0.00     0.023 C 
BRANCH  27  28
ATOM     28  C   UNL A   1      39.167  20.190  25.870  1.00  0.00     0.116 C 
BRANCH  28  29
ATOM     29  N   UNL A   1      40.168  19.136  25.833  1.00  0.00    -0.352 N 
ATOM     30  C   UNL A   1      41.526  19.202  26.061  1.00  0.00     0.251 C 
ATOM     31  H   UNL A   1      39.824  18.241  25.613  1.00  0.00     0.163 HD
ATOM     32  O   UNL A   1      42.222  18.210  25.935  1.00  0.00    -0.269 OA
BRANCH  30  33
ATOM     33  C   UNL A   1      42.142  20.502  26.410  1.00  0.00     0.039 A 
ATOM     34  C   UNL A   1      42.574  21.333  25.372  1.00  0.00     0.014 A 
ATOM     35  C   UNL A   1      42.254  20.914  27.738  1.00  0.00     0.014 A 
ATOM     36  C   UNL A   1      43.031  22.619  25.665  1.00  0.00     0.010 A 
ATOM     37  C   UNL A   1      42.639  22.221  28.023  1.00  0.00     0.010 A 
ATOM     38  C   UNL A   1      43.019  23.090  26.988  1.00  0.00    -0.014 A 
BRANCH  38  39
ATOM     39  C   UNL A   1      43.383  24.494  27.308  1.00  0.00     0.031 A 
ATOM     40  C   UNL A   1      44.815  24.937  27.235  1.00  0.00     0.074 A 
ATOM     41  C   UNL A   1      42.430  25.349  27.730  1.00  0.00     0.049 A 
ATOM     42  N   UNL A   1      45.339  26.092  27.559  1.00  0.00    -0.248 NA
ATOM     43  C   UNL A   1      45.794  23.946  26.759  1.00  0.00     0.031 C 
ATOM     44  C   UNL A   1      41.010  25.026  27.886  1.00  0.00     0.029 A 
ATOM     45  N   UNL A   1      42.513  26.664  28.113  1.00  0.00    -0.354 N 
ATOM     46  C   UNL A   1      46.704  25.960  27.342  1.00  0.00     0.074 A 
ATOM     47  C   UNL A   1      46.937  24.601  26.904  1.00  0.00     0.031 C 
ATOM     48  C   UNL A   1      40.353  26.120  28.302  1.00  0.00     0.029 A 
ATOM     49  C   UNL A   1      41.307  27.211  28.481  1.00  0.00     0.049 A 
ATOM     50  H   UNL A   1      43.358  27.169  28.124  1.00  0.00     0.167 HD
ATOM     51  C   UNL A   1      47.673  26.897  27.470  1.00  0.00     0.037 A 
ATOM     52  C   UNL A   1      41.004  28.449  28.915  1.00  0.00     0.037 A 
ATOM     53  C   UNL A   1      47.435  28.258  27.869  1.00  0.00     0.049 A 
ATOM     54  C   UNL A   1      42.099  29.471  29.048  1.00  0.00     0.074 A 
ATOM     55  C   UNL A   1      48.346  29.294  27.974  1.00  0.00     0.029 A 
ATOM     56  N   UNL A   1      46.196  28.775  28.217  1.00  0.00    -0.354 N 
ATOM     57  N   UNL A   1      43.378  29.344  28.795  1.00  0.00    -0.248 NA
ATOM     58  C   UNL A   1      41.710  30.806  29.526  1.00  0.00     0.031 C 
ATOM     59  C   UNL A   1      47.666  30.430  28.419  1.00  0.00     0.029 A 
ATOM     60  C   UNL A   1      46.323  30.112  28.551  1.00  0.00     0.049 A 
ATOM     61  H   UNL A   1      45.354  28.266  28.227  1.00  0.00     0.167 HD
ATOM     62  C   UNL A   1      43.943  30.585  29.057  1.00  0.00     0.074 A 
ATOM     63  C   UNL A   1      42.866  31.456  29.479  1.00  0.00     0.031 C 
ATOM     64  C   UNL A   1      45.238  30.968  28.957  1.00  0.00     0.037 A 
BRANCH  51  65
ATOM     65  C   UNL A   1      49.081  26.493  27.154  1.00  0.00     0.057 A 
ATOM     66  C   UNL A   1      49.556  26.515  25.838  1.00  0.00     0.134 A 
ATOM     67  C   UNL A   1      49.945  26.013  28.147  1.00  0.00     0.134 A 
ATOM     68  F   UNL A   1      48.777  26.958  24.839  1.00  0.00    -0.206 F 
ATOM     69  C   UNL A   1      50.837  26.061  25.516  1.00  0.00     0.040 A 
ATOM     70  C   UNL A   1      51.236  25.578  27.842  1.00  0.00     0.040 A 
ATOM     71  F   UNL A   1      49.554  25.978  29.430  1.00  0.00    -0.206 F 
ATOM     72  C   UNL A   1      51.680  25.592  26.521  1.00  0.00     0.006 A 
ENDBRANCH  51  65
BRANCH  52  73
ATOM     73  C   UNL A   1      39.595  28.802  29.224  1.00  0.00     0.057 A 
ATOM     74  C   UNL A   1      39.069  28.667  30.514  1.00  0.00     0.134 A 
ATOM     75  C   UNL A   1      38.739  29.276  28.224  1.00  0.00     0.134 A 
ATOM     76  F   UNL A   1      39.837  28.212  31.515  1.00  0.00    -0.206 F 
ATOM     77  C   UNL A   1      37.739  28.982  30.797  1.00  0.00     0.040 A 
ATOM     78  C   UNL A   1      37.413  29.616  28.497  1.00  0.00     0.040 A 
ATOM     79  F   UNL A   1      39.191  29.444  26.973  1.00  0.00    -0.206 F 
ATOM     80  C   UNL A   1      36.908  29.464  29.787  1.00  0.00     0.006 A 
ENDBRANCH  52  73
BRANCH  64  81
ATOM     81  C   UNL A   1      45.570  32.392  29.282  1.00  0.00     0.057 A 
ATOM     82  C   UNL A   1      45.935  32.759  30.585  1.00  0.00     0.134 A 
ATOM     83  C   UNL A   1      45.446  33.411  28.331  1.00  0.00     0.134 A 
ATOM     84  F   UNL A   1      46.059  31.830  31.545  1.00  0.00    -0.206 F 
ATOM     85  C   UNL A   1      46.149  34.093  30.933  1.00  0.00     0.040 A 
ATOM     86  C   UNL A   1      45.681  34.747  28.662  1.00  0.00     0.040 A 
ATOM     87  F   UNL A   1      45.111  33.122  27.065  1.00  0.00    -0.206 F 
ATOM     88  C   UNL A   1      46.022  35.091  29.969  1.00  0.00     0.006 A 
ENDBRANCH  64  81
ENDBRANCH  38  39
ENDBRANCH  30  33
ENDBRANCH  28  29
ENDBRANCH  27  28
ENDBRANCH   1  27
TORSDOF 14
ENDMDL
MODEL 3
REMARK VINA RESULT:     -12.6      4.519      9.388
REMARK SMILES Cc1cc(C)cc(N(C)S(=O)(=O)c2ccc(F)c(C(=O)NCCCCNC(=O)c3ccc(-c4c5nc(c(-c6c(F)cccc6F)c6ccc([nH]6)c(-c6c(F)cccc6F)c6nc(c(-c7c(F)cccc7F)c7ccc4[nH]7)C=C6)C=C5)cc3)c2)c1
REMARK SMILES IDX 23 1 22 2 21 3 19 4 20 5 18 7 13 8 14 9 83 10 15 11 16 12
REMARK SMILES IDX 17 13 10 14 11 15 12 16 8 17 9 18 7 19 1 20 2 21 3 22 84 23
REMARK SMILES IDX 4 24 5 25 6 26 24 27 25 28 26 29 27 30 28 32 29 33 30 34
REMARK SMILES IDX 82 35 31 36 81 37 32 38 33 39 34 40 75 41 35 42 80 43 74 44
REMARK SMILES IDX 76 45 36 46 79 47 73 48 72 49 37 51 63 52 46 53 62 54 47 55
REMARK SMILES IDX 50 56 61 57 77 58 48 59 49 60 60 62 78 63 51 64 38 65 39 66
REMARK SMILES IDX 44 67 40 68 41 69 43 70 45 71 42 72 64 73 65 74 70 75 66 76
REMARK SMILES IDX 67 77 69 78 71 79 68 80 52 81 53 82 58 83 54 84 55 85 57 86
REMARK SMILES IDX 59 87 56 88
REMARK H PARENT 21 6 26 31 76 50 50 61
REMARK Flexibility Score: inf
ROOT
ATOM      1  C   UNL A   1      31.773  30.350  26.808  1.00  0.00     0.023 C 
ENDROOT
BRANCH   1   2
ATOM      2  C   UNL A   1      33.126  29.699  26.549  1.00  0.00     0.116 C 
BRANCH   2   3
ATOM      3  N   UNL A   1      33.523  29.725  25.154  1.00  0.00    -0.352 N 
ATOM      4  C   UNL A   1      33.055  29.039  24.065  1.00  0.00     0.254 C 
ATOM      5  O   UNL A   1      33.601  29.238  22.978  1.00  0.00    -0.269 OA
ATOM      6  H   UNL A   1      34.262  30.346  24.955  1.00  0.00     0.163 HD
BRANCH   4   7
ATOM      7  C   UNL A   1      31.962  28.038  24.118  1.00  0.00     0.076 A 
ATOM      8  C   UNL A   1      31.410  25.667  24.126  1.00  0.00     0.089 A 
ATOM      9  C   UNL A   1      30.048  26.004  24.035  1.00  0.00     0.025 A 
ATOM     10  C   UNL A   1      32.352  26.685  24.248  1.00  0.00     0.039 A 
ATOM     11  C   UNL A   1      29.652  27.335  23.928  1.00  0.00     0.041 A 
ATOM     12  C   UNL A   1      30.617  28.336  23.896  1.00  0.00     0.136 A 
ATOM     13  F   UNL A   1      30.209  29.573  23.579  1.00  0.00    -0.206 F 
BRANCH   8  14
ATOM     14  S   UNL A   1      31.764  23.940  23.819  1.00  0.00     0.264 S 
ATOM     15  O   UNL A   1      33.010  23.969  23.074  1.00  0.00    -0.201 OA
ATOM     16  O   UNL A   1      30.550  23.435  23.205  1.00  0.00    -0.201 OA
BRANCH  14  17
ATOM     17  N   UNL A   1      32.058  23.001  25.248  1.00  0.00    -0.269 N 
ATOM     18  C   UNL A   1      32.462  23.786  26.450  1.00  0.00     0.164 C 
BRANCH  17  19
ATOM     19  C   UNL A   1      32.903  21.786  25.023  1.00  0.00     0.052 A 
ATOM     20  C   UNL A   1      36.562  20.636  25.100  1.00  0.00     0.044 C 
ATOM     21  C   UNL A   1      35.066  20.606  24.968  1.00  0.00    -0.049 A 
ATOM     22  C   UNL A   1      34.418  19.408  24.672  1.00  0.00     0.007 A 
ATOM     23  C   UNL A   1      34.305  21.778  25.133  1.00  0.00     0.030 A 
ATOM     24  C   UNL A   1      33.035  19.384  24.492  1.00  0.00    -0.049 A 
ATOM     25  C   UNL A   1      32.353  18.084  24.183  1.00  0.00     0.044 C 
ATOM     26  C   UNL A   1      32.304  20.581  24.609  1.00  0.00     0.030 A 
ENDBRANCH  17  19
ENDBRANCH  14  17
ENDBRANCH   8  14
ENDBRANCH   4   7
ENDBRANCH   2   3
ENDBRANCH   1   2
BRANCH   1  27
ATOM     27  C   UNL A   1      31.690  31.861  26.610  1.00  0.00     0.023 C 
BRANCH  27  28
ATOM     28  C   UNL A   1      32.780  32.695  27.272  1.00  0.00     0.116 C 
BRANCH  28  29
ATOM     29  N   UNL A   1      32.370  34.049  27.610  1.00  0.00    -0.352 N 
ATOM     30  C   UNL A   1      32.927  34.941  28.501  1.00  0.00     0.251 C 
ATOM     31  H   UNL A   1      31.576  34.377  27.130  1.00  0.00     0.163 HD
ATOM     32  O   UNL A   1      32.409  36.028  28.690  1.00  0.00    -0.269 OA
BRANCH  30  33
ATOM     33  C   UNL A   1      34.130  34.548  29.267  1.00  0.00     0.039 A 
ATOM     34  C   UNL A   1      33.958  34.000  30.541  1.00  0.00     0.014 A 
ATOM     35  C   UNL A   1      35.408  34.681  28.721  1.00  0.00     0.014 A 
ATOM     36  C   UNL A   1      35.064  33.495  31.228  1.00  0.00     0.010 A 
ATOM     37  C   UNL A   1      36.497  34.110  29.374  1.00  0.00     0.010 A 
ATOM     38  C   UNL A   1      36.333  33.501  30.628  1.00  0.00    -0.014 A 
BRANCH  38  39
ATOM     39  C   UNL A   1      37.498  32.858  31.287  1.00  0.00     0.031 A 
ATOM     40  C   UNL A   1      38.164  31.671  30.651  1.00  0.00     0.074 A 
ATOM     41  C   UNL A   1      37.913  33.302  32.491  1.00  0.00     0.049 A 
ATOM     42  N   UNL A   1      39.133  30.923  31.113  1.00  0.00    -0.248 NA
ATOM     43  C   UNL A   1      37.656  31.252  29.335  1.00  0.00     0.031 C 
ATOM     44  C   UNL A   1      37.320  34.418  33.231  1.00  0.00     0.029 A 
ATOM     45  N   UNL A   1      38.925  32.864  33.307  1.00  0.00    -0.354 N 
ATOM     46  C   UNL A   1      39.340  29.941  30.154  1.00  0.00     0.074 A 
ATOM     47  C   UNL A   1      38.366  30.155  29.107  1.00  0.00     0.031 C 
ATOM     48  C   UNL A   1      37.999  34.595  34.376  1.00  0.00     0.029 A 
ATOM     49  C   UNL A   1      39.047  33.584  34.471  1.00  0.00     0.049 A 
ATOM     50  H   UNL A   1      39.510  32.106  33.080  1.00  0.00     0.167 HD
ATOM     51  C   UNL A   1      40.277  28.964  30.137  1.00  0.00     0.037 A 
ATOM     52  C   UNL A   1      39.905  33.444  35.500  1.00  0.00     0.037 A 
ATOM     53  C   UNL A   1      41.270  28.775  31.161  1.00  0.00     0.049 A 
ATOM     54  C   UNL A   1      40.936  32.350  35.454  1.00  0.00     0.074 A 
ATOM     55  C   UNL A   1      42.294  27.846  31.203  1.00  0.00     0.029 A 
ATOM     56  N   UNL A   1      41.368  29.535  32.316  1.00  0.00    -0.354 N 
ATOM     57  N   UNL A   1      41.148  31.457  34.520  1.00  0.00    -0.248 NA
ATOM     58  C   UNL A   1      41.846  32.244  36.605  1.00  0.00     0.031 C 
ATOM     59  C   UNL A   1      42.993  28.021  32.400  1.00  0.00     0.029 A 
ATOM     60  C   UNL A   1      42.428  29.087  33.084  1.00  0.00     0.049 A 
ATOM     61  H   UNL A   1      40.771  30.281  32.554  1.00  0.00     0.167 HD
ATOM     62  C   UNL A   1      42.228  30.701  34.955  1.00  0.00     0.074 A 
ATOM     63  C   UNL A   1      42.635  31.245  36.232  1.00  0.00     0.031 C 
ATOM     64  C   UNL A   1      42.828  29.648  34.348  1.00  0.00     0.037 A 
BRANCH  51  65
ATOM     65  C   UNL A   1      40.293  28.033  28.962  1.00  0.00     0.057 A 
ATOM     66  C   UNL A   1      39.609  26.812  29.004  1.00  0.00     0.134 A 
ATOM     67  C   UNL A   1      41.045  28.315  27.815  1.00  0.00     0.134 A 
ATOM     68  F   UNL A   1      38.874  26.479  30.077  1.00  0.00    -0.206 F 
ATOM     69  C   UNL A   1      39.683  25.897  27.952  1.00  0.00     0.040 A 
ATOM     70  C   UNL A   1      41.109  27.419  26.746  1.00  0.00     0.040 A 
ATOM     71  F   UNL A   1      41.713  29.473  27.708  1.00  0.00    -0.206 F 
ATOM     72  C   UNL A   1      40.435  26.201  26.819  1.00  0.00     0.006 A 
ENDBRANCH  51  65
BRANCH  52  73
ATOM     73  C   UNL A   1      39.846  34.385  36.647  1.00  0.00     0.057 A 
ATOM     74  C   UNL A   1      40.531  35.606  36.633  1.00  0.00     0.134 A 
ATOM     75  C   UNL A   1      39.105  34.074  37.793  1.00  0.00     0.134 A 
ATOM     76  F   UNL A   1      41.264  35.959  35.567  1.00  0.00    -0.206 F 
ATOM     77  C   UNL A   1      40.489  36.479  37.720  1.00  0.00     0.040 A 
ATOM     78  C   UNL A   1      39.036  34.948  38.878  1.00  0.00     0.040 A 
ATOM     79  F   UNL A   1      38.413  32.927  37.857  1.00  0.00    -0.206 F 
ATOM     80  C   UNL A   1      39.734  36.153  38.847  1.00  0.00     0.006 A 
ENDBRANCH  52  73
BRANCH  64  81
ATOM     81  C   UNL A   1      44.005  29.026  35.037  1.00  0.00     0.057 A 
ATOM     82  C   UNL A   1      43.817  28.043  36.018  1.00  0.00     0.134 A 
ATOM     83  C   UNL A   1      45.312  29.458  34.792  1.00  0.00     0.134 A 
ATOM     84  F   UNL A   1      42.586  27.595  36.307  1.00  0.00    -0.206 F 
ATOM     85  C   UNL A   1      44.890  27.524  36.743  1.00  0.00     0.040 A 
ATOM     86  C   UNL A   1      46.396  28.930  35.494  1.00  0.00     0.040 A 
ATOM     87  F   UNL A   1      45.558  30.389  33.857  1.00  0.00    -0.206 F 
ATOM     88  C   UNL A   1      46.184  27.968  36.481  1.00  0.00     0.006 A 
ENDBRANCH  64  81
ENDBRANCH  38  39
ENDBRANCH  30  33
ENDBRANCH  28  29
ENDBRANCH  27  28
ENDBRANCH   1  27
TORSDOF 14
ENDMDL
