MODEL 1
REMARK VINA RESULT:     -12.0      0.000      0.000
REMARK SMILES CCc1ccc(OCC(=O)Nc2cc(C)c(O)c(C(=O)NCCCCNC(=O)c3ccc(-c4c5nc(c(-c6c(F)cccc6F)c6ccc([nH]6)c(-c6c(F)cccc6F)c6nc(c(-c7c(F)cccc7F)c7ccc4[nH]7)C=C6)C=C5)cc3)c2)cc1
REMARK SMILES IDX 22 1 21 2 19 3 20 4 18 6 12 7 13 8 83 9 14 10 15 11 16 12
REMARK SMILES IDX 11 13 9 14 10 15 8 17 7 18 6 19 3 20 4 21 85 22 5 23 84 24
REMARK SMILES IDX 2 25 1 26 17 27 23 29 24 30 25 31 26 32 27 33 28 35 29 36
REMARK SMILES IDX 30 37 82 38 31 39 81 40 32 41 33 42 34 43 75 44 35 45 80 46
REMARK SMILES IDX 74 47 76 48 36 49 79 50 73 51 72 52 37 54 63 55 46 56 62 57
REMARK SMILES IDX 47 58 50 59 61 60 77 61 48 62 49 63 60 65 78 66 51 67 38 68
REMARK SMILES IDX 39 69 44 70 40 71 41 72 43 73 45 74 42 75 64 76 65 77 70 78
REMARK SMILES IDX 66 79 67 80 69 81 71 82 68 83 52 84 53 85 58 86 54 87 55 88
REMARK SMILES IDX 57 89 59 90 56 91
REMARK H PARENT 21 5 11 16 17 28 26 34 76 53 50 64
REMARK Flexibility Score: inf
ROOT
ATOM      1  C   UNL A   1      35.410  21.313  25.711  1.00  0.00     0.116 C 
ENDROOT
BRANCH   1   2
ATOM      2  N   UNL A   1      34.350  20.344  25.692  1.00  0.00    -0.352 N 
ATOM      3  C   UNL A   1      33.080  20.465  25.176  1.00  0.00     0.255 C 
ATOM      4  O   UNL A   1      32.331  19.489  25.279  1.00  0.00    -0.269 OA
ATOM      5  H   UNL A   1      34.560  19.476  26.103  1.00  0.00     0.163 HD
BRANCH   3   6
ATOM      6  C   UNL A   1      32.509  21.732  24.598  1.00  0.00     0.083 A 
ATOM      7  C   UNL A   1      32.247  23.437  22.863  1.00  0.00     0.042 A 
ATOM      8  C   UNL A   1      31.488  24.196  23.771  1.00  0.00     0.033 A 
ATOM      9  C   UNL A   1      32.713  22.179  23.266  1.00  0.00     0.043 A 
ATOM     10  C   UNL A   1      31.192  23.745  25.061  1.00  0.00    -0.006 A 
ATOM     11  C   UNL A   1      30.315  24.593  25.939  1.00  0.00     0.048 C 
ATOM     12  C   UNL A   1      31.715  22.516  25.468  1.00  0.00     0.131 A 
BRANCH   7  13
ATOM     13  N   UNL A   1      32.525  24.104  21.655  1.00  0.00    -0.323 N 
ATOM     14  C   UNL A   1      32.892  25.352  21.257  1.00  0.00     0.262 C 
ATOM     15  O   UNL A   1      32.862  25.576  20.040  1.00  0.00    -0.271 OA
ATOM     16  H   UNL A   1      32.427  23.500  20.885  1.00  0.00     0.170 HD
BRANCH  14  17
ATOM     17  C   UNL A   1      33.452  26.401  22.208  1.00  0.00     0.329 C 
BRANCH  17  18
ATOM     18  O   UNL A   1      34.113  26.106  23.418  1.00  0.00    -0.484 OA
BRANCH  18  19
ATOM     19  C   UNL A   1      33.957  26.976  24.455  1.00  0.00     0.120 A 
ATOM     20  C   UNL A   1      32.865  28.834  26.268  1.00  0.00    -0.048 A 
ATOM     21  C   UNL A   1      33.187  29.217  24.974  1.00  0.00     0.007 A 
ATOM     22  C   UNL A   1      33.198  27.532  26.676  1.00  0.00     0.007 A 
ATOM     23  C   UNL A   1      33.721  28.286  24.094  1.00  0.00     0.047 A 
ATOM     24  C   UNL A   1      33.737  26.597  25.767  1.00  0.00     0.047 A 
BRANCH  20  25
ATOM     25  C   UNL A   1      32.125  29.812  27.150  1.00  0.00     0.032 C 
ATOM     26  C   UNL A   1      31.705  31.086  26.410  1.00  0.00     0.009 C 
ENDBRANCH  20  25
ENDBRANCH  18  19
ENDBRANCH  17  18
ENDBRANCH  14  17
ENDBRANCH   7  13
BRANCH  12  27
ATOM     27  O   UNL A   1      31.429  22.126  26.754  1.00  0.00    -0.507 OA
ATOM     28  H   UNL A   1      31.266  22.770  27.414  1.00  0.00     0.293 HD
ENDBRANCH  12  27
ENDBRANCH   3   6
ENDBRANCH   1   2
BRANCH   1  29
ATOM     29  C   UNL A   1      36.445  21.210  24.597  1.00  0.00     0.023 C 
BRANCH  29  30
ATOM     30  C   UNL A   1      37.635  20.244  24.732  1.00  0.00     0.023 C 
BRANCH  30  31
ATOM     31  C   UNL A   1      38.683  20.393  25.838  1.00  0.00     0.116 C 
BRANCH  31  32
ATOM     32  N   UNL A   1      39.819  19.472  25.805  1.00  0.00    -0.352 N 
ATOM     33  C   UNL A   1      41.158  19.645  26.074  1.00  0.00     0.251 C 
ATOM     34  H   UNL A   1      39.580  18.554  25.541  1.00  0.00     0.163 HD
ATOM     35  O   UNL A   1      41.953  18.718  25.921  1.00  0.00    -0.269 OA
BRANCH  33  36
ATOM     36  C   UNL A   1      41.668  20.939  26.551  1.00  0.00     0.039 A 
ATOM     37  C   UNL A   1      42.143  21.886  25.637  1.00  0.00     0.014 A 
ATOM     38  C   UNL A   1      41.685  21.213  27.916  1.00  0.00     0.014 A 
ATOM     39  C   UNL A   1      42.523  23.149  26.091  1.00  0.00     0.010 A 
ATOM     40  C   UNL A   1      41.931  22.501  28.350  1.00  0.00     0.010 A 
ATOM     41  C   UNL A   1      42.360  23.482  27.445  1.00  0.00    -0.014 A 
BRANCH  41  42
ATOM     42  C   UNL A   1      42.630  24.841  27.963  1.00  0.00     0.031 A 
ATOM     43  C   UNL A   1      44.013  25.189  28.441  1.00  0.00     0.074 A 
ATOM     44  C   UNL A   1      41.608  25.705  28.112  1.00  0.00     0.049 A 
ATOM     45  N   UNL A   1      44.429  26.263  29.057  1.00  0.00    -0.248 NA
ATOM     46  C   UNL A   1      45.057  24.167  28.244  1.00  0.00     0.031 C 
ATOM     47  C   UNL A   1      40.214  25.442  27.745  1.00  0.00     0.029 A 
ATOM     48  N   UNL A   1      41.579  26.974  28.628  1.00  0.00    -0.354 N 
ATOM     49  C   UNL A   1      45.770  26.036  29.340  1.00  0.00     0.074 A 
ATOM     50  C   UNL A   1      46.080  24.696  28.897  1.00  0.00     0.031 C 
ATOM     51  C   UNL A   1      39.473  26.526  28.019  1.00  0.00     0.029 A 
ATOM     52  C   UNL A   1      40.328  27.542  28.622  1.00  0.00     0.049 A 
ATOM     53  H   UNL A   1      42.378  27.435  28.970  1.00  0.00     0.167 HD
ATOM     54  C   UNL A   1      46.669  26.883  29.893  1.00  0.00     0.037 A 
ATOM     55  C   UNL A   1      39.921  28.747  29.063  1.00  0.00     0.037 A 
ATOM     56  C   UNL A   1      46.349  28.224  30.300  1.00  0.00     0.049 A 
ATOM     57  C   UNL A   1      40.941  29.674  29.660  1.00  0.00     0.074 A 
ATOM     58  C   UNL A   1      47.189  29.196  30.808  1.00  0.00     0.029 A 
ATOM     59  N   UNL A   1      45.079  28.780  30.240  1.00  0.00    -0.354 N 
ATOM     60  N   UNL A   1      42.225  29.478  29.854  1.00  0.00    -0.248 NA
ATOM     61  C   UNL A   1      40.462  30.992  30.095  1.00  0.00     0.031 C 
ATOM     62  C   UNL A   1      46.419  30.325  31.105  1.00  0.00     0.029 A 
ATOM     63  C   UNL A   1      45.108  30.076  30.726  1.00  0.00     0.049 A 
ATOM     64  H   UNL A   1      44.276  28.322  29.904  1.00  0.00     0.167 HD
ATOM     65  C   UNL A   1      42.711  30.655  30.405  1.00  0.00     0.074 A 
ATOM     66  C   UNL A   1      41.587  31.565  30.496  1.00  0.00     0.031 C 
ATOM     67  C   UNL A   1      43.971  30.959  30.801  1.00  0.00     0.037 A 
BRANCH  54  68
ATOM     68  C   UNL A   1      48.074  26.381  30.075  1.00  0.00     0.057 A 
ATOM     69  C   UNL A   1      49.044  26.509  29.070  1.00  0.00     0.134 A 
ATOM     70  C   UNL A   1      48.468  25.773  31.274  1.00  0.00     0.134 A 
ATOM     71  F   UNL A   1      48.732  27.067  27.891  1.00  0.00    -0.206 F 
ATOM     72  C   UNL A   1      50.342  26.024  29.239  1.00  0.00     0.040 A 
ATOM     73  C   UNL A   1      49.772  25.313  31.466  1.00  0.00     0.040 A 
ATOM     74  F   UNL A   1      47.594  25.619  32.280  1.00  0.00    -0.206 F 
ATOM     75  C   UNL A   1      50.711  25.429  30.443  1.00  0.00     0.006 A 
ENDBRANCH  54  68
BRANCH  55  76
ATOM     76  C   UNL A   1      38.499  29.153  28.923  1.00  0.00     0.057 A 
ATOM     77  C   UNL A   1      37.619  29.081  30.010  1.00  0.00     0.134 A 
ATOM     78  C   UNL A   1      37.984  29.625  27.710  1.00  0.00     0.134 A 
ATOM     79  F   UNL A   1      38.048  28.625  31.196  1.00  0.00    -0.206 F 
ATOM     80  C   UNL A   1      36.275  29.439  29.890  1.00  0.00     0.040 A 
ATOM     81  C   UNL A   1      36.648  30.014  27.583  1.00  0.00     0.040 A 
ATOM     82  F   UNL A   1      38.776  29.733  26.633  1.00  0.00    -0.206 F 
ATOM     83  C   UNL A   1      35.787  29.913  28.674  1.00  0.00     0.006 A 
ENDBRANCH  55  76
BRANCH  67  84
ATOM     84  C   UNL A   1      44.201  32.343  31.337  1.00  0.00     0.057 A 
ATOM     85  C   UNL A   1      44.111  32.632  32.703  1.00  0.00     0.134 A 
ATOM     86  C   UNL A   1      44.554  33.388  30.474  1.00  0.00     0.134 A 
ATOM     87  F   UNL A   1      43.765  31.676  33.580  1.00  0.00    -0.206 F 
ATOM     88  C   UNL A   1      44.335  33.919  33.191  1.00  0.00     0.040 A 
ATOM     89  C   UNL A   1      44.813  34.672  30.953  1.00  0.00     0.040 A 
ATOM     90  F   UNL A   1      44.668  33.174  29.155  1.00  0.00    -0.206 F 
ATOM     91  C   UNL A   1      44.695  34.942  32.315  1.00  0.00     0.006 A 
ENDBRANCH  67  84
ENDBRANCH  41  42
ENDBRANCH  33  36
ENDBRANCH  31  32
ENDBRANCH  30  31
ENDBRANCH  29  30
ENDBRANCH   1  29
TORSDOF 17
ENDMDL
MODEL 2
REMARK VINA RESULT:     -12.0      2.286      7.805
REMARK SMILES CCc1ccc(OCC(=O)Nc2cc(C)c(O)c(C(=O)NCCCCNC(=O)c3ccc(-c4c5nc(c(-c6c(F)cccc6F)c6ccc([nH]6)c(-c6c(F)cccc6F)c6nc(c(-c7c(F)cccc7F)c7ccc4[nH]7)C=C6)C=C5)cc3)c2)cc1
REMARK SMILES IDX 22 1 21 2 19 3 20 4 18 6 12 7 13 8 83 9 14 10 15 11 16 12
REMARK SMILES IDX 11 13 9 14 10 15 8 17 7 18 6 19 3 20 4 21 85 22 5 23 84 24
REMARK SMILES IDX 2 25 1 26 17 27 23 29 24 30 25 31 26 32 27 33 28 35 29 36
REMARK SMILES IDX 30 37 82 38 31 39 81 40 32 41 33 42 34 43 75 44 35 45 80 46
REMARK SMILES IDX 74 47 76 48 36 49 79 50 73 51 72 52 37 54 63 55 46 56 62 57
REMARK SMILES IDX 47 58 50 59 61 60 77 61 48 62 49 63 60 65 78 66 51 67 38 68
REMARK SMILES IDX 39 69 44 70 40 71 41 72 43 73 45 74 42 75 64 76 65 77 70 78
REMARK SMILES IDX 66 79 67 80 69 81 71 82 68 83 52 84 53 85 58 86 54 87 55 88
REMARK SMILES IDX 57 89 59 90 56 91
REMARK H PARENT 21 5 11 16 17 28 26 34 76 53 50 64
REMARK Flexibility Score: inf
ROOT
ATOM      1  C   UNL A   1      31.102  29.991  24.958  1.00  0.00     0.116 C 
ENDROOT
BRANCH   1   2
ATOM      2  N   UNL A   1      30.591  29.897  23.619  1.00  0.00    -0.352 N 
ATOM      3  C   UNL A   1      30.320  28.771  22.876  1.00  0.00     0.255 C 
ATOM      4  O   UNL A   1      29.886  28.939  21.733  1.00  0.00    -0.269 OA
ATOM      5  H   UNL A   1      30.410  30.754  23.173  1.00  0.00     0.163 HD
BRANCH   3   6
ATOM      6  C   UNL A   1      30.619  27.364  23.317  1.00  0.00     0.083 A 
ATOM      7  C   UNL A   1      30.350  25.404  24.757  1.00  0.00     0.042 A 
ATOM      8  C   UNL A   1      31.437  24.809  24.094  1.00  0.00     0.033 A 
ATOM      9  C   UNL A   1      29.911  26.664  24.328  1.00  0.00     0.043 A 
ATOM     10  C   UNL A   1      32.100  25.434  23.031  1.00  0.00    -0.006 A 
ATOM     11  C   UNL A   1      33.208  24.692  22.336  1.00  0.00     0.048 C 
ATOM     12  C   UNL A   1      31.690  26.714  22.658  1.00  0.00     0.131 A 
BRANCH   7  13
ATOM     13  N   UNL A   1      29.885  24.669  25.863  1.00  0.00    -0.323 N 
ATOM     14  C   UNL A   1      30.383  23.767  26.752  1.00  0.00     0.262 C 
ATOM     15  O   UNL A   1      29.563  23.210  27.492  1.00  0.00    -0.271 OA
ATOM     16  H   UNL A   1      28.937  24.859  26.043  1.00  0.00     0.170 HD
BRANCH  14  17
ATOM     17  C   UNL A   1      31.873  23.531  26.956  1.00  0.00     0.329 C 
BRANCH  17  18
ATOM     18  O   UNL A   1      32.553  22.358  26.568  1.00  0.00    -0.484 OA
BRANCH  18  19
ATOM     19  C   UNL A   1      33.798  22.494  26.031  1.00  0.00     0.120 A 
ATOM     20  C   UNL A   1      36.533  23.074  25.690  1.00  0.00    -0.048 A 
ATOM     21  C   UNL A   1      35.597  24.097  25.752  1.00  0.00     0.007 A 
ATOM     22  C   UNL A   1      36.067  21.749  25.692  1.00  0.00     0.007 A 
ATOM     23  C   UNL A   1      34.255  23.792  25.924  1.00  0.00     0.047 A 
ATOM     24  C   UNL A   1      34.698  21.456  25.872  1.00  0.00     0.047 A 
BRANCH  20  25
ATOM     25  C   UNL A   1      38.000  23.433  25.680  1.00  0.00     0.032 C 
ATOM     26  C   UNL A   1      38.902  22.279  26.128  1.00  0.00     0.009 C 
ENDBRANCH  20  25
ENDBRANCH  18  19
ENDBRANCH  17  18
ENDBRANCH  14  17
ENDBRANCH   7  13
BRANCH  12  27
ATOM     27  O   UNL A   1      32.390  27.305  21.633  1.00  0.00    -0.507 OA
ATOM     28  H   UNL A   1      32.839  26.774  21.005  1.00  0.00     0.293 HD
ENDBRANCH  12  27
ENDBRANCH   3   6
ENDBRANCH   1   2
BRANCH   1  29
ATOM     29  C   UNL A   1      32.585  29.690  25.142  1.00  0.00     0.023 C 
BRANCH  29  30
ATOM     30  C   UNL A   1      33.032  28.457  25.947  1.00  0.00     0.023 C 
BRANCH  30  31
ATOM     31  C   UNL A   1      33.824  28.580  27.251  1.00  0.00     0.116 C 
BRANCH  31  32
ATOM     32  N   UNL A   1      33.929  29.914  27.840  1.00  0.00    -0.352 N 
ATOM     33  C   UNL A   1      34.977  30.584  28.432  1.00  0.00     0.251 C 
ATOM     34  H   UNL A   1      33.092  30.431  27.808  1.00  0.00     0.163 HD
ATOM     35  O   UNL A   1      34.812  31.703  28.917  1.00  0.00    -0.269 OA
BRANCH  33  36
ATOM     36  C   UNL A   1      36.316  29.979  28.495  1.00  0.00     0.039 A 
ATOM     37  C   UNL A   1      37.171  30.050  27.390  1.00  0.00     0.014 A 
ATOM     38  C   UNL A   1      36.725  29.329  29.657  1.00  0.00     0.014 A 
ATOM     39  C   UNL A   1      38.476  29.569  27.498  1.00  0.00     0.010 A 
ATOM     40  C   UNL A   1      38.052  28.975  29.809  1.00  0.00     0.010 A 
ATOM     41  C   UNL A   1      38.940  29.085  28.731  1.00  0.00    -0.014 A 
BRANCH  41  42
ATOM     42  C   UNL A   1      40.346  28.674  28.939  1.00  0.00     0.031 A 
ATOM     43  C   UNL A   1      41.337  29.671  29.473  1.00  0.00     0.074 A 
ATOM     44  C   UNL A   1      40.743  27.452  28.534  1.00  0.00     0.049 A 
ATOM     45  N   UNL A   1      42.634  29.564  29.596  1.00  0.00    -0.248 NA
ATOM     46  C   UNL A   1      40.803  30.984  29.876  1.00  0.00     0.031 C 
ATOM     47  C   UNL A   1      39.875  26.433  27.937  1.00  0.00     0.029 A 
ATOM     48  N   UNL A   1      41.981  26.866  28.545  1.00  0.00    -0.354 N 
ATOM     49  C   UNL A   1      43.068  30.798  30.065  1.00  0.00     0.074 A 
ATOM     50  C   UNL A   1      41.910  31.660  30.134  1.00  0.00     0.031 C 
ATOM     51  C   UNL A   1      40.601  25.338  27.668  1.00  0.00     0.029 A 
ATOM     52  C   UNL A   1      41.991  25.592  28.029  1.00  0.00     0.049 A 
ATOM     53  H   UNL A   1      42.786  27.314  28.889  1.00  0.00     0.167 HD
ATOM     54  C   UNL A   1      44.316  31.167  30.433  1.00  0.00     0.037 A 
ATOM     55  C   UNL A   1      43.013  24.733  27.862  1.00  0.00     0.037 A 
ATOM     56  C   UNL A   1      45.450  30.283  30.386  1.00  0.00     0.049 A 
ATOM     57  C   UNL A   1      44.388  25.161  28.292  1.00  0.00     0.074 A 
ATOM     58  C   UNL A   1      46.748  30.523  30.796  1.00  0.00     0.029 A 
ATOM     59  N   UNL A   1      45.415  28.986  29.896  1.00  0.00    -0.354 N 
ATOM     60  N   UNL A   1      44.775  26.305  28.806  1.00  0.00    -0.248 NA
ATOM     61  C   UNL A   1      45.468  24.181  28.126  1.00  0.00     0.031 C 
ATOM     62  C   UNL A   1      47.511  29.386  30.507  1.00  0.00     0.029 A 
ATOM     63  C   UNL A   1      46.675  28.418  29.971  1.00  0.00     0.049 A 
ATOM     64  H   UNL A   1      44.613  28.535  29.546  1.00  0.00     0.167 HD
ATOM     65  C   UNL A   1      46.135  26.172  29.051  1.00  0.00     0.074 A 
ATOM     66  C   UNL A   1      46.499  24.829  28.647  1.00  0.00     0.031 C 
ATOM     67  C   UNL A   1      47.006  27.076  29.563  1.00  0.00     0.037 A 
BRANCH  54  68
ATOM     68  C   UNL A   1      44.508  32.574  30.924  1.00  0.00     0.057 A 
ATOM     69  C   UNL A   1      44.373  32.913  32.278  1.00  0.00     0.134 A 
ATOM     70  C   UNL A   1      44.843  33.603  30.035  1.00  0.00     0.134 A 
ATOM     71  F   UNL A   1      44.038  31.980  33.182  1.00  0.00    -0.206 F 
ATOM     72  C   UNL A   1      44.533  34.225  32.724  1.00  0.00     0.040 A 
ATOM     73  C   UNL A   1      45.038  34.915  30.474  1.00  0.00     0.040 A 
ATOM     74  F   UNL A   1      44.991  33.352  28.725  1.00  0.00    -0.206 F 
ATOM     75  C   UNL A   1      44.874  35.230  31.821  1.00  0.00     0.006 A 
ENDBRANCH  54  68
BRANCH  55  76
ATOM     76  C   UNL A   1      42.769  23.380  27.298  1.00  0.00     0.057 A 
ATOM     77  C   UNL A   1      42.907  23.136  25.926  1.00  0.00     0.134 A 
ATOM     78  C   UNL A   1      42.398  22.301  28.108  1.00  0.00     0.134 A 
ATOM     79  F   UNL A   1      43.249  24.131  25.095  1.00  0.00    -0.206 F 
ATOM     80  C   UNL A   1      42.661  21.876  25.378  1.00  0.00     0.040 A 
ATOM     81  C   UNL A   1      42.176  21.028  27.577  1.00  0.00     0.040 A 
ATOM     82  F   UNL A   1      42.262  22.462  29.433  1.00  0.00    -0.206 F 
ATOM     83  C   UNL A   1      42.299  20.816  26.205  1.00  0.00     0.006 A 
ENDBRANCH  55  76
BRANCH  67  84
ATOM     84  C   UNL A   1      48.426  26.625  29.743  1.00  0.00     0.057 A 
ATOM     85  C   UNL A   1      49.411  26.881  28.781  1.00  0.00     0.134 A 
ATOM     86  C   UNL A   1      48.817  25.962  30.913  1.00  0.00     0.134 A 
ATOM     87  F   UNL A   1      49.097  27.502  27.633  1.00  0.00    -0.206 F 
ATOM     88  C   UNL A   1      50.730  26.465  28.963  1.00  0.00     0.040 A 
ATOM     89  C   UNL A   1      50.140  25.571  31.121  1.00  0.00     0.040 A 
ATOM     90  F   UNL A   1      47.924  25.698  31.878  1.00  0.00    -0.206 F 
ATOM     91  C   UNL A   1      51.099  25.815  30.140  1.00  0.00     0.006 A 
ENDBRANCH  67  84
ENDBRANCH  41  42
ENDBRANCH  33  36
ENDBRANCH  31  32
ENDBRANCH  30  31
ENDBRANCH  29  30
ENDBRANCH   1  29
TORSDOF 17
ENDMDL
MODEL 3
REMARK VINA RESULT:     -11.9      1.503      2.888
REMARK SMILES CCc1ccc(OCC(=O)Nc2cc(C)c(O)c(C(=O)NCCCCNC(=O)c3ccc(-c4c5nc(c(-c6c(F)cccc6F)c6ccc([nH]6)c(-c6c(F)cccc6F)c6nc(c(-c7c(F)cccc7F)c7ccc4[nH]7)C=C6)C=C5)cc3)c2)cc1
REMARK SMILES IDX 22 1 21 2 19 3 20 4 18 6 12 7 13 8 83 9 14 10 15 11 16 12
REMARK SMILES IDX 11 13 9 14 10 15 8 17 7 18 6 19 3 20 4 21 85 22 5 23 84 24
REMARK SMILES IDX 2 25 1 26 17 27 23 29 24 30 25 31 26 32 27 33 28 35 29 36
REMARK SMILES IDX 30 37 82 38 31 39 81 40 32 41 33 42 34 43 75 44 35 45 80 46
REMARK SMILES IDX 74 47 76 48 36 49 79 50 73 51 72 52 37 54 63 55 46 56 62 57
REMARK SMILES IDX 47 58 50 59 61 60 77 61 48 62 49 63 60 65 78 66 51 67 38 68
REMARK SMILES IDX 39 69 44 70 40 71 41 72 43 73 45 74 42 75 64 76 65 77 70 78
REMARK SMILES IDX 66 79 67 80 69 81 71 82 68 83 52 84 53 85 58 86 54 87 55 88
REMARK SMILES IDX 57 89 59 90 56 91
REMARK H PARENT 21 5 11 16 17 28 26 34 76 53 50 64
REMARK Flexibility Score: inf
ROOT
ATOM      1  C   UNL A   1      37.665  23.793  25.650  1.00  0.00     0.116 C 
ENDROOT
BRANCH   1   2
ATOM      2  N   UNL A   1      37.058  23.418  24.403  1.00  0.00    -0.352 N 
ATOM      3  C   UNL A   1      35.793  23.698  23.941  1.00  0.00     0.255 C 
ATOM      4  O   UNL A   1      35.488  23.263  22.827  1.00  0.00    -0.269 OA
ATOM      5  H   UNL A   1      37.625  22.891  23.797  1.00  0.00     0.163 HD
BRANCH   3   6
ATOM      6  C   UNL A   1      34.726  24.396  24.741  1.00  0.00     0.083 A 
ATOM      7  C   UNL A   1      33.602  26.362  25.666  1.00  0.00     0.042 A 
ATOM      8  C   UNL A   1      32.781  25.499  26.414  1.00  0.00     0.033 A 
ATOM      9  C   UNL A   1      34.540  25.802  24.789  1.00  0.00     0.043 A 
ATOM     10  C   UNL A   1      32.877  24.107  26.321  1.00  0.00    -0.006 A 
ATOM     11  C   UNL A   1      31.912  23.263  27.106  1.00  0.00     0.048 C 
ATOM     12  C   UNL A   1      33.859  23.566  25.490  1.00  0.00     0.131 A 
BRANCH   7  13
ATOM     13  N   UNL A   1      33.427  27.724  25.974  1.00  0.00    -0.323 N 
ATOM     14  C   UNL A   1      33.350  28.905  25.303  1.00  0.00     0.262 C 
ATOM     15  O   UNL A   1      33.368  29.934  25.990  1.00  0.00    -0.271 OA
ATOM     16  H   UNL A   1      33.335  27.860  26.944  1.00  0.00     0.170 HD
BRANCH  14  17
ATOM     17  C   UNL A   1      33.112  28.998  23.801  1.00  0.00     0.329 C 
BRANCH  17  18
ATOM     18  O   UNL A   1      31.846  28.893  23.189  1.00  0.00    -0.484 OA
BRANCH  18  19
ATOM     19  C   UNL A   1      31.294  27.652  23.081  1.00  0.00     0.120 A 
ATOM     20  C   UNL A   1      30.871  24.872  23.236  1.00  0.00    -0.048 A 
ATOM     21  C   UNL A   1      31.785  25.397  22.334  1.00  0.00     0.007 A 
ATOM     22  C   UNL A   1      30.091  25.768  23.985  1.00  0.00     0.007 A 
ATOM     23  C   UNL A   1      31.983  26.769  22.275  1.00  0.00     0.047 A 
ATOM     24  C   UNL A   1      30.307  27.160  23.916  1.00  0.00     0.047 A 
BRANCH  20  25
ATOM     25  C   UNL A   1      30.801  23.373  23.406  1.00  0.00     0.032 C 
ATOM     26  C   UNL A   1      31.934  22.635  22.687  1.00  0.00     0.009 C 
ENDBRANCH  20  25
ENDBRANCH  18  19
ENDBRANCH  17  18
ENDBRANCH  14  17
ENDBRANCH   7  13
BRANCH  12  27
ATOM     27  O   UNL A   1      33.941  22.194  25.453  1.00  0.00    -0.507 OA
ATOM     28  H   UNL A   1      33.955  21.704  26.252  1.00  0.00     0.293 HD
ENDBRANCH  12  27
ENDBRANCH   3   6
ENDBRANCH   1   2
BRANCH   1  29
ATOM     29  C   UNL A   1      38.637  22.790  26.261  1.00  0.00     0.023 C 
BRANCH  29  30
ATOM     30  C   UNL A   1      38.932  21.461  25.544  1.00  0.00     0.023 C 
BRANCH  30  31
ATOM     31  C   UNL A   1      39.172  20.158  26.312  1.00  0.00     0.116 C 
BRANCH  31  32
ATOM     32  N   UNL A   1      40.355  19.380  25.946  1.00  0.00    -0.352 N 
ATOM     33  C   UNL A   1      41.698  19.684  25.947  1.00  0.00     0.251 C 
ATOM     34  H   UNL A   1      40.153  18.466  25.641  1.00  0.00     0.163 HD
ATOM     35  O   UNL A   1      42.525  18.871  25.534  1.00  0.00    -0.269 OA
BRANCH  33  36
ATOM     36  C   UNL A   1      42.175  20.984  26.443  1.00  0.00     0.039 A 
ATOM     37  C   UNL A   1      42.604  21.964  25.541  1.00  0.00     0.014 A 
ATOM     38  C   UNL A   1      42.206  21.231  27.813  1.00  0.00     0.014 A 
ATOM     39  C   UNL A   1      42.950  23.230  26.016  1.00  0.00     0.010 A 
ATOM     40  C   UNL A   1      42.419  22.517  28.270  1.00  0.00     0.010 A 
ATOM     41  C   UNL A   1      42.800  23.529  27.378  1.00  0.00    -0.014 A 
BRANCH  41  42
ATOM     42  C   UNL A   1      43.036  24.885  27.920  1.00  0.00     0.031 A 
ATOM     43  C   UNL A   1      44.410  25.261  28.400  1.00  0.00     0.074 A 
ATOM     44  C   UNL A   1      41.991  25.719  28.088  1.00  0.00     0.049 A 
ATOM     45  N   UNL A   1      44.799  26.336  29.034  1.00  0.00    -0.248 NA
ATOM     46  C   UNL A   1      45.481  24.273  28.181  1.00  0.00     0.031 C 
ATOM     47  C   UNL A   1      40.603  25.424  27.721  1.00  0.00     0.029 A 
ATOM     48  N   UNL A   1      41.930  26.976  28.627  1.00  0.00    -0.354 N 
ATOM     49  C   UNL A   1      46.147  26.140  29.308  1.00  0.00     0.074 A 
ATOM     50  C   UNL A   1      46.491  24.817  28.839  1.00  0.00     0.031 C 
ATOM     51  C   UNL A   1      39.834  26.483  28.018  1.00  0.00     0.029 A 
ATOM     52  C   UNL A   1      40.663  27.510  28.636  1.00  0.00     0.049 A 
ATOM     53  H   UNL A   1      42.718  27.453  28.975  1.00  0.00     0.167 HD
ATOM     54  C   UNL A   1      47.025  27.000  29.874  1.00  0.00     0.037 A 
ATOM     55  C   UNL A   1      40.226  28.695  29.101  1.00  0.00     0.037 A 
ATOM     56  C   UNL A   1      46.670  28.325  30.306  1.00  0.00     0.049 A 
ATOM     57  C   UNL A   1      41.223  29.639  29.711  1.00  0.00     0.074 A 
ATOM     58  C   UNL A   1      47.486  29.310  30.829  1.00  0.00     0.029 A 
ATOM     59  N   UNL A   1      45.385  28.847  30.261  1.00  0.00    -0.354 N 
ATOM     60  N   UNL A   1      42.512  29.475  29.897  1.00  0.00    -0.248 NA
ATOM     61  C   UNL A   1      40.710  30.935  30.172  1.00  0.00     0.031 C 
ATOM     62  C   UNL A   1      46.686  30.412  31.150  1.00  0.00     0.029 A 
ATOM     63  C   UNL A   1      45.381  30.134  30.771  1.00  0.00     0.049 A 
ATOM     64  H   UNL A   1      44.594  28.374  29.919  1.00  0.00     0.167 HD
ATOM     65  C   UNL A   1      42.968  30.654  30.468  1.00  0.00     0.074 A 
ATOM     66  C   UNL A   1      41.821  31.532  30.579  1.00  0.00     0.031 C 
ATOM     67  C   UNL A   1      44.222  30.985  30.866  1.00  0.00     0.037 A 
BRANCH  54  68
ATOM     68  C   UNL A   1      48.444  26.534  30.042  1.00  0.00     0.057 A 
ATOM     69  C   UNL A   1      48.858  25.808  31.168  1.00  0.00     0.134 A 
ATOM     70  C   UNL A   1      49.407  26.802  29.061  1.00  0.00     0.134 A 
ATOM     71  F   UNL A   1      47.992  25.530  32.154  1.00  0.00    -0.206 F 
ATOM     72  C   UNL A   1      50.182  25.396  31.327  1.00  0.00     0.040 A 
ATOM     73  C   UNL A   1      50.727  26.366  29.194  1.00  0.00     0.040 A 
ATOM     74  F   UNL A   1      49.082  27.489  27.956  1.00  0.00    -0.206 F 
ATOM     75  C   UNL A   1      51.119  25.668  30.334  1.00  0.00     0.006 A 
ENDBRANCH  54  68
BRANCH  55  76
ATOM     76  C   UNL A   1      38.793  29.065  28.973  1.00  0.00     0.057 A 
ATOM     77  C   UNL A   1      37.928  28.985  30.071  1.00  0.00     0.134 A 
ATOM     78  C   UNL A   1      38.252  29.511  27.761  1.00  0.00     0.134 A 
ATOM     79  F   UNL A   1      38.381  28.554  31.257  1.00  0.00    -0.206 F 
ATOM     80  C   UNL A   1      36.574  29.309  29.963  1.00  0.00     0.040 A 
ATOM     81  C   UNL A   1      36.906  29.866  27.645  1.00  0.00     0.040 A 
ATOM     82  F   UNL A   1      39.029  29.625  26.673  1.00  0.00    -0.206 F 
ATOM     83  C   UNL A   1      36.061  29.757  28.747  1.00  0.00     0.006 A 
ENDBRANCH  55  76
BRANCH  67  84
ATOM     84  C   UNL A   1      44.416  32.364  31.426  1.00  0.00     0.057 A 
ATOM     85  C   UNL A   1      44.712  33.460  30.607  1.00  0.00     0.134 A 
ATOM     86  C   UNL A   1      44.264  32.600  32.798  1.00  0.00     0.134 A 
ATOM     87  F   UNL A   1      44.882  33.298  29.285  1.00  0.00    -0.206 F 
ATOM     88  C   UNL A   1      44.881  34.739  31.138  1.00  0.00     0.040 A 
ATOM     89  C   UNL A   1      44.398  33.880  33.336  1.00  0.00     0.040 A 
ATOM     90  F   UNL A   1      43.968  31.595  33.634  1.00  0.00    -0.206 F 
ATOM     91  C   UNL A   1      44.717  34.953  32.505  1.00  0.00     0.006 A 
ENDBRANCH  67  84
ENDBRANCH  41  42
ENDBRANCH  33  36
ENDBRANCH  31  32
ENDBRANCH  30  31
ENDBRANCH  29  30
ENDBRANCH   1  29
TORSDOF 17
ENDMDL
