MODEL 1
REMARK VINA RESULT:     -11.4      0.000      0.000
REMARK SMILES Cc1cc(NC(=O)CC(C)(C)CC(=O)NCCCCNC(=O)c2ccc(-c3c4nc(c(-c5c(F)cccc5F)c5ccc([nH]5)c(-c5c(F)cccc5F)c5nc(c(-c6c(F)cccc6F)c6ccc3[nH]6)C=C5)C=C4)cc2)ncc1Br
REMARK SMILES IDX 16 1 15 2 13 3 14 4 12 6 9 7 10 8 11 9 8 10 6 11 5 12 7 14
REMARK SMILES IDX 4 15 1 16 2 17 3 18 79 19 78 20 80 21 77 22 17 23 18 24
REMARK SMILES IDX 19 25 20 26 21 27 22 29 23 30 24 31 76 32 25 33 75 34 26 35
REMARK SMILES IDX 27 36 28 37 69 38 29 39 74 40 68 41 70 42 30 43 73 44 67 45
REMARK SMILES IDX 66 46 31 48 57 49 40 50 56 51 41 52 44 53 55 54 71 55 42 56
REMARK SMILES IDX 43 57 54 59 72 60 45 61 32 62 33 63 38 64 34 65 35 66 37 67
REMARK SMILES IDX 39 68 36 69 58 70 59 71 64 72 60 73 61 74 63 75 65 76 62 77
REMARK SMILES IDX 46 78 47 79 52 80 48 81 49 82 51 83 53 84 50 85
REMARK H PARENT 15 5 5 13 20 28 70 47 44 58
REMARK Flexibility Score: inf
ROOT
ATOM      1  C   UNL A   1      36.501  23.720  25.578  1.00  0.00     0.116 C 
ENDROOT
BRANCH   1   2
ATOM      2  N   UNL A   1      35.679  22.979  26.509  1.00  0.00    -0.356 N 
ATOM      3  C   UNL A   1      34.351  23.088  26.778  1.00  0.00     0.220 C 
ATOM      4  O   UNL A   1      33.899  22.409  27.700  1.00  0.00    -0.275 OA
ATOM      5  H   UNL A   1      36.155  22.291  27.029  1.00  0.00     0.163 HD
BRANCH   3   6
ATOM      6  C   UNL A   1      33.449  23.962  25.923  1.00  0.00     0.107 C 
BRANCH   6   7
ATOM      7  C   UNL A   1      32.613  23.317  24.780  1.00  0.00    -0.018 C 
ATOM      8  C   UNL A   1      33.344  21.993  24.447  1.00  0.00     0.012 C 
ATOM      9  C   UNL A   1      32.648  24.141  23.482  1.00  0.00     0.012 C 
BRANCH   7  10
ATOM     10  C   UNL A   1      31.112  23.154  25.179  1.00  0.00     0.107 C 
BRANCH  10  11
ATOM     11  C   UNL A   1      30.667  23.850  26.449  1.00  0.00     0.226 C 
ATOM     12  N   UNL A   1      30.305  25.163  26.459  1.00  0.00    -0.311 N 
ATOM     13  H   UNL A   1      30.007  25.506  27.333  1.00  0.00     0.171 HD
ATOM     14  O   UNL A   1      30.552  23.218  27.503  1.00  0.00    -0.275 OA
BRANCH  12  15
ATOM     15  C   UNL A   1      30.292  26.097  25.423  1.00  0.00     0.132 A 
ATOM     16  C   UNL A   1      32.128  29.335  24.735  1.00  0.00     0.046 C 
ATOM     17  C   UNL A   1      31.166  28.193  24.589  1.00  0.00    -0.032 A 
ATOM     18  C   UNL A   1      31.246  27.109  25.477  1.00  0.00     0.051 A 
ATOM     19  C   UNL A   1      30.161  28.179  23.620  1.00  0.00     0.039 A 
ATOM     20  C   UNL A   1      29.296  27.098  23.594  1.00  0.00     0.129 A 
ATOM     21  Br  UNL A   1      29.907  29.578  22.373  1.00  0.00    -0.049 Br
ATOM     22  N   UNL A   1      29.340  26.072  24.478  1.00  0.00    -0.238 NA
ENDBRANCH  12  15
ENDBRANCH  10  11
ENDBRANCH   7  10
ENDBRANCH   6   7
ENDBRANCH   3   6
ENDBRANCH   1   2
BRANCH   1  23
ATOM     23  C   UNL A   1      37.067  22.785  24.509  1.00  0.00     0.023 C 
BRANCH  23  24
ATOM     24  C   UNL A   1      37.491  21.417  25.018  1.00  0.00     0.023 C 
BRANCH  24  25
ATOM     25  C   UNL A   1      38.814  21.410  25.755  1.00  0.00     0.116 C 
BRANCH  25  26
ATOM     26  N   UNL A   1      39.537  20.146  25.660  1.00  0.00    -0.352 N 
ATOM     27  C   UNL A   1      40.850  19.910  25.999  1.00  0.00     0.251 C 
ATOM     28  H   UNL A   1      39.028  19.377  25.316  1.00  0.00     0.163 HD
ATOM     29  O   UNL A   1      41.378  18.822  25.807  1.00  0.00    -0.269 OA
BRANCH  27  30
ATOM     30  C   UNL A   1      41.621  21.040  26.552  1.00  0.00     0.039 A 
ATOM     31  C   UNL A   1      41.616  21.252  27.933  1.00  0.00     0.014 A 
ATOM     32  C   UNL A   1      42.163  21.984  25.680  1.00  0.00     0.014 A 
ATOM     33  C   UNL A   1      41.961  22.502  28.420  1.00  0.00     0.010 A 
ATOM     34  C   UNL A   1      42.616  23.201  26.192  1.00  0.00     0.010 A 
ATOM     35  C   UNL A   1      42.462  23.493  27.558  1.00  0.00    -0.014 A 
BRANCH  35  36
ATOM     36  C   UNL A   1      42.802  24.827  28.110  1.00  0.00     0.031 A 
ATOM     37  C   UNL A   1      41.735  25.859  28.368  1.00  0.00     0.074 A 
ATOM     38  C   UNL A   1      44.082  25.085  28.437  1.00  0.00     0.049 A 
ATOM     39  N   UNL A   1      41.866  27.090  28.797  1.00  0.00    -0.248 NA
ATOM     40  C   UNL A   1      40.342  25.465  28.104  1.00  0.00     0.031 C 
ATOM     41  C   UNL A   1      45.201  24.154  28.260  1.00  0.00     0.029 A 
ATOM     42  N   UNL A   1      44.657  26.188  29.011  1.00  0.00    -0.354 N 
ATOM     43  C   UNL A   1      40.585  27.627  28.818  1.00  0.00     0.074 A 
ATOM     44  C   UNL A   1      39.687  26.592  28.349  1.00  0.00     0.031 C 
ATOM     45  C   UNL A   1      46.311  24.698  28.777  1.00  0.00     0.029 A 
ATOM     46  C   UNL A   1      46.003  26.046  29.236  1.00  0.00     0.049 A 
ATOM     47  H   UNL A   1      44.153  27.001  29.242  1.00  0.00     0.167 HD
ATOM     48  C   UNL A   1      40.194  28.867  29.197  1.00  0.00     0.037 A 
ATOM     49  C   UNL A   1      46.902  26.916  29.728  1.00  0.00     0.037 A 
ATOM     50  C   UNL A   1      41.087  29.880  29.700  1.00  0.00     0.049 A 
ATOM     51  C   UNL A   1      46.449  28.294  30.101  1.00  0.00     0.074 A 
ATOM     52  C   UNL A   1      40.788  31.163  30.130  1.00  0.00     0.029 A 
ATOM     53  N   UNL A   1      42.457  29.720  29.850  1.00  0.00    -0.354 N 
ATOM     54  N   UNL A   1      45.240  28.798  30.081  1.00  0.00    -0.248 NA
ATOM     55  C   UNL A   1      47.490  29.231  30.540  1.00  0.00     0.031 C 
ATOM     56  C   UNL A   1      41.981  31.788  30.509  1.00  0.00     0.029 A 
ATOM     57  C   UNL A   1      43.018  30.884  30.347  1.00  0.00     0.049 A 
ATOM     58  H   UNL A   1      42.956  28.899  29.634  1.00  0.00     0.167 HD
ATOM     59  C   UNL A   1      45.372  30.113  30.501  1.00  0.00     0.074 A 
ATOM     60  C   UNL A   1      46.776  30.318  30.797  1.00  0.00     0.031 C 
ATOM     61  C   UNL A   1      44.420  31.069  30.621  1.00  0.00     0.037 A 
BRANCH  48  62
ATOM     62  C   UNL A   1      38.739  29.212  29.057  1.00  0.00     0.057 A 
ATOM     63  C   UNL A   1      37.877  29.119  30.158  1.00  0.00     0.134 A 
ATOM     64  C   UNL A   1      38.181  29.597  27.832  1.00  0.00     0.134 A 
ATOM     65  F   UNL A   1      38.346  28.750  31.360  1.00  0.00    -0.206 F 
ATOM     66  C   UNL A   1      36.513  29.395  30.045  1.00  0.00     0.040 A 
ATOM     67  C   UNL A   1      36.821  29.895  27.711  1.00  0.00     0.040 A 
ATOM     68  F   UNL A   1      38.953  29.718  26.741  1.00  0.00    -0.206 F 
ATOM     69  C   UNL A   1      35.983  29.788  28.819  1.00  0.00     0.006 A 
ENDBRANCH  48  62
BRANCH  49  70
ATOM     70  C   UNL A   1      48.323  26.514  29.853  1.00  0.00     0.057 A 
ATOM     71  C   UNL A   1      48.794  25.851  30.993  1.00  0.00     0.134 A 
ATOM     72  C   UNL A   1      49.246  26.803  28.843  1.00  0.00     0.134 A 
ATOM     73  F   UNL A   1      47.957  25.554  31.998  1.00  0.00    -0.206 F 
ATOM     74  C   UNL A   1      50.138  25.505  31.133  1.00  0.00     0.040 A 
ATOM     75  C   UNL A   1      50.589  26.439  28.958  1.00  0.00     0.040 A 
ATOM     76  F   UNL A   1      48.849  27.421  27.721  1.00  0.00    -0.206 F 
ATOM     77  C   UNL A   1      51.038  25.794  30.110  1.00  0.00     0.006 A 
ENDBRANCH  49  70
BRANCH  61  78
ATOM     78  C   UNL A   1      44.879  32.412  31.097  1.00  0.00     0.057 A 
ATOM     79  C   UNL A   1      44.938  32.707  32.465  1.00  0.00     0.134 A 
ATOM     80  C   UNL A   1      45.265  33.414  30.198  1.00  0.00     0.134 A 
ATOM     81  F   UNL A   1      44.580  31.788  33.375  1.00  0.00    -0.206 F 
ATOM     82  C   UNL A   1      45.369  33.951  32.921  1.00  0.00     0.040 A 
ATOM     83  C   UNL A   1      45.716  34.656  30.644  1.00  0.00     0.040 A 
ATOM     84  F   UNL A   1      45.247  33.184  28.877  1.00  0.00    -0.206 F 
ATOM     85  C   UNL A   1      45.767  34.928  32.010  1.00  0.00     0.006 A 
ENDBRANCH  61  78
ENDBRANCH  35  36
ENDBRANCH  27  30
ENDBRANCH  25  26
ENDBRANCH  24  25
ENDBRANCH  23  24
ENDBRANCH   1  23
TORSDOF 15
ENDMDL
MODEL 2
REMARK VINA RESULT:     -11.4      0.388      6.351
REMARK SMILES Cc1cc(NC(=O)CC(C)(C)CC(=O)NCCCCNC(=O)c2ccc(-c3c4nc(c(-c5c(F)cccc5F)c5ccc([nH]5)c(-c5c(F)cccc5F)c5nc(c(-c6c(F)cccc6F)c6ccc3[nH]6)C=C5)C=C4)cc2)ncc1Br
REMARK SMILES IDX 16 1 15 2 13 3 14 4 12 6 9 7 10 8 11 9 8 10 6 11 5 12 7 14
REMARK SMILES IDX 4 15 1 16 2 17 3 18 79 19 78 20 80 21 77 22 17 23 18 24
REMARK SMILES IDX 19 25 20 26 21 27 22 29 23 30 24 31 76 32 25 33 75 34 26 35
REMARK SMILES IDX 27 36 28 37 69 38 29 39 74 40 68 41 70 42 30 43 73 44 67 45
REMARK SMILES IDX 66 46 31 48 57 49 40 50 56 51 41 52 44 53 55 54 71 55 42 56
REMARK SMILES IDX 43 57 54 59 72 60 45 61 32 62 33 63 38 64 34 65 35 66 37 67
REMARK SMILES IDX 39 68 36 69 58 70 59 71 64 72 60 73 61 74 63 75 65 76 62 77
REMARK SMILES IDX 46 78 47 79 52 80 48 81 49 82 51 83 53 84 50 85
REMARK H PARENT 15 5 5 13 20 28 70 47 44 58
REMARK Flexibility Score: inf
ROOT
ATOM      1  C   UNL A   1      36.375  23.354  25.784  1.00  0.00     0.116 C 
ENDROOT
BRANCH   1   2
ATOM      2  N   UNL A   1      35.599  22.427  26.578  1.00  0.00    -0.356 N 
ATOM      3  C   UNL A   1      34.287  22.465  26.930  1.00  0.00     0.220 C 
ATOM      4  O   UNL A   1      33.881  21.603  27.709  1.00  0.00    -0.275 OA
ATOM      5  H   UNL A   1      36.099  21.648  26.915  1.00  0.00     0.163 HD
BRANCH   3   6
ATOM      6  C   UNL A   1      33.345  23.493  26.326  1.00  0.00     0.107 C 
BRANCH   6   7
ATOM      7  C   UNL A   1      32.590  23.162  25.006  1.00  0.00    -0.018 C 
ATOM      8  C   UNL A   1      33.184  21.813  24.533  1.00  0.00     0.012 C 
ATOM      9  C   UNL A   1      32.900  24.163  23.879  1.00  0.00     0.012 C 
BRANCH   7  10
ATOM     10  C   UNL A   1      31.042  23.164  25.207  1.00  0.00     0.107 C 
BRANCH  10  11
ATOM     11  C   UNL A   1      30.518  23.849  26.452  1.00  0.00     0.226 C 
ATOM     12  N   UNL A   1      30.149  25.160  26.448  1.00  0.00    -0.311 N 
ATOM     13  H   UNL A   1      29.798  25.496  27.304  1.00  0.00     0.171 HD
ATOM     14  O   UNL A   1      30.344  23.210  27.494  1.00  0.00    -0.275 OA
BRANCH  12  15
ATOM     15  C   UNL A   1      30.193  26.101  25.419  1.00  0.00     0.132 A 
ATOM     16  C   UNL A   1      32.070  29.338  24.849  1.00  0.00     0.046 C 
ATOM     17  C   UNL A   1      31.115  28.200  24.645  1.00  0.00    -0.032 A 
ATOM     18  C   UNL A   1      31.145  27.110  25.530  1.00  0.00     0.051 A 
ATOM     19  C   UNL A   1      30.162  28.193  23.624  1.00  0.00     0.039 A 
ATOM     20  C   UNL A   1      29.297  27.115  23.545  1.00  0.00     0.129 A 
ATOM     21  Br  UNL A   1      29.978  29.601  22.374  1.00  0.00    -0.049 Br
ATOM     22  N   UNL A   1      29.292  26.084  24.424  1.00  0.00    -0.238 NA
ENDBRANCH  12  15
ENDBRANCH  10  11
ENDBRANCH   7  10
ENDBRANCH   6   7
ENDBRANCH   3   6
ENDBRANCH   1   2
BRANCH   1  23
ATOM     23  C   UNL A   1      37.077  22.619  24.642  1.00  0.00     0.023 C 
BRANCH  23  24
ATOM     24  C   UNL A   1      37.606  21.239  25.002  1.00  0.00     0.023 C 
BRANCH  24  25
ATOM     25  C   UNL A   1      38.909  21.254  25.772  1.00  0.00     0.116 C 
BRANCH  25  26
ATOM     26  N   UNL A   1      39.673  20.016  25.665  1.00  0.00    -0.352 N 
ATOM     27  C   UNL A   1      40.992  19.817  26.007  1.00  0.00     0.251 C 
ATOM     28  H   UNL A   1      39.190  19.234  25.310  1.00  0.00     0.163 HD
ATOM     29  O   UNL A   1      41.555  18.750  25.803  1.00  0.00    -0.269 OA
BRANCH  27  30
ATOM     30  C   UNL A   1      41.724  20.966  26.575  1.00  0.00     0.039 A 
ATOM     31  C   UNL A   1      41.706  21.162  27.958  1.00  0.00     0.014 A 
ATOM     32  C   UNL A   1      42.240  21.936  25.716  1.00  0.00     0.014 A 
ATOM     33  C   UNL A   1      42.009  22.417  28.460  1.00  0.00     0.010 A 
ATOM     34  C   UNL A   1      42.652  23.160  26.244  1.00  0.00     0.010 A 
ATOM     35  C   UNL A   1      42.482  23.432  27.612  1.00  0.00    -0.014 A 
BRANCH  35  36
ATOM     36  C   UNL A   1      42.777  24.771  28.180  1.00  0.00     0.031 A 
ATOM     37  C   UNL A   1      44.186  25.178  28.524  1.00  0.00     0.074 A 
ATOM     38  C   UNL A   1      41.766  25.647  28.331  1.00  0.00     0.049 A 
ATOM     39  N   UNL A   1      44.612  26.287  29.075  1.00  0.00    -0.248 NA
ATOM     40  C   UNL A   1      45.257  24.216  28.216  1.00  0.00     0.031 C 
ATOM     41  C   UNL A   1      40.362  25.377  28.007  1.00  0.00     0.029 A 
ATOM     42  N   UNL A   1      41.763  26.946  28.765  1.00  0.00    -0.354 N 
ATOM     43  C   UNL A   1      45.987  26.142  29.216  1.00  0.00     0.074 A 
ATOM     44  C   UNL A   1      46.327  24.833  28.700  1.00  0.00     0.031 C 
ATOM     45  C   UNL A   1      39.647  26.495  28.190  1.00  0.00     0.029 A 
ATOM     46  C   UNL A   1      40.521  27.530  28.728  1.00  0.00     0.049 A 
ATOM     47  H   UNL A   1      42.572  27.416  29.071  1.00  0.00     0.167 HD
ATOM     48  C   UNL A   1      46.882  27.023  29.725  1.00  0.00     0.037 A 
ATOM     49  C   UNL A   1      40.120  28.752  29.115  1.00  0.00     0.037 A 
ATOM     50  C   UNL A   1      46.543  28.340  30.200  1.00  0.00     0.049 A 
ATOM     51  C   UNL A   1      41.124  29.690  29.712  1.00  0.00     0.074 A 
ATOM     52  C   UNL A   1      47.379  29.316  30.716  1.00  0.00     0.029 A 
ATOM     53  N   UNL A   1      45.261  28.870  30.208  1.00  0.00    -0.354 N 
ATOM     54  N   UNL A   1      42.414  29.525  29.871  1.00  0.00    -0.248 NA
ATOM     55  C   UNL A   1      40.611  30.974  30.205  1.00  0.00     0.031 C 
ATOM     56  C   UNL A   1      46.598  30.423  31.065  1.00  0.00     0.029 A 
ATOM     57  C   UNL A   1      45.280  30.150  30.736  1.00  0.00     0.049 A 
ATOM     58  H   UNL A   1      44.456  28.404  29.886  1.00  0.00     0.167 HD
ATOM     59  C   UNL A   1      42.869  30.681  30.487  1.00  0.00     0.074 A 
ATOM     60  C   UNL A   1      41.720  31.551  30.644  1.00  0.00     0.031 C 
ATOM     61  C   UNL A   1      44.123  30.992  30.895  1.00  0.00     0.037 A 
BRANCH  48  62
ATOM     62  C   UNL A   1      48.314  26.582  29.821  1.00  0.00     0.057 A 
ATOM     63  C   UNL A   1      49.219  26.876  28.792  1.00  0.00     0.134 A 
ATOM     64  C   UNL A   1      48.791  25.836  30.906  1.00  0.00     0.134 A 
ATOM     65  F   UNL A   1      48.827  27.582  27.721  1.00  0.00    -0.206 F 
ATOM     66  C   UNL A   1      50.546  26.443  28.839  1.00  0.00     0.040 A 
ATOM     67  C   UNL A   1      50.121  25.414  30.974  1.00  0.00     0.040 A 
ATOM     68  F   UNL A   1      47.980  25.531  31.930  1.00  0.00    -0.206 F 
ATOM     69  C   UNL A   1      51.001  25.713  29.935  1.00  0.00     0.006 A 
ENDBRANCH  48  62
BRANCH  49  70
ATOM     70  C   UNL A   1      38.694  29.135  28.984  1.00  0.00     0.057 A 
ATOM     71  C   UNL A   1      38.171  29.589  27.767  1.00  0.00     0.134 A 
ATOM     72  C   UNL A   1      37.828  29.073  30.081  1.00  0.00     0.134 A 
ATOM     73  F   UNL A   1      38.955  29.677  26.684  1.00  0.00    -0.206 F 
ATOM     74  C   UNL A   1      36.839  29.987  27.649  1.00  0.00     0.040 A 
ATOM     75  C   UNL A   1      36.486  29.443  29.970  1.00  0.00     0.040 A 
ATOM     76  F   UNL A   1      38.269  28.629  31.267  1.00  0.00    -0.206 F 
ATOM     77  C   UNL A   1      35.992  29.908  28.752  1.00  0.00     0.006 A 
ENDBRANCH  49  70
BRANCH  61  78
ATOM     78  C   UNL A   1      44.302  32.329  31.544  1.00  0.00     0.057 A 
ATOM     79  C   UNL A   1      44.579  33.467  30.776  1.00  0.00     0.134 A 
ATOM     80  C   UNL A   1      44.196  32.489  32.931  1.00  0.00     0.134 A 
ATOM     81  F   UNL A   1      44.694  33.377  29.442  1.00  0.00    -0.206 F 
ATOM     82  C   UNL A   1      44.742  34.719  31.367  1.00  0.00     0.040 A 
ATOM     83  C   UNL A   1      44.337  33.740  33.531  1.00  0.00     0.040 A 
ATOM     84  F   UNL A   1      43.912  31.439  33.716  1.00  0.00    -0.206 F 
ATOM     85  C   UNL A   1      44.614  34.859  32.748  1.00  0.00     0.006 A 
ENDBRANCH  61  78
ENDBRANCH  35  36
ENDBRANCH  27  30
ENDBRANCH  25  26
ENDBRANCH  24  25
ENDBRANCH  23  24
ENDBRANCH   1  23
TORSDOF 15
ENDMDL
MODEL 3
REMARK VINA RESULT:     -11.1      0.667      6.244
REMARK SMILES Cc1cc(NC(=O)CC(C)(C)CC(=O)NCCCCNC(=O)c2ccc(-c3c4nc(c(-c5c(F)cccc5F)c5ccc([nH]5)c(-c5c(F)cccc5F)c5nc(c(-c6c(F)cccc6F)c6ccc3[nH]6)C=C5)C=C4)cc2)ncc1Br
REMARK SMILES IDX 16 1 15 2 13 3 14 4 12 6 9 7 10 8 11 9 8 10 6 11 5 12 7 14
REMARK SMILES IDX 4 15 1 16 2 17 3 18 79 19 78 20 80 21 77 22 17 23 18 24
REMARK SMILES IDX 19 25 20 26 21 27 22 29 23 30 24 31 76 32 25 33 75 34 26 35
REMARK SMILES IDX 27 36 28 37 69 38 29 39 74 40 68 41 70 42 30 43 73 44 67 45
REMARK SMILES IDX 66 46 31 48 57 49 40 50 56 51 41 52 44 53 55 54 71 55 42 56
REMARK SMILES IDX 43 57 54 59 72 60 45 61 32 62 33 63 38 64 34 65 35 66 37 67
REMARK SMILES IDX 39 68 36 69 58 70 59 71 64 72 60 73 61 74 63 75 65 76 62 77
REMARK SMILES IDX 46 78 47 79 52 80 48 81 49 82 51 83 53 84 50 85
REMARK H PARENT 15 5 5 13 20 28 70 47 44 58
REMARK Flexibility Score: inf
ROOT
ATOM      1  C   UNL A   1      35.760  20.970  25.540  1.00  0.00     0.116 C 
ENDROOT
BRANCH   1   2
ATOM      2  N   UNL A   1      35.051  21.270  26.764  1.00  0.00    -0.356 N 
ATOM      3  C   UNL A   1      33.753  21.623  26.956  1.00  0.00     0.220 C 
ATOM      4  O   UNL A   1      33.410  21.933  28.098  1.00  0.00    -0.275 OA
ATOM      5  H   UNL A   1      35.592  21.208  27.585  1.00  0.00     0.163 HD
BRANCH   3   6
ATOM      6  C   UNL A   1      32.750  21.567  25.816  1.00  0.00     0.107 C 
BRANCH   6   7
ATOM      7  C   UNL A   1      32.459  22.851  24.985  1.00  0.00    -0.018 C 
ATOM      8  C   UNL A   1      32.948  22.520  23.554  1.00  0.00     0.012 C 
ATOM      9  C   UNL A   1      33.302  24.054  25.439  1.00  0.00     0.012 C 
BRANCH   7  10
ATOM     10  C   UNL A   1      30.960  23.279  25.084  1.00  0.00     0.107 C 
BRANCH  10  11
ATOM     11  C   UNL A   1      30.545  24.015  26.341  1.00  0.00     0.226 C 
ATOM     12  N   UNL A   1      30.217  25.338  26.322  1.00  0.00    -0.311 N 
ATOM     13  H   UNL A   1      29.936  25.709  27.190  1.00  0.00     0.171 HD
ATOM     14  O   UNL A   1      30.422  23.412  27.411  1.00  0.00    -0.275 OA
BRANCH  12  15
ATOM     15  C   UNL A   1      30.220  26.247  25.265  1.00  0.00     0.132 A 
ATOM     16  C   UNL A   1      32.326  29.255  24.345  1.00  0.00     0.046 C 
ATOM     17  C   UNL A   1      31.240  28.220  24.306  1.00  0.00    -0.032 A 
ATOM     18  C   UNL A   1      31.277  27.152  25.216  1.00  0.00     0.051 A 
ATOM     19  C   UNL A   1      30.164  28.294  23.419  1.00  0.00     0.039 A 
ATOM     20  C   UNL A   1      29.191  27.312  23.490  1.00  0.00     0.129 A 
ATOM     21  Br  UNL A   1      29.961  29.688  22.157  1.00  0.00    -0.049 Br
ATOM     22  N   UNL A   1      29.198  26.306  24.397  1.00  0.00    -0.238 NA
ENDBRANCH  12  15
ENDBRANCH  10  11
ENDBRANCH   7  10
ENDBRANCH   6   7
ENDBRANCH   3   6
ENDBRANCH   1   2
BRANCH   1  23
ATOM     23  C   UNL A   1      36.904  21.961  25.331  1.00  0.00     0.023 C 
BRANCH  23  24
ATOM     24  C   UNL A   1      38.229  21.330  24.934  1.00  0.00     0.023 C 
BRANCH  24  25
ATOM     25  C   UNL A   1      39.156  21.046  26.098  1.00  0.00     0.116 C 
BRANCH  25  26
ATOM     26  N   UNL A   1      39.960  19.840  25.931  1.00  0.00    -0.352 N 
ATOM     27  C   UNL A   1      41.314  19.706  26.145  1.00  0.00     0.251 C 
ATOM     28  H   UNL A   1      39.482  19.033  25.633  1.00  0.00     0.163 HD
ATOM     29  O   UNL A   1      41.903  18.661  25.899  1.00  0.00    -0.269 OA
BRANCH  27  30
ATOM     30  C   UNL A   1      42.045  20.894  26.626  1.00  0.00     0.039 A 
ATOM     31  C   UNL A   1      42.072  21.162  27.996  1.00  0.00     0.014 A 
ATOM     32  C   UNL A   1      42.514  21.825  25.700  1.00  0.00     0.014 A 
ATOM     33  C   UNL A   1      42.370  22.446  28.422  1.00  0.00     0.010 A 
ATOM     34  C   UNL A   1      42.922  23.082  26.148  1.00  0.00     0.010 A 
ATOM     35  C   UNL A   1      42.795  23.423  27.505  1.00  0.00    -0.014 A 
BRANCH  35  36
ATOM     36  C   UNL A   1      43.086  24.794  27.992  1.00  0.00     0.031 A 
ATOM     37  C   UNL A   1      44.503  25.265  28.195  1.00  0.00     0.074 A 
ATOM     38  C   UNL A   1      42.059  25.640  28.196  1.00  0.00     0.049 A 
ATOM     39  N   UNL A   1      44.931  26.410  28.663  1.00  0.00    -0.248 NA
ATOM     40  C   UNL A   1      45.579  24.328  27.834  1.00  0.00     0.031 C 
ATOM     41  C   UNL A   1      40.644  25.308  28.007  1.00  0.00     0.029 A 
ATOM     42  N   UNL A   1      42.043  26.956  28.577  1.00  0.00    -0.354 N 
ATOM     43  C   UNL A   1      46.317  26.320  28.689  1.00  0.00     0.074 A 
ATOM     44  C   UNL A   1      46.662  25.002  28.199  1.00  0.00     0.031 C 
ATOM     45  C   UNL A   1      39.904  26.407  28.207  1.00  0.00     0.029 A 
ATOM     46  C   UNL A   1      40.781  27.493  28.625  1.00  0.00     0.049 A 
ATOM     47  H   UNL A   1      42.857  27.466  28.792  1.00  0.00     0.167 HD
ATOM     48  C   UNL A   1      47.218  27.252  29.083  1.00  0.00     0.037 A 
ATOM     49  C   UNL A   1      40.367  28.717  28.998  1.00  0.00     0.037 A 
ATOM     50  C   UNL A   1      46.871  28.576  29.534  1.00  0.00     0.049 A 
ATOM     51  C   UNL A   1      41.382  29.714  29.467  1.00  0.00     0.074 A 
ATOM     52  C   UNL A   1      47.710  29.602  29.936  1.00  0.00     0.029 A 
ATOM     53  N   UNL A   1      45.575  29.060  29.632  1.00  0.00    -0.354 N 
ATOM     54  N   UNL A   1      42.687  29.601  29.520  1.00  0.00    -0.248 NA
ATOM     55  C   UNL A   1      40.864  30.998  29.952  1.00  0.00     0.031 C 
ATOM     56  C   UNL A   1      46.920  30.694  30.308  1.00  0.00     0.029 A 
ATOM     57  C   UNL A   1      45.590  30.361  30.106  1.00  0.00     0.049 A 
ATOM     58  H   UNL A   1      44.764  28.553  29.400  1.00  0.00     0.167 HD
ATOM     59  C   UNL A   1      43.148  30.797  30.047  1.00  0.00     0.074 A 
ATOM     60  C   UNL A   1      41.984  31.632  30.269  1.00  0.00     0.031 C 
ATOM     61  C   UNL A   1      44.419  31.168  30.332  1.00  0.00     0.037 A 
BRANCH  48  62
ATOM     62  C   UNL A   1      48.669  26.866  29.071  1.00  0.00     0.057 A 
ATOM     63  C   UNL A   1      49.444  27.044  27.917  1.00  0.00     0.134 A 
ATOM     64  C   UNL A   1      49.292  26.285  30.183  1.00  0.00     0.134 A 
ATOM     65  F   UNL A   1      48.907  27.589  26.815  1.00  0.00    -0.206 F 
ATOM     66  C   UNL A   1      50.784  26.656  27.868  1.00  0.00     0.040 A 
ATOM     67  C   UNL A   1      50.639  25.911  30.152  1.00  0.00     0.040 A 
ATOM     68  F   UNL A   1      48.612  26.098  31.324  1.00  0.00    -0.206 F 
ATOM     69  C   UNL A   1      51.386  26.092  28.989  1.00  0.00     0.006 A 
ENDBRANCH  48  62
BRANCH  49  70
ATOM     70  C   UNL A   1      38.922  29.043  28.976  1.00  0.00     0.057 A 
ATOM     71  C   UNL A   1      38.126  28.897  30.119  1.00  0.00     0.134 A 
ATOM     72  C   UNL A   1      38.301  29.490  27.806  1.00  0.00     0.134 A 
ATOM     73  F   UNL A   1      38.663  28.465  31.269  1.00  0.00    -0.206 F 
ATOM     74  C   UNL A   1      36.757  29.166  30.093  1.00  0.00     0.040 A 
ATOM     75  C   UNL A   1      36.938  29.789  27.773  1.00  0.00     0.040 A 
ATOM     76  F   UNL A   1      39.017  29.666  26.685  1.00  0.00    -0.206 F 
ATOM     77  C   UNL A   1      36.162  29.619  28.919  1.00  0.00     0.006 A 
ENDBRANCH  49  70
BRANCH  61  78
ATOM     78  C   UNL A   1      44.601  32.538  30.909  1.00  0.00     0.057 A 
ATOM     79  C   UNL A   1      44.615  32.736  32.295  1.00  0.00     0.134 A 
ATOM     80  C   UNL A   1      44.765  33.661  30.088  1.00  0.00     0.134 A 
ATOM     81  F   UNL A   1      44.461  31.699  33.132  1.00  0.00    -0.206 F 
ATOM     82  C   UNL A   1      44.789  34.005  32.845  1.00  0.00     0.040 A 
ATOM     83  C   UNL A   1      44.961  34.932  30.628  1.00  0.00     0.040 A 
ATOM     84  F   UNL A   1      44.780  33.531  28.754  1.00  0.00    -0.206 F 
ATOM     85  C   UNL A   1      44.970  35.107  32.010  1.00  0.00     0.006 A 
ENDBRANCH  61  78
ENDBRANCH  35  36
ENDBRANCH  27  30
ENDBRANCH  25  26
ENDBRANCH  24  25
ENDBRANCH  23  24
ENDBRANCH   1  23
TORSDOF 15
ENDMDL
