MODEL 1
REMARK VINA RESULT:     -12.2      0.000      0.000
REMARK SMILES O=C(CC[NH+]1CCC(n2nccc2NC(=O)c2ccccc2Cl)CC1)NCCCCNC(=O)c1ccc(-c2c3nc(c(-c4c(F)cccc4F)c4ccc([nH]4)c(-c4c(F)cccc4F)c4nc(c(-c5c(F)cccc5F)c5ccc2[nH]5)C=C4)C=C3)cc1
REMARK SMILES IDX 27 1 26 2 1 3 2 4 3 6 4 7 5 8 6 9 25 10 7 12 24 13 8 14 9 15
REMARK SMILES IDX 10 16 13 17 11 18 12 19 14 20 15 21 16 23 17 24 18 25 22 26
REMARK SMILES IDX 19 27 21 28 23 29 20 30 28 31 29 32 30 33 31 34 32 35 33 37
REMARK SMILES IDX 34 38 35 39 87 40 36 41 86 42 37 43 38 44 39 45 80 46 40 47
REMARK SMILES IDX 85 48 79 49 81 50 41 51 84 52 78 53 77 54 42 56 68 57 51 58
REMARK SMILES IDX 67 59 52 60 55 61 66 62 82 63 53 64 54 65 65 67 83 68 56 69
REMARK SMILES IDX 43 70 44 71 49 72 45 73 46 74 48 75 50 76 47 77 69 78 70 79
REMARK SMILES IDX 75 80 71 81 72 82 74 83 76 84 73 85 57 86 58 87 63 88 59 89
REMARK SMILES IDX 60 90 62 91 64 92 61 93
REMARK H PARENT 26 5 5 11 14 22 31 36 81 55 55 66
REMARK Flexibility Score: inf
ROOT
ATOM      1  C   UNL A   1      40.506  21.864  26.331  1.00  0.00     0.116 C 
ENDROOT
BRANCH   1   2
ATOM      2  N   UNL A   1      39.153  22.387  26.545  1.00  0.00    -0.356 N 
ATOM      3  O   UNL A   1      38.193  21.150  24.860  1.00  0.00    -0.275 OA
ATOM      4  C   UNL A   1      38.071  21.929  25.800  1.00  0.00     0.225 C 
ATOM      5  H   UNL A   1      39.007  23.077  27.231  1.00  0.00     0.163 HD
BRANCH   4   6
ATOM      6  C   UNL A   1      36.694  22.424  26.235  1.00  0.00     0.161 C 
BRANCH   6   7
ATOM      7  C   UNL A   1      35.527  21.446  25.982  1.00  0.00     0.272 C 
BRANCH   7   8
ATOM      8  N   UNL A   1      34.175  22.008  25.791  1.00  0.00    -0.334 N 
ATOM      9  C   UNL A   1      33.734  22.689  26.999  1.00  0.00     0.264 C 
ATOM     10  C   UNL A   1      33.982  22.626  24.484  1.00  0.00     0.264 C 
ATOM     11  H   UNL A   1      33.481  21.268  25.697  1.00  0.00     0.348 HD
ATOM     12  C   UNL A   1      32.583  23.642  26.799  1.00  0.00     0.089 C 
ATOM     13  C   UNL A   1      32.800  23.577  24.350  1.00  0.00     0.089 C 
ATOM     14  C   UNL A   1      32.793  24.517  25.536  1.00  0.00     0.121 C 
BRANCH  14  15
ATOM     15  N   UNL A   1      31.811  25.586  25.474  1.00  0.00    -0.246 N 
ATOM     16  N   UNL A   1      30.897  25.509  26.441  1.00  0.00    -0.179 NA
ATOM     17  C   UNL A   1      31.340  26.372  24.438  1.00  0.00     0.131 A 
ATOM     18  C   UNL A   1      29.784  25.572  25.732  1.00  0.00     0.137 A 
ATOM     19  C   UNL A   1      29.974  26.214  24.518  1.00  0.00     0.069 A 
BRANCH  17  20
ATOM     20  N   UNL A   1      32.034  27.064  23.473  1.00  0.00    -0.307 N 
ATOM     21  C   UNL A   1      32.484  28.428  23.555  1.00  0.00     0.258 C 
ATOM     22  H   UNL A   1      32.245  26.578  22.643  1.00  0.00     0.171 HD
ATOM     23  O   UNL A   1      32.725  28.961  22.502  1.00  0.00    -0.269 OA
BRANCH  21  24
ATOM     24  C   UNL A   1      32.644  29.153  24.838  1.00  0.00     0.058 A 
ATOM     25  C   UNL A   1      33.770  28.854  25.623  1.00  0.00     0.015 A 
ATOM     26  C   UNL A   1      31.693  30.068  25.303  1.00  0.00     0.053 A 
ATOM     27  C   UNL A   1      33.954  29.490  26.854  1.00  0.00     0.001 A 
ATOM     28  C   UNL A   1      31.882  30.697  26.540  1.00  0.00     0.021 A 
ATOM     29  Cl  UNL A   1      30.261  30.440  24.415  1.00  0.00    -0.083 Cl
ATOM     30  C   UNL A   1      33.011  30.410  27.311  1.00  0.00     0.002 A 
ENDBRANCH  21  24
ENDBRANCH  17  20
ENDBRANCH  14  15
ENDBRANCH   7   8
ENDBRANCH   6   7
ENDBRANCH   4   6
ENDBRANCH   1   2
BRANCH   1  31
ATOM     31  C   UNL A   1      41.147  21.151  27.540  1.00  0.00     0.023 C 
BRANCH  31  32
ATOM     32  C   UNL A   1      41.917  19.830  27.312  1.00  0.00     0.023 C 
BRANCH  32  33
ATOM     33  C   UNL A   1      42.139  19.373  25.855  1.00  0.00     0.116 C 
BRANCH  33  34
ATOM     34  N   UNL A   1      43.533  19.163  25.425  1.00  0.00    -0.352 N 
ATOM     35  C   UNL A   1      44.514  20.093  25.036  1.00  0.00     0.251 C 
ATOM     36  H   UNL A   1      43.823  18.223  25.407  1.00  0.00     0.163 HD
ATOM     37  O   UNL A   1      45.485  19.700  24.391  1.00  0.00    -0.269 OA
BRANCH  35  38
ATOM     38  C   UNL A   1      44.415  21.549  25.372  1.00  0.00     0.039 A 
ATOM     39  C   UNL A   1      43.703  22.520  24.629  1.00  0.00     0.014 A 
ATOM     40  C   UNL A   1      45.023  21.966  26.522  1.00  0.00     0.014 A 
ATOM     41  C   UNL A   1      43.547  23.861  25.115  1.00  0.00     0.010 A 
ATOM     42  C   UNL A   1      44.617  23.149  27.087  1.00  0.00     0.010 A 
ATOM     43  C   UNL A   1      43.997  24.186  26.398  1.00  0.00    -0.014 A 
BRANCH  43  44
ATOM     44  C   UNL A   1      43.804  25.434  27.209  1.00  0.00     0.031 A 
ATOM     45  C   UNL A   1      44.746  26.588  26.936  1.00  0.00     0.074 A 
ATOM     46  C   UNL A   1      42.590  25.763  27.753  1.00  0.00     0.049 A 
ATOM     47  N   UNL A   1      46.017  26.749  27.182  1.00  0.00    -0.248 NA
ATOM     48  C   UNL A   1      44.235  27.648  26.031  1.00  0.00     0.031 C 
ATOM     49  C   UNL A   1      41.317  25.017  27.727  1.00  0.00     0.029 A 
ATOM     50  N   UNL A   1      42.216  26.926  28.385  1.00  0.00    -0.354 N 
ATOM     51  C   UNL A   1      46.310  27.985  26.578  1.00  0.00     0.074 A 
ATOM     52  C   UNL A   1      45.387  28.065  25.500  1.00  0.00     0.031 C 
ATOM     53  C   UNL A   1      40.299  25.800  28.155  1.00  0.00     0.029 A 
ATOM     54  C   UNL A   1      40.849  27.039  28.665  1.00  0.00     0.049 A 
ATOM     55  H   UNL A   1      42.864  27.629  28.624  1.00  0.00     0.167 HD
ATOM     56  C   UNL A   1      46.668  29.126  27.261  1.00  0.00     0.037 A 
ATOM     57  C   UNL A   1      40.225  28.052  29.323  1.00  0.00     0.037 A 
ATOM     58  C   UNL A   1      46.776  28.821  28.662  1.00  0.00     0.049 A 
ATOM     59  C   UNL A   1      41.269  28.800  30.060  1.00  0.00     0.074 A 
ATOM     60  C   UNL A   1      47.591  28.064  29.470  1.00  0.00     0.029 A 
ATOM     61  N   UNL A   1      45.632  29.092  29.365  1.00  0.00    -0.354 N 
ATOM     62  N   UNL A   1      41.952  28.296  31.046  1.00  0.00    -0.248 NA
ATOM     63  C   UNL A   1      41.795  30.041  29.502  1.00  0.00     0.031 C 
ATOM     64  C   UNL A   1      46.813  27.740  30.618  1.00  0.00     0.029 A 
ATOM     65  C   UNL A   1      45.570  28.360  30.515  1.00  0.00     0.049 A 
ATOM     66  H   UNL A   1      44.942  29.734  29.076  1.00  0.00     0.167 HD
ATOM     67  C   UNL A   1      43.190  28.888  30.937  1.00  0.00     0.074 A 
ATOM     68  C   UNL A   1      42.984  30.070  30.111  1.00  0.00     0.031 C 
ATOM     69  C   UNL A   1      44.315  28.170  31.209  1.00  0.00     0.037 A 
BRANCH  56  70
ATOM     70  C   UNL A   1      46.404  30.608  26.861  1.00  0.00     0.057 A 
ATOM     71  C   UNL A   1      47.522  31.469  26.792  1.00  0.00     0.134 A 
ATOM     72  C   UNL A   1      45.167  31.295  26.764  1.00  0.00     0.134 A 
ATOM     73  F   UNL A   1      48.768  30.975  26.854  1.00  0.00    -0.206 F 
ATOM     74  C   UNL A   1      47.419  32.868  26.714  1.00  0.00     0.040 A 
ATOM     75  C   UNL A   1      45.055  32.688  26.640  1.00  0.00     0.040 A 
ATOM     76  F   UNL A   1      43.972  30.706  26.860  1.00  0.00    -0.206 F 
ATOM     77  C   UNL A   1      46.180  33.485  26.644  1.00  0.00     0.006 A 
ENDBRANCH  56  70
BRANCH  57  78
ATOM     78  C   UNL A   1      38.823  28.532  29.362  1.00  0.00     0.057 A 
ATOM     79  C   UNL A   1      38.083  28.502  30.559  1.00  0.00     0.134 A 
ATOM     80  C   UNL A   1      38.291  29.317  28.329  1.00  0.00     0.134 A 
ATOM     81  F   UNL A   1      38.515  27.789  31.609  1.00  0.00    -0.206 F 
ATOM     82  C   UNL A   1      36.921  29.262  30.743  1.00  0.00     0.040 A 
ATOM     83  C   UNL A   1      37.126  30.079  28.499  1.00  0.00     0.040 A 
ATOM     84  F   UNL A   1      38.944  29.447  27.165  1.00  0.00    -0.206 F 
ATOM     85  C   UNL A   1      36.451  30.072  29.716  1.00  0.00     0.006 A 
ENDBRANCH  57  78
BRANCH  69  86
ATOM     86  C   UNL A   1      44.200  27.004  32.142  1.00  0.00     0.057 A 
ATOM     87  C   UNL A   1      44.256  25.656  31.764  1.00  0.00     0.134 A 
ATOM     88  C   UNL A   1      44.134  27.276  33.513  1.00  0.00     0.134 A 
ATOM     89  F   UNL A   1      44.384  25.298  30.482  1.00  0.00    -0.206 F 
ATOM     90  C   UNL A   1      44.229  24.627  32.708  1.00  0.00     0.040 A 
ATOM     91  C   UNL A   1      44.143  26.260  34.467  1.00  0.00     0.040 A 
ATOM     92  F   UNL A   1      44.109  28.546  33.947  1.00  0.00    -0.206 F 
ATOM     93  C   UNL A   1      44.184  24.928  34.065  1.00  0.00     0.006 A 
ENDBRANCH  69  86
ENDBRANCH  43  44
ENDBRANCH  35  38
ENDBRANCH  33  34
ENDBRANCH  32  33
ENDBRANCH  31  32
ENDBRANCH   1  31
TORSDOF 16
ENDMDL
MODEL 2
REMARK VINA RESULT:     -11.9      3.954      9.653
REMARK SMILES O=C(CC[NH+]1CCC(n2nccc2NC(=O)c2ccccc2Cl)CC1)NCCCCNC(=O)c1ccc(-c2c3nc(c(-c4c(F)cccc4F)c4ccc([nH]4)c(-c4c(F)cccc4F)c4nc(c(-c5c(F)cccc5F)c5ccc2[nH]5)C=C4)C=C3)cc1
REMARK SMILES IDX 27 1 26 2 1 3 2 4 3 6 4 7 5 8 6 9 25 10 7 12 24 13 8 14 9 15
REMARK SMILES IDX 10 16 13 17 11 18 12 19 14 20 15 21 16 23 17 24 18 25 22 26
REMARK SMILES IDX 19 27 21 28 23 29 20 30 28 31 29 32 30 33 31 34 32 35 33 37
REMARK SMILES IDX 34 38 35 39 87 40 36 41 86 42 37 43 38 44 39 45 80 46 40 47
REMARK SMILES IDX 85 48 79 49 81 50 41 51 84 52 78 53 77 54 42 56 68 57 51 58
REMARK SMILES IDX 67 59 52 60 55 61 66 62 82 63 53 64 54 65 65 67 83 68 56 69
REMARK SMILES IDX 43 70 44 71 49 72 45 73 46 74 48 75 50 76 47 77 69 78 70 79
REMARK SMILES IDX 75 80 71 81 72 82 74 83 76 84 73 85 57 86 58 87 63 88 59 89
REMARK SMILES IDX 60 90 62 91 64 92 61 93
REMARK H PARENT 26 5 5 11 14 22 31 36 81 55 55 66
REMARK Flexibility Score: inf
ROOT
ATOM      1  C   UNL A   1      33.254  35.860  29.342  1.00  0.00     0.116 C 
ENDROOT
BRANCH   1   2
ATOM      2  N   UNL A   1      33.893  34.540  29.343  1.00  0.00    -0.356 N 
ATOM      3  O   UNL A   1      34.696  34.706  27.193  1.00  0.00    -0.275 OA
ATOM      4  C   UNL A   1      34.627  34.087  28.251  1.00  0.00     0.225 C 
ATOM      5  H   UNL A   1      33.802  33.962  30.135  1.00  0.00     0.163 HD
BRANCH   4   6
ATOM      6  C   UNL A   1      35.382  32.775  28.443  1.00  0.00     0.161 C 
BRANCH   6   7
ATOM      7  C   UNL A   1      34.503  31.507  28.506  1.00  0.00     0.272 C 
BRANCH   7   8
ATOM      8  N   UNL A   1      34.117  30.862  27.235  1.00  0.00    -0.334 N 
ATOM      9  C   UNL A   1      34.726  29.544  27.130  1.00  0.00     0.264 C 
ATOM     10  C   UNL A   1      32.714  31.055  26.887  1.00  0.00     0.264 C 
ATOM     11  H   UNL A   1      34.525  31.350  26.438  1.00  0.00     0.348 HD
ATOM     12  C   UNL A   1      34.090  28.637  26.108  1.00  0.00     0.089 C 
ATOM     13  C   UNL A   1      32.135  30.106  25.847  1.00  0.00     0.089 C 
ATOM     14  C   UNL A   1      32.543  28.691  26.196  1.00  0.00     0.121 C 
BRANCH  14  15
ATOM     15  N   UNL A   1      31.938  27.652  25.381  1.00  0.00    -0.246 N 
ATOM     16  N   UNL A   1      31.815  28.002  24.100  1.00  0.00    -0.179 NA
ATOM     17  C   UNL A   1      31.078  26.608  25.672  1.00  0.00     0.131 A 
ATOM     18  C   UNL A   1      30.534  27.747  23.899  1.00  0.00     0.137 A 
ATOM     19  C   UNL A   1      30.049  26.789  24.775  1.00  0.00     0.069 A 
BRANCH  17  20
ATOM     20  N   UNL A   1      31.143  25.669  26.675  1.00  0.00    -0.307 N 
ATOM     21  C   UNL A   1      31.829  24.406  26.622  1.00  0.00     0.258 C 
ATOM     22  H   UNL A   1      30.673  25.883  27.513  1.00  0.00     0.171 HD
ATOM     23  O   UNL A   1      31.464  23.582  27.421  1.00  0.00    -0.269 OA
BRANCH  21  24
ATOM     24  C   UNL A   1      32.912  24.112  25.654  1.00  0.00     0.058 A 
ATOM     25  C   UNL A   1      34.233  24.385  26.047  1.00  0.00     0.015 A 
ATOM     26  C   UNL A   1      32.653  23.632  24.365  1.00  0.00     0.053 A 
ATOM     27  C   UNL A   1      35.289  24.150  25.162  1.00  0.00     0.001 A 
ATOM     28  C   UNL A   1      33.716  23.405  23.483  1.00  0.00     0.021 A 
ATOM     29  Cl  UNL A   1      31.052  23.329  23.800  1.00  0.00    -0.083 Cl
ATOM     30  C   UNL A   1      35.030  23.661  23.882  1.00  0.00     0.002 A 
ENDBRANCH  21  24
ENDBRANCH  17  20
ENDBRANCH  14  15
ENDBRANCH   7   8
ENDBRANCH   6   7
ENDBRANCH   4   6
ENDBRANCH   1   2
BRANCH   1  31
ATOM     31  C   UNL A   1      32.622  36.298  30.680  1.00  0.00     0.023 C 
BRANCH  31  32
ATOM     32  C   UNL A   1      33.426  37.221  31.624  1.00  0.00     0.023 C 
BRANCH  32  33
ATOM     33  C   UNL A   1      34.081  36.579  32.866  1.00  0.00     0.116 C 
BRANCH  33  34
ATOM     34  N   UNL A   1      33.488  35.325  33.361  1.00  0.00    -0.352 N 
ATOM     35  C   UNL A   1      33.833  33.988  33.094  1.00  0.00     0.251 C 
ATOM     36  H   UNL A   1      32.729  35.441  33.978  1.00  0.00     0.163 HD
ATOM     37  O   UNL A   1      33.011  33.103  33.326  1.00  0.00    -0.269 OA
BRANCH  35  38
ATOM     38  C   UNL A   1      35.164  33.603  32.528  1.00  0.00     0.039 A 
ATOM     39  C   UNL A   1      36.272  34.468  32.362  1.00  0.00     0.014 A 
ATOM     40  C   UNL A   1      35.342  32.292  32.189  1.00  0.00     0.014 A 
ATOM     41  C   UNL A   1      37.551  33.969  31.948  1.00  0.00     0.010 A 
ATOM     42  C   UNL A   1      36.623  31.809  32.081  1.00  0.00     0.010 A 
ATOM     43  C   UNL A   1      37.745  32.589  31.824  1.00  0.00    -0.014 A 
BRANCH  43  44
ATOM     44  C   UNL A   1      39.001  31.802  31.589  1.00  0.00     0.031 A 
ATOM     45  C   UNL A   1      39.745  31.306  32.812  1.00  0.00     0.074 A 
ATOM     46  C   UNL A   1      39.208  31.099  30.431  1.00  0.00     0.049 A 
ATOM     47  N   UNL A   1      40.434  31.934  33.724  1.00  0.00    -0.248 NA
ATOM     48  C   UNL A   1      39.485  29.898  33.207  1.00  0.00     0.031 C 
ATOM     49  C   UNL A   1      38.358  31.000  29.229  1.00  0.00     0.029 A 
ATOM     50  N   UNL A   1      40.222  30.221  30.126  1.00  0.00    -0.354 N 
ATOM     51  C   UNL A   1      40.762  30.917  34.639  1.00  0.00     0.074 A 
ATOM     52  C   UNL A   1      39.686  29.994  34.523  1.00  0.00     0.031 C 
ATOM     53  C   UNL A   1      38.795  30.008  28.418  1.00  0.00     0.029 A 
ATOM     54  C   UNL A   1      40.057  29.513  28.929  1.00  0.00     0.049 A 
ATOM     55  H   UNL A   1      41.008  30.098  30.707  1.00  0.00     0.167 HD
ATOM     56  C   UNL A   1      42.038  30.458  34.876  1.00  0.00     0.037 A 
ATOM     57  C   UNL A   1      40.925  28.629  28.370  1.00  0.00     0.037 A 
ATOM     58  C   UNL A   1      42.969  31.241  34.110  1.00  0.00     0.049 A 
ATOM     59  C   UNL A   1      42.244  28.853  29.005  1.00  0.00     0.074 A 
ATOM     60  C   UNL A   1      43.423  32.537  34.093  1.00  0.00     0.029 A 
ATOM     61  N   UNL A   1      43.287  30.674  32.903  1.00  0.00    -0.354 N 
ATOM     62  N   UNL A   1      42.932  29.948  28.860  1.00  0.00    -0.248 NA
ATOM     63  C   UNL A   1      42.684  27.971  30.080  1.00  0.00     0.031 C 
ATOM     64  C   UNL A   1      43.865  32.781  32.761  1.00  0.00     0.029 A 
ATOM     65  C   UNL A   1      43.733  31.612  32.017  1.00  0.00     0.049 A 
ATOM     66  H   UNL A   1      43.205  29.713  32.702  1.00  0.00     0.167 HD
ATOM     67  C   UNL A   1      43.582  30.100  30.064  1.00  0.00     0.074 A 
ATOM     68  C   UNL A   1      43.549  28.785  30.692  1.00  0.00     0.031 C 
ATOM     69  C   UNL A   1      43.750  31.342  30.596  1.00  0.00     0.037 A 
BRANCH  56  70
ATOM     70  C   UNL A   1      42.479  29.029  35.313  1.00  0.00     0.057 A 
ATOM     71  C   UNL A   1      43.293  28.926  36.463  1.00  0.00     0.134 A 
ATOM     72  C   UNL A   1      42.370  27.809  34.597  1.00  0.00     0.134 A 
ATOM     73  F   UNL A   1      43.489  29.989  37.258  1.00  0.00    -0.206 F 
ATOM     74  C   UNL A   1      43.986  27.757  36.819  1.00  0.00     0.040 A 
ATOM     75  C   UNL A   1      43.021  26.624  34.972  1.00  0.00     0.040 A 
ATOM     76  F   UNL A   1      41.702  27.669  33.450  1.00  0.00    -0.206 F 
ATOM     77  C   UNL A   1      43.857  26.599  36.068  1.00  0.00     0.006 A 
ENDBRANCH  56  70
BRANCH  57  78
ATOM     78  C   UNL A   1      40.771  27.534  27.382  1.00  0.00     0.057 A 
ATOM     79  C   UNL A   1      41.497  27.542  26.177  1.00  0.00     0.134 A 
ATOM     80  C   UNL A   1      40.170  26.316  27.731  1.00  0.00     0.134 A 
ATOM     81  F   UNL A   1      42.117  28.656  25.763  1.00  0.00    -0.206 F 
ATOM     82  C   UNL A   1      41.675  26.390  25.399  1.00  0.00     0.040 A 
ATOM     83  C   UNL A   1      40.337  25.157  26.959  1.00  0.00     0.040 A 
ATOM     84  F   UNL A   1      39.494  26.193  28.883  1.00  0.00    -0.206 F 
ATOM     85  C   UNL A   1      41.111  25.186  25.802  1.00  0.00     0.006 A 
ENDBRANCH  57  78
BRANCH  69  86
ATOM     86  C   UNL A   1      43.769  32.513  29.661  1.00  0.00     0.057 A 
ATOM     87  C   UNL A   1      42.721  33.425  29.485  1.00  0.00     0.134 A 
ATOM     88  C   UNL A   1      44.964  32.781  28.985  1.00  0.00     0.134 A 
ATOM     89  F   UNL A   1      41.562  33.289  30.138  1.00  0.00    -0.206 F 
ATOM     90  C   UNL A   1      42.851  34.543  28.657  1.00  0.00     0.040 A 
ATOM     91  C   UNL A   1      45.121  33.912  28.185  1.00  0.00     0.040 A 
ATOM     92  F   UNL A   1      46.020  31.966  29.133  1.00  0.00    -0.206 F 
ATOM     93  C   UNL A   1      44.058  34.795  28.013  1.00  0.00     0.006 A 
ENDBRANCH  69  86
ENDBRANCH  43  44
ENDBRANCH  35  38
ENDBRANCH  33  34
ENDBRANCH  32  33
ENDBRANCH  31  32
ENDBRANCH   1  31
TORSDOF 16
ENDMDL
MODEL 3
REMARK VINA RESULT:     -11.8      3.835      9.514
REMARK SMILES O=C(CC[NH+]1CCC(n2nccc2NC(=O)c2ccccc2Cl)CC1)NCCCCNC(=O)c1ccc(-c2c3nc(c(-c4c(F)cccc4F)c4ccc([nH]4)c(-c4c(F)cccc4F)c4nc(c(-c5c(F)cccc5F)c5ccc2[nH]5)C=C4)C=C3)cc1
REMARK SMILES IDX 27 1 26 2 1 3 2 4 3 6 4 7 5 8 6 9 25 10 7 12 24 13 8 14 9 15
REMARK SMILES IDX 10 16 13 17 11 18 12 19 14 20 15 21 16 23 17 24 18 25 22 26
REMARK SMILES IDX 19 27 21 28 23 29 20 30 28 31 29 32 30 33 31 34 32 35 33 37
REMARK SMILES IDX 34 38 35 39 87 40 36 41 86 42 37 43 38 44 39 45 80 46 40 47
REMARK SMILES IDX 85 48 79 49 81 50 41 51 84 52 78 53 77 54 42 56 68 57 51 58
REMARK SMILES IDX 67 59 52 60 55 61 66 62 82 63 53 64 54 65 65 67 83 68 56 69
REMARK SMILES IDX 43 70 44 71 49 72 45 73 46 74 48 75 50 76 47 77 69 78 70 79
REMARK SMILES IDX 75 80 71 81 72 82 74 83 76 84 73 85 57 86 58 87 63 88 59 89
REMARK SMILES IDX 60 90 62 91 64 92 61 93
REMARK H PARENT 26 5 5 11 14 22 31 36 81 55 55 66
REMARK Flexibility Score: inf
ROOT
ATOM      1  C   UNL A   1      34.808  32.043  28.017  1.00  0.00     0.116 C 
ENDROOT
BRANCH   1   2
ATOM      2  N   UNL A   1      33.607  31.418  27.456  1.00  0.00    -0.356 N 
ATOM      3  O   UNL A   1      34.477  29.288  27.449  1.00  0.00    -0.275 OA
ATOM      4  C   UNL A   1      33.526  30.042  27.265  1.00  0.00     0.225 C 
ATOM      5  H   UNL A   1      32.840  31.983  27.210  1.00  0.00     0.163 HD
BRANCH   4   6
ATOM      6  C   UNL A   1      32.166  29.498  26.837  1.00  0.00     0.161 C 
BRANCH   6   7
ATOM      7  C   UNL A   1      31.625  30.043  25.498  1.00  0.00     0.272 C 
BRANCH   7   8
ATOM      8  N   UNL A   1      31.779  29.206  24.292  1.00  0.00    -0.334 N 
ATOM      9  C   UNL A   1      33.140  29.297  23.783  1.00  0.00     0.264 C 
ATOM     10  C   UNL A   1      31.115  27.912  24.392  1.00  0.00     0.264 C 
ATOM     11  H   UNL A   1      31.236  29.580  23.515  1.00  0.00     0.348 HD
ATOM     12  C   UNL A   1      33.531  28.193  22.833  1.00  0.00     0.089 C 
ATOM     13  C   UNL A   1      31.556  26.842  23.402  1.00  0.00     0.089 C 
ATOM     14  C   UNL A   1      33.068  26.811  23.360  1.00  0.00     0.121 C 
BRANCH  14  15
ATOM     15  N   UNL A   1      33.644  25.733  22.572  1.00  0.00    -0.246 N 
ATOM     16  N   UNL A   1      33.321  25.804  21.281  1.00  0.00    -0.179 NA
ATOM     17  C   UNL A   1      34.052  24.450  22.889  1.00  0.00     0.131 A 
ATOM     18  C   UNL A   1      32.854  24.585  21.078  1.00  0.00     0.137 A 
ATOM     19  C   UNL A   1      33.374  23.670  21.980  1.00  0.00     0.069 A 
BRANCH  17  20
ATOM     20  N   UNL A   1      34.848  24.010  23.922  1.00  0.00    -0.307 N 
ATOM     21  C   UNL A   1      34.436  23.770  25.279  1.00  0.00     0.258 C 
ATOM     22  H   UNL A   1      35.795  23.843  23.711  1.00  0.00     0.171 HD
ATOM     23  O   UNL A   1      35.319  23.763  26.098  1.00  0.00    -0.269 OA
BRANCH  21  24
ATOM     24  C   UNL A   1      33.023  23.550  25.669  1.00  0.00     0.058 A 
ATOM     25  C   UNL A   1      32.338  24.613  26.282  1.00  0.00     0.015 A 
ATOM     26  C   UNL A   1      32.383  22.317  25.497  1.00  0.00     0.053 A 
ATOM     27  C   UNL A   1      31.013  24.449  26.693  1.00  0.00     0.001 A 
ATOM     28  C   UNL A   1      31.057  22.158  25.917  1.00  0.00     0.021 A 
ATOM     29  Cl  UNL A   1      33.182  20.954  24.803  1.00  0.00    -0.083 Cl
ATOM     30  C   UNL A   1      30.374  23.223  26.511  1.00  0.00     0.002 A 
ENDBRANCH  21  24
ENDBRANCH  17  20
ENDBRANCH  14  15
ENDBRANCH   7   8
ENDBRANCH   6   7
ENDBRANCH   4   6
ENDBRANCH   1   2
BRANCH   1  31
ATOM     31  C   UNL A   1      34.773  33.583  28.123  1.00  0.00     0.023 C 
BRANCH  31  32
ATOM     32  C   UNL A   1      33.462  34.277  28.558  1.00  0.00     0.023 C 
BRANCH  32  33
ATOM     33  C   UNL A   1      33.570  35.686  29.178  1.00  0.00     0.116 C 
BRANCH  33  34
ATOM     34  N   UNL A   1      33.028  35.863  30.536  1.00  0.00    -0.352 N 
ATOM     35  C   UNL A   1      33.247  35.115  31.707  1.00  0.00     0.251 C 
ATOM     36  H   UNL A   1      32.416  36.627  30.642  1.00  0.00     0.163 HD
ATOM     37  O   UNL A   1      32.446  35.213  32.635  1.00  0.00    -0.269 OA
BRANCH  35  38
ATOM     38  C   UNL A   1      34.417  34.194  31.861  1.00  0.00     0.039 A 
ATOM     39  C   UNL A   1      34.357  32.780  31.880  1.00  0.00     0.014 A 
ATOM     40  C   UNL A   1      35.655  34.766  31.941  1.00  0.00     0.014 A 
ATOM     41  C   UNL A   1      35.551  31.984  31.884  1.00  0.00     0.010 A 
ATOM     42  C   UNL A   1      36.754  33.995  31.654  1.00  0.00     0.010 A 
ATOM     43  C   UNL A   1      36.794  32.608  31.742  1.00  0.00    -0.014 A 
BRANCH  43  44
ATOM     44  C   UNL A   1      38.160  32.018  31.536  1.00  0.00     0.031 A 
ATOM     45  C   UNL A   1      38.931  31.614  32.775  1.00  0.00     0.074 A 
ATOM     46  C   UNL A   1      38.503  31.375  30.376  1.00  0.00     0.049 A 
ATOM     47  N   UNL A   1      39.492  32.319  33.718  1.00  0.00    -0.248 NA
ATOM     48  C   UNL A   1      38.870  30.176  33.142  1.00  0.00     0.031 C 
ATOM     49  C   UNL A   1      37.713  31.175  29.145  1.00  0.00     0.029 A 
ATOM     50  N   UNL A   1      39.643  30.661  30.091  1.00  0.00    -0.354 N 
ATOM     51  C   UNL A   1      39.940  31.345  34.629  1.00  0.00     0.074 A 
ATOM     52  C   UNL A   1      39.016  30.276  34.465  1.00  0.00     0.031 C 
ATOM     53  C   UNL A   1      38.315  30.273  28.335  1.00  0.00     0.029 A 
ATOM     54  C   UNL A   1      39.620  29.959  28.880  1.00  0.00     0.049 A 
ATOM     55  H   UNL A   1      40.421  30.645  30.696  1.00  0.00     0.167 HD
ATOM     56  C   UNL A   1      41.262  31.074  34.901  1.00  0.00     0.037 A 
ATOM     57  C   UNL A   1      40.626  29.223  28.337  1.00  0.00     0.037 A 
ATOM     58  C   UNL A   1      42.090  31.999  34.176  1.00  0.00     0.049 A 
ATOM     59  C   UNL A   1      41.877  29.627  29.018  1.00  0.00     0.074 A 
ATOM     60  C   UNL A   1      42.348  33.349  34.192  1.00  0.00     0.029 A 
ATOM     61  N   UNL A   1      42.524  31.508  32.973  1.00  0.00    -0.354 N 
ATOM     62  N   UNL A   1      42.401  30.813  28.910  1.00  0.00    -0.248 NA
ATOM     63  C   UNL A   1      42.411  28.799  30.093  1.00  0.00     0.031 C 
ATOM     64  C   UNL A   1      42.788  33.679  32.879  1.00  0.00     0.029 A 
ATOM     65  C   UNL A   1      42.853  32.518  32.114  1.00  0.00     0.049 A 
ATOM     66  H   UNL A   1      42.590  30.550  32.755  1.00  0.00     0.167 HD
ATOM     67  C   UNL A   1      42.985  31.037  30.137  1.00  0.00     0.074 A 
ATOM     68  C   UNL A   1      43.128  29.720  30.745  1.00  0.00     0.031 C 
ATOM     69  C   UNL A   1      42.951  32.280  30.691  1.00  0.00     0.037 A 
BRANCH  56  70
ATOM     70  C   UNL A   1      41.896  29.717  35.331  1.00  0.00     0.057 A 
ATOM     71  C   UNL A   1      42.684  29.715  36.503  1.00  0.00     0.134 A 
ATOM     72  C   UNL A   1      41.986  28.507  34.597  1.00  0.00     0.134 A 
ATOM     73  F   UNL A   1      42.700  30.781  37.318  1.00  0.00    -0.206 F 
ATOM     74  C   UNL A   1      43.531  28.653  36.864  1.00  0.00     0.040 A 
ATOM     75  C   UNL A   1      42.793  27.424  34.974  1.00  0.00     0.040 A 
ATOM     76  F   UNL A   1      41.377  28.291  33.428  1.00  0.00    -0.206 F 
ATOM     77  C   UNL A   1      43.594  27.502  36.095  1.00  0.00     0.006 A 
ENDBRANCH  56  70
BRANCH  57  78
ATOM     78  C   UNL A   1      40.665  28.136  27.329  1.00  0.00     0.057 A 
ATOM     79  C   UNL A   1      41.510  28.222  26.207  1.00  0.00     0.134 A 
ATOM     80  C   UNL A   1      40.131  26.868  27.603  1.00  0.00     0.134 A 
ATOM     81  F   UNL A   1      42.078  29.388  25.871  1.00  0.00    -0.206 F 
ATOM     82  C   UNL A   1      41.860  27.101  25.443  1.00  0.00     0.040 A 
ATOM     83  C   UNL A   1      40.470  25.740  26.843  1.00  0.00     0.040 A 
ATOM     84  F   UNL A   1      39.351  26.673  28.676  1.00  0.00    -0.206 F 
ATOM     85  C   UNL A   1      41.356  25.849  25.774  1.00  0.00     0.006 A 
ENDBRANCH  57  78
BRANCH  69  86
ATOM     86  C   UNL A   1      42.826  33.458  29.774  1.00  0.00     0.057 A 
ATOM     87  C   UNL A   1      43.807  33.889  28.872  1.00  0.00     0.134 A 
ATOM     88  C   UNL A   1      41.594  34.120  29.735  1.00  0.00     0.134 A 
ATOM     89  F   UNL A   1      44.994  33.279  28.790  1.00  0.00    -0.206 F 
ATOM     90  C   UNL A   1      43.578  34.946  27.987  1.00  0.00     0.040 A 
ATOM     91  C   UNL A   1      41.339  35.151  28.832  1.00  0.00     0.040 A 
ATOM     92  F   UNL A   1      40.598  33.738  30.550  1.00  0.00    -0.206 F 
ATOM     93  C   UNL A   1      42.336  35.572  27.957  1.00  0.00     0.006 A 
ENDBRANCH  69  86
ENDBRANCH  43  44
ENDBRANCH  35  38
ENDBRANCH  33  34
ENDBRANCH  32  33
ENDBRANCH  31  32
ENDBRANCH   1  31
TORSDOF 16
ENDMDL
