MODEL 1
REMARK VINA RESULT:     -10.9      0.000      0.000
REMARK SMILES C[C@H]1CCC[C@H](C(C)(C)C(=O)NCCCCNC(=O)c2ccc(-c3c4nc(c(-c5c(F)cccc5F)c5ccc([nH]5)c(-c5c(F)cccc5F)c5nc(c(-c6c(F)cccc6F)c6ccc3[nH]6)C=C5)C=C4)cc2)C1
REMARK SMILES IDX 15 1 14 2 13 3 12 4 10 5 11 6 7 8 8 9 9 10 6 11 1 12 2 13
REMARK SMILES IDX 3 14 74 15 4 16 5 17 16 18 17 19 18 20 19 22 20 23 21 24
REMARK SMILES IDX 73 25 22 26 72 27 23 28 24 29 25 30 66 31 26 32 71 33 65 34
REMARK SMILES IDX 67 35 27 36 70 37 64 38 63 39 28 41 54 42 37 43 53 44 38 45
REMARK SMILES IDX 41 46 52 47 68 48 39 49 40 50 51 52 69 53 42 54 29 55 30 56
REMARK SMILES IDX 35 57 31 58 32 59 34 60 36 61 33 62 55 63 56 64 61 65 57 66
REMARK SMILES IDX 58 67 60 68 62 69 59 70 43 71 44 72 49 73 45 74 46 75 48 76
REMARK SMILES IDX 50 77 47 78
REMARK H PARENT 12 7 17 21 67 40 41 51
REMARK Flexibility Score: inf
ROOT
ATOM      1  C   UNL A   1      37.909  19.462  24.986  1.00  0.00     0.023 C 
ENDROOT
BRANCH   1   2
ATOM      2  C   UNL A   1      36.760  20.434  24.698  1.00  0.00     0.023 C 
BRANCH   2   3
ATOM      3  C   UNL A   1      36.658  21.600  25.681  1.00  0.00     0.116 C 
BRANCH   3   4
ATOM      4  N   UNL A   1      35.510  21.442  26.542  1.00  0.00    -0.356 N 
ATOM      5  C   UNL A   1      34.247  21.930  26.542  1.00  0.00     0.225 C 
ATOM      6  O   UNL A   1      33.645  21.669  27.582  1.00  0.00    -0.275 OA
ATOM      7  H   UNL A   1      35.684  20.842  27.304  1.00  0.00     0.163 HD
BRANCH   5   8
ATOM      8  C   UNL A   1      33.608  22.671  25.342  1.00  0.00     0.046 C 
ATOM      9  C   UNL A   1      32.320  23.349  25.870  1.00  0.00     0.022 C 
ATOM     10  C   UNL A   1      33.238  21.667  24.227  1.00  0.00     0.022 C 
BRANCH   8  11
ATOM     11  C   UNL A   1      34.506  23.807  24.668  1.00  0.00     0.004 C 
ATOM     12  C   UNL A   1      33.782  27.388  26.072  1.00  0.00     0.007 C 
ATOM     13  C   UNL A   1      33.505  26.087  25.315  1.00  0.00    -0.014 C 
ATOM     14  C   UNL A   1      33.187  26.385  23.841  1.00  0.00     0.003 C 
ATOM     15  C   UNL A   1      34.684  25.128  25.447  1.00  0.00     0.008 C 
ATOM     16  C   UNL A   1      33.188  25.182  22.894  1.00  0.00     0.001 C 
ATOM     17  C   UNL A   1      34.265  24.142  23.182  1.00  0.00     0.005 C 
ENDBRANCH   8  11
ENDBRANCH   5   8
ENDBRANCH   3   4
ENDBRANCH   2   3
ENDBRANCH   1   2
BRANCH   1  18
ATOM     18  C   UNL A   1      39.085  20.059  25.746  1.00  0.00     0.116 C 
BRANCH  18  19
ATOM     19  N   UNL A   1      40.257  19.199  25.734  1.00  0.00    -0.352 N 
ATOM     20  C   UNL A   1      41.556  19.507  26.044  1.00  0.00     0.251 C 
ATOM     21  H   UNL A   1      40.095  18.265  25.465  1.00  0.00     0.163 HD
ATOM     22  O   UNL A   1      42.450  18.687  25.851  1.00  0.00    -0.269 OA
BRANCH  20  23
ATOM     23  C   UNL A   1      41.876  20.841  26.584  1.00  0.00     0.039 A 
ATOM     24  C   UNL A   1      42.197  21.866  25.693  1.00  0.00     0.014 A 
ATOM     25  C   UNL A   1      41.849  21.080  27.961  1.00  0.00     0.014 A 
ATOM     26  C   UNL A   1      42.457  23.146  26.183  1.00  0.00     0.010 A 
ATOM     27  C   UNL A   1      42.022  22.372  28.440  1.00  0.00     0.010 A 
ATOM     28  C   UNL A   1      42.351  23.413  27.559  1.00  0.00    -0.014 A 
BRANCH  28  29
ATOM     29  C   UNL A   1      42.633  24.766  28.097  1.00  0.00     0.031 A 
ATOM     30  C   UNL A   1      44.035  25.133  28.496  1.00  0.00     0.074 A 
ATOM     31  C   UNL A   1      41.626  25.645  28.263  1.00  0.00     0.049 A 
ATOM     32  N   UNL A   1      44.483  26.245  29.023  1.00  0.00    -0.248 NA
ATOM     33  C   UNL A   1      45.070  24.103  28.304  1.00  0.00     0.031 C 
ATOM     34  C   UNL A   1      40.218  25.391  27.957  1.00  0.00     0.029 A 
ATOM     35  N   UNL A   1      41.637  26.933  28.737  1.00  0.00    -0.354 N 
ATOM     36  C   UNL A   1      45.840  26.039  29.238  1.00  0.00     0.074 A 
ATOM     37  C   UNL A   1      46.131  24.679  28.848  1.00  0.00     0.031 C 
ATOM     38  C   UNL A   1      39.504  26.497  28.222  1.00  0.00     0.029 A 
ATOM     39  C   UNL A   1      40.396  27.524  28.751  1.00  0.00     0.049 A 
ATOM     40  H   UNL A   1      42.455  27.390  29.037  1.00  0.00     0.167 HD
ATOM     41  C   UNL A   1      46.768  26.915  29.691  1.00  0.00     0.037 A 
ATOM     42  C   UNL A   1      40.024  28.754  29.149  1.00  0.00     0.037 A 
ATOM     43  C   UNL A   1      46.478  28.276  30.057  1.00  0.00     0.049 A 
ATOM     44  C   UNL A   1      41.074  29.709  29.652  1.00  0.00     0.074 A 
ATOM     45  C   UNL A   1      47.352  29.259  30.486  1.00  0.00     0.029 A 
ATOM     46  N   UNL A   1      45.212  28.844  30.040  1.00  0.00    -0.354 N 
ATOM     47  N   UNL A   1      42.365  29.523  29.791  1.00  0.00    -0.248 NA
ATOM     48  C   UNL A   1      40.614  31.049  30.039  1.00  0.00     0.031 C 
ATOM     49  C   UNL A   1      46.608  30.409  30.774  1.00  0.00     0.029 A 
ATOM     50  C   UNL A   1      45.280  30.161  30.464  1.00  0.00     0.049 A 
ATOM     51  H   UNL A   1      44.388  28.380  29.767  1.00  0.00     0.167 HD
ATOM     52  C   UNL A   1      42.876  30.733  30.242  1.00  0.00     0.074 A 
ATOM     53  C   UNL A   1      41.757  31.648  30.341  1.00  0.00     0.031 C 
ATOM     54  C   UNL A   1      44.157  31.061  30.544  1.00  0.00     0.037 A 
BRANCH  41  55
ATOM     55  C   UNL A   1      48.182  26.422  29.813  1.00  0.00     0.057 A 
ATOM     56  C   UNL A   1      49.117  26.587  28.781  1.00  0.00     0.134 A 
ATOM     57  C   UNL A   1      48.622  25.791  30.984  1.00  0.00     0.134 A 
ATOM     58  F   UNL A   1      48.760  27.170  27.626  1.00  0.00    -0.206 F 
ATOM     59  C   UNL A   1      50.426  26.114  28.896  1.00  0.00     0.040 A 
ATOM     60  C   UNL A   1      49.937  25.343  31.123  1.00  0.00     0.040 A 
ATOM     61  F   UNL A   1      47.783  25.604  32.014  1.00  0.00    -0.206 F 
ATOM     62  C   UNL A   1      50.840  25.496  30.073  1.00  0.00     0.006 A 
ENDBRANCH  41  55
BRANCH  42  63
ATOM     63  C   UNL A   1      38.601  29.171  29.060  1.00  0.00     0.057 A 
ATOM     64  C   UNL A   1      38.057  29.639  27.857  1.00  0.00     0.134 A 
ATOM     65  C   UNL A   1      37.756  29.129  30.175  1.00  0.00     0.134 A 
ATOM     66  F   UNL A   1      38.821  29.717  26.757  1.00  0.00    -0.206 F 
ATOM     67  C   UNL A   1      36.736  30.078  27.773  1.00  0.00     0.040 A 
ATOM     68  C   UNL A   1      36.423  29.538  30.098  1.00  0.00     0.040 A 
ATOM     69  F   UNL A   1      38.211  28.682  31.354  1.00  0.00    -0.206 F 
ATOM     70  C   UNL A   1      35.912  30.024  28.896  1.00  0.00     0.006 A 
ENDBRANCH  42  63
BRANCH  54  71
ATOM     71  C   UNL A   1      44.424  32.484  30.949  1.00  0.00     0.057 A 
ATOM     72  C   UNL A   1      44.702  33.488  30.014  1.00  0.00     0.134 A 
ATOM     73  C   UNL A   1      44.382  32.854  32.300  1.00  0.00     0.134 A 
ATOM     74  F   UNL A   1      44.768  33.200  28.704  1.00  0.00    -0.206 F 
ATOM     75  C   UNL A   1      44.965  34.801  30.409  1.00  0.00     0.040 A 
ATOM     76  C   UNL A   1      44.611  34.169  32.705  1.00  0.00     0.040 A 
ATOM     77  F   UNL A   1      44.109  31.944  33.248  1.00  0.00    -0.206 F 
ATOM     78  C   UNL A   1      44.915  35.145  31.758  1.00  0.00     0.006 A 
ENDBRANCH  54  71
ENDBRANCH  28  29
ENDBRANCH  20  23
ENDBRANCH  18  19
ENDBRANCH   1  18
TORSDOF 12
ENDMDL
MODEL 2
REMARK VINA RESULT:     -10.9      1.046      1.797
REMARK SMILES C[C@H]1CCC[C@H](C(C)(C)C(=O)NCCCCNC(=O)c2ccc(-c3c4nc(c(-c5c(F)cccc5F)c5ccc([nH]5)c(-c5c(F)cccc5F)c5nc(c(-c6c(F)cccc6F)c6ccc3[nH]6)C=C5)C=C4)cc2)C1
REMARK SMILES IDX 15 1 14 2 13 3 12 4 10 5 11 6 7 8 8 9 9 10 6 11 1 12 2 13
REMARK SMILES IDX 3 14 74 15 4 16 5 17 16 18 17 19 18 20 19 22 20 23 21 24
REMARK SMILES IDX 73 25 22 26 72 27 23 28 24 29 25 30 66 31 26 32 71 33 65 34
REMARK SMILES IDX 67 35 27 36 70 37 64 38 63 39 28 41 54 42 37 43 53 44 38 45
REMARK SMILES IDX 41 46 52 47 68 48 39 49 40 50 51 52 69 53 42 54 29 55 30 56
REMARK SMILES IDX 35 57 31 58 32 59 34 60 36 61 33 62 55 63 56 64 61 65 57 66
REMARK SMILES IDX 58 67 60 68 62 69 59 70 43 71 44 72 49 73 45 74 46 75 48 76
REMARK SMILES IDX 50 77 47 78
REMARK H PARENT 12 7 17 21 67 40 41 51
REMARK Flexibility Score: inf
ROOT
ATOM      1  C   UNL A   1      37.852  19.447  24.918  1.00  0.00     0.023 C 
ENDROOT
BRANCH   1   2
ATOM      2  C   UNL A   1      36.707  20.444  24.709  1.00  0.00     0.023 C 
BRANCH   2   3
ATOM      3  C   UNL A   1      36.654  21.569  25.742  1.00  0.00     0.116 C 
BRANCH   3   4
ATOM      4  N   UNL A   1      35.487  21.436  26.582  1.00  0.00    -0.356 N 
ATOM      5  C   UNL A   1      34.229  21.935  26.546  1.00  0.00     0.225 C 
ATOM      6  O   UNL A   1      33.602  21.697  27.578  1.00  0.00    -0.275 OA
ATOM      7  H   UNL A   1      35.640  20.847  27.357  1.00  0.00     0.163 HD
BRANCH   5   8
ATOM      8  C   UNL A   1      33.622  22.660  25.321  1.00  0.00     0.046 C 
ATOM      9  C   UNL A   1      32.309  23.326  25.801  1.00  0.00     0.022 C 
ATOM     10  C   UNL A   1      33.302  21.645  24.201  1.00  0.00     0.022 C 
BRANCH   8  11
ATOM     11  C   UNL A   1      34.528  23.804  24.670  1.00  0.00     0.004 C 
ATOM     12  C   UNL A   1      33.716  27.383  26.027  1.00  0.00     0.007 C 
ATOM     13  C   UNL A   1      33.481  26.075  25.268  1.00  0.00    -0.014 C 
ATOM     14  C   UNL A   1      33.208  26.361  23.784  1.00  0.00     0.003 C 
ATOM     15  C   UNL A   1      34.666  25.131  25.446  1.00  0.00     0.008 C 
ATOM     16  C   UNL A   1      33.255  25.152  22.845  1.00  0.00     0.001 C 
ATOM     17  C   UNL A   1      34.334  24.126  23.174  1.00  0.00     0.005 C 
ENDBRANCH   8  11
ENDBRANCH   5   8
ENDBRANCH   3   4
ENDBRANCH   2   3
ENDBRANCH   1   2
BRANCH   1  18
ATOM     18  C   UNL A   1      39.000  19.953  25.781  1.00  0.00     0.116 C 
BRANCH  18  19
ATOM     19  N   UNL A   1      40.114  19.020  25.837  1.00  0.00    -0.352 N 
ATOM     20  C   UNL A   1      41.435  19.271  26.099  1.00  0.00     0.251 C 
ATOM     21  H   UNL A   1      39.887  18.078  25.661  1.00  0.00     0.163 HD
ATOM     22  O   UNL A   1      42.271  18.379  25.975  1.00  0.00    -0.269 OA
BRANCH  20  23
ATOM     23  C   UNL A   1      41.851  20.626  26.503  1.00  0.00     0.039 A 
ATOM     24  C   UNL A   1      42.087  21.579  25.512  1.00  0.00     0.014 A 
ATOM     25  C   UNL A   1      41.996  20.956  27.855  1.00  0.00     0.014 A 
ATOM     26  C   UNL A   1      42.435  22.879  25.878  1.00  0.00     0.010 A 
ATOM     27  C   UNL A   1      42.256  22.271  28.218  1.00  0.00     0.010 A 
ATOM     28  C   UNL A   1      42.502  23.240  27.234  1.00  0.00    -0.014 A 
BRANCH  28  29
ATOM     29  C   UNL A   1      42.879  24.615  27.640  1.00  0.00     0.031 A 
ATOM     30  C   UNL A   1      44.328  25.020  27.651  1.00  0.00     0.074 A 
ATOM     31  C   UNL A   1      41.928  25.483  28.035  1.00  0.00     0.049 A 
ATOM     32  N   UNL A   1      44.869  26.156  28.010  1.00  0.00    -0.248 NA
ATOM     33  C   UNL A   1      45.303  24.000  27.228  1.00  0.00     0.031 C 
ATOM     34  C   UNL A   1      40.496  25.195  28.113  1.00  0.00     0.029 A 
ATOM     35  N   UNL A   1      42.029  26.787  28.451  1.00  0.00    -0.354 N 
ATOM     36  C   UNL A   1      46.240  25.981  27.871  1.00  0.00     0.074 A 
ATOM     37  C   UNL A   1      46.454  24.613  27.461  1.00  0.00     0.031 C 
ATOM     38  C   UNL A   1      39.847  26.299  28.521  1.00  0.00     0.029 A 
ATOM     39  C   UNL A   1      40.820  27.358  28.769  1.00  0.00     0.049 A 
ATOM     40  H   UNL A   1      42.885  27.268  28.516  1.00  0.00     0.167 HD
ATOM     41  C   UNL A   1      47.231  26.888  28.042  1.00  0.00     0.037 A 
ATOM     42  C   UNL A   1      40.533  28.595  29.212  1.00  0.00     0.037 A 
ATOM     43  C   UNL A   1      47.012  28.256  28.430  1.00  0.00     0.049 A 
ATOM     44  C   UNL A   1      41.652  29.584  29.397  1.00  0.00     0.074 A 
ATOM     45  C   UNL A   1      47.941  29.268  28.588  1.00  0.00     0.029 A 
ATOM     46  N   UNL A   1      45.771  28.802  28.724  1.00  0.00    -0.354 N 
ATOM     47  N   UNL A   1      42.940  29.425  29.202  1.00  0.00    -0.248 NA
ATOM     48  C   UNL A   1      41.275  30.929  29.850  1.00  0.00     0.031 C 
ATOM     49  C   UNL A   1      47.269  30.415  29.024  1.00  0.00     0.029 A 
ATOM     50  C   UNL A   1      45.913  30.134  29.077  1.00  0.00     0.049 A 
ATOM     51  H   UNL A   1      44.916  28.315  28.688  1.00  0.00     0.167 HD
ATOM     52  C   UNL A   1      43.520  30.659  29.469  1.00  0.00     0.074 A 
ATOM     53  C   UNL A   1      42.442  31.558  29.827  1.00  0.00     0.031 C 
ATOM     54  C   UNL A   1      44.827  31.018  29.418  1.00  0.00     0.037 A 
BRANCH  41  55
ATOM     55  C   UNL A   1      48.640  26.423  27.808  1.00  0.00     0.057 A 
ATOM     56  C   UNL A   1      49.241  26.484  26.542  1.00  0.00     0.134 A 
ATOM     57  C   UNL A   1      49.415  25.925  28.864  1.00  0.00     0.134 A 
ATOM     58  F   UNL A   1      48.552  26.936  25.483  1.00  0.00    -0.206 F 
ATOM     59  C   UNL A   1      50.547  26.036  26.329  1.00  0.00     0.040 A 
ATOM     60  C   UNL A   1      50.732  25.506  28.670  1.00  0.00     0.040 A 
ATOM     61  F   UNL A   1      48.907  25.843  30.103  1.00  0.00    -0.206 F 
ATOM     62  C   UNL A   1      51.299  25.552  27.397  1.00  0.00     0.006 A 
ENDBRANCH  41  55
BRANCH  42  63
ATOM     63  C   UNL A   1      39.125  28.985  29.483  1.00  0.00     0.057 A 
ATOM     64  C   UNL A   1      38.559  28.820  30.753  1.00  0.00     0.134 A 
ATOM     65  C   UNL A   1      38.307  29.515  28.478  1.00  0.00     0.134 A 
ATOM     66  F   UNL A   1      39.287  28.302  31.754  1.00  0.00    -0.206 F 
ATOM     67  C   UNL A   1      37.224  29.138  31.007  1.00  0.00     0.040 A 
ATOM     68  C   UNL A   1      36.978  29.865  28.725  1.00  0.00     0.040 A 
ATOM     69  F   UNL A   1      38.790  29.709  27.242  1.00  0.00    -0.206 F 
ATOM     70  C   UNL A   1      36.430  29.667  29.991  1.00  0.00     0.006 A 
ENDBRANCH  42  63
BRANCH  54  71
ATOM     71  C   UNL A   1      45.154  32.458  29.697  1.00  0.00     0.057 A 
ATOM     72  C   UNL A   1      45.484  32.916  30.978  1.00  0.00     0.134 A 
ATOM     73  C   UNL A   1      45.155  33.396  28.656  1.00  0.00     0.134 A 
ATOM     74  F   UNL A   1      45.491  32.072  32.022  1.00  0.00    -0.206 F 
ATOM     75  C   UNL A   1      45.767  34.261  31.222  1.00  0.00     0.040 A 
ATOM     76  C   UNL A   1      45.469  34.737  28.881  1.00  0.00     0.040 A 
ATOM     77  F   UNL A   1      44.860  33.024  27.401  1.00  0.00    -0.206 F 
ATOM     78  C   UNL A   1      45.765  35.174  30.170  1.00  0.00     0.006 A 
ENDBRANCH  54  71
ENDBRANCH  28  29
ENDBRANCH  20  23
ENDBRANCH  18  19
ENDBRANCH   1  18
TORSDOF 12
ENDMDL
MODEL 3
REMARK VINA RESULT:     -10.8      0.449      6.564
REMARK SMILES C[C@H]1CCC[C@H](C(C)(C)C(=O)NCCCCNC(=O)c2ccc(-c3c4nc(c(-c5c(F)cccc5F)c5ccc([nH]5)c(-c5c(F)cccc5F)c5nc(c(-c6c(F)cccc6F)c6ccc3[nH]6)C=C5)C=C4)cc2)C1
REMARK SMILES IDX 15 1 14 2 13 3 12 4 10 5 11 6 7 8 8 9 9 10 6 11 1 12 2 13
REMARK SMILES IDX 3 14 74 15 4 16 5 17 16 18 17 19 18 20 19 22 20 23 21 24
REMARK SMILES IDX 73 25 22 26 72 27 23 28 24 29 25 30 66 31 26 32 71 33 65 34
REMARK SMILES IDX 67 35 27 36 70 37 64 38 63 39 28 41 54 42 37 43 53 44 38 45
REMARK SMILES IDX 41 46 52 47 68 48 39 49 40 50 51 52 69 53 42 54 29 55 30 56
REMARK SMILES IDX 35 57 31 58 32 59 34 60 36 61 33 62 55 63 56 64 61 65 57 66
REMARK SMILES IDX 58 67 60 68 62 69 59 70 43 71 44 72 49 73 45 74 46 75 48 76
REMARK SMILES IDX 50 77 47 78
REMARK H PARENT 12 7 17 21 67 40 41 51
REMARK Flexibility Score: inf
ROOT
ATOM      1  C   UNL A   1      37.653  19.625  24.857  1.00  0.00     0.023 C 
ENDROOT
BRANCH   1   2
ATOM      2  C   UNL A   1      36.372  20.467  24.859  1.00  0.00     0.023 C 
BRANCH   2   3
ATOM      3  C   UNL A   1      36.427  21.697  25.765  1.00  0.00     0.116 C 
BRANCH   3   4
ATOM      4  N   UNL A   1      35.357  21.665  26.733  1.00  0.00    -0.356 N 
ATOM      5  C   UNL A   1      34.166  22.300  26.855  1.00  0.00     0.225 C 
ATOM      6  O   UNL A   1      33.640  22.100  27.949  1.00  0.00    -0.275 OA
ATOM      7  H   UNL A   1      35.531  21.040  27.474  1.00  0.00     0.163 HD
BRANCH   5   8
ATOM      8  C   UNL A   1      33.508  23.124  25.723  1.00  0.00     0.046 C 
ATOM      9  C   UNL A   1      32.294  23.853  26.348  1.00  0.00     0.022 C 
ATOM     10  C   UNL A   1      33.018  22.190  24.593  1.00  0.00     0.022 C 
BRANCH   8  11
ATOM     11  C   UNL A   1      34.433  24.234  25.041  1.00  0.00     0.004 C 
ATOM     12  C   UNL A   1      33.617  27.872  26.229  1.00  0.00     0.007 C 
ATOM     13  C   UNL A   1      33.388  26.534  25.522  1.00  0.00    -0.014 C 
ATOM     14  C   UNL A   1      33.146  26.758  24.021  1.00  0.00     0.003 C 
ATOM     15  C   UNL A   1      34.564  25.592  25.762  1.00  0.00     0.008 C 
ATOM     16  C   UNL A   1      33.203  25.510  23.136  1.00  0.00     0.001 C 
ATOM     17  C   UNL A   1      34.269  24.494  23.530  1.00  0.00     0.005 C 
ENDBRANCH   8  11
ENDBRANCH   5   8
ENDBRANCH   3   4
ENDBRANCH   2   3
ENDBRANCH   1   2
BRANCH   1  18
ATOM     18  C   UNL A   1      38.790  20.176  25.706  1.00  0.00     0.116 C 
BRANCH  18  19
ATOM     19  N   UNL A   1      39.923  19.268  25.786  1.00  0.00    -0.352 N 
ATOM     20  C   UNL A   1      41.218  19.536  26.143  1.00  0.00     0.251 C 
ATOM     21  H   UNL A   1      39.732  18.331  25.550  1.00  0.00     0.163 HD
ATOM     22  O   UNL A   1      42.083  18.672  26.028  1.00  0.00    -0.269 OA
BRANCH  20  23
ATOM     23  C   UNL A   1      41.571  20.878  26.640  1.00  0.00     0.039 A 
ATOM     24  C   UNL A   1      41.542  21.115  28.015  1.00  0.00     0.014 A 
ATOM     25  C   UNL A   1      41.939  21.894  25.752  1.00  0.00     0.014 A 
ATOM     26  C   UNL A   1      41.919  22.366  28.505  1.00  0.00     0.010 A 
ATOM     27  C   UNL A   1      42.397  23.109  26.247  1.00  0.00     0.010 A 
ATOM     28  C   UNL A   1      42.368  23.365  27.626  1.00  0.00    -0.014 A 
BRANCH  28  29
ATOM     29  C   UNL A   1      42.764  24.702  28.130  1.00  0.00     0.031 A 
ATOM     30  C   UNL A   1      41.716  25.762  28.337  1.00  0.00     0.074 A 
ATOM     31  C   UNL A   1      44.062  24.976  28.362  1.00  0.00     0.049 A 
ATOM     32  N   UNL A   1      41.858  27.002  28.730  1.00  0.00    -0.248 NA
ATOM     33  C   UNL A   1      40.325  25.385  28.035  1.00  0.00     0.031 C 
ATOM     34  C   UNL A   1      45.175  24.048  28.155  1.00  0.00     0.029 A 
ATOM     35  N   UNL A   1      44.664  26.121  28.820  1.00  0.00    -0.354 N 
ATOM     36  C   UNL A   1      40.582  27.553  28.706  1.00  0.00     0.074 A 
ATOM     37  C   UNL A   1      39.690  26.536  28.198  1.00  0.00     0.031 C 
ATOM     38  C   UNL A   1      46.321  24.650  28.513  1.00  0.00     0.029 A 
ATOM     39  C   UNL A   1      46.029  26.015  28.938  1.00  0.00     0.049 A 
ATOM     40  H   UNL A   1      44.165  26.940  29.043  1.00  0.00     0.167 HD
ATOM     41  C   UNL A   1      40.184  28.786  29.100  1.00  0.00     0.037 A 
ATOM     42  C   UNL A   1      46.938  26.920  29.342  1.00  0.00     0.037 A 
ATOM     43  C   UNL A   1      41.073  29.788  29.626  1.00  0.00     0.049 A 
ATOM     44  C   UNL A   1      46.472  28.285  29.772  1.00  0.00     0.074 A 
ATOM     45  C   UNL A   1      40.767  31.052  30.096  1.00  0.00     0.029 A 
ATOM     46  N   UNL A   1      42.447  29.636  29.748  1.00  0.00    -0.354 N 
ATOM     47  N   UNL A   1      45.254  28.773  29.805  1.00  0.00    -0.248 NA
ATOM     48  C   UNL A   1      47.506  29.219  30.236  1.00  0.00     0.031 C 
ATOM     49  C   UNL A   1      41.960  31.685  30.458  1.00  0.00     0.029 A 
ATOM     50  C   UNL A   1      43.004  30.791  30.273  1.00  0.00     0.049 A 
ATOM     51  H   UNL A   1      42.951  28.828  29.499  1.00  0.00     0.167 HD
ATOM     52  C   UNL A   1      45.372  30.054  30.329  1.00  0.00     0.074 A 
ATOM     53  C   UNL A   1      46.777  30.261  30.612  1.00  0.00     0.031 C 
ATOM     54  C   UNL A   1      44.404  30.975  30.561  1.00  0.00     0.037 A 
BRANCH  41  55
ATOM     55  C   UNL A   1      38.723  29.113  28.975  1.00  0.00     0.057 A 
ATOM     56  C   UNL A   1      37.844  29.009  30.063  1.00  0.00     0.134 A 
ATOM     57  C   UNL A   1      38.190  29.556  27.758  1.00  0.00     0.134 A 
ATOM     58  F   UNL A   1      38.285  28.577  31.254  1.00  0.00    -0.206 F 
ATOM     59  C   UNL A   1      36.485  29.301  29.936  1.00  0.00     0.040 A 
ATOM     60  C   UNL A   1      36.839  29.882  27.627  1.00  0.00     0.040 A 
ATOM     61  F   UNL A   1      38.974  29.683  26.676  1.00  0.00    -0.206 F 
ATOM     62  C   UNL A   1      35.980  29.746  28.716  1.00  0.00     0.006 A 
ENDBRANCH  41  55
BRANCH  42  63
ATOM     63  C   UNL A   1      48.380  26.562  29.392  1.00  0.00     0.057 A 
ATOM     64  C   UNL A   1      48.931  25.934  30.516  1.00  0.00     0.134 A 
ATOM     65  C   UNL A   1      49.243  26.852  28.329  1.00  0.00     0.134 A 
ATOM     66  F   UNL A   1      48.158  25.644  31.574  1.00  0.00    -0.206 F 
ATOM     67  C   UNL A   1      50.291  25.636  30.594  1.00  0.00     0.040 A 
ATOM     68  C   UNL A   1      50.601  26.532  28.381  1.00  0.00     0.040 A 
ATOM     69  F   UNL A   1      48.776  27.442  27.219  1.00  0.00    -0.206 F 
ATOM     70  C   UNL A   1      51.131  25.932  29.521  1.00  0.00     0.006 A 
ENDBRANCH  42  63
BRANCH  54  71
ATOM     71  C   UNL A   1      44.826  32.266  31.206  1.00  0.00     0.057 A 
ATOM     72  C   UNL A   1      45.203  33.387  30.458  1.00  0.00     0.134 A 
ATOM     73  C   UNL A   1      44.832  32.388  32.602  1.00  0.00     0.134 A 
ATOM     74  F   UNL A   1      45.229  33.335  29.117  1.00  0.00    -0.206 F 
ATOM     75  C   UNL A   1      45.609  34.572  31.075  1.00  0.00     0.040 A 
ATOM     76  C   UNL A   1      45.204  33.577  33.230  1.00  0.00     0.040 A 
ATOM     77  F   UNL A   1      44.469  31.356  33.379  1.00  0.00    -0.206 F 
ATOM     78  C   UNL A   1      45.605  34.670  32.465  1.00  0.00     0.006 A 
ENDBRANCH  54  71
ENDBRANCH  28  29
ENDBRANCH  20  23
ENDBRANCH  18  19
ENDBRANCH   1  18
TORSDOF 12
ENDMDL
