MODEL 1
REMARK VINA RESULT:     -12.6      0.000      0.000
REMARK SMILES Cc1ccc(Nc2c(F)cccc2Cl)c(CC(=O)NCCCCNC(=O)c2ccc(-c3c4nc(c(-c5c(F)cccc5F)c5ccc([nH]5)c(-c5c(F)cccc5F)c5nc(c(-c6c(F)cccc6F)c6ccc3[nH]6)C=C5)C=C4)cc2)c1
REMARK SMILES IDX 21 1 20 2 19 3 17 4 18 5 16 7 15 8 1 9 2 10 3 11 81 12 4 13
REMARK SMILES IDX 5 14 6 15 7 17 8 18 13 19 9 20 10 21 12 22 14 23 11 24 22 25
REMARK SMILES IDX 23 26 24 27 25 28 26 30 27 31 28 32 80 33 29 34 79 35 30 36
REMARK SMILES IDX 31 37 32 38 73 39 33 40 78 41 72 42 74 43 34 44 77 45 71 46
REMARK SMILES IDX 70 47 35 49 61 50 44 51 60 52 45 53 48 54 59 55 75 56 46 57
REMARK SMILES IDX 47 58 58 60 76 61 49 62 36 63 37 64 42 65 38 66 39 67 41 68
REMARK SMILES IDX 43 69 40 70 62 71 63 72 68 73 64 74 65 75 67 76 69 77 66 78
REMARK SMILES IDX 50 79 51 80 56 81 52 82 53 83 55 84 57 85 54 86
REMARK H PARENT 19 6 6 16 24 29 74 48 48 59
REMARK Flexibility Score: inf
ROOT
ATOM      1  C   UNL A   1      32.228  30.097  26.264  1.00  0.00     0.023 C 
ENDROOT
BRANCH   1   2
ATOM      2  C   UNL A   1      33.091  28.936  25.741  1.00  0.00     0.116 C 
BRANCH   2   3
ATOM      3  N   UNL A   1      33.707  29.205  24.454  1.00  0.00    -0.356 N 
ATOM      4  C   UNL A   1      33.790  28.421  23.343  1.00  0.00     0.224 C 
ATOM      5  O   UNL A   1      34.470  28.823  22.393  1.00  0.00    -0.275 OA
ATOM      6  H   UNL A   1      34.130  30.091  24.372  1.00  0.00     0.163 HD
BRANCH   4   7
ATOM      7  C   UNL A   1      33.089  27.077  23.267  1.00  0.00     0.137 C 
BRANCH   7   8
ATOM      8  C   UNL A   1      31.581  27.177  23.306  1.00  0.00    -0.015 A 
ATOM      9  C   UNL A   1      29.011  29.680  21.979  1.00  0.00     0.044 C 
ATOM     10  C   UNL A   1      29.616  28.488  22.656  1.00  0.00    -0.051 A 
ATOM     11  C   UNL A   1      28.823  27.646  23.430  1.00  0.00     0.005 A 
ATOM     12  C   UNL A   1      30.984  28.225  22.568  1.00  0.00     0.009 A 
ATOM     13  C   UNL A   1      29.395  26.571  24.117  1.00  0.00     0.026 A 
ATOM     14  C   UNL A   1      30.776  26.321  24.092  1.00  0.00     0.042 A 
BRANCH  14  15
ATOM     15  N   UNL A   1      31.335  25.248  24.820  1.00  0.00    -0.352 N 
ATOM     16  H   UNL A   1      31.290  25.337  25.799  1.00  0.00     0.167 HD
BRANCH  15  17
ATOM     17  C   UNL A   1      31.952  24.063  24.351  1.00  0.00     0.094 A 
ATOM     18  C   UNL A   1      31.310  23.185  23.464  1.00  0.00     0.148 A 
ATOM     19  C   UNL A   1      33.212  23.670  24.841  1.00  0.00     0.067 A 
ATOM     20  F   UNL A   1      30.115  23.504  22.940  1.00  0.00    -0.205 F 
ATOM     21  C   UNL A   1      31.882  21.971  23.082  1.00  0.00     0.041 A 
ATOM     22  C   UNL A   1      33.791  22.451  24.466  1.00  0.00     0.023 A 
ATOM     23  Cl  UNL A   1      34.076  24.656  25.972  1.00  0.00    -0.082 Cl
ATOM     24  C   UNL A   1      33.123  21.599  23.588  1.00  0.00     0.005 A 
ENDBRANCH  15  17
ENDBRANCH  14  15
ENDBRANCH   7   8
ENDBRANCH   4   7
ENDBRANCH   2   3
ENDBRANCH   1   2
BRANCH   1  25
ATOM     25  C   UNL A   1      32.913  31.042  27.253  1.00  0.00     0.023 C 
BRANCH  25  26
ATOM     26  C   UNL A   1      34.117  30.433  27.952  1.00  0.00     0.116 C 
BRANCH  26  27
ATOM     27  N   UNL A   1      34.916  31.379  28.722  1.00  0.00    -0.352 N 
ATOM     28  C   UNL A   1      36.161  31.206  29.307  1.00  0.00     0.251 C 
ATOM     29  H   UNL A   1      34.513  32.269  28.845  1.00  0.00     0.163 HD
ATOM     30  O   UNL A   1      36.662  32.104  29.966  1.00  0.00    -0.269 OA
BRANCH  28  31
ATOM     31  C   UNL A   1      36.949  29.984  29.000  1.00  0.00     0.039 A 
ATOM     32  C   UNL A   1      37.103  29.043  30.026  1.00  0.00     0.014 A 
ATOM     33  C   UNL A   1      37.717  29.886  27.844  1.00  0.00     0.014 A 
ATOM     34  C   UNL A   1      38.215  28.208  30.020  1.00  0.00     0.010 A 
ATOM     35  C   UNL A   1      38.875  29.132  27.881  1.00  0.00     0.010 A 
ATOM     36  C   UNL A   1      39.166  28.369  29.015  1.00  0.00    -0.014 A 
BRANCH  36  37
ATOM     37  C   UNL A   1      40.549  27.932  29.160  1.00  0.00     0.031 A 
ATOM     38  C   UNL A   1      40.982  26.609  28.674  1.00  0.00     0.074 A 
ATOM     39  C   UNL A   1      41.459  28.797  29.666  1.00  0.00     0.049 A 
ATOM     40  N   UNL A   1      42.122  26.083  28.968  1.00  0.00    -0.248 NA
ATOM     41  C   UNL A   1      40.134  25.729  27.873  1.00  0.00     0.031 C 
ATOM     42  C   UNL A   1      42.916  28.697  29.621  1.00  0.00     0.029 A 
ATOM     43  N   UNL A   1      41.216  29.842  30.572  1.00  0.00    -0.354 N 
ATOM     44  C   UNL A   1      42.282  24.977  28.176  1.00  0.00     0.074 A 
ATOM     45  C   UNL A   1      40.976  24.720  27.625  1.00  0.00     0.031 C 
ATOM     46  C   UNL A   1      43.428  29.386  30.651  1.00  0.00     0.029 A 
ATOM     47  C   UNL A   1      42.311  29.823  31.469  1.00  0.00     0.049 A 
ATOM     48  H   UNL A   1      40.447  30.456  30.582  1.00  0.00     0.167 HD
ATOM     49  C   UNL A   1      43.538  24.492  27.981  1.00  0.00     0.037 A 
ATOM     50  C   UNL A   1      42.128  29.501  32.784  1.00  0.00     0.037 A 
ATOM     51  C   UNL A   1      44.466  24.995  28.995  1.00  0.00     0.049 A 
ATOM     52  C   UNL A   1      42.862  28.256  33.246  1.00  0.00     0.074 A 
ATOM     53  C   UNL A   1      45.544  25.861  29.020  1.00  0.00     0.029 A 
ATOM     54  N   UNL A   1      44.169  24.724  30.322  1.00  0.00    -0.354 N 
ATOM     55  N   UNL A   1      43.604  27.502  32.481  1.00  0.00    -0.248 NA
ATOM     56  C   UNL A   1      42.727  27.712  34.599  1.00  0.00     0.031 C 
ATOM     57  C   UNL A   1      45.834  26.163  30.391  1.00  0.00     0.029 A 
ATOM     58  C   UNL A   1      44.957  25.449  31.189  1.00  0.00     0.049 A 
ATOM     59  H   UNL A   1      43.474  24.089  30.610  1.00  0.00     0.167 HD
ATOM     60  C   UNL A   1      43.976  26.381  33.175  1.00  0.00     0.074 A 
ATOM     61  C   UNL A   1      43.412  26.561  34.500  1.00  0.00     0.031 C 
ATOM     62  C   UNL A   1      44.676  25.353  32.613  1.00  0.00     0.037 A 
BRANCH  49  63
ATOM     63  C   UNL A   1      43.949  23.634  26.808  1.00  0.00     0.057 A 
ATOM     64  C   UNL A   1      44.633  24.202  25.717  1.00  0.00     0.134 A 
ATOM     65  C   UNL A   1      43.590  22.281  26.628  1.00  0.00     0.134 A 
ATOM     66  F   UNL A   1      45.010  25.489  25.722  1.00  0.00    -0.206 F 
ATOM     67  C   UNL A   1      44.943  23.479  24.554  1.00  0.00     0.040 A 
ATOM     68  C   UNL A   1      43.944  21.535  25.497  1.00  0.00     0.040 A 
ATOM     69  F   UNL A   1      42.819  21.620  27.499  1.00  0.00    -0.206 F 
ATOM     70  C   UNL A   1      44.613  22.136  24.447  1.00  0.00     0.006 A 
ENDBRANCH  49  63
BRANCH  50  71
ATOM     71  C   UNL A   1      40.821  29.972  33.315  1.00  0.00     0.057 A 
ATOM     72  C   UNL A   1      40.662  31.338  33.609  1.00  0.00     0.134 A 
ATOM     73  C   UNL A   1      39.657  29.205  33.208  1.00  0.00     0.134 A 
ATOM     74  F   UNL A   1      41.739  32.133  33.725  1.00  0.00    -0.206 F 
ATOM     75  C   UNL A   1      39.403  31.939  33.676  1.00  0.00     0.040 A 
ATOM     76  C   UNL A   1      38.390  29.793  33.293  1.00  0.00     0.040 A 
ATOM     77  F   UNL A   1      39.722  27.901  32.903  1.00  0.00    -0.206 F 
ATOM     78  C   UNL A   1      38.261  31.168  33.486  1.00  0.00     0.006 A 
ENDBRANCH  50  71
BRANCH  62  79
ATOM     79  C   UNL A   1      45.100  24.140  33.391  1.00  0.00     0.057 A 
ATOM     80  C   UNL A   1      44.239  23.056  33.615  1.00  0.00     0.134 A 
ATOM     81  C   UNL A   1      46.351  24.071  34.033  1.00  0.00     0.134 A 
ATOM     82  F   UNL A   1      43.002  23.040  33.094  1.00  0.00    -0.206 F 
ATOM     83  C   UNL A   1      44.612  21.954  34.393  1.00  0.00     0.040 A 
ATOM     84  C   UNL A   1      46.718  22.997  34.851  1.00  0.00     0.040 A 
ATOM     85  F   UNL A   1      47.277  25.027  33.872  1.00  0.00    -0.206 F 
ATOM     86  C   UNL A   1      45.851  21.927  35.025  1.00  0.00     0.006 A 
ENDBRANCH  62  79
ENDBRANCH  36  37
ENDBRANCH  28  31
ENDBRANCH  26  27
ENDBRANCH  25  26
ENDBRANCH   1  25
TORSDOF 14
ENDMDL
MODEL 2
REMARK VINA RESULT:     -12.5      1.754      2.552
REMARK SMILES Cc1ccc(Nc2c(F)cccc2Cl)c(CC(=O)NCCCCNC(=O)c2ccc(-c3c4nc(c(-c5c(F)cccc5F)c5ccc([nH]5)c(-c5c(F)cccc5F)c5nc(c(-c6c(F)cccc6F)c6ccc3[nH]6)C=C5)C=C4)cc2)c1
REMARK SMILES IDX 21 1 20 2 19 3 17 4 18 5 16 7 15 8 1 9 2 10 3 11 81 12 4 13
REMARK SMILES IDX 5 14 6 15 7 17 8 18 13 19 9 20 10 21 12 22 14 23 11 24 22 25
REMARK SMILES IDX 23 26 24 27 25 28 26 30 27 31 28 32 80 33 29 34 79 35 30 36
REMARK SMILES IDX 31 37 32 38 73 39 33 40 78 41 72 42 74 43 34 44 77 45 71 46
REMARK SMILES IDX 70 47 35 49 61 50 44 51 60 52 45 53 48 54 59 55 75 56 46 57
REMARK SMILES IDX 47 58 58 60 76 61 49 62 36 63 37 64 42 65 38 66 39 67 41 68
REMARK SMILES IDX 43 69 40 70 62 71 63 72 68 73 64 74 65 75 67 76 69 77 66 78
REMARK SMILES IDX 50 79 51 80 56 81 52 82 53 83 55 84 57 85 54 86
REMARK H PARENT 19 6 6 16 24 29 74 48 48 59
REMARK Flexibility Score: inf
ROOT
ATOM      1  C   UNL A   1      31.851  29.633  26.905  1.00  0.00     0.023 C 
ENDROOT
BRANCH   1   2
ATOM      2  C   UNL A   1      32.429  28.208  26.931  1.00  0.00     0.116 C 
BRANCH   2   3
ATOM      3  N   UNL A   1      31.415  27.170  26.878  1.00  0.00    -0.356 N 
ATOM      4  C   UNL A   1      31.515  25.869  26.486  1.00  0.00     0.224 C 
ATOM      5  O   UNL A   1      30.481  25.198  26.417  1.00  0.00    -0.275 OA
ATOM      6  H   UNL A   1      30.516  27.450  27.167  1.00  0.00     0.163 HD
BRANCH   4   7
ATOM      7  C   UNL A   1      32.853  25.251  26.123  1.00  0.00     0.137 C 
BRANCH   7   8
ATOM      8  C   UNL A   1      32.970  24.870  24.665  1.00  0.00    -0.015 A 
ATOM      9  C   UNL A   1      31.701  26.364  21.380  1.00  0.00     0.044 C 
ATOM     10  C   UNL A   1      32.377  25.455  22.361  1.00  0.00    -0.051 A 
ATOM     11  C   UNL A   1      32.907  24.240  21.937  1.00  0.00     0.005 A 
ATOM     12  C   UNL A   1      32.447  25.779  23.716  1.00  0.00     0.009 A 
ATOM     13  C   UNL A   1      33.480  23.358  22.859  1.00  0.00     0.026 A 
ATOM     14  C   UNL A   1      33.509  23.636  24.236  1.00  0.00     0.042 A 
BRANCH  14  15
ATOM     15  N   UNL A   1      34.064  22.716  25.153  1.00  0.00    -0.352 N 
ATOM     16  H   UNL A   1      33.424  22.316  25.785  1.00  0.00     0.167 HD
BRANCH  15  17
ATOM     17  C   UNL A   1      35.404  22.283  25.297  1.00  0.00     0.094 A 
ATOM     18  C   UNL A   1      36.452  23.173  25.579  1.00  0.00     0.148 A 
ATOM     19  C   UNL A   1      35.750  20.938  25.063  1.00  0.00     0.067 A 
ATOM     20  F   UNL A   1      36.194  24.466  25.832  1.00  0.00    -0.205 F 
ATOM     21  C   UNL A   1      37.783  22.756  25.623  1.00  0.00     0.041 A 
ATOM     22  C   UNL A   1      37.084  20.513  25.101  1.00  0.00     0.023 A 
ATOM     23  Cl  UNL A   1      34.542  19.763  24.667  1.00  0.00    -0.082 Cl
ATOM     24  C   UNL A   1      38.102  21.424  25.378  1.00  0.00     0.005 A 
ENDBRANCH  15  17
ENDBRANCH  14  15
ENDBRANCH   7   8
ENDBRANCH   4   7
ENDBRANCH   2   3
ENDBRANCH   1   2
BRANCH   1  25
ATOM     25  C   UNL A   1      32.842  30.759  27.206  1.00  0.00     0.023 C 
BRANCH  25  26
ATOM     26  C   UNL A   1      34.210  30.271  27.652  1.00  0.00     0.116 C 
BRANCH  26  27
ATOM     27  N   UNL A   1      34.980  31.240  28.423  1.00  0.00    -0.352 N 
ATOM     28  C   UNL A   1      36.205  31.086  29.054  1.00  0.00     0.251 C 
ATOM     29  H   UNL A   1      34.571  32.131  28.508  1.00  0.00     0.163 HD
ATOM     30  O   UNL A   1      36.682  32.003  29.705  1.00  0.00    -0.269 OA
BRANCH  28  31
ATOM     31  C   UNL A   1      37.005  29.858  28.807  1.00  0.00     0.039 A 
ATOM     32  C   UNL A   1      37.137  28.953  29.867  1.00  0.00     0.014 A 
ATOM     33  C   UNL A   1      37.803  29.726  27.674  1.00  0.00     0.014 A 
ATOM     34  C   UNL A   1      38.253  28.124  29.917  1.00  0.00     0.010 A 
ATOM     35  C   UNL A   1      38.963  28.980  27.766  1.00  0.00     0.010 A 
ATOM     36  C   UNL A   1      39.228  28.256  28.931  1.00  0.00    -0.014 A 
BRANCH  36  37
ATOM     37  C   UNL A   1      40.609  27.830  29.125  1.00  0.00     0.031 A 
ATOM     38  C   UNL A   1      41.065  26.503  28.673  1.00  0.00     0.074 A 
ATOM     39  C   UNL A   1      41.497  28.709  29.645  1.00  0.00     0.049 A 
ATOM     40  N   UNL A   1      42.199  25.989  29.010  1.00  0.00    -0.248 NA
ATOM     41  C   UNL A   1      40.247  25.605  27.861  1.00  0.00     0.031 C 
ATOM     42  C   UNL A   1      42.956  28.619  29.646  1.00  0.00     0.029 A 
ATOM     43  N   UNL A   1      41.220  29.766  30.526  1.00  0.00    -0.354 N 
ATOM     44  C   UNL A   1      42.391  24.873  28.241  1.00  0.00     0.074 A 
ATOM     45  C   UNL A   1      41.103  24.598  27.654  1.00  0.00     0.031 C 
ATOM     46  C   UNL A   1      43.432  29.328  30.680  1.00  0.00     0.029 A 
ATOM     47  C   UNL A   1      42.288  29.770  31.457  1.00  0.00     0.049 A 
ATOM     48  H   UNL A   1      40.447  30.376  30.503  1.00  0.00     0.167 HD
ATOM     49  C   UNL A   1      43.654  24.393  28.092  1.00  0.00     0.037 A 
ATOM     50  C   UNL A   1      42.066  29.467  32.770  1.00  0.00     0.037 A 
ATOM     51  C   UNL A   1      44.549  24.918  29.125  1.00  0.00     0.049 A 
ATOM     52  C   UNL A   1      42.794  28.234  33.274  1.00  0.00     0.074 A 
ATOM     53  C   UNL A   1      45.619  25.792  29.169  1.00  0.00     0.029 A 
ATOM     54  N   UNL A   1      44.212  24.666  30.446  1.00  0.00    -0.354 N 
ATOM     55  N   UNL A   1      43.564  27.474  32.544  1.00  0.00    -0.248 NA
ATOM     56  C   UNL A   1      42.622  27.710  34.630  1.00  0.00     0.031 C 
ATOM     57  C   UNL A   1      45.865  26.118  30.543  1.00  0.00     0.029 A 
ATOM     58  C   UNL A   1      44.969  25.410  31.326  1.00  0.00     0.049 A 
ATOM     59  H   UNL A   1      43.513  24.031  30.723  1.00  0.00     0.167 HD
ATOM     60  C   UNL A   1      43.922  26.366  33.266  1.00  0.00     0.074 A 
ATOM     61  C   UNL A   1      43.317  26.563  34.570  1.00  0.00     0.031 C 
ATOM     62  C   UNL A   1      44.645  25.334  32.742  1.00  0.00     0.037 A 
BRANCH  49  63
ATOM     63  C   UNL A   1      44.106  23.521  26.945  1.00  0.00     0.057 A 
ATOM     64  C   UNL A   1      44.968  24.033  25.957  1.00  0.00     0.134 A 
ATOM     65  C   UNL A   1      43.631  22.218  26.682  1.00  0.00     0.134 A 
ATOM     66  F   UNL A   1      45.475  25.272  26.047  1.00  0.00    -0.206 F 
ATOM     67  C   UNL A   1      45.334  23.305  24.814  1.00  0.00     0.040 A 
ATOM     68  C   UNL A   1      44.033  21.462  25.573  1.00  0.00     0.040 A 
ATOM     69  F   UNL A   1      42.699  21.627  27.438  1.00  0.00    -0.206 F 
ATOM     70  C   UNL A   1      44.879  22.008  24.627  1.00  0.00     0.006 A 
ENDBRANCH  49  63
BRANCH  50  71
ATOM     71  C   UNL A   1      40.741  29.936  33.254  1.00  0.00     0.057 A 
ATOM     72  C   UNL A   1      40.558  31.309  33.499  1.00  0.00     0.134 A 
ATOM     73  C   UNL A   1      39.590  29.151  33.144  1.00  0.00     0.134 A 
ATOM     74  F   UNL A   1      41.621  32.122  33.616  1.00  0.00    -0.206 F 
ATOM     75  C   UNL A   1      39.289  31.894  33.516  1.00  0.00     0.040 A 
ATOM     76  C   UNL A   1      38.313  29.724  33.178  1.00  0.00     0.040 A 
ATOM     77  F   UNL A   1      39.679  27.839  32.883  1.00  0.00    -0.206 F 
ATOM     78  C   UNL A   1      38.163  31.102  33.324  1.00  0.00     0.006 A 
ENDBRANCH  50  71
BRANCH  62  79
ATOM     79  C   UNL A   1      45.053  24.137  33.551  1.00  0.00     0.057 A 
ATOM     80  C   UNL A   1      46.325  24.025  34.134  1.00  0.00     0.134 A 
ATOM     81  C   UNL A   1      44.220  23.010  33.681  1.00  0.00     0.134 A 
ATOM     82  F   UNL A   1      47.221  25.019  34.027  1.00  0.00    -0.206 F 
ATOM     83  C   UNL A   1      46.728  22.883  34.834  1.00  0.00     0.040 A 
ATOM     84  C   UNL A   1      44.628  21.844  34.338  1.00  0.00     0.040 A 
ATOM     85  F   UNL A   1      42.969  23.002  33.199  1.00  0.00    -0.206 F 
ATOM     86  C   UNL A   1      45.883  21.781  34.928  1.00  0.00     0.006 A 
ENDBRANCH  62  79
ENDBRANCH  36  37
ENDBRANCH  28  31
ENDBRANCH  26  27
ENDBRANCH  25  26
ENDBRANCH   1  25
TORSDOF 14
ENDMDL
MODEL 3
REMARK VINA RESULT:     -12.5      1.536      1.952
REMARK SMILES Cc1ccc(Nc2c(F)cccc2Cl)c(CC(=O)NCCCCNC(=O)c2ccc(-c3c4nc(c(-c5c(F)cccc5F)c5ccc([nH]5)c(-c5c(F)cccc5F)c5nc(c(-c6c(F)cccc6F)c6ccc3[nH]6)C=C5)C=C4)cc2)c1
REMARK SMILES IDX 21 1 20 2 19 3 17 4 18 5 16 7 15 8 1 9 2 10 3 11 81 12 4 13
REMARK SMILES IDX 5 14 6 15 7 17 8 18 13 19 9 20 10 21 12 22 14 23 11 24 22 25
REMARK SMILES IDX 23 26 24 27 25 28 26 30 27 31 28 32 80 33 29 34 79 35 30 36
REMARK SMILES IDX 31 37 32 38 73 39 33 40 78 41 72 42 74 43 34 44 77 45 71 46
REMARK SMILES IDX 70 47 35 49 61 50 44 51 60 52 45 53 48 54 59 55 75 56 46 57
REMARK SMILES IDX 47 58 58 60 76 61 49 62 36 63 37 64 42 65 38 66 39 67 41 68
REMARK SMILES IDX 43 69 40 70 62 71 63 72 68 73 64 74 65 75 67 76 69 77 66 78
REMARK SMILES IDX 50 79 51 80 56 81 52 82 53 83 55 84 57 85 54 86
REMARK H PARENT 19 6 6 16 24 29 74 48 48 59
REMARK Flexibility Score: inf
ROOT
ATOM      1  C   UNL A   1      34.048  28.920  27.255  1.00  0.00     0.023 C 
ENDROOT
BRANCH   1   2
ATOM      2  C   UNL A   1      32.892  27.974  26.886  1.00  0.00     0.116 C 
BRANCH   2   3
ATOM      3  N   UNL A   1      32.114  28.427  25.747  1.00  0.00    -0.356 N 
ATOM      4  C   UNL A   1      32.437  28.458  24.424  1.00  0.00     0.224 C 
ATOM      5  O   UNL A   1      31.648  28.998  23.642  1.00  0.00    -0.275 OA
ATOM      6  H   UNL A   1      31.214  28.764  25.964  1.00  0.00     0.163 HD
BRANCH   4   7
ATOM      7  C   UNL A   1      33.737  27.867  23.911  1.00  0.00     0.137 C 
BRANCH   7   8
ATOM      8  C   UNL A   1      33.560  26.559  23.175  1.00  0.00    -0.015 A 
ATOM      9  C   UNL A   1      32.420  25.578  19.658  1.00  0.00     0.044 C 
ATOM     10  C   UNL A   1      32.902  25.485  21.074  1.00  0.00    -0.051 A 
ATOM     11  C   UNL A   1      32.987  24.247  21.703  1.00  0.00     0.005 A 
ATOM     12  C   UNL A   1      33.227  26.630  21.803  1.00  0.00     0.009 A 
ATOM     13  C   UNL A   1      33.373  24.160  23.044  1.00  0.00     0.026 A 
ATOM     14  C   UNL A   1      33.647  25.301  23.816  1.00  0.00     0.042 A 
BRANCH  14  15
ATOM     15  N   UNL A   1      34.004  25.191  25.178  1.00  0.00    -0.352 N 
ATOM     16  H   UNL A   1      34.368  26.011  25.583  1.00  0.00     0.167 HD
BRANCH  15  17
ATOM     17  C   UNL A   1      33.915  24.077  26.046  1.00  0.00     0.094 A 
ATOM     18  C   UNL A   1      34.998  23.213  26.270  1.00  0.00     0.148 A 
ATOM     19  C   UNL A   1      32.688  23.737  26.650  1.00  0.00     0.067 A 
ATOM     20  F   UNL A   1      36.202  23.484  25.742  1.00  0.00    -0.205 F 
ATOM     21  C   UNL A   1      34.875  22.062  27.049  1.00  0.00     0.041 A 
ATOM     22  C   UNL A   1      32.557  22.582  27.430  1.00  0.00     0.023 A 
ATOM     23  Cl  UNL A   1      31.277  24.711  26.409  1.00  0.00    -0.082 Cl
ATOM     24  C   UNL A   1      33.651  21.741  27.626  1.00  0.00     0.005 A 
ENDBRANCH  15  17
ENDBRANCH  14  15
ENDBRANCH   7   8
ENDBRANCH   4   7
ENDBRANCH   2   3
ENDBRANCH   1   2
BRANCH   1  25
ATOM     25  C   UNL A   1      33.646  30.352  27.612  1.00  0.00     0.023 C 
BRANCH  25  26
ATOM     26  C   UNL A   1      34.800  31.342  27.576  1.00  0.00     0.116 C 
BRANCH  26  27
ATOM     27  N   UNL A   1      35.252  31.796  28.886  1.00  0.00    -0.352 N 
ATOM     28  C   UNL A   1      36.144  31.200  29.763  1.00  0.00     0.251 C 
ATOM     29  H   UNL A   1      34.868  32.650  29.191  1.00  0.00     0.163 HD
ATOM     30  O   UNL A   1      36.369  31.705  30.852  1.00  0.00    -0.269 OA
BRANCH  28  31
ATOM     31  C   UNL A   1      36.941  30.029  29.311  1.00  0.00     0.039 A 
ATOM     32  C   UNL A   1      37.063  28.953  30.199  1.00  0.00     0.014 A 
ATOM     33  C   UNL A   1      37.745  30.092  28.176  1.00  0.00     0.014 A 
ATOM     34  C   UNL A   1      38.175  28.122  30.109  1.00  0.00     0.010 A 
ATOM     35  C   UNL A   1      38.901  29.335  28.143  1.00  0.00     0.010 A 
ATOM     36  C   UNL A   1      39.157  28.418  29.166  1.00  0.00    -0.014 A 
BRANCH  36  37
ATOM     37  C   UNL A   1      40.535  27.959  29.290  1.00  0.00     0.031 A 
ATOM     38  C   UNL A   1      40.941  26.634  28.789  1.00  0.00     0.074 A 
ATOM     39  C   UNL A   1      41.464  28.807  29.791  1.00  0.00     0.049 A 
ATOM     40  N   UNL A   1      42.077  26.088  29.064  1.00  0.00    -0.248 NA
ATOM     41  C   UNL A   1      40.070  25.773  27.992  1.00  0.00     0.031 C 
ATOM     42  C   UNL A   1      42.919  28.685  29.727  1.00  0.00     0.029 A 
ATOM     43  N   UNL A   1      41.249  29.848  30.708  1.00  0.00    -0.354 N 
ATOM     44  C   UNL A   1      42.211  24.987  28.262  1.00  0.00     0.074 A 
ATOM     45  C   UNL A   1      40.894  24.753  27.726  1.00  0.00     0.031 C 
ATOM     46  C   UNL A   1      43.454  29.359  30.756  1.00  0.00     0.029 A 
ATOM     47  C   UNL A   1      42.355  29.807  31.591  1.00  0.00     0.049 A 
ATOM     48  H   UNL A   1      40.489  30.474  30.732  1.00  0.00     0.167 HD
ATOM     49  C   UNL A   1      43.456  24.484  28.048  1.00  0.00     0.037 A 
ATOM     50  C   UNL A   1      42.183  29.477  32.905  1.00  0.00     0.037 A 
ATOM     51  C   UNL A   1      44.405  24.965  29.053  1.00  0.00     0.049 A 
ATOM     52  C   UNL A   1      42.904  28.218  33.349  1.00  0.00     0.074 A 
ATOM     53  C   UNL A   1      45.496  25.815  29.071  1.00  0.00     0.029 A 
ATOM     54  N   UNL A   1      44.120  24.689  30.382  1.00  0.00    -0.354 N 
ATOM     55  N   UNL A   1      43.625  27.458  32.569  1.00  0.00    -0.248 NA
ATOM     56  C   UNL A   1      42.778  27.665  34.699  1.00  0.00     0.031 C 
ATOM     57  C   UNL A   1      45.807  26.102  30.440  1.00  0.00     0.029 A 
ATOM     58  C   UNL A   1      44.930  25.395  31.244  1.00  0.00     0.049 A 
ATOM     59  H   UNL A   1      43.419  24.062  30.674  1.00  0.00     0.167 HD
ATOM     60  C   UNL A   1      43.989  26.327  33.250  1.00  0.00     0.074 A 
ATOM     61  C   UNL A   1      43.444  26.505  34.583  1.00  0.00     0.031 C 
ATOM     62  C   UNL A   1      44.665  25.292  32.671  1.00  0.00     0.037 A 
BRANCH  49  63
ATOM     63  C   UNL A   1      43.839  23.629  26.863  1.00  0.00     0.057 A 
ATOM     64  C   UNL A   1      44.531  24.191  25.774  1.00  0.00     0.134 A 
ATOM     65  C   UNL A   1      43.445  22.288  26.670  1.00  0.00     0.134 A 
ATOM     66  F   UNL A   1      44.941  25.468  25.791  1.00  0.00    -0.206 F 
ATOM     67  C   UNL A   1      44.818  23.474  24.602  1.00  0.00     0.040 A 
ATOM     68  C   UNL A   1      43.774  21.546  25.529  1.00  0.00     0.040 A 
ATOM     69  F   UNL A   1      42.662  21.637  27.538  1.00  0.00    -0.206 F 
ATOM     70  C   UNL A   1      44.453  22.141  24.482  1.00  0.00     0.006 A 
ENDBRANCH  49  63
BRANCH  50  71
ATOM     71  C   UNL A   1      40.890  29.963  33.457  1.00  0.00     0.057 A 
ATOM     72  C   UNL A   1      40.783  31.312  33.841  1.00  0.00     0.134 A 
ATOM     73  C   UNL A   1      39.698  29.253  33.289  1.00  0.00     0.134 A 
ATOM     74  F   UNL A   1      41.889  32.053  34.019  1.00  0.00    -0.206 F 
ATOM     75  C   UNL A   1      39.547  31.957  33.938  1.00  0.00     0.040 A 
ATOM     76  C   UNL A   1      38.454  29.885  33.403  1.00  0.00     0.040 A 
ATOM     77  F   UNL A   1      39.715  27.971  32.897  1.00  0.00    -0.206 F 
ATOM     78  C   UNL A   1      38.378  31.247  33.687  1.00  0.00     0.006 A 
ENDBRANCH  50  71
BRANCH  62  79
ATOM     79  C   UNL A   1      45.081  24.067  33.434  1.00  0.00     0.057 A 
ATOM     80  C   UNL A   1      44.225  22.971  33.613  1.00  0.00     0.134 A 
ATOM     81  C   UNL A   1      46.315  23.996  34.107  1.00  0.00     0.134 A 
ATOM     82  F   UNL A   1      43.001  22.954  33.060  1.00  0.00    -0.206 F 
ATOM     83  C   UNL A   1      44.588  21.856  34.377  1.00  0.00     0.040 A 
ATOM     84  C   UNL A   1      46.671  22.909  34.912  1.00  0.00     0.040 A 
ATOM     85  F   UNL A   1      47.236  24.963  33.990  1.00  0.00    -0.206 F 
ATOM     86  C   UNL A   1      45.811  21.828  35.041  1.00  0.00     0.006 A 
ENDBRANCH  62  79
ENDBRANCH  36  37
ENDBRANCH  28  31
ENDBRANCH  26  27
ENDBRANCH  25  26
ENDBRANCH   1  25
TORSDOF 14
ENDMDL
