MODEL 1
REMARK VINA RESULT:     -12.6      0.000      0.000
REMARK SMILES C[C@]12C[C@@H](O)[C@@H]3[C@@H](CCC4=CC(=O)CC[C@]43C)[C@H]1CC[C@]2(O)C(=O)COC(=O)CCC(=O)NCCCCNC(=O)c1ccc(-c2c3nc(c(-c4c(F)cccc4F)c4ccc([nH]4)c(-c4c(F)cccc4F)c4nc(c(-c5c(F)cccc5F)c5ccc2[nH]5)C=C4)C=C3)cc1
REMARK SMILES IDX 31 1 32 2 33 3 30 5 29 6 27 7 28 8 26 9 25 10 23 11 24 12
REMARK SMILES IDX 21 13 17 14 16 15 15 16 10 17 6 18 14 19 11 20 9 21 7 22
REMARK SMILES IDX 4 23 12 24 8 25 18 26 3 27 13 28 2 29 19 30 1 31 20 32 5 33
REMARK SMILES IDX 22 35 34 37 35 38 36 39 37 40 38 41 39 42 40 44 41 45 42 46
REMARK SMILES IDX 94 47 43 48 93 49 44 50 45 51 46 52 87 53 47 54 92 55 86 56
REMARK SMILES IDX 88 57 48 58 91 59 85 60 84 61 49 63 75 64 58 65 74 66 59 67
REMARK SMILES IDX 62 68 73 69 89 70 60 71 61 72 72 74 90 75 63 76 50 77 51 78
REMARK SMILES IDX 56 79 52 80 53 81 55 82 57 83 54 84 76 85 77 86 82 87 78 88
REMARK SMILES IDX 79 89 81 90 83 91 80 92 64 93 65 94 70 95 66 96 67 97 69 98
REMARK SMILES IDX 71 99 68 100
REMARK H PARENT 33 4 5 34 22 36 38 43 88 62 62 73
REMARK Flexibility Score: inf
ROOT
ATOM      1  C   UNL A   1      41.882  21.337  26.931  1.00  0.00     0.220 C 
ATOM      2  O   UNL A   1      42.179  20.846  25.838  1.00  0.00    -0.275 OA
ATOM      3  N   UNL A   1      42.916  21.657  27.755  1.00  0.00    -0.356 N 
ATOM      4  H   UNL A   1      43.743  21.158  27.559  1.00  0.00     0.163 HD
ENDROOT
BRANCH   1   5
ATOM      5  C   UNL A   1      40.424  21.574  27.266  1.00  0.00     0.111 C 
BRANCH   5   6
ATOM      6  C   UNL A   1      39.642  22.321  26.205  1.00  0.00     0.132 C 
BRANCH   6   7
ATOM      7  C   UNL A   1      38.619  21.380  25.648  1.00  0.00     0.306 C 
ATOM      8  O   UNL A   1      38.801  20.210  25.382  1.00  0.00    -0.252 OA
BRANCH   7   9
ATOM      9  O   UNL A   1      37.498  22.093  25.407  1.00  0.00    -0.458 OA
BRANCH   9  10
ATOM     10  C   UNL A   1      36.692  21.639  24.362  1.00  0.00     0.311 C 
BRANCH  10  11
ATOM     11  C   UNL A   1      35.764  22.636  23.675  1.00  0.00     0.202 C 
ATOM     12  O   UNL A   1      36.371  23.329  22.840  1.00  0.00    -0.293 OA
BRANCH  11  13
ATOM     13  C   UNL A   1      34.417  23.195  24.216  1.00  0.00     0.132 C 
ATOM     14  C   UNL A   1      31.449  28.751  25.063  1.00  0.00     0.016 C 
ATOM     15  C   UNL A   1      31.121  27.413  24.365  1.00  0.00    -0.005 C 
ATOM     16  C   UNL A   1      29.568  27.392  24.125  1.00  0.00     0.020 C 
ATOM     17  C   UNL A   1      31.670  27.375  22.930  1.00  0.00    -0.060 C 
ATOM     18  C   UNL A   1      31.543  26.163  25.274  1.00  0.00     0.031 C 
ATOM     19  C   UNL A   1      29.108  28.088  22.819  1.00  0.00     0.081 C 
ATOM     20  C   UNL A   1      31.595  28.467  22.145  1.00  0.00     0.047 C 
ATOM     21  C   UNL A   1      31.473  26.060  22.217  1.00  0.00     0.032 C 
ATOM     22  C   UNL A   1      31.501  24.827  24.469  1.00  0.00    -0.000 C 
ATOM     23  C   UNL A   1      32.801  26.173  26.227  1.00  0.00     0.119 C 
ATOM     24  C   UNL A   1      30.170  28.969  22.170  1.00  0.00     0.155 C 
ATOM     25  C   UNL A   1      32.094  25.020  23.083  1.00  0.00     0.009 C 
ATOM     26  C   UNL A   1      32.195  23.699  25.268  1.00  0.00     0.002 C 
ATOM     27  C   UNL A   1      34.035  25.374  25.755  1.00  0.00     0.042 C 
ATOM     28  O   UNL A   1      29.905  30.056  21.662  1.00  0.00    -0.295 OA
ATOM     29  C   UNL A   1      33.753  23.868  25.521  1.00  0.00     0.009 C 
ATOM     30  C   UNL A   1      32.086  22.316  24.663  1.00  0.00     0.008 C 
ATOM     31  C   UNL A   1      33.949  23.125  26.875  1.00  0.00     0.015 C 
ATOM     32  C   UNL A   1      33.326  22.142  23.808  1.00  0.00     0.044 C 
BRANCH  23  33
ATOM     33  O   UNL A   1      33.248  27.451  26.641  1.00  0.00    -0.393 OA
ATOM     34  H   UNL A   1      33.747  27.367  27.468  1.00  0.00     0.210 HD
ENDBRANCH  23  33
BRANCH  13  35
ATOM     35  O   UNL A   1      34.548  24.206  23.190  1.00  0.00    -0.381 OA
ATOM     36  H   UNL A   1      35.345  24.734  23.357  1.00  0.00     0.212 HD
ENDBRANCH  13  35
ENDBRANCH  11  13
ENDBRANCH  10  11
ENDBRANCH   9  10
ENDBRANCH   7   9
ENDBRANCH   6   7
ENDBRANCH   5   6
ENDBRANCH   1   5
BRANCH   3  37
ATOM     37  C   UNL A   1      43.049  22.583  28.865  1.00  0.00     0.116 C 
BRANCH  37  38
ATOM     38  C   UNL A   1      44.483  22.953  29.258  1.00  0.00     0.023 C 
BRANCH  38  39
ATOM     39  C   UNL A   1      44.942  24.313  28.701  1.00  0.00     0.023 C 
BRANCH  39  40
ATOM     40  C   UNL A   1      45.814  24.308  27.443  1.00  0.00     0.116 C 
BRANCH  40  41
ATOM     41  N   UNL A   1      45.158  23.817  26.245  1.00  0.00    -0.352 N 
ATOM     42  C   UNL A   1      44.104  24.332  25.513  1.00  0.00     0.251 C 
ATOM     43  H   UNL A   1      45.526  22.974  25.892  1.00  0.00     0.163 HD
ATOM     44  O   UNL A   1      43.757  23.819  24.453  1.00  0.00    -0.269 OA
BRANCH  42  45
ATOM     45  C   UNL A   1      43.291  25.430  26.052  1.00  0.00     0.039 A 
ATOM     46  C   UNL A   1      42.059  25.049  26.587  1.00  0.00     0.014 A 
ATOM     47  C   UNL A   1      43.768  26.731  26.197  1.00  0.00     0.014 A 
ATOM     48  C   UNL A   1      41.411  25.901  27.460  1.00  0.00     0.010 A 
ATOM     49  C   UNL A   1      43.167  27.556  27.129  1.00  0.00     0.010 A 
ATOM     50  C   UNL A   1      42.029  27.107  27.813  1.00  0.00    -0.014 A 
BRANCH  50  51
ATOM     51  C   UNL A   1      41.568  27.839  29.001  1.00  0.00     0.031 A 
ATOM     52  C   UNL A   1      42.278  27.668  30.297  1.00  0.00     0.074 A 
ATOM     53  C   UNL A   1      40.453  28.587  28.888  1.00  0.00     0.049 A 
ATOM     54  N   UNL A   1      42.018  28.218  31.450  1.00  0.00    -0.248 NA
ATOM     55  C   UNL A   1      43.411  26.730  30.310  1.00  0.00     0.031 C 
ATOM     56  C   UNL A   1      39.654  28.742  27.664  1.00  0.00     0.029 A 
ATOM     57  N   UNL A   1      39.798  29.360  29.806  1.00  0.00    -0.354 N 
ATOM     58  C   UNL A   1      42.950  27.689  32.329  1.00  0.00     0.074 A 
ATOM     59  C   UNL A   1      43.738  26.727  31.593  1.00  0.00     0.031 C 
ATOM     60  C   UNL A   1      38.648  29.598  27.899  1.00  0.00     0.029 A 
ATOM     61  C   UNL A   1      38.707  30.019  29.292  1.00  0.00     0.049 A 
ATOM     62  H   UNL A   1      40.081  29.437  30.745  1.00  0.00     0.167 HD
ATOM     63  C   UNL A   1      43.137  28.008  33.629  1.00  0.00     0.037 A 
ATOM     64  C   UNL A   1      37.858  30.875  29.889  1.00  0.00     0.037 A 
ATOM     65  C   UNL A   1      42.338  28.977  34.327  1.00  0.00     0.049 A 
ATOM     66  C   UNL A   1      38.092  31.208  31.334  1.00  0.00     0.074 A 
ATOM     67  C   UNL A   1      42.473  29.434  35.624  1.00  0.00     0.029 A 
ATOM     68  N   UNL A   1      41.241  29.634  33.781  1.00  0.00    -0.354 N 
ATOM     69  N   UNL A   1      39.036  30.779  32.139  1.00  0.00    -0.248 NA
ATOM     70  C   UNL A   1      37.149  32.145  31.956  1.00  0.00     0.031 C 
ATOM     71  C   UNL A   1      41.423  30.321  35.883  1.00  0.00     0.029 A 
ATOM     72  C   UNL A   1      40.670  30.468  34.727  1.00  0.00     0.049 A 
ATOM     73  H   UNL A   1      40.919  29.523  32.857  1.00  0.00     0.167 HD
ATOM     74  C   UNL A   1      38.823  31.417  33.352  1.00  0.00     0.074 A 
ATOM     75  C   UNL A   1      37.666  32.273  33.170  1.00  0.00     0.031 C 
ATOM     76  C   UNL A   1      39.518  31.309  34.511  1.00  0.00     0.037 A 
BRANCH  63  77
ATOM     77  C   UNL A   1      44.232  27.289  34.360  1.00  0.00     0.057 A 
ATOM     78  C   UNL A   1      44.003  26.091  35.052  1.00  0.00     0.134 A 
ATOM     79  C   UNL A   1      45.533  27.805  34.378  1.00  0.00     0.134 A 
ATOM     80  F   UNL A   1      42.774  25.554  35.093  1.00  0.00    -0.206 F 
ATOM     81  C   UNL A   1      45.020  25.451  35.762  1.00  0.00     0.040 A 
ATOM     82  C   UNL A   1      46.566  27.156  35.057  1.00  0.00     0.040 A 
ATOM     83  F   UNL A   1      45.823  28.949  33.742  1.00  0.00    -0.206 F 
ATOM     84  C   UNL A   1      46.308  25.981  35.760  1.00  0.00     0.006 A 
ENDBRANCH  63  77
BRANCH  64  85
ATOM     85  C   UNL A   1      36.757  31.503  29.115  1.00  0.00     0.057 A 
ATOM     86  C   UNL A   1      35.622  30.768  28.754  1.00  0.00     0.134 A 
ATOM     87  C   UNL A   1      36.804  32.846  28.722  1.00  0.00     0.134 A 
ATOM     88  F   UNL A   1      35.521  29.474  29.092  1.00  0.00    -0.206 F 
ATOM     89  C   UNL A   1      34.585  31.336  28.010  1.00  0.00     0.040 A 
ATOM     90  C   UNL A   1      35.763  33.436  28.001  1.00  0.00     0.040 A 
ATOM     91  F   UNL A   1      37.855  33.611  29.049  1.00  0.00    -0.206 F 
ATOM     92  C   UNL A   1      34.653  32.677  27.636  1.00  0.00     0.006 A 
ENDBRANCH  64  85
BRANCH  76  93
ATOM     93  C   UNL A   1      39.063  32.164  35.656  1.00  0.00     0.057 A 
ATOM     94  C   UNL A   1      38.236  31.667  36.671  1.00  0.00     0.134 A 
ATOM     95  C   UNL A   1      39.495  33.493  35.764  1.00  0.00     0.134 A 
ATOM     96  F   UNL A   1      37.778  30.406  36.618  1.00  0.00    -0.206 F 
ATOM     97  C   UNL A   1      37.835  32.469  37.739  1.00  0.00     0.040 A 
ATOM     98  C   UNL A   1      39.127  34.293  36.843  1.00  0.00     0.040 A 
ATOM     99  F   UNL A   1      40.297  34.027  34.830  1.00  0.00    -0.206 F 
ATOM    100  C   UNL A   1      38.289  33.783  37.832  1.00  0.00     0.006 A 
ENDBRANCH  76  93
ENDBRANCH  50  51
ENDBRANCH  42  45
ENDBRANCH  40  41
ENDBRANCH  39  40
ENDBRANCH  38  39
ENDBRANCH  37  38
ENDBRANCH   3  37
TORSDOF 19
ENDMDL
MODEL 2
REMARK VINA RESULT:     -12.5      3.766      9.831
REMARK SMILES C[C@]12C[C@@H](O)[C@@H]3[C@@H](CCC4=CC(=O)CC[C@]43C)[C@H]1CC[C@]2(O)C(=O)COC(=O)CCC(=O)NCCCCNC(=O)c1ccc(-c2c3nc(c(-c4c(F)cccc4F)c4ccc([nH]4)c(-c4c(F)cccc4F)c4nc(c(-c5c(F)cccc5F)c5ccc2[nH]5)C=C4)C=C3)cc1
REMARK SMILES IDX 31 1 32 2 33 3 30 5 29 6 27 7 28 8 26 9 25 10 23 11 24 12
REMARK SMILES IDX 21 13 17 14 16 15 15 16 10 17 6 18 14 19 11 20 9 21 7 22
REMARK SMILES IDX 4 23 12 24 8 25 18 26 3 27 13 28 2 29 19 30 1 31 20 32 5 33
REMARK SMILES IDX 22 35 34 37 35 38 36 39 37 40 38 41 39 42 40 44 41 45 42 46
REMARK SMILES IDX 94 47 43 48 93 49 44 50 45 51 46 52 87 53 47 54 92 55 86 56
REMARK SMILES IDX 88 57 48 58 91 59 85 60 84 61 49 63 75 64 58 65 74 66 59 67
REMARK SMILES IDX 62 68 73 69 89 70 60 71 61 72 72 74 90 75 63 76 50 77 51 78
REMARK SMILES IDX 56 79 52 80 53 81 55 82 57 83 54 84 76 85 77 86 82 87 78 88
REMARK SMILES IDX 79 89 81 90 83 91 80 92 64 93 65 94 70 95 66 96 67 97 69 98
REMARK SMILES IDX 71 99 68 100
REMARK H PARENT 33 4 5 34 22 36 38 43 88 62 62 73
REMARK Flexibility Score: inf
ROOT
ATOM      1  C   UNL A   1      35.639  33.874  29.280  1.00  0.00     0.220 C 
ATOM      2  O   UNL A   1      34.709  33.951  30.089  1.00  0.00    -0.275 OA
ATOM      3  N   UNL A   1      36.805  34.477  29.636  1.00  0.00    -0.356 N 
ATOM      4  H   UNL A   1      36.690  35.188  30.308  1.00  0.00     0.163 HD
ENDROOT
BRANCH   1   5
ATOM      5  C   UNL A   1      35.437  33.109  27.989  1.00  0.00     0.111 C 
BRANCH   5   6
ATOM      6  C   UNL A   1      35.116  31.639  28.166  1.00  0.00     0.132 C 
BRANCH   6   7
ATOM      7  C   UNL A   1      33.739  31.407  27.625  1.00  0.00     0.306 C 
ATOM      8  O   UNL A   1      32.884  32.254  27.474  1.00  0.00    -0.252 OA
BRANCH   7   9
ATOM      9  O   UNL A   1      33.595  30.078  27.431  1.00  0.00    -0.458 OA
BRANCH   9  10
ATOM     10  C   UNL A   1      32.292  29.622  27.231  1.00  0.00     0.311 C 
BRANCH  10  11
ATOM     11  C   UNL A   1      31.887  29.169  25.833  1.00  0.00     0.202 C 
ATOM     12  O   UNL A   1      31.289  30.067  25.214  1.00  0.00    -0.293 OA
BRANCH  11  13
ATOM     13  C   UNL A   1      31.678  27.709  25.340  1.00  0.00     0.132 C 
ATOM     14  C   UNL A   1      34.942  22.983  22.617  1.00  0.00     0.016 C 
ATOM     15  C   UNL A   1      34.076  23.146  23.886  1.00  0.00    -0.005 C 
ATOM     16  C   UNL A   1      33.703  21.699  24.374  1.00  0.00     0.020 C 
ATOM     17  C   UNL A   1      34.901  23.682  25.067  1.00  0.00    -0.060 C 
ATOM     18  C   UNL A   1      32.740  23.973  23.577  1.00  0.00     0.031 C 
ATOM     19  C   UNL A   1      34.763  21.033  25.287  1.00  0.00     0.081 C 
ATOM     20  C   UNL A   1      36.154  23.235  25.278  1.00  0.00     0.047 C 
ATOM     21  C   UNL A   1      34.103  23.960  26.316  1.00  0.00     0.032 C 
ATOM     22  C   UNL A   1      32.014  24.404  24.890  1.00  0.00    -0.000 C 
ATOM     23  C   UNL A   1      32.671  25.143  22.520  1.00  0.00     0.119 C 
ATOM     24  C   UNL A   1      36.123  21.725  25.277  1.00  0.00     0.155 C 
ATOM     25  C   UNL A   1      33.019  24.900  25.917  1.00  0.00     0.009 C 
ATOM     26  C   UNL A   1      30.913  25.444  24.575  1.00  0.00     0.002 C 
ATOM     27  C   UNL A   1      32.616  26.581  23.079  1.00  0.00     0.042 C 
ATOM     28  O   UNL A   1      37.180  21.100  25.280  1.00  0.00    -0.295 OA
ATOM     29  C   UNL A   1      31.404  26.843  24.009  1.00  0.00     0.009 C 
ATOM     30  C   UNL A   1      30.033  25.828  25.744  1.00  0.00     0.008 C 
ATOM     31  C   UNL A   1      30.201  27.279  23.121  1.00  0.00     0.015 C 
ATOM     32  C   UNL A   1      30.677  27.056  26.359  1.00  0.00     0.044 C 
BRANCH  23  33
ATOM     33  O   UNL A   1      33.660  25.113  21.506  1.00  0.00    -0.393 OA
ATOM     34  H   UNL A   1      33.458  25.786  20.838  1.00  0.00     0.210 HD
ENDBRANCH  23  33
BRANCH  13  35
ATOM     35  O   UNL A   1      33.042  27.484  25.764  1.00  0.00    -0.381 OA
ATOM     36  H   UNL A   1      33.640  28.035  25.234  1.00  0.00     0.212 HD
ENDBRANCH  13  35
ENDBRANCH  11  13
ENDBRANCH  10  11
ENDBRANCH   9  10
ENDBRANCH   7   9
ENDBRANCH   6   7
ENDBRANCH   5   6
ENDBRANCH   1   5
BRANCH   3  37
ATOM     37  C   UNL A   1      38.185  34.286  29.226  1.00  0.00     0.116 C 
BRANCH  37  38
ATOM     38  C   UNL A   1      39.191  34.054  30.358  1.00  0.00     0.023 C 
BRANCH  38  39
ATOM     39  C   UNL A   1      38.877  34.857  31.634  1.00  0.00     0.023 C 
BRANCH  39  40
ATOM     40  C   UNL A   1      38.620  34.071  32.922  1.00  0.00     0.116 C 
BRANCH  40  41
ATOM     41  N   UNL A   1      37.256  33.603  33.091  1.00  0.00    -0.352 N 
ATOM     42  C   UNL A   1      36.708  32.341  32.954  1.00  0.00     0.251 C 
ATOM     43  H   UNL A   1      36.611  34.302  33.347  1.00  0.00     0.163 HD
ATOM     44  O   UNL A   1      35.535  32.123  33.248  1.00  0.00    -0.269 OA
BRANCH  42  45
ATOM     45  C   UNL A   1      37.480  31.259  32.331  1.00  0.00     0.039 A 
ATOM     46  C   UNL A   1      37.274  31.095  30.960  1.00  0.00     0.014 A 
ATOM     47  C   UNL A   1      38.483  30.557  32.998  1.00  0.00     0.014 A 
ATOM     48  C   UNL A   1      38.213  30.409  30.215  1.00  0.00     0.010 A 
ATOM     49  C   UNL A   1      39.466  29.937  32.249  1.00  0.00     0.010 A 
ATOM     50  C   UNL A   1      39.364  29.929  30.851  1.00  0.00    -0.014 A 
BRANCH  50  51
ATOM     51  C   UNL A   1      40.532  29.546  30.047  1.00  0.00     0.031 A 
ATOM     52  C   UNL A   1      41.602  30.543  29.773  1.00  0.00     0.074 A 
ATOM     53  C   UNL A   1      40.553  28.309  29.512  1.00  0.00     0.049 A 
ATOM     54  N   UNL A   1      42.698  30.398  29.082  1.00  0.00    -0.248 NA
ATOM     55  C   UNL A   1      41.400  31.894  30.320  1.00  0.00     0.031 C 
ATOM     56  C   UNL A   1      39.499  27.297  29.672  1.00  0.00     0.029 A 
ATOM     57  N   UNL A   1      41.488  27.687  28.732  1.00  0.00    -0.354 N 
ATOM     58  C   UNL A   1      43.314  31.639  29.105  1.00  0.00     0.074 A 
ATOM     59  C   UNL A   1      42.441  32.541  29.820  1.00  0.00     0.031 C 
ATOM     60  C   UNL A   1      39.874  26.168  29.051  1.00  0.00     0.029 A 
ATOM     61  C   UNL A   1      41.167  26.388  28.419  1.00  0.00     0.049 A 
ATOM     62  H   UNL A   1      42.312  28.129  28.423  1.00  0.00     0.167 HD
ATOM     63  C   UNL A   1      44.519  31.976  28.592  1.00  0.00     0.037 A 
ATOM     64  C   UNL A   1      41.856  25.479  27.706  1.00  0.00     0.037 A 
ATOM     65  C   UNL A   1      45.366  31.049  27.892  1.00  0.00     0.049 A 
ATOM     66  C   UNL A   1      43.190  25.884  27.148  1.00  0.00     0.074 A 
ATOM     67  C   UNL A   1      46.635  31.253  27.385  1.00  0.00     0.029 A 
ATOM     68  N   UNL A   1      45.019  29.736  27.594  1.00  0.00    -0.354 N 
ATOM     69  N   UNL A   1      43.817  27.033  27.254  1.00  0.00    -0.248 NA
ATOM     70  C   UNL A   1      43.917  24.870  26.375  1.00  0.00     0.031 C 
ATOM     71  C   UNL A   1      47.031  30.085  26.727  1.00  0.00     0.029 A 
ATOM     72  C   UNL A   1      46.037  29.129  26.879  1.00  0.00     0.049 A 
ATOM     73  H   UNL A   1      44.174  29.302  27.853  1.00  0.00     0.167 HD
ATOM     74  C   UNL A   1      45.024  26.871  26.591  1.00  0.00     0.074 A 
ATOM     75  C   UNL A   1      45.046  25.507  26.099  1.00  0.00     0.031 C 
ATOM     76  C   UNL A   1      46.027  27.766  26.406  1.00  0.00     0.037 A 
BRANCH  63  77
ATOM     77  C   UNL A   1      44.963  33.398  28.761  1.00  0.00     0.057 A 
ATOM     78  C   UNL A   1      44.634  34.397  27.833  1.00  0.00     0.134 A 
ATOM     79  C   UNL A   1      45.737  33.775  29.866  1.00  0.00     0.134 A 
ATOM     80  F   UNL A   1      43.914  34.099  26.741  1.00  0.00    -0.206 F 
ATOM     81  C   UNL A   1      45.086  35.709  27.980  1.00  0.00     0.040 A 
ATOM     82  C   UNL A   1      46.166  35.091  30.041  1.00  0.00     0.040 A 
ATOM     83  F   UNL A   1      46.092  32.871  30.790  1.00  0.00    -0.206 F 
ATOM     84  C   UNL A   1      45.849  36.060  29.091  1.00  0.00     0.006 A 
ENDBRANCH  63  77
BRANCH  64  85
ATOM     85  C   UNL A   1      41.324  24.104  27.528  1.00  0.00     0.057 A 
ATOM     86  C   UNL A   1      41.850  23.029  28.254  1.00  0.00     0.134 A 
ATOM     87  C   UNL A   1      40.280  23.827  26.637  1.00  0.00     0.134 A 
ATOM     88  F   UNL A   1      42.859  23.228  29.117  1.00  0.00    -0.206 F 
ATOM     89  C   UNL A   1      41.376  21.727  28.086  1.00  0.00     0.040 A 
ATOM     90  C   UNL A   1      39.777  22.533  26.477  1.00  0.00     0.040 A 
ATOM     91  F   UNL A   1      39.720  24.813  25.922  1.00  0.00    -0.206 F 
ATOM     92  C   UNL A   1      40.332  21.478  27.198  1.00  0.00     0.006 A 
ENDBRANCH  64  85
BRANCH  76  93
ATOM     93  C   UNL A   1      47.240  27.281  25.670  1.00  0.00     0.057 A 
ATOM     94  C   UNL A   1      47.405  27.488  24.295  1.00  0.00     0.134 A 
ATOM     95  C   UNL A   1      48.275  26.635  26.358  1.00  0.00     0.134 A 
ATOM     96  F   UNL A   1      46.444  28.089  23.577  1.00  0.00    -0.206 F 
ATOM     97  C   UNL A   1      48.547  27.047  23.626  1.00  0.00     0.040 A 
ATOM     98  C   UNL A   1      49.435  26.219  25.707  1.00  0.00     0.040 A 
ATOM     99  F   UNL A   1      48.182  26.415  27.679  1.00  0.00    -0.206 F 
ATOM    100  C   UNL A   1      49.570  26.419  24.335  1.00  0.00     0.006 A 
ENDBRANCH  76  93
ENDBRANCH  50  51
ENDBRANCH  42  45
ENDBRANCH  40  41
ENDBRANCH  39  40
ENDBRANCH  38  39
ENDBRANCH  37  38
ENDBRANCH   3  37
TORSDOF 19
ENDMDL
MODEL 3
REMARK VINA RESULT:     -12.3      1.045      5.966
REMARK SMILES C[C@]12C[C@@H](O)[C@@H]3[C@@H](CCC4=CC(=O)CC[C@]43C)[C@H]1CC[C@]2(O)C(=O)COC(=O)CCC(=O)NCCCCNC(=O)c1ccc(-c2c3nc(c(-c4c(F)cccc4F)c4ccc([nH]4)c(-c4c(F)cccc4F)c4nc(c(-c5c(F)cccc5F)c5ccc2[nH]5)C=C4)C=C3)cc1
REMARK SMILES IDX 31 1 32 2 33 3 30 5 29 6 27 7 28 8 26 9 25 10 23 11 24 12
REMARK SMILES IDX 21 13 17 14 16 15 15 16 10 17 6 18 14 19 11 20 9 21 7 22
REMARK SMILES IDX 4 23 12 24 8 25 18 26 3 27 13 28 2 29 19 30 1 31 20 32 5 33
REMARK SMILES IDX 22 35 34 37 35 38 36 39 37 40 38 41 39 42 40 44 41 45 42 46
REMARK SMILES IDX 94 47 43 48 93 49 44 50 45 51 46 52 87 53 47 54 92 55 86 56
REMARK SMILES IDX 88 57 48 58 91 59 85 60 84 61 49 63 75 64 58 65 74 66 59 67
REMARK SMILES IDX 62 68 73 69 89 70 60 71 61 72 72 74 90 75 63 76 50 77 51 78
REMARK SMILES IDX 56 79 52 80 53 81 55 82 57 83 54 84 76 85 77 86 82 87 78 88
REMARK SMILES IDX 79 89 81 90 83 91 80 92 64 93 65 94 70 95 66 96 67 97 69 98
REMARK SMILES IDX 71 99 68 100
REMARK H PARENT 33 4 5 34 22 36 38 43 88 62 62 73
REMARK Flexibility Score: inf
ROOT
ATOM      1  C   UNL A   1      42.093  21.214  27.031  1.00  0.00     0.220 C 
ATOM      2  O   UNL A   1      42.455  20.698  25.969  1.00  0.00    -0.275 OA
ATOM      3  N   UNL A   1      43.078  21.604  27.884  1.00  0.00    -0.356 N 
ATOM      4  H   UNL A   1      43.932  21.135  27.739  1.00  0.00     0.163 HD
ENDROOT
BRANCH   1   5
ATOM      5  C   UNL A   1      40.614  21.399  27.298  1.00  0.00     0.111 C 
BRANCH   5   6
ATOM      6  C   UNL A   1      39.792  21.778  26.082  1.00  0.00     0.132 C 
BRANCH   6   7
ATOM      7  C   UNL A   1      38.906  20.616  25.754  1.00  0.00     0.306 C 
ATOM      8  O   UNL A   1      39.280  19.510  25.423  1.00  0.00    -0.252 OA
BRANCH   7   9
ATOM      9  O   UNL A   1      37.629  21.052  25.797  1.00  0.00    -0.458 OA
BRANCH   9  10
ATOM     10  C   UNL A   1      37.000  21.243  24.566  1.00  0.00     0.311 C 
BRANCH  10  11
ATOM     11  C   UNL A   1      36.537  22.647  24.197  1.00  0.00     0.202 C 
ATOM     12  O   UNL A   1      37.393  23.503  24.484  1.00  0.00    -0.293 OA
BRANCH  11  13
ATOM     13  C   UNL A   1      35.072  23.140  24.023  1.00  0.00     0.132 C 
ATOM     14  C   UNL A   1      30.889  27.036  26.801  1.00  0.00     0.016 C 
ATOM     15  C   UNL A   1      31.466  26.859  25.379  1.00  0.00    -0.005 C 
ATOM     16  C   UNL A   1      30.512  27.635  24.400  1.00  0.00     0.020 C 
ATOM     17  C   UNL A   1      32.791  27.619  25.209  1.00  0.00    -0.060 C 
ATOM     18  C   UNL A   1      31.525  25.314  24.963  1.00  0.00     0.031 C 
ATOM     19  C   UNL A   1      30.831  29.144  24.250  1.00  0.00     0.081 C 
ATOM     20  C   UNL A   1      32.943  28.846  25.744  1.00  0.00     0.047 C 
ATOM     21  C   UNL A   1      33.465  27.415  23.875  1.00  0.00     0.032 C 
ATOM     22  C   UNL A   1      32.375  25.099  23.672  1.00  0.00    -0.000 C 
ATOM     23  C   UNL A   1      31.812  24.151  25.991  1.00  0.00     0.119 C 
ATOM     24  C   UNL A   1      31.770  29.696  25.319  1.00  0.00     0.155 C 
ATOM     25  C   UNL A   1      33.637  25.944  23.717  1.00  0.00     0.009 C 
ATOM     26  C   UNL A   1      32.666  23.593  23.468  1.00  0.00     0.002 C 
ATOM     27  C   UNL A   1      33.217  23.513  25.942  1.00  0.00     0.042 C 
ATOM     28  O   UNL A   1      31.609  30.802  25.829  1.00  0.00    -0.295 OA
ATOM     29  C   UNL A   1      33.575  22.895  24.566  1.00  0.00     0.009 C 
ATOM     30  C   UNL A   1      33.353  23.238  22.167  1.00  0.00     0.008 C 
ATOM     31  C   UNL A   1      33.049  21.429  24.545  1.00  0.00     0.015 C 
ATOM     32  C   UNL A   1      34.839  23.236  22.473  1.00  0.00     0.044 C 
BRANCH  23  33
ATOM     33  O   UNL A   1      31.519  24.443  27.345  1.00  0.00    -0.393 OA
ATOM     34  H   UNL A   1      30.738  25.015  27.391  1.00  0.00     0.210 HD
ENDBRANCH  23  33
BRANCH  13  35
ATOM     35  O   UNL A   1      35.549  24.405  24.537  1.00  0.00    -0.381 OA
ATOM     36  H   UNL A   1      35.752  24.999  23.797  1.00  0.00     0.212 HD
ENDBRANCH  13  35
ENDBRANCH  11  13
ENDBRANCH  10  11
ENDBRANCH   9  10
ENDBRANCH   7   9
ENDBRANCH   6   7
ENDBRANCH   5   6
ENDBRANCH   1   5
BRANCH   3  37
ATOM     37  C   UNL A   1      43.126  22.573  28.964  1.00  0.00     0.116 C 
BRANCH  37  38
ATOM     38  C   UNL A   1      44.510  23.146  29.285  1.00  0.00     0.023 C 
BRANCH  38  39
ATOM     39  C   UNL A   1      44.726  24.572  28.745  1.00  0.00     0.023 C 
BRANCH  39  40
ATOM     40  C   UNL A   1      45.393  24.720  27.376  1.00  0.00     0.116 C 
BRANCH  40  41
ATOM     41  N   UNL A   1      44.674  24.107  26.273  1.00  0.00    -0.352 N 
ATOM     42  C   UNL A   1      43.503  24.476  25.638  1.00  0.00     0.251 C 
ATOM     43  H   UNL A   1      45.090  23.288  25.917  1.00  0.00     0.163 HD
ATOM     44  O   UNL A   1      43.106  23.878  24.642  1.00  0.00    -0.269 OA
BRANCH  42  45
ATOM     45  C   UNL A   1      42.639  25.512  26.217  1.00  0.00     0.039 A 
ATOM     46  C   UNL A   1      41.573  25.036  26.983  1.00  0.00     0.014 A 
ATOM     47  C   UNL A   1      42.944  26.872  26.173  1.00  0.00     0.014 A 
ATOM     48  C   UNL A   1      40.957  25.886  27.882  1.00  0.00     0.010 A 
ATOM     49  C   UNL A   1      42.386  27.706  27.123  1.00  0.00     0.010 A 
ATOM     50  C   UNL A   1      41.446  27.190  28.025  1.00  0.00    -0.014 A 
BRANCH  50  51
ATOM     51  C   UNL A   1      41.079  27.977  29.211  1.00  0.00     0.031 A 
ATOM     52  C   UNL A   1      39.915  28.903  29.154  1.00  0.00     0.074 A 
ATOM     53  C   UNL A   1      41.871  27.889  30.297  1.00  0.00     0.049 A 
ATOM     54  N   UNL A   1      39.444  29.682  30.086  1.00  0.00    -0.248 NA
ATOM     55  C   UNL A   1      39.205  28.990  27.868  1.00  0.00     0.031 C 
ATOM     56  C   UNL A   1      43.079  27.058  30.403  1.00  0.00     0.029 A 
ATOM     57  N   UNL A   1      41.783  28.495  31.520  1.00  0.00    -0.354 N 
ATOM     58  C   UNL A   1      38.386  30.359  29.500  1.00  0.00     0.074 A 
ATOM     59  C   UNL A   1      38.326  29.948  28.116  1.00  0.00     0.031 C 
ATOM     60  C   UNL A   1      43.586  27.173  31.640  1.00  0.00     0.029 A 
ATOM     61  C   UNL A   1      42.768  28.110  32.397  1.00  0.00     0.049 A 
ATOM     62  H   UNL A   1      41.081  29.146  31.749  1.00  0.00     0.167 HD
ATOM     63  C   UNL A   1      37.530  31.225  30.087  1.00  0.00     0.037 A 
ATOM     64  C   UNL A   1      42.973  28.473  33.676  1.00  0.00     0.037 A 
ATOM     65  C   UNL A   1      37.615  31.605  31.471  1.00  0.00     0.049 A 
ATOM     66  C   UNL A   1      42.006  29.439  34.298  1.00  0.00     0.074 A 
ATOM     67  C   UNL A   1      36.768  32.421  32.195  1.00  0.00     0.029 A 
ATOM     68  N   UNL A   1      38.621  31.195  32.339  1.00  0.00    -0.354 N 
ATOM     69  N   UNL A   1      40.946  30.004  33.769  1.00  0.00    -0.248 NA
ATOM     70  C   UNL A   1      42.256  29.815  35.694  1.00  0.00     0.031 C 
ATOM     71  C   UNL A   1      37.294  32.555  33.484  1.00  0.00     0.029 A 
ATOM     72  C   UNL A   1      38.434  31.770  33.584  1.00  0.00     0.049 A 
ATOM     73  H   UNL A   1      39.357  30.585  32.103  1.00  0.00     0.167 HD
ATOM     74  C   UNL A   1      40.384  30.777  34.774  1.00  0.00     0.074 A 
ATOM     75  C   UNL A   1      41.215  30.595  35.948  1.00  0.00     0.031 C 
ATOM     76  C   UNL A   1      39.280  31.565  34.734  1.00  0.00     0.037 A 
BRANCH  63  77
ATOM     77  C   UNL A   1      36.456  31.817  29.224  1.00  0.00     0.057 A 
ATOM     78  C   UNL A   1      36.488  33.156  28.808  1.00  0.00     0.134 A 
ATOM     79  C   UNL A   1      35.368  31.039  28.807  1.00  0.00     0.134 A 
ATOM     80  F   UNL A   1      37.490  33.962  29.189  1.00  0.00    -0.206 F 
ATOM     81  C   UNL A   1      35.463  33.707  28.038  1.00  0.00     0.040 A 
ATOM     82  C   UNL A   1      34.354  31.571  28.009  1.00  0.00     0.040 A 
ATOM     83  F   UNL A   1      35.271  29.752  29.172  1.00  0.00    -0.206 F 
ATOM     84  C   UNL A   1      34.395  32.911  27.631  1.00  0.00     0.006 A 
ENDBRANCH  63  77
BRANCH  64  85
ATOM     85  C   UNL A   1      44.097  27.891  34.452  1.00  0.00     0.057 A 
ATOM     86  C   UNL A   1      43.944  26.682  35.142  1.00  0.00     0.134 A 
ATOM     87  C   UNL A   1      45.347  28.516  34.522  1.00  0.00     0.134 A 
ATOM     88  F   UNL A   1      42.766  26.039  35.122  1.00  0.00    -0.206 F 
ATOM     89  C   UNL A   1      44.983  26.128  35.892  1.00  0.00     0.040 A 
ATOM     90  C   UNL A   1      46.405  27.960  35.247  1.00  0.00     0.040 A 
ATOM     91  F   UNL A   1      45.567  29.668  33.872  1.00  0.00    -0.206 F 
ATOM     92  C   UNL A   1      46.220  26.767  35.942  1.00  0.00     0.006 A 
ENDBRANCH  64  85
BRANCH  76  93
ATOM     93  C   UNL A   1      38.896  32.257  36.007  1.00  0.00     0.057 A 
ATOM     94  C   UNL A   1      39.258  33.584  36.269  1.00  0.00     0.134 A 
ATOM     95  C   UNL A   1      38.115  31.597  36.965  1.00  0.00     0.134 A 
ATOM     96  F   UNL A   1      40.017  34.267  35.397  1.00  0.00    -0.206 F 
ATOM     97  C   UNL A   1      38.879  34.221  37.450  1.00  0.00     0.040 A 
ATOM     98  C   UNL A   1      37.702  32.234  38.134  1.00  0.00     0.040 A 
ATOM     99  F   UNL A   1      37.726  30.327  36.769  1.00  0.00    -0.206 F 
ATOM    100  C   UNL A   1      38.091  33.549  38.382  1.00  0.00     0.006 A 
ENDBRANCH  76  93
ENDBRANCH  50  51
ENDBRANCH  42  45
ENDBRANCH  40  41
ENDBRANCH  39  40
ENDBRANCH  38  39
ENDBRANCH  37  38
ENDBRANCH   3  37
TORSDOF 19
ENDMDL
