MODEL 1
REMARK VINA RESULT:     -12.0      0.000      0.000
REMARK SMILES C[C@H]1CC[C@H](CNC(=O)NCc2ccc(C(=O)NCCCCNC(=O)c3ccc(-c4c5nc(c(-c6c(F)cccc6F)c6ccc([nH]6)c(-c6c(F)cccc6F)c6nc(c(-c7c(F)cccc7F)c7ccc4[nH]7)C=C6)C=C5)cc3)o2)CC1
REMARK SMILES IDX 19 1 18 2 16 3 17 4 15 6 12 7 13 8 80 9 14 10 11 11 10 12
REMARK SMILES IDX 7 13 8 14 9 16 6 18 5 19 1 20 2 21 82 22 3 23 81 24 4 25
REMARK SMILES IDX 20 26 21 27 22 28 23 29 24 30 25 32 26 33 27 34 79 35 28 36
REMARK SMILES IDX 78 37 29 38 30 39 31 40 72 41 32 42 77 43 71 44 73 45 33 46
REMARK SMILES IDX 76 47 70 48 69 49 34 51 60 52 43 53 59 54 44 55 47 56 58 57
REMARK SMILES IDX 74 58 45 59 46 60 57 62 75 63 48 64 35 65 36 66 41 67 37 68
REMARK SMILES IDX 38 69 40 70 42 71 39 72 61 73 62 74 67 75 63 76 64 77 66 78
REMARK SMILES IDX 68 79 65 80 49 81 50 82 55 83 51 84 52 85 54 86 56 87 53 88
REMARK H PARENT 18 5 7 15 10 17 23 31 73 50 47 61
REMARK Flexibility Score: inf
ROOT
ATOM      1  C   UNL A   1      32.349  30.015  25.750  1.00  0.00     0.116 C 
ENDROOT
BRANCH   1   2
ATOM      2  N   UNL A   1      33.148  29.722  24.580  1.00  0.00    -0.349 N 
ATOM      3  C   UNL A   1      33.502  28.517  24.013  1.00  0.00     0.286 C 
ATOM      4  O   UNL A   1      34.084  28.593  22.928  1.00  0.00    -0.266 OA
ATOM      5  H   UNL A   1      33.495  30.514  24.111  1.00  0.00     0.163 HD
BRANCH   3   6
ATOM      6  C   UNL A   1      33.192  27.253  24.660  1.00  0.00     0.191 A 
ATOM      7  C   UNL A   1      31.987  25.398  24.882  1.00  0.00     0.124 A 
ATOM      8  C   UNL A   1      32.972  25.341  25.842  1.00  0.00     0.048 A 
ATOM      9  O   UNL A   1      32.111  26.558  24.173  1.00  0.00    -0.454 OA
ATOM     10  C   UNL A   1      33.756  26.511  25.685  1.00  0.00     0.056 A 
BRANCH   7  11
ATOM     11  C   UNL A   1      30.877  24.470  24.527  1.00  0.00     0.193 C 
BRANCH  11  12
ATOM     12  N   UNL A   1      30.199  23.980  25.702  1.00  0.00    -0.331 N 
ATOM     13  N   UNL A   1      31.244  21.937  26.247  1.00  0.00    -0.338 N 
ATOM     14  C   UNL A   1      30.426  22.958  26.531  1.00  0.00     0.315 C 
ATOM     15  H   UNL A   1      31.511  21.416  27.038  1.00  0.00     0.165 HD
ATOM     16  O   UNL A   1      29.859  22.954  27.626  1.00  0.00    -0.249 OA
ATOM     17  H   UNL A   1      29.405  24.509  25.944  1.00  0.00     0.165 HD
BRANCH  13  18
ATOM     18  C   UNL A   1      31.817  21.441  25.010  1.00  0.00     0.121 C 
BRANCH  18  19
ATOM     19  C   UNL A   1      33.354  21.477  25.046  1.00  0.00     0.008 C 
ATOM     20  C   UNL A   1      37.406  23.118  25.486  1.00  0.00     0.007 C 
ATOM     21  C   UNL A   1      35.885  23.006  25.431  1.00  0.00    -0.014 C 
ATOM     22  C   UNL A   1      35.368  22.028  26.493  1.00  0.00     0.003 C 
ATOM     23  C   UNL A   1      35.423  22.570  24.036  1.00  0.00     0.003 C 
ATOM     24  C   UNL A   1      33.846  21.898  26.438  1.00  0.00     0.006 C 
ATOM     25  C   UNL A   1      33.903  22.428  23.966  1.00  0.00     0.006 C 
ENDBRANCH  18  19
ENDBRANCH  13  18
ENDBRANCH  11  12
ENDBRANCH   7  11
ENDBRANCH   3   6
ENDBRANCH   1   2
BRANCH   1  26
ATOM     26  C   UNL A   1      31.117  30.846  25.391  1.00  0.00     0.023 C 
BRANCH  26  27
ATOM     27  C   UNL A   1      31.027  32.189  26.124  1.00  0.00     0.023 C 
BRANCH  27  28
ATOM     28  C   UNL A   1      32.197  32.510  27.052  1.00  0.00     0.116 C 
BRANCH  28  29
ATOM     29  N   UNL A   1      32.205  33.887  27.524  1.00  0.00    -0.352 N 
ATOM     30  C   UNL A   1      33.093  34.498  28.377  1.00  0.00     0.251 C 
ATOM     31  H   UNL A   1      31.476  34.456  27.188  1.00  0.00     0.163 HD
ATOM     32  O   UNL A   1      32.898  35.649  28.751  1.00  0.00    -0.269 OA
BRANCH  30  33
ATOM     33  C   UNL A   1      34.264  33.745  28.873  1.00  0.00     0.039 A 
ATOM     34  C   UNL A   1      35.540  34.268  28.654  1.00  0.00     0.014 A 
ATOM     35  C   UNL A   1      34.102  32.547  29.573  1.00  0.00     0.014 A 
ATOM     36  C   UNL A   1      36.653  33.628  29.204  1.00  0.00     0.010 A 
ATOM     37  C   UNL A   1      35.203  31.946  30.176  1.00  0.00     0.010 A 
ATOM     38  C   UNL A   1      36.488  32.484  30.003  1.00  0.00    -0.014 A 
BRANCH  38  39
ATOM     39  C   UNL A   1      37.646  31.845  30.678  1.00  0.00     0.031 A 
ATOM     40  C   UNL A   1      38.443  30.784  29.974  1.00  0.00     0.074 A 
ATOM     41  C   UNL A   1      37.933  32.169  31.955  1.00  0.00     0.049 A 
ATOM     42  N   UNL A   1      39.435  30.060  30.425  1.00  0.00    -0.248 NA
ATOM     43  C   UNL A   1      38.057  30.477  28.587  1.00  0.00     0.031 C 
ATOM     44  C   UNL A   1      37.201  33.144  32.767  1.00  0.00     0.029 A 
ATOM     45  N   UNL A   1      38.908  31.701  32.800  1.00  0.00    -0.354 N 
ATOM     46  C   UNL A   1      39.779  29.202  29.387  1.00  0.00     0.074 A 
ATOM     47  C   UNL A   1      38.861  29.463  28.300  1.00  0.00     0.031 C 
ATOM     48  C   UNL A   1      37.763  33.213  33.984  1.00  0.00     0.029 A 
ATOM     49  C   UNL A   1      38.870  32.266  34.051  1.00  0.00     0.049 A 
ATOM     50  H   UNL A   1      39.572  31.025  32.533  1.00  0.00     0.167 HD
ATOM     51  C   UNL A   1      40.785  28.296  29.336  1.00  0.00     0.037 A 
ATOM     52  C   UNL A   1      39.637  32.038  35.136  1.00  0.00     0.037 A 
ATOM     53  C   UNL A   1      41.716  28.061  30.407  1.00  0.00     0.049 A 
ATOM     54  C   UNL A   1      40.750  31.030  35.050  1.00  0.00     0.074 A 
ATOM     55  C   UNL A   1      42.811  27.213  30.425  1.00  0.00     0.029 A 
ATOM     56  N   UNL A   1      41.664  28.673  31.649  1.00  0.00    -0.354 N 
ATOM     57  N   UNL A   1      41.111  30.282  34.036  1.00  0.00    -0.248 NA
ATOM     58  C   UNL A   1      41.568  30.841  36.257  1.00  0.00     0.031 C 
ATOM     59  C   UNL A   1      43.396  27.282  31.694  1.00  0.00     0.029 A 
ATOM     60  C   UNL A   1      42.694  28.208  32.449  1.00  0.00     0.049 A 
ATOM     61  H   UNL A   1      40.995  29.341  31.923  1.00  0.00     0.167 HD
ATOM     62  C   UNL A   1      42.212  29.556  34.472  1.00  0.00     0.074 A 
ATOM     63  C   UNL A   1      42.469  29.965  35.837  1.00  0.00     0.031 C 
ATOM     64  C   UNL A   1      42.945  28.633  33.802  1.00  0.00     0.037 A 
BRANCH  51  65
ATOM     65  C   UNL A   1      40.935  27.495  28.076  1.00  0.00     0.057 A 
ATOM     66  C   UNL A   1      41.744  27.929  27.018  1.00  0.00     0.134 A 
ATOM     67  C   UNL A   1      40.303  26.253  27.939  1.00  0.00     0.134 A 
ATOM     68  F   UNL A   1      42.369  29.115  27.082  1.00  0.00    -0.206 F 
ATOM     69  C   UNL A   1      41.902  27.166  25.860  1.00  0.00     0.040 A 
ATOM     70  C   UNL A   1      40.474  25.469  26.797  1.00  0.00     0.040 A 
ATOM     71  F   UNL A   1      39.518  25.775  28.917  1.00  0.00    -0.206 F 
ATOM     72  C   UNL A   1      41.272  25.928  25.751  1.00  0.00     0.006 A 
ENDBRANCH  51  65
BRANCH  52  73
ATOM     73  C   UNL A   1      39.393  32.787  36.394  1.00  0.00     0.057 A 
ATOM     74  C   UNL A   1      38.465  32.330  37.337  1.00  0.00     0.134 A 
ATOM     75  C   UNL A   1      40.063  33.983  36.676  1.00  0.00     0.134 A 
ATOM     76  F   UNL A   1      37.779  31.199  37.116  1.00  0.00    -0.206 F 
ATOM     77  C   UNL A   1      38.192  33.048  38.503  1.00  0.00     0.040 A 
ATOM     78  C   UNL A   1      39.818  34.699  37.849  1.00  0.00     0.040 A 
ATOM     79  F   UNL A   1      40.970  34.471  35.817  1.00  0.00    -0.206 F 
ATOM     80  C   UNL A   1      38.873  34.236  38.763  1.00  0.00     0.006 A 
ENDBRANCH  52  73
BRANCH  64  81
ATOM     81  C   UNL A   1      44.116  28.031  34.521  1.00  0.00     0.057 A 
ATOM     82  C   UNL A   1      45.381  28.631  34.506  1.00  0.00     0.134 A 
ATOM     83  C   UNL A   1      43.963  26.858  35.270  1.00  0.00     0.134 A 
ATOM     84  F   UNL A   1      45.595  29.749  33.796  1.00  0.00    -0.206 F 
ATOM     85  C   UNL A   1      46.459  28.072  35.194  1.00  0.00     0.040 A 
ATOM     86  C   UNL A   1      45.027  26.305  35.985  1.00  0.00     0.040 A 
ATOM     87  F   UNL A   1      42.775  26.238  35.333  1.00  0.00    -0.206 F 
ATOM     88  C   UNL A   1      46.281  26.910  35.942  1.00  0.00     0.006 A 
ENDBRANCH  64  81
ENDBRANCH  38  39
ENDBRANCH  30  33
ENDBRANCH  28  29
ENDBRANCH  27  28
ENDBRANCH  26  27
ENDBRANCH   1  26
TORSDOF 15
ENDMDL
MODEL 2
REMARK VINA RESULT:     -12.0      0.835      6.212
REMARK SMILES C[C@H]1CC[C@H](CNC(=O)NCc2ccc(C(=O)NCCCCNC(=O)c3ccc(-c4c5nc(c(-c6c(F)cccc6F)c6ccc([nH]6)c(-c6c(F)cccc6F)c6nc(c(-c7c(F)cccc7F)c7ccc4[nH]7)C=C6)C=C5)cc3)o2)CC1
REMARK SMILES IDX 19 1 18 2 16 3 17 4 15 6 12 7 13 8 80 9 14 10 11 11 10 12
REMARK SMILES IDX 7 13 8 14 9 16 6 18 5 19 1 20 2 21 82 22 3 23 81 24 4 25
REMARK SMILES IDX 20 26 21 27 22 28 23 29 24 30 25 32 26 33 27 34 79 35 28 36
REMARK SMILES IDX 78 37 29 38 30 39 31 40 72 41 32 42 77 43 71 44 73 45 33 46
REMARK SMILES IDX 76 47 70 48 69 49 34 51 60 52 43 53 59 54 44 55 47 56 58 57
REMARK SMILES IDX 74 58 45 59 46 60 57 62 75 63 48 64 35 65 36 66 41 67 37 68
REMARK SMILES IDX 38 69 40 70 42 71 39 72 61 73 62 74 67 75 63 76 64 77 66 78
REMARK SMILES IDX 68 79 65 80 49 81 50 82 55 83 51 84 52 85 54 86 56 87 53 88
REMARK H PARENT 18 5 7 15 10 17 23 31 73 50 47 61
REMARK Flexibility Score: inf
ROOT
ATOM      1  C   UNL A   1      33.116  30.076  26.173  1.00  0.00     0.116 C 
ENDROOT
BRANCH   1   2
ATOM      2  N   UNL A   1      33.647  29.714  24.877  1.00  0.00    -0.349 N 
ATOM      3  C   UNL A   1      33.665  28.502  24.220  1.00  0.00     0.286 C 
ATOM      4  O   UNL A   1      34.072  28.538  23.055  1.00  0.00    -0.266 OA
ATOM      5  H   UNL A   1      34.062  30.456  24.382  1.00  0.00     0.163 HD
BRANCH   3   6
ATOM      6  C   UNL A   1      33.222  27.280  24.869  1.00  0.00     0.191 A 
ATOM      7  C   UNL A   1      31.876  25.519  25.041  1.00  0.00     0.124 A 
ATOM      8  C   UNL A   1      32.785  25.418  26.070  1.00  0.00     0.048 A 
ATOM      9  O   UNL A   1      32.131  26.649  24.320  1.00  0.00    -0.454 OA
ATOM     10  C   UNL A   1      33.659  26.527  25.945  1.00  0.00     0.056 A 
BRANCH   7  11
ATOM     11  C   UNL A   1      30.731  24.662  24.627  1.00  0.00     0.193 C 
BRANCH  11  12
ATOM     12  N   UNL A   1      30.063  24.081  25.767  1.00  0.00    -0.331 N 
ATOM     13  N   UNL A   1      31.178  22.049  26.203  1.00  0.00    -0.338 N 
ATOM     14  C   UNL A   1      30.322  23.022  26.538  1.00  0.00     0.315 C 
ATOM     15  H   UNL A   1      31.459  21.494  26.967  1.00  0.00     0.165 HD
ATOM     16  O   UNL A   1      29.748  22.935  27.626  1.00  0.00    -0.249 OA
ATOM     17  H   UNL A   1      29.249  24.566  26.032  1.00  0.00     0.165 HD
BRANCH  13  18
ATOM     18  C   UNL A   1      31.777  21.646  24.945  1.00  0.00     0.121 C 
BRANCH  18  19
ATOM     19  C   UNL A   1      33.312  21.684  25.014  1.00  0.00     0.008 C 
ATOM     20  C   UNL A   1      37.352  23.323  25.563  1.00  0.00     0.007 C 
ATOM     21  C   UNL A   1      35.832  23.210  25.475  1.00  0.00    -0.014 C 
ATOM     22  C   UNL A   1      35.296  22.215  26.511  1.00  0.00     0.003 C 
ATOM     23  C   UNL A   1      35.400  22.796  24.064  1.00  0.00     0.003 C 
ATOM     24  C   UNL A   1      33.775  22.083  26.423  1.00  0.00     0.006 C 
ATOM     25  C   UNL A   1      33.882  22.652  23.961  1.00  0.00     0.006 C 
ENDBRANCH  18  19
ENDBRANCH  13  18
ENDBRANCH  11  12
ENDBRANCH   7  11
ENDBRANCH   3   6
ENDBRANCH   1   2
BRANCH   1  26
ATOM     26  C   UNL A   1      31.659  30.529  26.073  1.00  0.00     0.023 C 
BRANCH  26  27
ATOM     27  C   UNL A   1      31.380  31.897  26.705  1.00  0.00     0.023 C 
BRANCH  27  28
ATOM     28  C   UNL A   1      32.608  32.642  27.225  1.00  0.00     0.116 C 
BRANCH  28  29
ATOM     29  N   UNL A   1      32.339  34.027  27.585  1.00  0.00    -0.352 N 
ATOM     30  C   UNL A   1      32.989  34.818  28.502  1.00  0.00     0.251 C 
ATOM     31  H   UNL A   1      31.592  34.454  27.107  1.00  0.00     0.163 HD
ATOM     32  O   UNL A   1      32.570  35.943  28.755  1.00  0.00    -0.269 OA
BRANCH  30  33
ATOM     33  C   UNL A   1      34.171  34.289  29.214  1.00  0.00     0.039 A 
ATOM     34  C   UNL A   1      33.982  33.619  30.424  1.00  0.00     0.014 A 
ATOM     35  C   UNL A   1      35.452  34.428  28.676  1.00  0.00     0.014 A 
ATOM     36  C   UNL A   1      35.072  33.021  31.060  1.00  0.00     0.010 A 
ATOM     37  C   UNL A   1      36.526  33.775  29.275  1.00  0.00     0.010 A 
ATOM     38  C   UNL A   1      36.345  33.060  30.470  1.00  0.00    -0.014 A 
BRANCH  38  39
ATOM     39  C   UNL A   1      37.498  32.348  31.078  1.00  0.00     0.031 A 
ATOM     40  C   UNL A   1      38.121  32.859  32.345  1.00  0.00     0.074 A 
ATOM     41  C   UNL A   1      38.029  31.282  30.446  1.00  0.00     0.049 A 
ATOM     42  N   UNL A   1      39.176  32.420  32.983  1.00  0.00    -0.248 NA
ATOM     43  C   UNL A   1      37.492  34.037  32.966  1.00  0.00     0.031 C 
ATOM     44  C   UNL A   1      37.549  30.721  29.181  1.00  0.00     0.029 A 
ATOM     45  N   UNL A   1      39.100  30.489  30.774  1.00  0.00    -0.354 N 
ATOM     46  C   UNL A   1      39.347  33.274  34.065  1.00  0.00     0.074 A 
ATOM     47  C   UNL A   1      38.315  34.285  33.973  1.00  0.00     0.031 C 
ATOM     48  C   UNL A   1      38.310  29.666  28.850  1.00  0.00     0.029 A 
ATOM     49  C   UNL A   1      39.352  29.497  29.858  1.00  0.00     0.049 A 
ATOM     50  H   UNL A   1      39.635  30.619  31.590  1.00  0.00     0.167 HD
ATOM     51  C   UNL A   1      40.264  33.208  35.059  1.00  0.00     0.037 A 
ATOM     52  C   UNL A   1      40.320  28.560  29.830  1.00  0.00     0.037 A 
ATOM     53  C   UNL A   1      41.269  32.184  35.166  1.00  0.00     0.049 A 
ATOM     54  C   UNL A   1      41.323  28.507  30.948  1.00  0.00     0.074 A 
ATOM     55  C   UNL A   1      42.201  31.993  36.172  1.00  0.00     0.029 A 
ATOM     56  N   UNL A   1      41.475  31.178  34.233  1.00  0.00    -0.354 N 
ATOM     57  N   UNL A   1      41.425  29.276  32.005  1.00  0.00    -0.248 NA
ATOM     58  C   UNL A   1      42.343  27.450  30.875  1.00  0.00     0.031 C 
ATOM     59  C   UNL A   1      42.997  30.895  35.828  1.00  0.00     0.029 A 
ATOM     60  C   UNL A   1      42.531  30.376  34.631  1.00  0.00     0.049 A 
ATOM     61  H   UNL A   1      40.948  31.053  33.412  1.00  0.00     0.167 HD
ATOM     62  C   UNL A   1      42.497  28.779  32.735  1.00  0.00     0.074 A 
ATOM     63  C   UNL A   1      43.004  27.634  32.008  1.00  0.00     0.031 C 
ATOM     64  C   UNL A   1      43.016  29.232  33.903  1.00  0.00     0.037 A 
BRANCH  51  65
ATOM     65  C   UNL A   1      40.221  34.271  36.117  1.00  0.00     0.057 A 
ATOM     66  C   UNL A   1      40.960  35.456  36.005  1.00  0.00     0.134 A 
ATOM     67  C   UNL A   1      39.393  34.130  37.239  1.00  0.00     0.134 A 
ATOM     68  F   UNL A   1      41.781  35.648  34.961  1.00  0.00    -0.206 F 
ATOM     69  C   UNL A   1      40.895  36.452  36.979  1.00  0.00     0.040 A 
ATOM     70  C   UNL A   1      39.299  35.131  38.206  1.00  0.00     0.040 A 
ATOM     71  F   UNL A   1      38.654  33.023  37.406  1.00  0.00    -0.206 F 
ATOM     72  C   UNL A   1      40.055  36.295  38.080  1.00  0.00     0.006 A 
ENDBRANCH  51  65
BRANCH  52  73
ATOM     73  C   UNL A   1      40.383  27.584  28.712  1.00  0.00     0.057 A 
ATOM     74  C   UNL A   1      41.155  27.841  27.573  1.00  0.00     0.134 A 
ATOM     75  C   UNL A   1      39.660  26.386  28.745  1.00  0.00     0.134 A 
ATOM     76  F   UNL A   1      41.856  28.980  27.476  1.00  0.00    -0.206 F 
ATOM     77  C   UNL A   1      41.188  26.954  26.496  1.00  0.00     0.040 A 
ATOM     78  C   UNL A   1      39.703  25.479  27.686  1.00  0.00     0.040 A 
ATOM     79  F   UNL A   1      38.907  26.077  29.811  1.00  0.00    -0.206 F 
ATOM     80  C   UNL A   1      40.462  25.766  26.552  1.00  0.00     0.006 A 
ENDBRANCH  52  73
BRANCH  64  81
ATOM     81  C   UNL A   1      44.166  28.466  34.486  1.00  0.00     0.057 A 
ATOM     82  C   UNL A   1      43.971  27.380  35.349  1.00  0.00     0.134 A 
ATOM     83  C   UNL A   1      45.485  28.795  34.147  1.00  0.00     0.134 A 
ATOM     84  F   UNL A   1      42.734  27.023  35.722  1.00  0.00    -0.206 F 
ATOM     85  C   UNL A   1      45.049  26.662  35.871  1.00  0.00     0.040 A 
ATOM     86  C   UNL A   1      46.569  28.068  34.641  1.00  0.00     0.040 A 
ATOM     87  F   UNL A   1      45.741  29.820  33.319  1.00  0.00    -0.206 F 
ATOM     88  C   UNL A   1      46.351  27.001  35.510  1.00  0.00     0.006 A 
ENDBRANCH  64  81
ENDBRANCH  38  39
ENDBRANCH  30  33
ENDBRANCH  28  29
ENDBRANCH  27  28
ENDBRANCH  26  27
ENDBRANCH   1  26
TORSDOF 15
ENDMDL
MODEL 3
REMARK VINA RESULT:     -11.9      2.397      6.471
REMARK SMILES C[C@H]1CC[C@H](CNC(=O)NCc2ccc(C(=O)NCCCCNC(=O)c3ccc(-c4c5nc(c(-c6c(F)cccc6F)c6ccc([nH]6)c(-c6c(F)cccc6F)c6nc(c(-c7c(F)cccc7F)c7ccc4[nH]7)C=C6)C=C5)cc3)o2)CC1
REMARK SMILES IDX 19 1 18 2 16 3 17 4 15 6 12 7 13 8 80 9 14 10 11 11 10 12
REMARK SMILES IDX 7 13 8 14 9 16 6 18 5 19 1 20 2 21 82 22 3 23 81 24 4 25
REMARK SMILES IDX 20 26 21 27 22 28 23 29 24 30 25 32 26 33 27 34 79 35 28 36
REMARK SMILES IDX 78 37 29 38 30 39 31 40 72 41 32 42 77 43 71 44 73 45 33 46
REMARK SMILES IDX 76 47 70 48 69 49 34 51 60 52 43 53 59 54 44 55 47 56 58 57
REMARK SMILES IDX 74 58 45 59 46 60 57 62 75 63 48 64 35 65 36 66 41 67 37 68
REMARK SMILES IDX 38 69 40 70 42 71 39 72 61 73 62 74 67 75 63 76 64 77 66 78
REMARK SMILES IDX 68 79 65 80 49 81 50 82 55 83 51 84 52 85 54 86 56 87 53 88
REMARK H PARENT 18 5 7 15 10 17 23 31 73 50 47 61
REMARK Flexibility Score: inf
ROOT
ATOM      1  C   UNL A   1      34.206  29.418  27.206  1.00  0.00     0.116 C 
ENDROOT
BRANCH   1   2
ATOM      2  N   UNL A   1      33.029  28.836  27.813  1.00  0.00    -0.349 N 
ATOM      3  C   UNL A   1      31.879  28.335  27.244  1.00  0.00     0.286 C 
ATOM      4  O   UNL A   1      31.102  27.775  28.022  1.00  0.00    -0.266 OA
ATOM      5  H   UNL A   1      33.055  28.791  28.796  1.00  0.00     0.163 HD
BRANCH   3   6
ATOM      6  C   UNL A   1      31.622  28.457  25.819  1.00  0.00     0.191 A 
ATOM      7  C   UNL A   1      31.136  27.601  23.825  1.00  0.00     0.124 A 
ATOM      8  C   UNL A   1      31.244  28.963  23.650  1.00  0.00     0.048 A 
ATOM      9  O   UNL A   1      31.375  27.291  25.132  1.00  0.00    -0.454 OA
ATOM     10  C   UNL A   1      31.527  29.511  24.925  1.00  0.00     0.056 A 
BRANCH   7  11
ATOM     11  C   UNL A   1      30.837  26.489  22.880  1.00  0.00     0.193 C 
BRANCH  11  12
ATOM     12  N   UNL A   1      31.699  26.529  21.723  1.00  0.00    -0.331 N 
ATOM     13  N   UNL A   1      33.294  24.823  22.046  1.00  0.00    -0.338 N 
ATOM     14  C   UNL A   1      32.681  25.738  21.285  1.00  0.00     0.315 C 
ATOM     15  H   UNL A   1      33.795  24.152  21.526  1.00  0.00     0.165 HD
ATOM     16  O   UNL A   1      33.042  25.847  20.111  1.00  0.00    -0.249 OA
ATOM     17  H   UNL A   1      31.526  27.298  21.134  1.00  0.00     0.165 HD
BRANCH  13  18
ATOM     18  C   UNL A   1      33.373  24.618  23.480  1.00  0.00     0.121 C 
BRANCH  18  19
ATOM     19  C   UNL A   1      34.803  24.266  23.922  1.00  0.00     0.008 C 
ATOM     20  C   UNL A   1      38.102  21.934  25.650  1.00  0.00     0.007 C 
ATOM     21  C   UNL A   1      36.709  22.353  25.185  1.00  0.00    -0.014 C 
ATOM     22  C   UNL A   1      36.680  22.573  23.668  1.00  0.00     0.003 C 
ATOM     23  C   UNL A   1      36.253  23.620  25.917  1.00  0.00     0.003 C 
ATOM     24  C   UNL A   1      35.292  23.006  23.194  1.00  0.00     0.006 C 
ATOM     25  C   UNL A   1      34.870  24.071  25.448  1.00  0.00     0.006 C 
ENDBRANCH  18  19
ENDBRANCH  13  18
ENDBRANCH  11  12
ENDBRANCH   7  11
ENDBRANCH   3   6
ENDBRANCH   1   2
BRANCH   1  26
ATOM     26  C   UNL A   1      34.411  30.864  27.658  1.00  0.00     0.023 C 
BRANCH  26  27
ATOM     27  C   UNL A   1      33.123  31.691  27.729  1.00  0.00     0.023 C 
BRANCH  27  28
ATOM     28  C   UNL A   1      33.205  33.087  27.113  1.00  0.00     0.116 C 
BRANCH  28  29
ATOM     29  N   UNL A   1      32.702  34.138  27.985  1.00  0.00    -0.352 N 
ATOM     30  C   UNL A   1      33.255  34.632  29.143  1.00  0.00     0.251 C 
ATOM     31  H   UNL A   1      31.853  34.551  27.709  1.00  0.00     0.163 HD
ATOM     32  O   UNL A   1      32.648  35.460  29.814  1.00  0.00    -0.269 OA
BRANCH  30  33
ATOM     33  C   UNL A   1      34.568  34.128  29.597  1.00  0.00     0.039 A 
ATOM     34  C   UNL A   1      34.620  33.322  30.736  1.00  0.00     0.014 A 
ATOM     35  C   UNL A   1      35.734  34.424  28.888  1.00  0.00     0.014 A 
ATOM     36  C   UNL A   1      35.834  32.749  31.123  1.00  0.00     0.010 A 
ATOM     37  C   UNL A   1      36.930  33.800  29.234  1.00  0.00     0.010 A 
ATOM     38  C   UNL A   1      36.990  32.952  30.351  1.00  0.00    -0.014 A 
BRANCH  38  39
ATOM     39  C   UNL A   1      38.268  32.275  30.687  1.00  0.00     0.031 A 
ATOM     40  C   UNL A   1      39.241  32.919  31.633  1.00  0.00     0.074 A 
ATOM     41  C   UNL A   1      38.583  31.113  30.081  1.00  0.00     0.049 A 
ATOM     42  N   UNL A   1      40.435  32.520  31.988  1.00  0.00    -0.248 NA
ATOM     43  C   UNL A   1      38.828  34.194  32.242  1.00  0.00     0.031 C 
ATOM     44  C   UNL A   1      37.748  30.414  29.102  1.00  0.00     0.029 A 
ATOM     45  N   UNL A   1      39.701  30.322  30.187  1.00  0.00    -0.354 N 
ATOM     46  C   UNL A   1      40.923  33.499  32.844  1.00  0.00     0.074 A 
ATOM     47  C   UNL A   1      39.914  34.535  32.920  1.00  0.00     0.031 C 
ATOM     48  C   UNL A   1      38.373  29.292  28.711  1.00  0.00     0.029 A 
ATOM     49  C   UNL A   1      39.666  29.209  29.384  1.00  0.00     0.049 A 
ATOM     50  H   UNL A   1      40.454  30.533  30.784  1.00  0.00     0.167 HD
ATOM     51  C   UNL A   1      42.093  33.523  33.525  1.00  0.00     0.037 A 
ATOM     52  C   UNL A   1      40.579  28.235  29.202  1.00  0.00     0.037 A 
ATOM     53  C   UNL A   1      43.080  32.478  33.473  1.00  0.00     0.049 A 
ATOM     54  C   UNL A   1      41.868  28.283  29.973  1.00  0.00     0.074 A 
ATOM     55  C   UNL A   1      44.267  32.378  34.178  1.00  0.00     0.029 A 
ATOM     56  N   UNL A   1      42.997  31.351  32.669  1.00  0.00    -0.354 N 
ATOM     57  N   UNL A   1      42.281  29.178  30.838  1.00  0.00    -0.248 NA
ATOM     58  C   UNL A   1      42.816  27.181  29.752  1.00  0.00     0.031 C 
ATOM     59  C   UNL A   1      44.922  31.211  33.771  1.00  0.00     0.029 A 
ATOM     60  C   UNL A   1      44.120  30.560  32.847  1.00  0.00     0.049 A 
ATOM     61  H   UNL A   1      42.250  31.142  32.063  1.00  0.00     0.167 HD
ATOM     62  C   UNL A   1      43.520  28.733  31.283  1.00  0.00     0.074 A 
ATOM     63  C   UNL A   1      43.784  27.482  30.604  1.00  0.00     0.031 C 
ATOM     64  C   UNL A   1      44.363  29.311  32.173  1.00  0.00     0.037 A 
BRANCH  51  65
ATOM     65  C   UNL A   1      42.369  34.716  34.392  1.00  0.00     0.057 A 
ATOM     66  C   UNL A   1      42.981  35.870  33.887  1.00  0.00     0.134 A 
ATOM     67  C   UNL A   1      41.976  34.728  35.737  1.00  0.00     0.134 A 
ATOM     68  F   UNL A   1      43.392  35.918  32.611  1.00  0.00    -0.206 F 
ATOM     69  C   UNL A   1      43.211  36.986  34.692  1.00  0.00     0.040 A 
ATOM     70  C   UNL A   1      42.176  35.848  36.545  1.00  0.00     0.040 A 
ATOM     71  F   UNL A   1      41.380  33.658  36.284  1.00  0.00    -0.206 F 
ATOM     72  C   UNL A   1      42.800  36.980  36.024  1.00  0.00     0.006 A 
ENDBRANCH  51  65
BRANCH  52  73
ATOM     73  C   UNL A   1      40.304  27.119  28.260  1.00  0.00     0.057 A 
ATOM     74  C   UNL A   1      39.479  26.050  28.630  1.00  0.00     0.134 A 
ATOM     75  C   UNL A   1      40.872  27.083  26.982  1.00  0.00     0.134 A 
ATOM     76  F   UNL A   1      38.919  26.020  29.848  1.00  0.00    -0.206 F 
ATOM     77  C   UNL A   1      39.248  24.974  27.772  1.00  0.00     0.040 A 
ATOM     78  C   UNL A   1      40.631  26.025  26.105  1.00  0.00     0.040 A 
ATOM     79  F   UNL A   1      41.666  28.080  26.564  1.00  0.00    -0.206 F 
ATOM     80  C   UNL A   1      39.823  24.961  26.503  1.00  0.00     0.006 A 
ENDBRANCH  52  73
BRANCH  64  81
ATOM     81  C   UNL A   1      45.631  28.577  32.494  1.00  0.00     0.057 A 
ATOM     82  C   UNL A   1      46.820  28.811  31.791  1.00  0.00     0.134 A 
ATOM     83  C   UNL A   1      45.671  27.653  33.546  1.00  0.00     0.134 A 
ATOM     84  F   UNL A   1      46.844  29.674  30.764  1.00  0.00    -0.206 F 
ATOM     85  C   UNL A   1      47.999  28.136  32.110  1.00  0.00     0.040 A 
ATOM     86  C   UNL A   1      46.851  26.992  33.892  1.00  0.00     0.040 A 
ATOM     87  F   UNL A   1      44.569  27.389  34.264  1.00  0.00    -0.206 F 
ATOM     88  C   UNL A   1      48.018  27.229  33.168  1.00  0.00     0.006 A 
ENDBRANCH  64  81
ENDBRANCH  38  39
ENDBRANCH  30  33
ENDBRANCH  28  29
ENDBRANCH  27  28
ENDBRANCH  26  27
ENDBRANCH   1  26
TORSDOF 15
ENDMDL
