MODEL 1
REMARK VINA RESULT:     -11.6      0.000      0.000
REMARK SMILES O=C(CCC(=O)Nc1ccc(N2CCN(c3ccc(F)cc3)CC2)cc1)NCCCCNC(=O)c1ccc(-c2c3nc(c(-c4c(F)cccc4F)c4ccc([nH]4)c(-c4c(F)cccc4F)c4nc(c(-c5c(F)cccc5F)c5ccc2[nH]5)C=C4)C=C3)cc1
REMARK SMILES IDX 28 1 27 2 1 3 2 4 3 6 4 7 5 8 6 9 7 10 8 12 9 13 26 14 10 15
REMARK SMILES IDX 25 16 11 17 12 18 13 19 24 20 14 21 23 22 15 23 16 24 17 25
REMARK SMILES IDX 22 26 18 27 21 28 19 29 20 30 29 31 30 32 31 33 32 34 33 35
REMARK SMILES IDX 34 37 35 38 36 39 88 40 37 41 87 42 38 43 39 44 40 45 81 46
REMARK SMILES IDX 41 47 86 48 80 49 82 50 42 51 85 52 79 53 78 54 43 56 69 57
REMARK SMILES IDX 52 58 68 59 53 60 56 61 67 62 83 63 54 64 55 65 66 67 84 68
REMARK SMILES IDX 57 69 44 70 45 71 50 72 46 73 47 74 49 75 51 76 48 77 70 78
REMARK SMILES IDX 71 79 76 80 72 81 73 82 75 83 77 84 74 85 58 86 59 87 64 88
REMARK SMILES IDX 60 89 61 90 63 91 65 92 62 93
REMARK H PARENT 27 5 7 11 32 36 82 55 56 66
REMARK Flexibility Score: inf
ROOT
ATOM      1  C   UNL A   1      34.355  24.987  24.407  1.00  0.00     0.116 C 
ENDROOT
BRANCH   1   2
ATOM      2  N   UNL A   1      34.470  26.420  24.201  1.00  0.00    -0.356 N 
ATOM      3  O   UNL A   1      33.813  26.403  21.995  1.00  0.00    -0.275 OA
ATOM      4  C   UNL A   1      34.089  27.020  23.021  1.00  0.00     0.220 C 
ATOM      5  H   UNL A   1      34.830  26.980  24.926  1.00  0.00     0.163 HD
BRANCH   4   6
ATOM      6  C   UNL A   1      33.989  28.530  23.088  1.00  0.00     0.110 C 
BRANCH   6   7
ATOM      7  C   UNL A   1      32.571  29.078  23.238  1.00  0.00     0.110 C 
BRANCH   7   8
ATOM      8  C   UNL A   1      32.117  29.244  24.666  1.00  0.00     0.224 C 
ATOM      9  O   UNL A   1      32.517  30.221  25.313  1.00  0.00    -0.275 OA
ATOM     10  N   UNL A   1      31.328  28.359  25.334  1.00  0.00    -0.326 N 
ATOM     11  H   UNL A   1      30.936  28.741  26.153  1.00  0.00     0.169 HD
BRANCH  10  12
ATOM     12  C   UNL A   1      30.946  27.022  25.118  1.00  0.00     0.041 A 
ATOM     13  C   UNL A   1      31.120  26.151  26.203  1.00  0.00     0.028 A 
ATOM     14  C   UNL A   1      30.565  26.472  23.902  1.00  0.00     0.028 A 
ATOM     15  C   UNL A   1      31.066  24.763  26.020  1.00  0.00     0.028 A 
ATOM     16  C   UNL A   1      30.541  25.086  23.717  1.00  0.00     0.028 A 
ATOM     17  C   UNL A   1      30.829  24.212  24.760  1.00  0.00     0.037 A 
BRANCH  17  18
ATOM     18  N   UNL A   1      30.865  22.838  24.599  1.00  0.00    -0.368 N 
ATOM     19  C   UNL A   1      31.434  22.356  23.327  1.00  0.00     0.138 C 
ATOM     20  C   UNL A   1      31.131  21.977  25.773  1.00  0.00     0.138 C 
ATOM     21  C   UNL A   1      32.939  22.041  23.469  1.00  0.00     0.138 C 
ATOM     22  C   UNL A   1      32.595  21.479  25.869  1.00  0.00     0.138 C 
ATOM     23  N   UNL A   1      33.156  21.078  24.566  1.00  0.00    -0.368 N 
BRANCH  23  24
ATOM     24  C   UNL A   1      33.374  19.760  24.210  1.00  0.00     0.037 A 
ATOM     25  C   UNL A   1      34.532  19.109  24.673  1.00  0.00     0.029 A 
ATOM     26  C   UNL A   1      32.514  19.043  23.370  1.00  0.00     0.029 A 
ATOM     27  C   UNL A   1      34.833  17.797  24.302  1.00  0.00     0.041 A 
ATOM     28  C   UNL A   1      32.815  17.732  22.983  1.00  0.00     0.041 A 
ATOM     29  C   UNL A   1      33.973  17.122  23.451  1.00  0.00     0.123 A 
ATOM     30  F   UNL A   1      34.264  15.872  23.074  1.00  0.00    -0.207 F 
ENDBRANCH  23  24
ENDBRANCH  17  18
ENDBRANCH  10  12
ENDBRANCH   7   8
ENDBRANCH   6   7
ENDBRANCH   4   6
ENDBRANCH   1   2
BRANCH   1  31
ATOM     31  C   UNL A   1      34.645  24.535  25.834  1.00  0.00     0.023 C 
BRANCH  31  32
ATOM     32  C   UNL A   1      35.771  23.508  25.988  1.00  0.00     0.023 C 
BRANCH  32  33
ATOM     33  C   UNL A   1      37.000  23.735  25.111  1.00  0.00     0.116 C 
BRANCH  33  34
ATOM     34  N   UNL A   1      38.107  22.848  25.442  1.00  0.00    -0.352 N 
ATOM     35  C   UNL A   1      39.267  23.096  26.134  1.00  0.00     0.251 C 
ATOM     36  H   UNL A   1      38.008  21.923  25.118  1.00  0.00     0.163 HD
ATOM     37  O   UNL A   1      40.157  22.244  26.158  1.00  0.00    -0.269 OA
BRANCH  35  38
ATOM     38  C   UNL A   1      39.482  24.384  26.833  1.00  0.00     0.039 A 
ATOM     39  C   UNL A   1      38.966  24.550  28.122  1.00  0.00     0.014 A 
ATOM     40  C   UNL A   1      40.162  25.441  26.221  1.00  0.00     0.014 A 
ATOM     41  C   UNL A   1      39.209  25.734  28.826  1.00  0.00     0.010 A 
ATOM     42  C   UNL A   1      40.469  26.590  26.952  1.00  0.00     0.010 A 
ATOM     43  C   UNL A   1      40.003  26.748  28.266  1.00  0.00    -0.014 A 
BRANCH  43  44
ATOM     44  C   UNL A   1      40.377  27.960  29.044  1.00  0.00     0.031 A 
ATOM     45  C   UNL A   1      41.712  28.049  29.734  1.00  0.00     0.074 A 
ATOM     46  C   UNL A   1      39.484  28.959  29.192  1.00  0.00     0.049 A 
ATOM     47  N   UNL A   1      42.179  28.993  30.514  1.00  0.00    -0.248 NA
ATOM     48  C   UNL A   1      42.633  26.920  29.541  1.00  0.00     0.031 C 
ATOM     49  C   UNL A   1      38.139  28.985  28.615  1.00  0.00     0.029 A 
ATOM     50  N   UNL A   1      39.568  30.143  29.884  1.00  0.00    -0.354 N 
ATOM     51  C   UNL A   1      43.438  28.564  30.916  1.00  0.00     0.074 A 
ATOM     52  C   UNL A   1      43.643  27.255  30.332  1.00  0.00     0.031 C 
ATOM     53  C   UNL A   1      37.534  30.134  28.955  1.00  0.00     0.029 A 
ATOM     54  C   UNL A   1      38.428  30.908  29.810  1.00  0.00     0.049 A 
ATOM     55  H   UNL A   1      40.369  30.418  30.385  1.00  0.00     0.167 HD
ATOM     56  C   UNL A   1      44.349  29.208  31.685  1.00  0.00     0.037 A 
ATOM     57  C   UNL A   1      38.130  32.095  30.374  1.00  0.00     0.037 A 
ATOM     58  C   UNL A   1      44.156  30.520  32.248  1.00  0.00     0.049 A 
ATOM     59  C   UNL A   1      39.152  32.780  31.239  1.00  0.00     0.074 A 
ATOM     60  C   UNL A   1      45.050  31.280  32.985  1.00  0.00     0.029 A 
ATOM     61  N   UNL A   1      42.992  31.263  32.143  1.00  0.00    -0.354 N 
ATOM     62  N   UNL A   1      40.366  32.394  31.551  1.00  0.00    -0.248 NA
ATOM     63  C   UNL A   1      38.764  34.070  31.828  1.00  0.00     0.031 C 
ATOM     64  C   UNL A   1      44.408  32.461  33.370  1.00  0.00     0.029 A 
ATOM     65  C   UNL A   1      43.133  32.463  32.825  1.00  0.00     0.049 A 
ATOM     66  H   UNL A   1      42.183  30.983  31.657  1.00  0.00     0.167 HD
ATOM     67  C   UNL A   1      40.895  33.405  32.342  1.00  0.00     0.074 A 
ATOM     68  C   UNL A   1      39.876  34.428  32.453  1.00  0.00     0.031 C 
ATOM     69  C   UNL A   1      42.117  33.479  32.922  1.00  0.00     0.037 A 
BRANCH  56  70
ATOM     70  C   UNL A   1      45.645  28.502  31.968  1.00  0.00     0.057 A 
ATOM     71  C   UNL A   1      46.765  28.652  31.140  1.00  0.00     0.134 A 
ATOM     72  C   UNL A   1      45.788  27.700  33.108  1.00  0.00     0.134 A 
ATOM     73  F   UNL A   1      46.695  29.399  30.029  1.00  0.00    -0.206 F 
ATOM     74  C   UNL A   1      47.972  28.009  31.421  1.00  0.00     0.040 A 
ATOM     75  C   UNL A   1      46.998  27.074  33.414  1.00  0.00     0.040 A 
ATOM     76  F   UNL A   1      44.759  27.520  33.949  1.00  0.00    -0.206 F 
ATOM     77  C   UNL A   1      48.093  27.223  32.566  1.00  0.00     0.006 A 
ENDBRANCH  56  70
BRANCH  57  78
ATOM     78  C   UNL A   1      36.808  32.727  30.129  1.00  0.00     0.057 A 
ATOM     79  C   UNL A   1      36.627  33.630  29.074  1.00  0.00     0.134 A 
ATOM     80  C   UNL A   1      35.704  32.463  30.947  1.00  0.00     0.134 A 
ATOM     81  F   UNL A   1      37.652  33.941  28.268  1.00  0.00    -0.206 F 
ATOM     82  C   UNL A   1      35.402  34.264  28.856  1.00  0.00     0.040 A 
ATOM     83  C   UNL A   1      34.467  33.068  30.724  1.00  0.00     0.040 A 
ATOM     84  F   UNL A   1      35.809  31.602  31.970  1.00  0.00    -0.206 F 
ATOM     85  C   UNL A   1      34.316  33.979  29.680  1.00  0.00     0.006 A 
ENDBRANCH  57  78
BRANCH  69  86
ATOM     86  C   UNL A   1      42.439  34.725  33.696  1.00  0.00     0.057 A 
ATOM     87  C   UNL A   1      42.988  35.859  33.084  1.00  0.00     0.134 A 
ATOM     88  C   UNL A   1      42.163  34.802  35.068  1.00  0.00     0.134 A 
ATOM     89  F   UNL A   1      43.290  35.848  31.777  1.00  0.00    -0.206 F 
ATOM     90  C   UNL A   1      43.272  37.016  33.812  1.00  0.00     0.040 A 
ATOM     91  C   UNL A   1      42.415  35.963  35.801  1.00  0.00     0.040 A 
ATOM     92  F   UNL A   1      41.629  33.755  35.715  1.00  0.00    -0.206 F 
ATOM     93  C   UNL A   1      42.978  37.072  35.174  1.00  0.00     0.006 A 
ENDBRANCH  69  86
ENDBRANCH  43  44
ENDBRANCH  35  38
ENDBRANCH  33  34
ENDBRANCH  32  33
ENDBRANCH  31  32
ENDBRANCH   1  31
TORSDOF 16
ENDMDL
MODEL 2
REMARK VINA RESULT:     -11.6      4.222      9.102
REMARK SMILES O=C(CCC(=O)Nc1ccc(N2CCN(c3ccc(F)cc3)CC2)cc1)NCCCCNC(=O)c1ccc(-c2c3nc(c(-c4c(F)cccc4F)c4ccc([nH]4)c(-c4c(F)cccc4F)c4nc(c(-c5c(F)cccc5F)c5ccc2[nH]5)C=C4)C=C3)cc1
REMARK SMILES IDX 28 1 27 2 1 3 2 4 3 6 4 7 5 8 6 9 7 10 8 12 9 13 26 14 10 15
REMARK SMILES IDX 25 16 11 17 12 18 13 19 24 20 14 21 23 22 15 23 16 24 17 25
REMARK SMILES IDX 22 26 18 27 21 28 19 29 20 30 29 31 30 32 31 33 32 34 33 35
REMARK SMILES IDX 34 37 35 38 36 39 88 40 37 41 87 42 38 43 39 44 40 45 81 46
REMARK SMILES IDX 41 47 86 48 80 49 82 50 42 51 85 52 79 53 78 54 43 56 69 57
REMARK SMILES IDX 52 58 68 59 53 60 56 61 67 62 83 63 54 64 55 65 66 67 84 68
REMARK SMILES IDX 57 69 44 70 45 71 50 72 46 73 47 74 49 75 51 76 48 77 70 78
REMARK SMILES IDX 71 79 76 80 72 81 73 82 75 83 77 84 74 85 58 86 59 87 64 88
REMARK SMILES IDX 60 89 61 90 63 91 65 92 62 93
REMARK H PARENT 27 5 7 11 32 36 82 55 56 66
REMARK Flexibility Score: inf
ROOT
ATOM      1  C   UNL A   1      38.156  23.344  26.121  1.00  0.00     0.116 C 
ENDROOT
BRANCH   1   2
ATOM      2  N   UNL A   1      36.955  22.552  25.925  1.00  0.00    -0.356 N 
ATOM      3  O   UNL A   1      36.887  22.773  23.635  1.00  0.00    -0.275 OA
ATOM      4  C   UNL A   1      36.476  22.253  24.668  1.00  0.00     0.220 C 
ATOM      5  H   UNL A   1      36.468  22.220  26.713  1.00  0.00     0.163 HD
BRANCH   4   6
ATOM      6  C   UNL A   1      35.406  21.180  24.643  1.00  0.00     0.110 C 
BRANCH   6   7
ATOM      7  C   UNL A   1      33.974  21.692  24.779  1.00  0.00     0.110 C 
BRANCH   7   8
ATOM      8  C   UNL A   1      33.562  22.020  26.192  1.00  0.00     0.224 C 
ATOM      9  O   UNL A   1      33.265  21.095  26.960  1.00  0.00    -0.275 OA
ATOM     10  N   UNL A   1      33.438  23.282  26.688  1.00  0.00    -0.326 N 
ATOM     11  H   UNL A   1      33.405  23.303  27.672  1.00  0.00     0.169 HD
BRANCH  10  12
ATOM     12  C   UNL A   1      33.345  24.562  26.110  1.00  0.00     0.041 A 
ATOM     13  C   UNL A   1      32.108  25.207  26.245  1.00  0.00     0.028 A 
ATOM     14  C   UNL A   1      34.303  25.161  25.305  1.00  0.00     0.028 A 
ATOM     15  C   UNL A   1      31.799  26.331  25.467  1.00  0.00     0.028 A 
ATOM     16  C   UNL A   1      33.982  26.266  24.508  1.00  0.00     0.028 A 
ATOM     17  C   UNL A   1      32.716  26.842  24.547  1.00  0.00     0.037 A 
BRANCH  17  18
ATOM     18  N   UNL A   1      32.349  27.901  23.735  1.00  0.00    -0.368 N 
ATOM     19  C   UNL A   1      31.243  27.637  22.797  1.00  0.00     0.138 C 
ATOM     20  C   UNL A   1      32.403  29.278  24.273  1.00  0.00     0.138 C 
ATOM     21  C   UNL A   1      29.885  28.064  23.396  1.00  0.00     0.138 C 
ATOM     22  C   UNL A   1      31.028  29.831  24.726  1.00  0.00     0.138 C 
ATOM     23  N   UNL A   1      29.932  29.482  23.803  1.00  0.00    -0.368 N 
BRANCH  23  24
ATOM     24  C   UNL A   1      29.336  30.398  22.956  1.00  0.00     0.037 A 
ATOM     25  C   UNL A   1      29.126  31.713  23.409  1.00  0.00     0.029 A 
ATOM     26  C   UNL A   1      28.890  30.071  21.670  1.00  0.00     0.029 A 
ATOM     27  C   UNL A   1      28.479  32.665  22.620  1.00  0.00     0.041 A 
ATOM     28  C   UNL A   1      28.229  31.017  20.877  1.00  0.00     0.041 A 
ATOM     29  C   UNL A   1      28.028  32.304  21.361  1.00  0.00     0.123 A 
ATOM     30  F   UNL A   1      27.389  33.205  20.605  1.00  0.00    -0.207 F 
ENDBRANCH  23  24
ENDBRANCH  17  18
ENDBRANCH  10  12
ENDBRANCH   7   8
ENDBRANCH   6   7
ENDBRANCH   4   6
ENDBRANCH   1   2
BRANCH   1  31
ATOM     31  C   UNL A   1      39.449  22.535  26.099  1.00  0.00     0.023 C 
BRANCH  31  32
ATOM     32  C   UNL A   1      39.324  21.073  26.539  1.00  0.00     0.023 C 
BRANCH  32  33
ATOM     33  C   UNL A   1      39.476  20.032  25.432  1.00  0.00     0.116 C 
BRANCH  33  34
ATOM     34  N   UNL A   1      40.451  19.000  25.751  1.00  0.00    -0.352 N 
ATOM     35  C   UNL A   1      41.770  19.108  26.123  1.00  0.00     0.251 C 
ATOM     36  H   UNL A   1      40.113  18.077  25.691  1.00  0.00     0.163 HD
ATOM     37  O   UNL A   1      42.470  18.096  26.184  1.00  0.00    -0.269 OA
BRANCH  35  38
ATOM     38  C   UNL A   1      42.374  20.425  26.427  1.00  0.00     0.039 A 
ATOM     39  C   UNL A   1      42.893  21.190  25.377  1.00  0.00     0.014 A 
ATOM     40  C   UNL A   1      42.463  20.903  27.737  1.00  0.00     0.014 A 
ATOM     41  C   UNL A   1      43.414  22.464  25.630  1.00  0.00     0.010 A 
ATOM     42  C   UNL A   1      42.911  22.202  27.978  1.00  0.00     0.010 A 
ATOM     43  C   UNL A   1      43.385  23.001  26.927  1.00  0.00    -0.014 A 
BRANCH  43  44
ATOM     44  C   UNL A   1      43.819  24.400  27.196  1.00  0.00     0.031 A 
ATOM     45  C   UNL A   1      42.829  25.435  27.660  1.00  0.00     0.074 A 
ATOM     46  C   UNL A   1      45.095  24.760  26.956  1.00  0.00     0.049 A 
ATOM     47  N   UNL A   1      43.009  26.716  27.873  1.00  0.00    -0.248 NA
ATOM     48  C   UNL A   1      41.451  24.978  27.891  1.00  0.00     0.031 C 
ATOM     49  C   UNL A   1      46.149  23.870  26.465  1.00  0.00     0.029 A 
ATOM     50  N   UNL A   1      45.724  25.976  27.081  1.00  0.00    -0.354 N 
ATOM     51  C   UNL A   1      41.768  27.217  28.246  1.00  0.00     0.074 A 
ATOM     52  C   UNL A   1      40.834  26.113  28.185  1.00  0.00     0.031 C 
ATOM     53  C   UNL A   1      47.294  24.561  26.352  1.00  0.00     0.029 A 
ATOM     54  C   UNL A   1      47.050  25.952  26.721  1.00  0.00     0.049 A 
ATOM     55  H   UNL A   1      45.266  26.788  27.399  1.00  0.00     0.167 HD
ATOM     56  C   UNL A   1      41.440  28.476  28.624  1.00  0.00     0.037 A 
ATOM     57  C   UNL A   1      47.966  26.939  26.682  1.00  0.00     0.037 A 
ATOM     58  C   UNL A   1      42.373  29.570  28.708  1.00  0.00     0.049 A 
ATOM     59  C   UNL A   1      47.571  28.332  27.088  1.00  0.00     0.074 A 
ATOM     60  C   UNL A   1      42.144  30.865  29.144  1.00  0.00     0.029 A 
ATOM     61  N   UNL A   1      43.707  29.502  28.342  1.00  0.00    -0.354 N 
ATOM     62  N   UNL A   1      46.410  28.774  27.508  1.00  0.00    -0.248 NA
ATOM     63  C   UNL A   1      48.615  29.364  27.019  1.00  0.00     0.031 C 
ATOM     64  C   UNL A   1      43.329  31.593  28.994  1.00  0.00     0.029 A 
ATOM     65  C   UNL A   1      44.310  30.739  28.517  1.00  0.00     0.049 A 
ATOM     66  H   UNL A   1      44.162  28.696  28.007  1.00  0.00     0.167 HD
ATOM     67  C   UNL A   1      46.593  30.122  27.784  1.00  0.00     0.074 A 
ATOM     68  C   UNL A   1      47.980  30.425  27.495  1.00  0.00     0.031 C 
ATOM     69  C   UNL A   1      45.693  31.028  28.236  1.00  0.00     0.037 A 
BRANCH  56  70
ATOM     70  C   UNL A   1      40.004  28.744  28.978  1.00  0.00     0.057 A 
ATOM     71  C   UNL A   1      39.530  28.620  30.290  1.00  0.00     0.134 A 
ATOM     72  C   UNL A   1      39.096  29.178  28.003  1.00  0.00     0.134 A 
ATOM     73  F   UNL A   1      40.344  28.202  31.271  1.00  0.00    -0.206 F 
ATOM     74  C   UNL A   1      38.199  28.890  30.615  1.00  0.00     0.040 A 
ATOM     75  C   UNL A   1      37.771  29.479  28.320  1.00  0.00     0.040 A 
ATOM     76  F   UNL A   1      39.485  29.328  26.728  1.00  0.00    -0.206 F 
ATOM     77  C   UNL A   1      37.317  29.329  29.629  1.00  0.00     0.006 A 
ENDBRANCH  56  70
BRANCH  57  78
ATOM     78  C   UNL A   1      49.359  26.647  26.256  1.00  0.00     0.057 A 
ATOM     79  C   UNL A   1      49.771  26.872  24.937  1.00  0.00     0.134 A 
ATOM     80  C   UNL A   1      50.305  26.123  27.145  1.00  0.00     0.134 A 
ATOM     81  F   UNL A   1      48.906  27.353  24.032  1.00  0.00    -0.206 F 
ATOM     82  C   UNL A   1      51.064  26.565  24.511  1.00  0.00     0.040 A 
ATOM     83  C   UNL A   1      51.609  25.837  26.739  1.00  0.00     0.040 A 
ATOM     84  F   UNL A   1      49.976  25.891  28.424  1.00  0.00    -0.206 F 
ATOM     85  C   UNL A   1      51.989  26.049  25.416  1.00  0.00     0.006 A 
ENDBRANCH  57  78
BRANCH  69  86
ATOM     86  C   UNL A   1      46.186  32.424  28.490  1.00  0.00     0.057 A 
ATOM     87  C   UNL A   1      46.714  32.813  29.728  1.00  0.00     0.134 A 
ATOM     88  C   UNL A   1      46.164  33.383  27.468  1.00  0.00     0.134 A 
ATOM     89  F   UNL A   1      46.751  31.948  30.753  1.00  0.00    -0.206 F 
ATOM     90  C   UNL A   1      47.180  34.110  29.947  1.00  0.00     0.040 A 
ATOM     91  C   UNL A   1      46.654  34.674  27.667  1.00  0.00     0.040 A 
ATOM     92  F   UNL A   1      45.680  33.075  26.255  1.00  0.00    -0.206 F 
ATOM     93  C   UNL A   1      47.157  35.043  28.912  1.00  0.00     0.006 A 
ENDBRANCH  69  86
ENDBRANCH  43  44
ENDBRANCH  35  38
ENDBRANCH  33  34
ENDBRANCH  32  33
ENDBRANCH  31  32
ENDBRANCH   1  31
TORSDOF 16
ENDMDL
MODEL 3
REMARK VINA RESULT:     -11.5      3.235      5.684
REMARK SMILES O=C(CCC(=O)Nc1ccc(N2CCN(c3ccc(F)cc3)CC2)cc1)NCCCCNC(=O)c1ccc(-c2c3nc(c(-c4c(F)cccc4F)c4ccc([nH]4)c(-c4c(F)cccc4F)c4nc(c(-c5c(F)cccc5F)c5ccc2[nH]5)C=C4)C=C3)cc1
REMARK SMILES IDX 28 1 27 2 1 3 2 4 3 6 4 7 5 8 6 9 7 10 8 12 9 13 26 14 10 15
REMARK SMILES IDX 25 16 11 17 12 18 13 19 24 20 14 21 23 22 15 23 16 24 17 25
REMARK SMILES IDX 22 26 18 27 21 28 19 29 20 30 29 31 30 32 31 33 32 34 33 35
REMARK SMILES IDX 34 37 35 38 36 39 88 40 37 41 87 42 38 43 39 44 40 45 81 46
REMARK SMILES IDX 41 47 86 48 80 49 82 50 42 51 85 52 79 53 78 54 43 56 69 57
REMARK SMILES IDX 52 58 68 59 53 60 56 61 67 62 83 63 54 64 55 65 66 67 84 68
REMARK SMILES IDX 57 69 44 70 45 71 50 72 46 73 47 74 49 75 51 76 48 77 70 78
REMARK SMILES IDX 71 79 76 80 72 81 73 82 75 83 77 84 74 85 58 86 59 87 64 88
REMARK SMILES IDX 60 89 61 90 63 91 65 92 62 93
REMARK H PARENT 27 5 7 11 32 36 82 55 56 66
REMARK Flexibility Score: inf
ROOT
ATOM      1  C   UNL A   1      40.194  22.025  27.069  1.00  0.00     0.116 C 
ENDROOT
BRANCH   1   2
ATOM      2  N   UNL A   1      38.856  22.172  26.525  1.00  0.00    -0.356 N 
ATOM      3  O   UNL A   1      38.884  24.471  26.427  1.00  0.00    -0.275 OA
ATOM      4  C   UNL A   1      38.350  23.399  26.156  1.00  0.00     0.220 C 
ATOM      5  H   UNL A   1      38.294  21.371  26.415  1.00  0.00     0.163 HD
BRANCH   4   6
ATOM      6  C   UNL A   1      37.078  23.333  25.335  1.00  0.00     0.110 C 
BRANCH   6   7
ATOM      7  C   UNL A   1      36.986  22.144  24.381  1.00  0.00     0.110 C 
BRANCH   7   8
ATOM      8  C   UNL A   1      36.560  20.853  25.035  1.00  0.00     0.224 C 
ATOM      9  O   UNL A   1      37.333  19.887  25.012  1.00  0.00    -0.275 OA
ATOM     10  N   UNL A   1      35.346  20.645  25.615  1.00  0.00    -0.326 N 
ATOM     11  H   UNL A   1      35.333  19.850  26.196  1.00  0.00     0.169 HD
BRANCH  10  12
ATOM     12  C   UNL A   1      34.106  21.309  25.569  1.00  0.00     0.041 A 
ATOM     13  C   UNL A   1      33.405  21.216  24.358  1.00  0.00     0.028 A 
ATOM     14  C   UNL A   1      33.601  22.155  26.546  1.00  0.00     0.028 A 
ATOM     15  C   UNL A   1      32.326  22.069  24.090  1.00  0.00     0.028 A 
ATOM     16  C   UNL A   1      32.542  23.025  26.264  1.00  0.00     0.028 A 
ATOM     17  C   UNL A   1      31.916  23.024  25.021  1.00  0.00     0.037 A 
BRANCH  17  18
ATOM     18  N   UNL A   1      30.901  23.905  24.692  1.00  0.00    -0.368 N 
ATOM     19  C   UNL A   1      30.735  25.058  25.596  1.00  0.00     0.138 C 
ATOM     20  C   UNL A   1      30.611  24.177  23.267  1.00  0.00     0.138 C 
ATOM     21  C   UNL A   1      31.514  26.290  25.085  1.00  0.00     0.138 C 
ATOM     22  C   UNL A   1      31.221  25.501  22.742  1.00  0.00     0.138 C 
ATOM     23  N   UNL A   1      31.105  26.612  23.705  1.00  0.00    -0.368 N 
BRANCH  23  24
ATOM     24  C   UNL A   1      30.224  27.665  23.541  1.00  0.00     0.037 A 
ATOM     25  C   UNL A   1      30.687  28.980  23.722  1.00  0.00     0.029 A 
ATOM     26  C   UNL A   1      28.868  27.487  23.238  1.00  0.00     0.029 A 
ATOM     27  C   UNL A   1      29.832  30.079  23.624  1.00  0.00     0.041 A 
ATOM     28  C   UNL A   1      28.001  28.582  23.151  1.00  0.00     0.041 A 
ATOM     29  C   UNL A   1      28.491  29.868  23.347  1.00  0.00     0.123 A 
ATOM     30  F   UNL A   1      27.660  30.914  23.271  1.00  0.00    -0.207 F 
ENDBRANCH  23  24
ENDBRANCH  17  18
ENDBRANCH  10  12
ENDBRANCH   7   8
ENDBRANCH   6   7
ENDBRANCH   4   6
ENDBRANCH   1   2
BRANCH   1  31
ATOM     31  C   UNL A   1      41.074  21.037  26.311  1.00  0.00     0.023 C 
BRANCH  31  32
ATOM     32  C   UNL A   1      42.393  21.600  25.774  1.00  0.00     0.023 C 
BRANCH  32  33
ATOM     33  C   UNL A   1      42.360  23.062  25.335  1.00  0.00     0.116 C 
BRANCH  33  34
ATOM     34  N   UNL A   1      43.655  23.549  24.882  1.00  0.00    -0.352 N 
ATOM     35  C   UNL A   1      44.396  24.627  25.304  1.00  0.00     0.251 C 
ATOM     36  H   UNL A   1      44.066  23.022  24.158  1.00  0.00     0.163 HD
ATOM     37  O   UNL A   1      45.395  24.965  24.667  1.00  0.00    -0.269 OA
BRANCH  35  38
ATOM     38  C   UNL A   1      43.999  25.410  26.496  1.00  0.00     0.039 A 
ATOM     39  C   UNL A   1      44.326  26.769  26.553  1.00  0.00     0.014 A 
ATOM     40  C   UNL A   1      43.334  24.816  27.571  1.00  0.00     0.014 A 
ATOM     41  C   UNL A   1      43.909  27.544  27.640  1.00  0.00     0.010 A 
ATOM     42  C   UNL A   1      42.851  25.604  28.617  1.00  0.00     0.010 A 
ATOM     43  C   UNL A   1      43.127  26.980  28.660  1.00  0.00    -0.014 A 
BRANCH  43  44
ATOM     44  C   UNL A   1      42.568  27.813  29.761  1.00  0.00     0.031 A 
ATOM     45  C   UNL A   1      43.198  27.803  31.128  1.00  0.00     0.074 A 
ATOM     46  C   UNL A   1      41.445  28.529  29.550  1.00  0.00     0.049 A 
ATOM     47  N   UNL A   1      42.806  28.405  32.224  1.00  0.00    -0.248 NA
ATOM     48  C   UNL A   1      44.412  26.992  31.292  1.00  0.00     0.031 C 
ATOM     49  C   UNL A   1      40.707  28.595  28.288  1.00  0.00     0.029 A 
ATOM     50  N   UNL A   1      40.719  29.329  30.398  1.00  0.00    -0.354 N 
ATOM     51  C   UNL A   1      43.714  28.034  33.207  1.00  0.00     0.074 A 
ATOM     52  C   UNL A   1      44.650  27.117  32.590  1.00  0.00     0.031 C 
ATOM     53  C   UNL A   1      39.650  29.408  28.436  1.00  0.00     0.029 A 
ATOM     54  C   UNL A   1      39.608  29.888  29.814  1.00  0.00     0.049 A 
ATOM     55  H   UNL A   1      40.972  29.488  31.336  1.00  0.00     0.167 HD
ATOM     56  C   UNL A   1      43.777  28.433  34.500  1.00  0.00     0.037 A 
ATOM     57  C   UNL A   1      38.655  30.689  30.329  1.00  0.00     0.037 A 
ATOM     58  C   UNL A   1      42.861  29.363  35.110  1.00  0.00     0.049 A 
ATOM     59  C   UNL A   1      38.737  31.103  31.772  1.00  0.00     0.074 A 
ATOM     60  C   UNL A   1      42.886  29.877  36.396  1.00  0.00     0.029 A 
ATOM     61  N   UNL A   1      41.755  29.912  34.482  1.00  0.00    -0.354 N 
ATOM     62  N   UNL A   1      39.644  30.800  32.670  1.00  0.00    -0.248 NA
ATOM     63  C   UNL A   1      37.665  31.974  32.275  1.00  0.00     0.031 C 
ATOM     64  C   UNL A   1      41.765  30.698  36.561  1.00  0.00     0.029 A 
ATOM     65  C   UNL A   1      41.073  30.739  35.361  1.00  0.00     0.049 A 
ATOM     66  H   UNL A   1      41.491  29.740  33.549  1.00  0.00     0.167 HD
ATOM     67  C   UNL A   1      39.270  31.468  33.829  1.00  0.00     0.074 A 
ATOM     68  C   UNL A   1      38.061  32.202  33.519  1.00  0.00     0.031 C 
ATOM     69  C   UNL A   1      39.876  31.473  35.041  1.00  0.00     0.037 A 
BRANCH  56  70
ATOM     70  C   UNL A   1      44.877  27.865  35.352  1.00  0.00     0.057 A 
ATOM     71  C   UNL A   1      46.152  28.443  35.397  1.00  0.00     0.134 A 
ATOM     72  C   UNL A   1      44.644  26.753  36.172  1.00  0.00     0.134 A 
ATOM     73  F   UNL A   1      46.445  29.504  34.631  1.00  0.00    -0.206 F 
ATOM     74  C   UNL A   1      47.163  27.921  36.206  1.00  0.00     0.040 A 
ATOM     75  C   UNL A   1      45.638  26.240  37.007  1.00  0.00     0.040 A 
ATOM     76  F   UNL A   1      43.443  26.155  36.186  1.00  0.00    -0.206 F 
ATOM     77  C   UNL A   1      46.904  26.820  37.021  1.00  0.00     0.006 A 
ENDBRANCH  56  70
BRANCH  57  78
ATOM     78  C   UNL A   1      37.542  31.172  29.472  1.00  0.00     0.057 A 
ATOM     79  C   UNL A   1      37.562  32.460  28.923  1.00  0.00     0.134 A 
ATOM     80  C   UNL A   1      36.427  30.373  29.195  1.00  0.00     0.134 A 
ATOM     81  F   UNL A   1      38.593  33.282  29.169  1.00  0.00    -0.206 F 
ATOM     82  C   UNL A   1      36.505  32.944  28.150  1.00  0.00     0.040 A 
ATOM     83  C   UNL A   1      35.376  30.833  28.401  1.00  0.00     0.040 A 
ATOM     84  F   UNL A   1      36.349  29.126  29.685  1.00  0.00    -0.206 F 
ATOM     85  C   UNL A   1      35.409  32.126  27.883  1.00  0.00     0.006 A 
ENDBRANCH  57  78
BRANCH  69  86
ATOM     86  C   UNL A   1      39.267  32.331  36.113  1.00  0.00     0.057 A 
ATOM     87  C   UNL A   1      39.651  33.664  36.306  1.00  0.00     0.134 A 
ATOM     88  C   UNL A   1      38.257  31.824  36.942  1.00  0.00     0.134 A 
ATOM     89  F   UNL A   1      40.623  34.207  35.556  1.00  0.00    -0.206 F 
ATOM     90  C   UNL A   1      39.070  34.455  37.298  1.00  0.00     0.040 A 
ATOM     91  C   UNL A   1      37.648  32.613  37.918  1.00  0.00     0.040 A 
ATOM     92  F   UNL A   1      37.836  30.558  36.805  1.00  0.00    -0.206 F 
ATOM     93  C   UNL A   1      38.059  33.931  38.103  1.00  0.00     0.006 A 
ENDBRANCH  69  86
ENDBRANCH  43  44
ENDBRANCH  35  38
ENDBRANCH  33  34
ENDBRANCH  32  33
ENDBRANCH  31  32
ENDBRANCH   1  31
TORSDOF 16
ENDMDL
