MODEL 1
REMARK VINA RESULT:     -13.2      0.000      0.000
REMARK SMILES Cc1ccc([C@H](C)Nc2ccc(C(=O)NCCCCNC(=O)c3ccc(-c4c5nc(c(-c6c(F)cccc6F)c6ccc([nH]6)c(-c6c(F)cccc6F)c6nc(c(-c7c(F)cccc7F)c7ccc4[nH]7)C=C6)C=C5)cc3)cc2Cl)cc1F
REMARK SMILES IDX 17 1 16 2 15 3 13 4 14 5 12 7 9 8 10 9 78 10 11 11 77 12
REMARK SMILES IDX 79 13 8 14 6 16 7 17 5 18 1 19 2 20 3 21 81 22 4 23 80 24
REMARK SMILES IDX 82 25 18 26 19 27 20 28 21 29 22 31 23 32 24 33 76 34 25 35
REMARK SMILES IDX 75 36 26 37 27 38 28 39 69 40 29 41 74 42 68 43 70 44 30 45
REMARK SMILES IDX 73 46 67 47 66 48 31 50 57 51 40 52 56 53 41 54 44 55 55 56
REMARK SMILES IDX 71 57 42 58 43 59 54 61 72 62 45 63 32 64 33 65 38 66 34 67
REMARK SMILES IDX 35 68 37 69 39 70 36 71 58 72 59 73 64 74 60 75 61 76 63 77
REMARK SMILES IDX 65 78 62 79 46 80 47 81 52 82 48 83 49 84 51 85 53 86 50 87
REMARK H PARENT 15 6 8 15 20 30 70 49 44 60
REMARK Flexibility Score: inf
ROOT
ATOM      1  C   UNL A   1      35.544  21.518  25.965  1.00  0.00     0.023 C 
ENDROOT
BRANCH   1   2
ATOM      2  C   UNL A   1      35.534  20.327  24.995  1.00  0.00     0.116 C 
BRANCH   2   3
ATOM      3  N   UNL A   1      34.380  19.481  25.235  1.00  0.00    -0.352 N 
ATOM      4  C   UNL A   1      33.026  19.695  25.142  1.00  0.00     0.251 C 
ATOM      5  O   UNL A   1      32.291  18.772  25.498  1.00  0.00    -0.269 OA
ATOM      6  H   UNL A   1      34.615  18.570  25.522  1.00  0.00     0.163 HD
BRANCH   4   7
ATOM      7  C   UNL A   1      32.403  20.943  24.601  1.00  0.00     0.041 A 
ATOM      8  C   UNL A   1      31.394  23.379  23.467  1.00  0.00     0.053 A 
ATOM      9  C   UNL A   1      31.972  22.367  22.676  1.00  0.00     0.028 A 
ATOM     10  C   UNL A   1      31.376  23.144  24.849  1.00  0.00     0.065 A 
ATOM     11  C   UNL A   1      32.497  21.187  23.230  1.00  0.00     0.016 A 
ATOM     12  C   UNL A   1      31.775  21.910  25.372  1.00  0.00     0.036 A 
ATOM     13  Cl  UNL A   1      30.876  24.269  26.069  1.00  0.00    -0.082 Cl
BRANCH   8  14
ATOM     14  N   UNL A   1      30.935  24.498  22.801  1.00  0.00    -0.377 N 
ATOM     15  H   UNL A   1      30.080  24.393  22.325  1.00  0.00     0.161 HD
BRANCH  14  16
ATOM     16  C   UNL A   1      31.556  25.815  22.715  1.00  0.00     0.106 C 
ATOM     17  C   UNL A   1      32.310  25.847  21.372  1.00  0.00     0.036 C 
BRANCH  16  18
ATOM     18  C   UNL A   1      30.517  26.908  22.970  1.00  0.00    -0.023 A 
ATOM     19  C   UNL A   1      27.391  29.928  22.902  1.00  0.00     0.047 C 
ATOM     20  C   UNL A   1      28.473  28.898  22.986  1.00  0.00    -0.015 A 
ATOM     21  C   UNL A   1      28.272  27.659  23.599  1.00  0.00     0.007 A 
ATOM     22  C   UNL A   1      29.710  29.148  22.406  1.00  0.00     0.126 A 
ATOM     23  C   UNL A   1      29.277  26.676  23.584  1.00  0.00     0.006 A 
ATOM     24  C   UNL A   1      30.719  28.192  22.428  1.00  0.00     0.045 A 
ATOM     25  F   UNL A   1      29.937  30.315  21.784  1.00  0.00    -0.207 F 
ENDBRANCH  16  18
ENDBRANCH  14  16
ENDBRANCH   8  14
ENDBRANCH   4   7
ENDBRANCH   2   3
ENDBRANCH   1   2
BRANCH   1  26
ATOM     26  C   UNL A   1      35.833  22.862  25.287  1.00  0.00     0.023 C 
BRANCH  26  27
ATOM     27  C   UNL A   1      37.058  23.551  25.862  1.00  0.00     0.116 C 
BRANCH  27  28
ATOM     28  N   UNL A   1      38.144  22.609  26.142  1.00  0.00    -0.352 N 
ATOM     29  C   UNL A   1      39.444  22.916  26.479  1.00  0.00     0.251 C 
ATOM     30  H   UNL A   1      37.919  21.653  26.082  1.00  0.00     0.163 HD
ATOM     31  O   UNL A   1      40.349  22.101  26.431  1.00  0.00    -0.269 OA
BRANCH  29  32
ATOM     32  C   UNL A   1      39.696  24.271  26.969  1.00  0.00     0.039 A 
ATOM     33  C   UNL A   1      40.283  25.255  26.162  1.00  0.00     0.014 A 
ATOM     34  C   UNL A   1      39.305  24.522  28.280  1.00  0.00     0.014 A 
ATOM     35  C   UNL A   1      40.472  26.528  26.691  1.00  0.00     0.010 A 
ATOM     36  C   UNL A   1      39.344  25.799  28.739  1.00  0.00     0.010 A 
ATOM     37  C   UNL A   1      40.010  26.772  27.983  1.00  0.00    -0.014 A 
BRANCH  37  38
ATOM     38  C   UNL A   1      40.237  27.981  28.746  1.00  0.00     0.031 A 
ATOM     39  C   UNL A   1      39.244  29.050  28.762  1.00  0.00     0.074 A 
ATOM     40  C   UNL A   1      41.240  27.859  29.642  1.00  0.00     0.049 A 
ATOM     41  N   UNL A   1      39.447  30.199  29.297  1.00  0.00    -0.248 NA
ATOM     42  C   UNL A   1      37.928  28.925  28.148  1.00  0.00     0.031 C 
ATOM     43  C   UNL A   1      41.499  28.568  30.879  1.00  0.00     0.029 A 
ATOM     44  N   UNL A   1      42.347  27.013  29.501  1.00  0.00    -0.354 N 
ATOM     45  C   UNL A   1      38.224  30.823  29.407  1.00  0.00     0.074 A 
ATOM     46  C   UNL A   1      37.352  30.067  28.540  1.00  0.00     0.031 C 
ATOM     47  C   UNL A   1      42.788  28.364  31.222  1.00  0.00     0.029 A 
ATOM     48  C   UNL A   1      43.424  27.673  30.108  1.00  0.00     0.049 A 
ATOM     49  H   UNL A   1      42.364  26.132  29.063  1.00  0.00     0.167 HD
ATOM     50  C   UNL A   1      38.095  31.800  30.353  1.00  0.00     0.037 A 
ATOM     51  C   UNL A   1      44.374  28.203  29.273  1.00  0.00     0.037 A 
ATOM     52  C   UNL A   1      39.395  32.039  30.996  1.00  0.00     0.049 A 
ATOM     53  C   UNL A   1      44.351  29.721  29.255  1.00  0.00     0.074 A 
ATOM     54  C   UNL A   1      39.987  31.619  32.176  1.00  0.00     0.029 A 
ATOM     55  N   UNL A   1      40.423  32.528  30.215  1.00  0.00    -0.354 N 
ATOM     56  N   UNL A   1      43.416  30.448  29.805  1.00  0.00    -0.248 NA
ATOM     57  C   UNL A   1      45.357  30.538  28.582  1.00  0.00     0.031 C 
ATOM     58  C   UNL A   1      41.401  31.814  32.052  1.00  0.00     0.029 A 
ATOM     59  C   UNL A   1      41.657  32.372  30.810  1.00  0.00     0.049 A 
ATOM     60  H   UNL A   1      40.290  32.942  29.332  1.00  0.00     0.167 HD
ATOM     61  C   UNL A   1      43.658  31.772  29.585  1.00  0.00     0.074 A 
ATOM     62  C   UNL A   1      44.878  31.778  28.793  1.00  0.00     0.031 C 
ATOM     63  C   UNL A   1      42.838  32.761  30.050  1.00  0.00     0.037 A 
BRANCH  50  64
ATOM     64  C   UNL A   1      36.805  32.404  30.872  1.00  0.00     0.057 A 
ATOM     65  C   UNL A   1      36.191  33.460  30.163  1.00  0.00     0.134 A 
ATOM     66  C   UNL A   1      36.126  32.047  32.051  1.00  0.00     0.134 A 
ATOM     67  F   UNL A   1      36.664  33.886  28.983  1.00  0.00    -0.206 F 
ATOM     68  C   UNL A   1      35.053  34.139  30.621  1.00  0.00     0.040 A 
ATOM     69  C   UNL A   1      34.996  32.727  32.530  1.00  0.00     0.040 A 
ATOM     70  F   UNL A   1      36.482  31.000  32.797  1.00  0.00    -0.206 F 
ATOM     71  C   UNL A   1      34.458  33.785  31.819  1.00  0.00     0.006 A 
ENDBRANCH  50  64
BRANCH  51  72
ATOM     72  C   UNL A   1      44.596  27.312  28.078  1.00  0.00     0.057 A 
ATOM     73  C   UNL A   1      44.079  27.741  26.836  1.00  0.00     0.134 A 
ATOM     74  C   UNL A   1      45.664  26.407  28.033  1.00  0.00     0.134 A 
ATOM     75  F   UNL A   1      43.048  28.600  26.798  1.00  0.00    -0.206 F 
ATOM     76  C   UNL A   1      44.712  27.439  25.625  1.00  0.00     0.040 A 
ATOM     77  C   UNL A   1      46.286  26.076  26.820  1.00  0.00     0.040 A 
ATOM     78  F   UNL A   1      46.211  25.938  29.164  1.00  0.00    -0.206 F 
ATOM     79  C   UNL A   1      45.849  26.639  25.622  1.00  0.00     0.006 A 
ENDBRANCH  51  72
BRANCH  63  80
ATOM     80  C   UNL A   1      43.089  34.216  29.777  1.00  0.00     0.057 A 
ATOM     81  C   UNL A   1      43.121  34.738  28.479  1.00  0.00     0.134 A 
ATOM     82  C   UNL A   1      43.396  35.129  30.808  1.00  0.00     0.134 A 
ATOM     83  F   UNL A   1      42.939  33.946  27.412  1.00  0.00    -0.206 F 
ATOM     84  C   UNL A   1      43.359  36.093  28.229  1.00  0.00     0.040 A 
ATOM     85  C   UNL A   1      43.700  36.468  30.566  1.00  0.00     0.040 A 
ATOM     86  F   UNL A   1      43.383  34.778  32.101  1.00  0.00    -0.206 F 
ATOM     87  C   UNL A   1      43.656  36.962  29.273  1.00  0.00     0.006 A 
ENDBRANCH  63  80
ENDBRANCH  37  38
ENDBRANCH  29  32
ENDBRANCH  27  28
ENDBRANCH  26  27
ENDBRANCH   1  26
TORSDOF 14
ENDMDL
MODEL 2
REMARK VINA RESULT:     -13.2      3.473      8.672
REMARK SMILES Cc1ccc([C@H](C)Nc2ccc(C(=O)NCCCCNC(=O)c3ccc(-c4c5nc(c(-c6c(F)cccc6F)c6ccc([nH]6)c(-c6c(F)cccc6F)c6nc(c(-c7c(F)cccc7F)c7ccc4[nH]7)C=C6)C=C5)cc3)cc2Cl)cc1F
REMARK SMILES IDX 17 1 16 2 15 3 13 4 14 5 12 7 9 8 10 9 78 10 11 11 77 12
REMARK SMILES IDX 79 13 8 14 6 16 7 17 5 18 1 19 2 20 3 21 81 22 4 23 80 24
REMARK SMILES IDX 82 25 18 26 19 27 20 28 21 29 22 31 23 32 24 33 76 34 25 35
REMARK SMILES IDX 75 36 26 37 27 38 28 39 69 40 29 41 74 42 68 43 70 44 30 45
REMARK SMILES IDX 73 46 67 47 66 48 31 50 57 51 40 52 56 53 41 54 44 55 55 56
REMARK SMILES IDX 71 57 42 58 43 59 54 61 72 62 45 63 32 64 33 65 38 66 34 67
REMARK SMILES IDX 35 68 37 69 39 70 36 71 58 72 59 73 64 74 60 75 61 76 63 77
REMARK SMILES IDX 65 78 62 79 46 80 47 81 52 82 48 83 49 84 51 85 53 86 50 87
REMARK H PARENT 15 6 8 15 20 30 70 49 44 60
REMARK Flexibility Score: inf
ROOT
ATOM      1  C   UNL A   1      32.843  29.732  25.186  1.00  0.00     0.023 C 
ENDROOT
BRANCH   1   2
ATOM      2  C   UNL A   1      31.308  29.738  25.127  1.00  0.00     0.116 C 
BRANCH   2   3
ATOM      3  N   UNL A   1      30.849  29.728  23.751  1.00  0.00    -0.352 N 
ATOM      4  C   UNL A   1      30.993  28.830  22.721  1.00  0.00     0.251 C 
ATOM      5  O   UNL A   1      30.537  29.162  21.626  1.00  0.00    -0.269 OA
ATOM      6  H   UNL A   1      30.329  30.526  23.506  1.00  0.00     0.163 HD
BRANCH   4   7
ATOM      7  C   UNL A   1      31.619  27.479  22.861  1.00  0.00     0.041 A 
ATOM      8  C   UNL A   1      32.887  24.905  22.928  1.00  0.00     0.053 A 
ATOM      9  C   UNL A   1      33.581  26.073  22.554  1.00  0.00     0.028 A 
ATOM     10  C   UNL A   1      31.528  25.067  23.229  1.00  0.00     0.065 A 
ATOM     11  C   UNL A   1      32.956  27.329  22.489  1.00  0.00     0.016 A 
ATOM     12  C   UNL A   1      30.955  26.340  23.292  1.00  0.00     0.036 A 
ATOM     13  Cl  UNL A   1      30.398  23.796  23.562  1.00  0.00    -0.082 Cl
BRANCH   8  14
ATOM     14  N   UNL A   1      33.613  23.730  22.932  1.00  0.00    -0.377 N 
ATOM     15  H   UNL A   1      34.141  23.549  22.122  1.00  0.00     0.161 HD
BRANCH  14  16
ATOM     16  C   UNL A   1      33.694  22.724  23.985  1.00  0.00     0.106 C 
ATOM     17  C   UNL A   1      32.848  21.530  23.505  1.00  0.00     0.036 C 
BRANCH  16  18
ATOM     18  C   UNL A   1      35.155  22.455  24.348  1.00  0.00    -0.023 A 
ATOM     19  C   UNL A   1      39.092  21.947  26.122  1.00  0.00     0.047 C 
ATOM     20  C   UNL A   1      37.759  22.099  25.458  1.00  0.00    -0.015 A 
ATOM     21  C   UNL A   1      36.957  20.999  25.145  1.00  0.00     0.007 A 
ATOM     22  C   UNL A   1      37.270  23.367  25.175  1.00  0.00     0.126 A 
ATOM     23  C   UNL A   1      35.671  21.175  24.605  1.00  0.00     0.006 A 
ATOM     24  C   UNL A   1      36.016  23.541  24.602  1.00  0.00     0.045 A 
ATOM     25  F   UNL A   1      37.997  24.451  25.483  1.00  0.00    -0.207 F 
ENDBRANCH  16  18
ENDBRANCH  14  16
ENDBRANCH   8  14
ENDBRANCH   4   7
ENDBRANCH   2   3
ENDBRANCH   1   2
BRANCH   1  26
ATOM     26  C   UNL A   1      33.427  28.516  25.912  1.00  0.00     0.023 C 
BRANCH  26  27
ATOM     27  C   UNL A   1      33.967  28.864  27.288  1.00  0.00     0.116 C 
BRANCH  27  28
ATOM     28  N   UNL A   1      33.990  30.308  27.526  1.00  0.00    -0.352 N 
ATOM     29  C   UNL A   1      34.868  31.005  28.328  1.00  0.00     0.251 C 
ATOM     30  H   UNL A   1      33.303  30.839  27.062  1.00  0.00     0.163 HD
ATOM     31  O   UNL A   1      34.665  32.150  28.691  1.00  0.00    -0.269 OA
BRANCH  29  32
ATOM     32  C   UNL A   1      36.114  30.326  28.685  1.00  0.00     0.039 A 
ATOM     33  C   UNL A   1      36.285  29.692  29.923  1.00  0.00     0.014 A 
ATOM     34  C   UNL A   1      37.111  30.343  27.716  1.00  0.00     0.014 A 
ATOM     35  C   UNL A   1      37.491  29.049  30.184  1.00  0.00     0.010 A 
ATOM     36  C   UNL A   1      38.220  29.584  27.908  1.00  0.00     0.010 A 
ATOM     37  C   UNL A   1      38.447  29.021  29.170  1.00  0.00    -0.014 A 
BRANCH  37  38
ATOM     38  C   UNL A   1      39.801  28.525  29.301  1.00  0.00     0.031 A 
ATOM     39  C   UNL A   1      40.143  27.171  28.878  1.00  0.00     0.074 A 
ATOM     40  C   UNL A   1      40.703  29.506  29.521  1.00  0.00     0.049 A 
ATOM     41  N   UNL A   1      41.283  26.626  29.100  1.00  0.00    -0.248 NA
ATOM     42  C   UNL A   1      39.210  26.294  28.182  1.00  0.00     0.031 C 
ATOM     43  C   UNL A   1      42.126  29.565  29.248  1.00  0.00     0.029 A 
ATOM     44  N   UNL A   1      40.435  30.716  30.171  1.00  0.00    -0.354 N 
ATOM     45  C   UNL A   1      41.362  25.503  28.306  1.00  0.00     0.074 A 
ATOM     46  C   UNL A   1      40.002  25.256  27.889  1.00  0.00     0.031 C 
ATOM     47  C   UNL A   1      42.653  30.575  29.970  1.00  0.00     0.029 A 
ATOM     48  C   UNL A   1      41.605  31.059  30.861  1.00  0.00     0.049 A 
ATOM     49  H   UNL A   1      39.592  31.224  30.149  1.00  0.00     0.167 HD
ATOM     50  C   UNL A   1      42.607  25.038  27.988  1.00  0.00     0.037 A 
ATOM     51  C   UNL A   1      41.584  30.915  32.225  1.00  0.00     0.037 A 
ATOM     52  C   UNL A   1      43.624  25.833  28.692  1.00  0.00     0.049 A 
ATOM     53  C   UNL A   1      42.461  29.773  32.704  1.00  0.00     0.074 A 
ATOM     54  C   UNL A   1      44.437  26.899  28.343  1.00  0.00     0.029 A 
ATOM     55  N   UNL A   1      43.643  25.784  30.072  1.00  0.00    -0.354 N 
ATOM     56  N   UNL A   1      43.017  28.893  31.914  1.00  0.00    -0.248 NA
ATOM     57  C   UNL A   1      42.747  29.506  34.111  1.00  0.00     0.031 C 
ATOM     58  C   UNL A   1      44.890  27.520  29.552  1.00  0.00     0.029 A 
ATOM     59  C   UNL A   1      44.370  26.816  30.626  1.00  0.00     0.049 A 
ATOM     60  H   UNL A   1      43.187  25.090  30.601  1.00  0.00     0.167 HD
ATOM     61  C   UNL A   1      43.709  27.974  32.648  1.00  0.00     0.074 A 
ATOM     62  C   UNL A   1      43.492  28.389  34.025  1.00  0.00     0.031 C 
ATOM     63  C   UNL A   1      44.392  26.936  32.078  1.00  0.00     0.037 A 
BRANCH  50  64
ATOM     64  C   UNL A   1      42.960  24.036  26.908  1.00  0.00     0.057 A 
ATOM     65  C   UNL A   1      42.827  22.653  27.164  1.00  0.00     0.134 A 
ATOM     66  C   UNL A   1      43.460  24.325  25.625  1.00  0.00     0.134 A 
ATOM     67  F   UNL A   1      42.302  22.196  28.310  1.00  0.00    -0.206 F 
ATOM     68  C   UNL A   1      43.220  21.658  26.258  1.00  0.00     0.040 A 
ATOM     69  C   UNL A   1      43.873  23.341  24.714  1.00  0.00     0.040 A 
ATOM     70  F   UNL A   1      43.548  25.570  25.152  1.00  0.00    -0.206 F 
ATOM     71  C   UNL A   1      43.762  21.999  25.031  1.00  0.00     0.006 A 
ENDBRANCH  50  64
BRANCH  51  72
ATOM     72  C   UNL A   1      40.232  31.281  32.781  1.00  0.00     0.057 A 
ATOM     73  C   UNL A   1      39.424  30.235  33.278  1.00  0.00     0.134 A 
ATOM     74  C   UNL A   1      39.973  32.564  33.279  1.00  0.00     0.134 A 
ATOM     75  F   UNL A   1      39.606  28.979  32.841  1.00  0.00    -0.206 F 
ATOM     76  C   UNL A   1      38.543  30.424  34.349  1.00  0.00     0.040 A 
ATOM     77  C   UNL A   1      39.069  32.766  34.333  1.00  0.00     0.040 A 
ATOM     78  F   UNL A   1      40.684  33.619  32.855  1.00  0.00    -0.206 F 
ATOM     79  C   UNL A   1      38.398  31.688  34.909  1.00  0.00     0.006 A 
ENDBRANCH  51  72
BRANCH  63  80
ATOM     80  C   UNL A   1      45.124  25.906  32.889  1.00  0.00     0.057 A 
ATOM     81  C   UNL A   1      46.518  25.793  32.871  1.00  0.00     0.134 A 
ATOM     82  C   UNL A   1      44.443  24.931  33.649  1.00  0.00     0.134 A 
ATOM     83  F   UNL A   1      47.267  26.604  32.109  1.00  0.00    -0.206 F 
ATOM     84  C   UNL A   1      47.195  24.830  33.627  1.00  0.00     0.040 A 
ATOM     85  C   UNL A   1      45.103  23.925  34.352  1.00  0.00     0.040 A 
ATOM     86  F   UNL A   1      43.109  24.927  33.776  1.00  0.00    -0.206 F 
ATOM     87  C   UNL A   1      46.488  23.887  34.365  1.00  0.00     0.006 A 
ENDBRANCH  63  80
ENDBRANCH  37  38
ENDBRANCH  29  32
ENDBRANCH  27  28
ENDBRANCH  26  27
ENDBRANCH   1  26
TORSDOF 14
ENDMDL
MODEL 3
REMARK VINA RESULT:     -13.2      3.798      8.813
REMARK SMILES Cc1ccc([C@H](C)Nc2ccc(C(=O)NCCCCNC(=O)c3ccc(-c4c5nc(c(-c6c(F)cccc6F)c6ccc([nH]6)c(-c6c(F)cccc6F)c6nc(c(-c7c(F)cccc7F)c7ccc4[nH]7)C=C6)C=C5)cc3)cc2Cl)cc1F
REMARK SMILES IDX 17 1 16 2 15 3 13 4 14 5 12 7 9 8 10 9 78 10 11 11 77 12
REMARK SMILES IDX 79 13 8 14 6 16 7 17 5 18 1 19 2 20 3 21 81 22 4 23 80 24
REMARK SMILES IDX 82 25 18 26 19 27 20 28 21 29 22 31 23 32 24 33 76 34 25 35
REMARK SMILES IDX 75 36 26 37 27 38 28 39 69 40 29 41 74 42 68 43 70 44 30 45
REMARK SMILES IDX 73 46 67 47 66 48 31 50 57 51 40 52 56 53 41 54 44 55 55 56
REMARK SMILES IDX 71 57 42 58 43 59 54 61 72 62 45 63 32 64 33 65 38 66 34 67
REMARK SMILES IDX 35 68 37 69 39 70 36 71 58 72 59 73 64 74 60 75 61 76 63 77
REMARK SMILES IDX 65 78 62 79 46 80 47 81 52 82 48 83 49 84 51 85 53 86 50 87
REMARK H PARENT 15 6 8 15 20 30 70 49 44 60
REMARK Flexibility Score: inf
ROOT
ATOM      1  C   UNL A   1      32.357  29.531  26.566  1.00  0.00     0.023 C 
ENDROOT
BRANCH   1   2
ATOM      2  C   UNL A   1      32.397  29.484  25.031  1.00  0.00     0.116 C 
BRANCH   2   3
ATOM      3  N   UNL A   1      31.071  29.681  24.478  1.00  0.00    -0.352 N 
ATOM      4  C   UNL A   1      30.254  28.896  23.699  1.00  0.00     0.251 C 
ATOM      5  O   UNL A   1      29.193  29.398  23.325  1.00  0.00    -0.269 OA
ATOM      6  H   UNL A   1      30.675  30.553  24.706  1.00  0.00     0.163 HD
BRANCH   4   7
ATOM      7  C   UNL A   1      30.553  27.480  23.323  1.00  0.00     0.041 A 
ATOM      8  C   UNL A   1      31.210  24.736  22.797  1.00  0.00     0.053 A 
ATOM      9  C   UNL A   1      30.435  25.121  23.909  1.00  0.00     0.028 A 
ATOM     10  C   UNL A   1      31.675  25.777  21.981  1.00  0.00     0.065 A 
ATOM     11  C   UNL A   1      30.139  26.465  24.188  1.00  0.00     0.016 A 
ATOM     12  C   UNL A   1      31.259  27.094  22.193  1.00  0.00     0.036 A 
ATOM     13  Cl  UNL A   1      32.770  25.616  20.648  1.00  0.00    -0.082 Cl
BRANCH   8  14
ATOM     14  N   UNL A   1      31.446  23.384  22.647  1.00  0.00    -0.377 N 
ATOM     15  H   UNL A   1      31.172  22.993  21.786  1.00  0.00     0.161 HD
BRANCH  14  16
ATOM     16  C   UNL A   1      32.051  22.462  23.602  1.00  0.00     0.106 C 
ATOM     17  C   UNL A   1      32.013  21.072  22.940  1.00  0.00     0.036 C 
BRANCH  16  18
ATOM     18  C   UNL A   1      33.411  22.991  24.060  1.00  0.00    -0.023 A 
ATOM     19  C   UNL A   1      37.406  23.730  25.608  1.00  0.00     0.047 C 
ATOM     20  C   UNL A   1      36.028  23.535  25.057  1.00  0.00    -0.015 A 
ATOM     21  C   UNL A   1      35.778  23.495  23.683  1.00  0.00     0.007 A 
ATOM     22  C   UNL A   1      34.959  23.344  25.922  1.00  0.00     0.126 A 
ATOM     23  C   UNL A   1      34.490  23.219  23.192  1.00  0.00     0.006 A 
ATOM     24  C   UNL A   1      33.676  23.114  25.437  1.00  0.00     0.045 A 
ATOM     25  F   UNL A   1      35.159  23.349  27.248  1.00  0.00    -0.207 F 
ENDBRANCH  16  18
ENDBRANCH  14  16
ENDBRANCH   8  14
ENDBRANCH   4   7
ENDBRANCH   2   3
ENDBRANCH   1   2
BRANCH   1  26
ATOM     26  C   UNL A   1      33.335  28.561  27.237  1.00  0.00     0.023 C 
BRANCH  26  27
ATOM     27  C   UNL A   1      34.785  28.906  26.949  1.00  0.00     0.116 C 
BRANCH  27  28
ATOM     28  N   UNL A   1      35.062  30.332  27.127  1.00  0.00    -0.352 N 
ATOM     29  C   UNL A   1      36.019  30.899  27.941  1.00  0.00     0.251 C 
ATOM     30  H   UNL A   1      34.503  30.955  26.608  1.00  0.00     0.163 HD
ATOM     31  O   UNL A   1      36.014  32.079  28.245  1.00  0.00    -0.269 OA
BRANCH  29  32
ATOM     32  C   UNL A   1      37.105  30.026  28.388  1.00  0.00     0.039 A 
ATOM     33  C   UNL A   1      37.007  29.259  29.557  1.00  0.00     0.014 A 
ATOM     34  C   UNL A   1      38.231  29.997  27.574  1.00  0.00     0.014 A 
ATOM     35  C   UNL A   1      38.072  28.436  29.908  1.00  0.00     0.010 A 
ATOM     36  C   UNL A   1      39.198  29.079  27.831  1.00  0.00     0.010 A 
ATOM     37  C   UNL A   1      39.161  28.373  29.040  1.00  0.00    -0.014 A 
BRANCH  37  38
ATOM     38  C   UNL A   1      40.408  27.687  29.299  1.00  0.00     0.031 A 
ATOM     39  C   UNL A   1      40.602  26.305  28.872  1.00  0.00     0.074 A 
ATOM     40  C   UNL A   1      41.408  28.524  29.648  1.00  0.00     0.049 A 
ATOM     41  N   UNL A   1      41.622  25.599  29.197  1.00  0.00    -0.248 NA
ATOM     42  C   UNL A   1      39.638  25.583  28.051  1.00  0.00     0.031 C 
ATOM     43  C   UNL A   1      42.847  28.385  29.532  1.00  0.00     0.029 A 
ATOM     44  N   UNL A   1      41.241  29.749  30.305  1.00  0.00    -0.354 N 
ATOM     45  C   UNL A   1      41.631  24.490  28.380  1.00  0.00     0.074 A 
ATOM     46  C   UNL A   1      40.305  24.448  27.811  1.00  0.00     0.031 C 
ATOM     47  C   UNL A   1      43.426  29.296  30.340  1.00  0.00     0.029 A 
ATOM     48  C   UNL A   1      42.364  29.909  31.128  1.00  0.00     0.049 A 
ATOM     49  H   UNL A   1      40.486  30.373  30.208  1.00  0.00     0.167 HD
ATOM     50  C   UNL A   1      42.826  23.858  28.183  1.00  0.00     0.037 A 
ATOM     51  C   UNL A   1      42.171  29.746  32.476  1.00  0.00     0.037 A 
ATOM     52  C   UNL A   1      43.860  24.486  29.019  1.00  0.00     0.049 A 
ATOM     53  C   UNL A   1      42.820  28.482  33.009  1.00  0.00     0.074 A 
ATOM     54  C   UNL A   1      44.848  25.431  28.795  1.00  0.00     0.029 A 
ATOM     55  N   UNL A   1      43.717  24.411  30.390  1.00  0.00    -0.354 N 
ATOM     56  N   UNL A   1      43.332  27.546  32.256  1.00  0.00    -0.248 NA
ATOM     57  C   UNL A   1      42.907  28.153  34.429  1.00  0.00     0.031 C 
ATOM     58  C   UNL A   1      45.246  25.960  30.065  1.00  0.00     0.029 A 
ATOM     59  C   UNL A   1      44.516  25.319  31.053  1.00  0.00     0.049 A 
ATOM     60  H   UNL A   1      43.112  23.781  30.844  1.00  0.00     0.167 HD
ATOM     61  C   UNL A   1      43.802  26.524  33.029  1.00  0.00     0.074 A 
ATOM     62  C   UNL A   1      43.493  26.943  34.387  1.00  0.00     0.031 C 
ATOM     63  C   UNL A   1      44.392  25.409  32.502  1.00  0.00     0.037 A 
BRANCH  50  64
ATOM     64  C   UNL A   1      43.153  22.834  27.114  1.00  0.00     0.057 A 
ATOM     65  C   UNL A   1      42.531  21.566  27.145  1.00  0.00     0.134 A 
ATOM     66  C   UNL A   1      44.072  22.986  26.060  1.00  0.00     0.134 A 
ATOM     67  F   UNL A   1      41.579  21.270  28.041  1.00  0.00    -0.206 F 
ATOM     68  C   UNL A   1      42.846  20.530  26.255  1.00  0.00     0.040 A 
ATOM     69  C   UNL A   1      44.409  21.953  25.172  1.00  0.00     0.040 A 
ATOM     70  F   UNL A   1      44.674  24.146  25.793  1.00  0.00    -0.206 F 
ATOM     71  C   UNL A   1      43.802  20.714  25.271  1.00  0.00     0.006 A 
ENDBRANCH  50  64
BRANCH  51  72
ATOM     72  C   UNL A   1      40.830  30.292  32.895  1.00  0.00     0.057 A 
ATOM     73  C   UNL A   1      40.607  31.677  32.730  1.00  0.00     0.134 A 
ATOM     74  C   UNL A   1      39.694  29.476  32.939  1.00  0.00     0.134 A 
ATOM     75  F   UNL A   1      41.647  32.525  32.688  1.00  0.00    -0.206 F 
ATOM     76  C   UNL A   1      39.341  32.194  32.433  1.00  0.00     0.040 A 
ATOM     77  C   UNL A   1      38.417  29.991  32.672  1.00  0.00     0.040 A 
ATOM     78  F   UNL A   1      39.810  28.150  33.104  1.00  0.00    -0.206 F 
ATOM     79  C   UNL A   1      38.247  31.340  32.360  1.00  0.00     0.006 A 
ENDBRANCH  51  72
BRANCH  63  80
ATOM     80  C   UNL A   1      44.877  24.272  33.353  1.00  0.00     0.057 A 
ATOM     81  C   UNL A   1      46.232  24.079  33.642  1.00  0.00     0.134 A 
ATOM     82  C   UNL A   1      44.003  23.276  33.839  1.00  0.00     0.134 A 
ATOM     83  F   UNL A   1      47.167  24.908  33.154  1.00  0.00    -0.206 F 
ATOM     84  C   UNL A   1      46.679  23.015  34.433  1.00  0.00     0.040 A 
ATOM     85  C   UNL A   1      44.444  22.175  34.571  1.00  0.00     0.040 A 
ATOM     86  F   UNL A   1      42.677  23.339  33.658  1.00  0.00    -0.206 F 
ATOM     87  C   UNL A   1      45.785  22.055  34.895  1.00  0.00     0.006 A 
ENDBRANCH  63  80
ENDBRANCH  37  38
ENDBRANCH  29  32
ENDBRANCH  27  28
ENDBRANCH  26  27
ENDBRANCH   1  26
TORSDOF 14
ENDMDL
