MODEL 1
REMARK VINA RESULT:     -10.9      0.000      0.000
REMARK SMILES CC[NH2+][C@@]1(C(=O)NCCCCNC(=O)c2ccc(-c3c4nc(c(-c5c(F)cccc5F)c5ccc([nH]5)c(-c5c(F)cccc5F)c5nc(c(-c6c(F)cccc6F)c6ccc3[nH]6)C=C5)C=C4)cc2)CCC[C@@H]([N@@H+](C)[C@@H](C)C2CC2)C1
REMARK SMILES IDX 9 1 8 2 7 3 5 4 6 5 4 7 69 8 80 9 70 10 72 11 71 12 3 13
REMARK SMILES IDX 2 16 1 17 73 18 74 19 75 21 76 22 77 23 78 24 79 25 10 26
REMARK SMILES IDX 11 27 12 28 13 29 14 31 15 32 16 33 68 34 17 35 67 36 18 37
REMARK SMILES IDX 19 38 20 39 61 40 21 41 66 42 60 43 62 44 22 45 65 46 59 47
REMARK SMILES IDX 58 48 23 50 49 51 32 52 48 53 33 54 36 55 47 56 63 57 34 58
REMARK SMILES IDX 35 59 46 61 64 62 37 63 24 64 25 65 30 66 26 67 27 68 29 69
REMARK SMILES IDX 31 70 28 71 50 72 51 73 56 74 52 75 53 76 55 77 57 78 54 79
REMARK SMILES IDX 38 80 39 81 44 82 40 83 41 84 43 85 45 86 42 87
REMARK H PARENT 7 6 3 14 3 15 73 20 12 30 62 49 36 60
REMARK Flexibility Score: inf
ROOT
ATOM      1  C   UNL A   1      31.659  27.625  27.075  1.00  0.00     0.023 C 
ENDROOT
BRANCH   1   2
ATOM      2  C   UNL A   1      32.042  26.277  26.467  1.00  0.00     0.116 C 
BRANCH   2   3
ATOM      3  N   UNL A   1      31.188  25.215  26.922  1.00  0.00    -0.351 N 
ATOM      4  C   UNL A   1      31.195  23.868  26.764  1.00  0.00     0.281 C 
ATOM      5  O   UNL A   1      30.183  23.340  27.252  1.00  0.00    -0.268 OA
ATOM      6  H   UNL A   1      30.433  25.535  27.468  1.00  0.00     0.163 HD
BRANCH   4   7
ATOM      7  C   UNL A   1      32.330  23.019  26.022  1.00  0.00     0.181 C 
ATOM      8  C   UNL A   1      33.660  22.852  26.799  1.00  0.00     0.079 C 
ATOM      9  C   UNL A   1      32.513  23.536  24.565  1.00  0.00     0.144 C 
ATOM     10  C   UNL A   1      34.847  23.733  26.430  1.00  0.00     0.013 C 
ATOM     11  C   UNL A   1      33.734  24.423  24.249  1.00  0.00     0.190 C 
ATOM     12  C   UNL A   1      35.011  23.933  24.929  1.00  0.00     0.065 C 
BRANCH   7  13
ATOM     13  N   UNL A   1      31.759  21.624  25.827  1.00  0.00    -0.334 N 
ATOM     14  H   UNL A   1      31.980  21.083  26.662  1.00  0.00     0.347 HD
ATOM     15  H   UNL A   1      30.764  21.772  25.655  1.00  0.00     0.347 HD
BRANCH  13  16
ATOM     16  C   UNL A   1      32.229  20.858  24.670  1.00  0.00     0.257 C 
ATOM     17  C   UNL A   1      32.860  19.562  25.167  1.00  0.00     0.071 C 
ENDBRANCH  13  16
ENDBRANCH   7  13
BRANCH  11  18
ATOM     18  N   UNL A   1      33.788  24.767  22.800  1.00  0.00    -0.332 N 
ATOM     19  C   UNL A   1      33.279  23.634  22.003  1.00  0.00     0.333 C 
ATOM     20  H   UNL A   1      34.788  24.959  22.724  1.00  0.00     0.348 HD
BRANCH  18  21
ATOM     21  C   UNL A   1      33.264  26.036  22.244  1.00  0.00     0.184 C 
ATOM     22  C   UNL A   1      32.029  25.956  21.334  1.00  0.00     0.075 C 
BRANCH  21  23
ATOM     23  C   UNL A   1      33.176  27.266  23.120  1.00  0.00     0.047 C 
ATOM     24  C   UNL A   1      34.028  28.495  22.960  1.00  0.00     0.010 C 
ATOM     25  C   UNL A   1      32.539  28.568  22.711  1.00  0.00     0.010 C 
ENDBRANCH  21  23
ENDBRANCH  18  21
ENDBRANCH  11  18
ENDBRANCH   4   7
ENDBRANCH   2   3
ENDBRANCH   1   2
BRANCH   1  26
ATOM     26  C   UNL A   1      32.439  28.820  26.540  1.00  0.00     0.023 C 
BRANCH  26  27
ATOM     27  C   UNL A   1      33.761  29.083  27.248  1.00  0.00     0.116 C 
BRANCH  27  28
ATOM     28  N   UNL A   1      33.821  30.333  28.000  1.00  0.00    -0.352 N 
ATOM     29  C   UNL A   1      34.916  30.844  28.661  1.00  0.00     0.251 C 
ATOM     30  H   UNL A   1      32.993  30.865  28.038  1.00  0.00     0.163 HD
ATOM     31  O   UNL A   1      34.857  31.887  29.299  1.00  0.00    -0.269 OA
BRANCH  29  32
ATOM     32  C   UNL A   1      36.156  30.048  28.619  1.00  0.00     0.039 A 
ATOM     33  C   UNL A   1      36.996  30.166  27.511  1.00  0.00     0.014 A 
ATOM     34  C   UNL A   1      36.562  29.366  29.768  1.00  0.00     0.014 A 
ATOM     35  C   UNL A   1      38.298  29.679  27.596  1.00  0.00     0.010 A 
ATOM     36  C   UNL A   1      37.886  28.970  29.881  1.00  0.00     0.010 A 
ATOM     37  C   UNL A   1      38.769  29.130  28.801  1.00  0.00    -0.014 A 
BRANCH  37  38
ATOM     38  C   UNL A   1      40.184  28.718  28.962  1.00  0.00     0.031 A 
ATOM     39  C   UNL A   1      41.179  29.693  29.524  1.00  0.00     0.074 A 
ATOM     40  C   UNL A   1      40.590  27.512  28.519  1.00  0.00     0.049 A 
ATOM     41  N   UNL A   1      42.474  29.570  29.655  1.00  0.00    -0.248 NA
ATOM     42  C   UNL A   1      40.652  30.998  29.955  1.00  0.00     0.031 C 
ATOM     43  C   UNL A   1      39.735  26.506  27.885  1.00  0.00     0.029 A 
ATOM     44  N   UNL A   1      41.833  26.933  28.527  1.00  0.00    -0.354 N 
ATOM     45  C   UNL A   1      42.917  30.789  30.149  1.00  0.00     0.074 A 
ATOM     46  C   UNL A   1      41.764  31.657  30.238  1.00  0.00     0.031 C 
ATOM     47  C   UNL A   1      40.472  25.419  27.599  1.00  0.00     0.029 A 
ATOM     48  C   UNL A   1      41.853  25.664  27.998  1.00  0.00     0.049 A 
ATOM     49  H   UNL A   1      42.635  27.382  28.877  1.00  0.00     0.167 HD
ATOM     50  C   UNL A   1      44.167  31.146  30.525  1.00  0.00     0.037 A 
ATOM     51  C   UNL A   1      42.874  24.796  27.860  1.00  0.00     0.037 A 
ATOM     52  C   UNL A   1      45.300  30.263  30.490  1.00  0.00     0.049 A 
ATOM     53  C   UNL A   1      44.243  25.195  28.331  1.00  0.00     0.074 A 
ATOM     54  C   UNL A   1      46.591  30.496  30.929  1.00  0.00     0.029 A 
ATOM     55  N   UNL A   1      45.271  28.968  29.993  1.00  0.00    -0.354 N 
ATOM     56  N   UNL A   1      44.636  26.326  28.866  1.00  0.00    -0.248 NA
ATOM     57  C   UNL A   1      45.312  24.197  28.185  1.00  0.00     0.031 C 
ATOM     58  C   UNL A   1      47.350  29.349  30.673  1.00  0.00     0.029 A 
ATOM     59  C   UNL A   1      46.524  28.392  30.105  1.00  0.00     0.049 A 
ATOM     60  H   UNL A   1      44.477  28.525  29.616  1.00  0.00     0.167 HD
ATOM     61  C   UNL A   1      45.987  26.168  29.144  1.00  0.00     0.074 A 
ATOM     62  C   UNL A   1      46.345  24.827  28.727  1.00  0.00     0.031 C 
ATOM     63  C   UNL A   1      46.854  27.052  29.693  1.00  0.00     0.037 A 
BRANCH  50  64
ATOM     64  C   UNL A   1      44.355  32.549  31.021  1.00  0.00     0.057 A 
ATOM     65  C   UNL A   1      44.207  32.878  32.375  1.00  0.00     0.134 A 
ATOM     66  C   UNL A   1      44.677  33.583  30.135  1.00  0.00     0.134 A 
ATOM     67  F   UNL A   1      43.880  31.936  33.272  1.00  0.00    -0.206 F 
ATOM     68  C   UNL A   1      44.335  34.193  32.824  1.00  0.00     0.040 A 
ATOM     69  C   UNL A   1      44.836  34.898  30.577  1.00  0.00     0.040 A 
ATOM     70  F   UNL A   1      44.835  33.336  28.826  1.00  0.00    -0.206 F 
ATOM     71  C   UNL A   1      44.654  35.207  31.924  1.00  0.00     0.006 A 
ENDBRANCH  50  64
BRANCH  51  72
ATOM     72  C   UNL A   1      42.629  23.445  27.298  1.00  0.00     0.057 A 
ATOM     73  C   UNL A   1      42.777  23.204  25.927  1.00  0.00     0.134 A 
ATOM     74  C   UNL A   1      42.247  22.369  28.106  1.00  0.00     0.134 A 
ATOM     75  F   UNL A   1      43.125  24.201  25.101  1.00  0.00    -0.206 F 
ATOM     76  C   UNL A   1      42.539  21.944  25.376  1.00  0.00     0.040 A 
ATOM     77  C   UNL A   1      42.025  21.098  27.571  1.00  0.00     0.040 A 
ATOM     78  F   UNL A   1      42.096  22.535  29.428  1.00  0.00    -0.206 F 
ATOM     79  C   UNL A   1      42.165  20.885  26.201  1.00  0.00     0.006 A 
ENDBRANCH  51  72
BRANCH  63  80
ATOM     80  C   UNL A   1      48.263  26.587  29.905  1.00  0.00     0.057 A 
ATOM     81  C   UNL A   1      49.263  26.812  28.952  1.00  0.00     0.134 A 
ATOM     82  C   UNL A   1      48.631  25.951  31.097  1.00  0.00     0.134 A 
ATOM     83  F   UNL A   1      48.968  27.403  27.784  1.00  0.00    -0.206 F 
ATOM     84  C   UNL A   1      50.580  26.406  29.171  1.00  0.00     0.040 A 
ATOM     85  C   UNL A   1      49.949  25.561  31.337  1.00  0.00     0.040 A 
ATOM     86  F   UNL A   1      47.719  25.715  32.053  1.00  0.00    -0.206 F 
ATOM     87  C   UNL A   1      50.926  25.785  30.370  1.00  0.00     0.006 A 
ENDBRANCH  63  80
ENDBRANCH  37  38
ENDBRANCH  29  32
ENDBRANCH  27  28
ENDBRANCH  26  27
ENDBRANCH   1  26
TORSDOF 16
ENDMDL
MODEL 2
REMARK VINA RESULT:     -10.9      4.042      7.808
REMARK SMILES CC[NH2+][C@@]1(C(=O)NCCCCNC(=O)c2ccc(-c3c4nc(c(-c5c(F)cccc5F)c5ccc([nH]5)c(-c5c(F)cccc5F)c5nc(c(-c6c(F)cccc6F)c6ccc3[nH]6)C=C5)C=C4)cc2)CCC[C@@H]([N@@H+](C)[C@@H](C)C2CC2)C1
REMARK SMILES IDX 9 1 8 2 7 3 5 4 6 5 4 7 69 8 80 9 70 10 72 11 71 12 3 13
REMARK SMILES IDX 2 16 1 17 73 18 74 19 75 21 76 22 77 23 78 24 79 25 10 26
REMARK SMILES IDX 11 27 12 28 13 29 14 31 15 32 16 33 68 34 17 35 67 36 18 37
REMARK SMILES IDX 19 38 20 39 61 40 21 41 66 42 60 43 62 44 22 45 65 46 59 47
REMARK SMILES IDX 58 48 23 50 49 51 32 52 48 53 33 54 36 55 47 56 63 57 34 58
REMARK SMILES IDX 35 59 46 61 64 62 37 63 24 64 25 65 30 66 26 67 27 68 29 69
REMARK SMILES IDX 31 70 28 71 50 72 51 73 56 74 52 75 53 76 55 77 57 78 54 79
REMARK SMILES IDX 38 80 39 81 44 82 40 83 41 84 43 85 45 86 42 87
REMARK H PARENT 7 6 3 14 3 15 73 20 12 30 62 49 36 60
REMARK Flexibility Score: inf
ROOT
ATOM      1  C   UNL A   1      31.371  31.226  26.132  1.00  0.00     0.023 C 
ENDROOT
BRANCH   1   2
ATOM      2  C   UNL A   1      32.605  30.459  26.604  1.00  0.00     0.116 C 
BRANCH   2   3
ATOM      3  N   UNL A   1      32.263  29.343  27.441  1.00  0.00    -0.351 N 
ATOM      4  C   UNL A   1      32.101  28.015  27.219  1.00  0.00     0.281 C 
ATOM      5  O   UNL A   1      31.690  27.424  28.230  1.00  0.00    -0.268 OA
ATOM      6  H   UNL A   1      32.113  29.598  28.381  1.00  0.00     0.163 HD
BRANCH   4   7
ATOM      7  C   UNL A   1      32.366  27.258  25.834  1.00  0.00     0.181 C 
ATOM      8  C   UNL A   1      33.629  27.704  25.056  1.00  0.00     0.079 C 
ATOM      9  C   UNL A   1      31.067  27.253  24.976  1.00  0.00     0.144 C 
ATOM     10  C   UNL A   1      33.473  28.656  23.876  1.00  0.00     0.013 C 
ATOM     11  C   UNL A   1      30.966  28.236  23.793  1.00  0.00     0.190 C 
ATOM     12  C   UNL A   1      32.267  28.344  23.000  1.00  0.00     0.065 C 
BRANCH   7  13
ATOM     13  N   UNL A   1      32.560  25.791  26.181  1.00  0.00    -0.334 N 
ATOM     14  H   UNL A   1      32.456  25.699  27.190  1.00  0.00     0.347 HD
ATOM     15  H   UNL A   1      31.862  25.298  25.624  1.00  0.00     0.347 HD
BRANCH  13  16
ATOM     16  C   UNL A   1      33.837  25.175  25.812  1.00  0.00     0.257 C 
ATOM     17  C   UNL A   1      33.556  23.964  24.929  1.00  0.00     0.071 C 
ENDBRANCH  13  16
ENDBRANCH   7  13
BRANCH  11  18
ATOM     18  N   UNL A   1      29.691  28.046  23.044  1.00  0.00    -0.332 N 
ATOM     19  C   UNL A   1      28.939  26.916  23.624  1.00  0.00     0.333 C 
ATOM     20  H   UNL A   1      30.080  27.898  22.111  1.00  0.00     0.348 HD
BRANCH  18  21
ATOM     21  C   UNL A   1      28.756  29.152  22.732  1.00  0.00     0.184 C 
ATOM     22  C   UNL A   1      27.276  28.952  23.088  1.00  0.00     0.075 C 
BRANCH  21  23
ATOM     23  C   UNL A   1      29.160  30.584  23.007  1.00  0.00     0.047 C 
ATOM     24  C   UNL A   1      28.631  31.781  22.265  1.00  0.00     0.010 C 
ATOM     25  C   UNL A   1      28.306  31.593  23.729  1.00  0.00     0.010 C 
ENDBRANCH  21  23
ENDBRANCH  18  21
ENDBRANCH  11  18
ENDBRANCH   4   7
ENDBRANCH   2   3
ENDBRANCH   1   2
BRANCH   1  26
ATOM     26  C   UNL A   1      31.350  32.705  26.497  1.00  0.00     0.023 C 
BRANCH  26  27
ATOM     27  C   UNL A   1      32.664  33.242  27.046  1.00  0.00     0.116 C 
BRANCH  27  28
ATOM     28  N   UNL A   1      32.542  34.418  27.902  1.00  0.00    -0.352 N 
ATOM     29  C   UNL A   1      33.407  34.800  28.904  1.00  0.00     0.251 C 
ATOM     30  H   UNL A   1      31.761  34.998  27.747  1.00  0.00     0.163 HD
ATOM     31  O   UNL A   1      33.197  35.788  29.596  1.00  0.00    -0.269 OA
BRANCH  29  32
ATOM     32  C   UNL A   1      34.572  33.932  29.151  1.00  0.00     0.039 A 
ATOM     33  C   UNL A   1      35.850  34.434  28.907  1.00  0.00     0.014 A 
ATOM     34  C   UNL A   1      34.384  32.720  29.818  1.00  0.00     0.014 A 
ATOM     35  C   UNL A   1      36.952  33.758  29.427  1.00  0.00     0.010 A 
ATOM     36  C   UNL A   1      35.475  32.104  30.413  1.00  0.00     0.010 A 
ATOM     37  C   UNL A   1      36.767  32.622  30.232  1.00  0.00    -0.014 A 
BRANCH  37  38
ATOM     38  C   UNL A   1      37.909  31.954  30.902  1.00  0.00     0.031 A 
ATOM     39  C   UNL A   1      38.667  30.879  30.178  1.00  0.00     0.074 A 
ATOM     40  C   UNL A   1      38.201  32.246  32.185  1.00  0.00     0.049 A 
ATOM     41  N   UNL A   1      39.627  30.106  30.614  1.00  0.00    -0.248 NA
ATOM     42  C   UNL A   1      38.259  30.606  28.790  1.00  0.00     0.031 C 
ATOM     43  C   UNL A   1      37.492  33.217  33.021  1.00  0.00     0.029 A 
ATOM     44  N   UNL A   1      39.172  31.743  33.013  1.00  0.00    -0.354 N 
ATOM     45  C   UNL A   1      39.912  29.238  29.569  1.00  0.00     0.074 A 
ATOM     46  C   UNL A   1      38.985  29.538  28.502  1.00  0.00     0.031 C 
ATOM     47  C   UNL A   1      38.074  33.264  34.231  1.00  0.00     0.029 A 
ATOM     48  C   UNL A   1      39.175  32.308  34.266  1.00  0.00     0.049 A 
ATOM     49  H   UNL A   1      39.807  31.043  32.737  1.00  0.00     0.167 HD
ATOM     50  C   UNL A   1      40.879  28.295  29.493  1.00  0.00     0.037 A 
ATOM     51  C   UNL A   1      39.982  32.081  35.320  1.00  0.00     0.037 A 
ATOM     52  C   UNL A   1      41.835  28.038  30.534  1.00  0.00     0.049 A 
ATOM     53  C   UNL A   1      41.081  31.064  35.195  1.00  0.00     0.074 A 
ATOM     54  C   UNL A   1      42.909  27.165  30.525  1.00  0.00     0.029 A 
ATOM     55  N   UNL A   1      41.836  28.665  31.772  1.00  0.00    -0.354 N 
ATOM     56  N   UNL A   1      41.388  30.301  34.175  1.00  0.00    -0.248 NA
ATOM     57  C   UNL A   1      41.950  30.881  36.366  1.00  0.00     0.031 C 
ATOM     58  C   UNL A   1      43.545  27.246  31.768  1.00  0.00     0.029 A 
ATOM     59  C   UNL A   1      42.886  28.192  32.539  1.00  0.00     0.049 A 
ATOM     60  H   UNL A   1      41.186  29.344  32.061  1.00  0.00     0.167 HD
ATOM     61  C   UNL A   1      42.498  29.566  34.569  1.00  0.00     0.074 A 
ATOM     62  C   UNL A   1      42.818  29.983  35.919  1.00  0.00     0.031 C 
ATOM     63  C   UNL A   1      43.191  28.630  33.876  1.00  0.00     0.037 A 
BRANCH  50  64
ATOM     64  C   UNL A   1      40.949  27.490  28.229  1.00  0.00     0.057 A 
ATOM     65  C   UNL A   1      41.703  27.914  27.126  1.00  0.00     0.134 A 
ATOM     66  C   UNL A   1      40.245  26.287  28.108  1.00  0.00     0.134 A 
ATOM     67  F   UNL A   1      42.385  29.068  27.172  1.00  0.00    -0.206 F 
ATOM     68  C   UNL A   1      41.725  27.187  25.935  1.00  0.00     0.040 A 
ATOM     69  C   UNL A   1      40.283  25.536  26.931  1.00  0.00     0.040 A 
ATOM     70  F   UNL A   1      39.504  25.823  29.126  1.00  0.00    -0.206 F 
ATOM     71  C   UNL A   1      41.016  25.992  25.837  1.00  0.00     0.006 A 
ENDBRANCH  50  64
BRANCH  51  72
ATOM     72  C   UNL A   1      39.814  32.867  36.567  1.00  0.00     0.057 A 
ATOM     73  C   UNL A   1      40.633  33.971  36.830  1.00  0.00     0.134 A 
ATOM     74  C   UNL A   1      38.840  32.544  37.517  1.00  0.00     0.134 A 
ATOM     75  F   UNL A   1      41.596  34.319  35.964  1.00  0.00    -0.206 F 
ATOM     76  C   UNL A   1      40.500  34.717  38.003  1.00  0.00     0.040 A 
ATOM     77  C   UNL A   1      38.683  33.293  38.685  1.00  0.00     0.040 A 
ATOM     78  F   UNL A   1      38.019  31.502  37.318  1.00  0.00    -0.206 F 
ATOM     79  C   UNL A   1      39.519  34.380  38.933  1.00  0.00     0.006 A 
ENDBRANCH  51  72
BRANCH  63  80
ATOM     80  C   UNL A   1      44.379  28.019  34.554  1.00  0.00     0.057 A 
ATOM     81  C   UNL A   1      44.279  26.830  35.287  1.00  0.00     0.134 A 
ATOM     82  C   UNL A   1      45.648  28.600  34.428  1.00  0.00     0.134 A 
ATOM     83  F   UNL A   1      43.089  26.234  35.453  1.00  0.00    -0.206 F 
ATOM     84  C   UNL A   1      45.397  26.249  35.886  1.00  0.00     0.040 A 
ATOM     85  C   UNL A   1      46.776  28.017  35.004  1.00  0.00     0.040 A 
ATOM     86  F   UNL A   1      45.810  29.735  33.731  1.00  0.00    -0.206 F 
ATOM     87  C   UNL A   1      46.651  26.840  35.739  1.00  0.00     0.006 A 
ENDBRANCH  63  80
ENDBRANCH  37  38
ENDBRANCH  29  32
ENDBRANCH  27  28
ENDBRANCH  26  27
ENDBRANCH   1  26
TORSDOF 16
ENDMDL
MODEL 3
REMARK VINA RESULT:     -10.8      2.872      4.362
REMARK SMILES CC[NH2+][C@@]1(C(=O)NCCCCNC(=O)c2ccc(-c3c4nc(c(-c5c(F)cccc5F)c5ccc([nH]5)c(-c5c(F)cccc5F)c5nc(c(-c6c(F)cccc6F)c6ccc3[nH]6)C=C5)C=C4)cc2)CCC[C@@H]([N@@H+](C)[C@@H](C)C2CC2)C1
REMARK SMILES IDX 9 1 8 2 7 3 5 4 6 5 4 7 69 8 80 9 70 10 72 11 71 12 3 13
REMARK SMILES IDX 2 16 1 17 73 18 74 19 75 21 76 22 77 23 78 24 79 25 10 26
REMARK SMILES IDX 11 27 12 28 13 29 14 31 15 32 16 33 68 34 17 35 67 36 18 37
REMARK SMILES IDX 19 38 20 39 61 40 21 41 66 42 60 43 62 44 22 45 65 46 59 47
REMARK SMILES IDX 58 48 23 50 49 51 32 52 48 53 33 54 36 55 47 56 63 57 34 58
REMARK SMILES IDX 35 59 46 61 64 62 37 63 24 64 25 65 30 66 26 67 27 68 29 69
REMARK SMILES IDX 31 70 28 71 50 72 51 73 56 74 52 75 53 76 55 77 57 78 54 79
REMARK SMILES IDX 38 80 39 81 44 82 40 83 41 84 43 85 45 86 42 87
REMARK H PARENT 7 6 3 14 3 15 73 20 12 30 62 49 36 60
REMARK Flexibility Score: inf
ROOT
ATOM      1  C   UNL A   1      32.526  29.253  27.088  1.00  0.00     0.023 C 
ENDROOT
BRANCH   1   2
ATOM      2  C   UNL A   1      31.351  28.320  26.796  1.00  0.00     0.116 C 
BRANCH   2   3
ATOM      3  N   UNL A   1      31.722  26.936  26.893  1.00  0.00    -0.351 N 
ATOM      4  C   UNL A   1      32.125  26.004  25.994  1.00  0.00     0.281 C 
ATOM      5  O   UNL A   1      32.238  24.881  26.510  1.00  0.00    -0.268 OA
ATOM      6  H   UNL A   1      31.671  26.586  27.812  1.00  0.00     0.163 HD
BRANCH   4   7
ATOM      7  C   UNL A   1      32.407  26.263  24.439  1.00  0.00     0.181 C 
ATOM      8  C   UNL A   1      33.669  27.101  24.117  1.00  0.00     0.079 C 
ATOM      9  C   UNL A   1      31.113  26.780  23.745  1.00  0.00     0.144 C 
ATOM     10  C   UNL A   1      33.508  28.577  23.772  1.00  0.00     0.013 C 
ATOM     11  C   UNL A   1      31.006  28.283  23.418  1.00  0.00     0.190 C 
ATOM     12  C   UNL A   1      32.310  28.864  22.876  1.00  0.00     0.065 C 
BRANCH   7  13
ATOM     13  N   UNL A   1      32.617  24.895  23.811  1.00  0.00    -0.334 N 
ATOM     14  H   UNL A   1      32.622  24.210  24.565  1.00  0.00     0.347 HD
ATOM     15  H   UNL A   1      31.856  24.798  23.139  1.00  0.00     0.347 HD
BRANCH  13  16
ATOM     16  C   UNL A   1      33.837  24.694  23.026  1.00  0.00     0.257 C 
ATOM     17  C   UNL A   1      34.067  23.197  22.857  1.00  0.00     0.071 C 
ENDBRANCH  13  16
ENDBRANCH   7  13
BRANCH  11  18
ATOM     18  N   UNL A   1      29.739  28.587  22.696  1.00  0.00    -0.332 N 
ATOM     19  C   UNL A   1      28.627  27.831  23.306  1.00  0.00     0.333 C 
ATOM     20  H   UNL A   1      30.021  28.297  21.759  1.00  0.00     0.348 HD
BRANCH  18  21
ATOM     21  C   UNL A   1      29.287  29.964  22.386  1.00  0.00     0.184 C 
ATOM     22  C   UNL A   1      28.286  30.140  21.235  1.00  0.00     0.075 C 
BRANCH  21  23
ATOM     23  C   UNL A   1      28.949  30.918  23.510  1.00  0.00     0.047 C 
ATOM     24  C   UNL A   1      28.745  32.399  23.343  1.00  0.00     0.010 C 
ATOM     25  C   UNL A   1      27.587  31.516  23.748  1.00  0.00     0.010 C 
ENDBRANCH  21  23
ENDBRANCH  18  21
ENDBRANCH  11  18
ENDBRANCH   4   7
ENDBRANCH   2   3
ENDBRANCH   1   2
BRANCH   1  26
ATOM     26  C   UNL A   1      32.298  30.713  26.718  1.00  0.00     0.023 C 
BRANCH  26  27
ATOM     27  C   UNL A   1      33.213  31.698  27.432  1.00  0.00     0.116 C 
BRANCH  27  28
ATOM     28  N   UNL A   1      32.629  33.012  27.685  1.00  0.00    -0.352 N 
ATOM     29  C   UNL A   1      33.186  34.030  28.429  1.00  0.00     0.251 C 
ATOM     30  H   UNL A   1      31.748  33.188  27.283  1.00  0.00     0.163 HD
ATOM     31  O   UNL A   1      32.598  35.088  28.616  1.00  0.00    -0.269 OA
BRANCH  29  32
ATOM     32  C   UNL A   1      34.499  33.771  29.045  1.00  0.00     0.039 A 
ATOM     33  C   UNL A   1      34.554  33.042  30.233  1.00  0.00     0.014 A 
ATOM     34  C   UNL A   1      35.656  34.071  28.323  1.00  0.00     0.014 A 
ATOM     35  C   UNL A   1      35.777  32.523  30.651  1.00  0.00     0.010 A 
ATOM     36  C   UNL A   1      36.852  33.472  28.692  1.00  0.00     0.010 A 
ATOM     37  C   UNL A   1      36.922  32.685  29.853  1.00  0.00    -0.014 A 
BRANCH  37  38
ATOM     38  C   UNL A   1      38.210  32.039  30.206  1.00  0.00     0.031 A 
ATOM     39  C   UNL A   1      39.165  32.745  31.124  1.00  0.00     0.074 A 
ATOM     40  C   UNL A   1      38.557  30.872  29.630  1.00  0.00     0.049 A 
ATOM     41  N   UNL A   1      40.376  32.405  31.478  1.00  0.00    -0.248 NA
ATOM     42  C   UNL A   1      38.714  34.031  31.682  1.00  0.00     0.031 C 
ATOM     43  C   UNL A   1      37.749  30.124  28.664  1.00  0.00     0.029 A 
ATOM     44  N   UNL A   1      39.692  30.113  29.770  1.00  0.00    -0.354 N 
ATOM     45  C   UNL A   1      40.840  33.446  32.270  1.00  0.00     0.074 A 
ATOM     46  C   UNL A   1      39.807  34.456  32.295  1.00  0.00     0.031 C 
ATOM     47  C   UNL A   1      38.398  28.996  28.326  1.00  0.00     0.029 A 
ATOM     48  C   UNL A   1      39.678  28.957  29.026  1.00  0.00     0.049 A 
ATOM     49  H   UNL A   1      40.445  30.371  30.348  1.00  0.00     0.167 HD
ATOM     50  C   UNL A   1      42.011  33.540  32.943  1.00  0.00     0.037 A 
ATOM     51  C   UNL A   1      40.594  27.975  28.927  1.00  0.00     0.037 A 
ATOM     52  C   UNL A   1      43.012  32.510  32.963  1.00  0.00     0.049 A 
ATOM     53  C   UNL A   1      41.865  28.078  29.723  1.00  0.00     0.074 A 
ATOM     54  C   UNL A   1      44.194  32.467  33.680  1.00  0.00     0.029 A 
ATOM     55  N   UNL A   1      42.940  31.332  32.234  1.00  0.00    -0.354 N 
ATOM     56  N   UNL A   1      42.261  29.034  30.528  1.00  0.00    -0.248 NA
ATOM     57  C   UNL A   1      42.814  26.963  29.601  1.00  0.00     0.031 C 
ATOM     58  C   UNL A   1      44.851  31.273  33.365  1.00  0.00     0.029 A 
ATOM     59  C   UNL A   1      44.062  30.558  32.477  1.00  0.00     0.049 A 
ATOM     60  H   UNL A   1      42.202  31.083  31.633  1.00  0.00     0.167 HD
ATOM     61  C   UNL A   1      43.490  28.626  31.027  1.00  0.00     0.074 A 
ATOM     62  C   UNL A   1      43.771  27.330  30.443  1.00  0.00     0.031 C 
ATOM     63  C   UNL A   1      44.314  29.267  31.892  1.00  0.00     0.037 A 
BRANCH  50  64
ATOM     64  C   UNL A   1      42.250  34.800  33.722  1.00  0.00     0.057 A 
ATOM     65  C   UNL A   1      41.841  34.930  35.056  1.00  0.00     0.134 A 
ATOM     66  C   UNL A   1      42.885  35.897  33.129  1.00  0.00     0.134 A 
ATOM     67  F   UNL A   1      41.210  33.921  35.675  1.00  0.00    -0.206 F 
ATOM     68  C   UNL A   1      42.022  36.121  35.761  1.00  0.00     0.040 A 
ATOM     69  C   UNL A   1      43.097  37.084  33.833  1.00  0.00     0.040 A 
ATOM     70  F   UNL A   1      43.303  35.838  31.855  1.00  0.00    -0.206 F 
ATOM     71  C   UNL A   1      42.656  37.201  35.150  1.00  0.00     0.006 A 
ENDBRANCH  50  64
BRANCH  51  72
ATOM     72  C   UNL A   1      40.321  26.786  28.084  1.00  0.00     0.057 A 
ATOM     73  C   UNL A   1      39.485  25.762  28.544  1.00  0.00     0.134 A 
ATOM     74  C   UNL A   1      40.878  26.643  26.809  1.00  0.00     0.134 A 
ATOM     75  F   UNL A   1      38.935  25.836  29.765  1.00  0.00    -0.206 F 
ATOM     76  C   UNL A   1      39.225  24.628  27.771  1.00  0.00     0.040 A 
ATOM     77  C   UNL A   1      40.611  25.524  26.018  1.00  0.00     0.040 A 
ATOM     78  F   UNL A   1      41.681  27.594  26.310  1.00  0.00    -0.206 F 
ATOM     79  C   UNL A   1      39.785  24.510  26.501  1.00  0.00     0.006 A 
ENDBRANCH  51  72
BRANCH  63  80
ATOM     80  C   UNL A   1      45.577  28.562  32.282  1.00  0.00     0.057 A 
ATOM     81  C   UNL A   1      46.772  28.748  31.576  1.00  0.00     0.134 A 
ATOM     82  C   UNL A   1      45.609  27.726  33.406  1.00  0.00     0.134 A 
ATOM     83  F   UNL A   1      46.802  29.526  30.484  1.00  0.00    -0.206 F 
ATOM     84  C   UNL A   1      47.953  28.115  31.967  1.00  0.00     0.040 A 
ATOM     85  C   UNL A   1      46.788  27.105  33.818  1.00  0.00     0.040 A 
ATOM     86  F   UNL A   1      44.498  27.514  34.128  1.00  0.00    -0.206 F 
ATOM     87  C   UNL A   1      47.963  27.296  33.095  1.00  0.00     0.006 A 
ENDBRANCH  63  80
ENDBRANCH  37  38
ENDBRANCH  29  32
ENDBRANCH  27  28
ENDBRANCH  26  27
ENDBRANCH   1  26
TORSDOF 16
ENDMDL
