MODEL 1
REMARK VINA RESULT:     -13.2      0.000      0.000
REMARK SMILES O=C(NCCCCNC(=O)c1ccc(-c2c3nc(c(-c4c(F)cccc4F)c4ccc([nH]4)c(-c4c(F)cccc4F)c4nc(c(-c5c(F)cccc5F)c5ccc2[nH]5)C=C4)C=C3)cc1)C1=Cc2cc(Cl)cc(-c3ccc(O)cc3)c2O[C@@H]1C(F)(F)F
REMARK SMILES IDX 5 1 4 2 3 3 1 4 2 5 65 7 66 8 82 9 67 10 81 11 68 12 80 13
REMARK SMILES IDX 69 14 72 15 70 16 71 17 83 18 84 19 85 20 86 21 73 22 74 23
REMARK SMILES IDX 79 24 75 25 78 26 76 27 77 28 6 30 7 31 8 32 9 33 10 35
REMARK SMILES IDX 11 36 12 37 64 38 13 39 63 40 14 41 15 42 16 43 57 44 17 45
REMARK SMILES IDX 62 46 56 47 58 48 18 49 61 50 55 51 54 52 19 54 45 55 28 56
REMARK SMILES IDX 44 57 29 58 32 59 43 60 59 61 30 62 31 63 42 65 60 66 33 67
REMARK SMILES IDX 20 68 21 69 26 70 22 71 23 72 25 73 27 74 24 75 46 76 47 77
REMARK SMILES IDX 52 78 48 79 49 80 51 81 53 82 50 83 34 84 35 85 40 86 36 87
REMARK SMILES IDX 37 88 39 89 41 90 38 91
REMARK H PARENT 3 6 77 29 8 34 58 53 32 64
REMARK Flexibility Score: inf
ROOT
ATOM      1  C   UNL A   1      31.882  28.017  27.324  1.00  0.00     0.023 C 
ENDROOT
BRANCH   1   2
ATOM      2  C   UNL A   1      31.519  26.935  26.314  1.00  0.00     0.116 C 
BRANCH   2   3
ATOM      3  N   UNL A   1      31.571  25.577  26.826  1.00  0.00    -0.352 N 
ATOM      4  O   UNL A   1      32.349  23.496  27.119  1.00  0.00    -0.270 OA
ATOM      5  C   UNL A   1      32.306  24.500  26.409  1.00  0.00     0.251 C 
ATOM      6  H   UNL A   1      30.984  25.403  27.596  1.00  0.00     0.163 HD
BRANCH   5   7
ATOM      7  C   UNL A   1      33.138  24.517  25.169  1.00  0.00     0.067 C 
ATOM      8  C   UNL A   1      34.460  24.753  25.189  1.00  0.00     0.025 C 
ATOM      9  C   UNL A   1      32.599  23.596  24.101  1.00  0.00     0.314 C 
ATOM     10  C   UNL A   1      35.251  23.522  24.909  1.00  0.00     0.019 A 
ATOM     11  O   UNL A   1      33.271  22.310  24.159  1.00  0.00    -0.475 OA
ATOM     12  C   UNL A   1      36.580  23.509  25.339  1.00  0.00     0.032 A 
ATOM     13  C   UNL A   1      34.585  22.317  24.583  1.00  0.00     0.135 A 
ATOM     14  C   UNL A   1      37.215  22.290  25.536  1.00  0.00     0.042 A 
ATOM     15  C   UNL A   1      35.204  21.077  24.842  1.00  0.00     0.026 A 
ATOM     16  Cl  UNL A   1      38.792  22.259  26.223  1.00  0.00    -0.084 Cl
ATOM     17  C   UNL A   1      36.536  21.093  25.307  1.00  0.00     0.033 A 
BRANCH   9  18
ATOM     18  C   UNL A   1      32.656  24.239  22.703  1.00  0.00     0.429 C 
ATOM     19  F   UNL A   1      32.929  23.322  21.745  1.00  0.00    -0.167 F 
ATOM     20  F   UNL A   1      31.473  24.812  22.373  1.00  0.00    -0.167 F 
ATOM     21  F   UNL A   1      33.600  25.207  22.610  1.00  0.00    -0.167 F 
ENDBRANCH   9  18
BRANCH  15  22
ATOM     22  C   UNL A   1      34.466  19.792  24.833  1.00  0.00    -0.014 A 
ATOM     23  C   UNL A   1      35.063  18.650  24.262  1.00  0.00     0.012 A 
ATOM     24  C   UNL A   1      33.184  19.647  25.384  1.00  0.00     0.012 A 
ATOM     25  C   UNL A   1      34.403  17.422  24.224  1.00  0.00     0.047 A 
ATOM     26  C   UNL A   1      32.518  18.413  25.352  1.00  0.00     0.047 A 
ATOM     27  C   UNL A   1      33.134  17.312  24.767  1.00  0.00     0.115 A 
BRANCH  27  28
ATOM     28  O   UNL A   1      32.525  16.096  24.698  1.00  0.00    -0.508 OA
ATOM     29  H   UNL A   1      32.619  15.568  23.930  1.00  0.00     0.293 HD
ENDBRANCH  27  28
ENDBRANCH  15  22
ENDBRANCH   5   7
ENDBRANCH   2   3
ENDBRANCH   1   2
BRANCH   1  30
ATOM     30  C   UNL A   1      32.831  29.105  26.830  1.00  0.00     0.023 C 
BRANCH  30  31
ATOM     31  C   UNL A   1      34.217  29.155  27.474  1.00  0.00     0.116 C 
BRANCH  31  32
ATOM     32  N   UNL A   1      34.442  30.273  28.378  1.00  0.00    -0.352 N 
ATOM     33  C   UNL A   1      35.612  30.665  28.998  1.00  0.00     0.251 C 
ATOM     34  H   UNL A   1      33.652  30.826  28.573  1.00  0.00     0.163 HD
ATOM     35  O   UNL A   1      35.614  31.639  29.737  1.00  0.00    -0.269 OA
BRANCH  33  36
ATOM     36  C   UNL A   1      36.857  29.881  28.809  1.00  0.00     0.039 A 
ATOM     37  C   UNL A   1      37.496  29.933  27.566  1.00  0.00     0.014 A 
ATOM     38  C   UNL A   1      37.418  29.133  29.847  1.00  0.00     0.014 A 
ATOM     39  C   UNL A   1      38.744  29.329  27.401  1.00  0.00     0.010 A 
ATOM     40  C   UNL A   1      38.686  28.574  29.701  1.00  0.00     0.010 A 
ATOM     41  C   UNL A   1      39.371  28.692  28.486  1.00  0.00    -0.014 A 
BRANCH  41  42
ATOM     42  C   UNL A   1      40.787  28.264  28.394  1.00  0.00     0.031 A 
ATOM     43  C   UNL A   1      41.159  26.850  28.066  1.00  0.00     0.074 A 
ATOM     44  C   UNL A   1      41.745  29.166  28.689  1.00  0.00     0.049 A 
ATOM     45  N   UNL A   1      42.348  26.336  27.877  1.00  0.00    -0.248 NA
ATOM     46  C   UNL A   1      40.059  25.882  27.962  1.00  0.00     0.031 C 
ATOM     47  C   UNL A   1      41.500  30.545  29.118  1.00  0.00     0.029 A 
ATOM     48  N   UNL A   1      43.112  29.061  28.675  1.00  0.00    -0.354 N 
ATOM     49  C   UNL A   1      42.140  24.986  27.624  1.00  0.00     0.074 A 
ATOM     50  C   UNL A   1      40.716  24.751  27.742  1.00  0.00     0.031 C 
ATOM     51  C   UNL A   1      42.676  31.169  29.285  1.00  0.00     0.029 A 
ATOM     52  C   UNL A   1      43.754  30.232  28.993  1.00  0.00     0.049 A 
ATOM     53  H   UNL A   1      43.587  28.225  28.458  1.00  0.00     0.167 HD
ATOM     54  C   UNL A   1      43.054  24.038  27.306  1.00  0.00     0.037 A 
ATOM     55  C   UNL A   1      45.068  30.523  29.022  1.00  0.00     0.037 A 
ATOM     56  C   UNL A   1      44.472  24.283  27.202  1.00  0.00     0.049 A 
ATOM     57  C   UNL A   1      46.058  29.463  28.637  1.00  0.00     0.074 A 
ATOM     58  C   UNL A   1      45.474  23.414  26.809  1.00  0.00     0.029 A 
ATOM     59  N   UNL A   1      45.090  25.486  27.514  1.00  0.00    -0.354 N 
ATOM     60  N   UNL A   1      45.842  28.223  28.274  1.00  0.00    -0.248 NA
ATOM     61  C   UNL A   1      47.474  29.851  28.648  1.00  0.00     0.031 C 
ATOM     62  C   UNL A   1      46.702  24.075  26.931  1.00  0.00     0.029 A 
ATOM     63  C   UNL A   1      46.462  25.373  27.349  1.00  0.00     0.049 A 
ATOM     64  H   UNL A   1      44.622  26.301  27.808  1.00  0.00     0.167 HD
ATOM     65  C   UNL A   1      47.090  27.689  27.983  1.00  0.00     0.074 A 
ATOM     66  C   UNL A   1      48.055  28.750  28.194  1.00  0.00     0.031 C 
ATOM     67  C   UNL A   1      47.410  26.435  27.576  1.00  0.00     0.037 A 
BRANCH  54  68
ATOM     68  C   UNL A   1      42.547  22.647  27.049  1.00  0.00     0.057 A 
ATOM     69  C   UNL A   1      42.453  22.122  25.753  1.00  0.00     0.134 A 
ATOM     70  C   UNL A   1      42.176  21.809  28.110  1.00  0.00     0.134 A 
ATOM     71  F   UNL A   1      42.785  22.872  24.690  1.00  0.00    -0.206 F 
ATOM     72  C   UNL A   1      41.982  20.828  25.518  1.00  0.00     0.040 A 
ATOM     73  C   UNL A   1      41.729  20.505  27.889  1.00  0.00     0.040 A 
ATOM     74  F   UNL A   1      42.248  22.243  29.377  1.00  0.00    -0.206 F 
ATOM     75  C   UNL A   1      41.624  20.014  26.589  1.00  0.00     0.006 A 
ENDBRANCH  54  68
BRANCH  55  76
ATOM     76  C   UNL A   1      45.512  31.900  29.351  1.00  0.00     0.057 A 
ATOM     77  C   UNL A   1      45.630  32.874  28.353  1.00  0.00     0.134 A 
ATOM     78  C   UNL A   1      45.817  32.280  30.663  1.00  0.00     0.134 A 
ATOM     79  F   UNL A   1      45.364  32.565  27.075  1.00  0.00    -0.206 F 
ATOM     80  C   UNL A   1      46.054  34.171  28.641  1.00  0.00     0.040 A 
ATOM     81  C   UNL A   1      46.220  33.582  30.971  1.00  0.00     0.040 A 
ATOM     82  F   UNL A   1      45.712  31.397  31.667  1.00  0.00    -0.206 F 
ATOM     83  C   UNL A   1      46.345  34.529  29.957  1.00  0.00     0.006 A 
ENDBRANCH  55  76
BRANCH  67  84
ATOM     84  C   UNL A   1      48.864  26.163  27.312  1.00  0.00     0.057 A 
ATOM     85  C   UNL A   1      49.743  25.779  28.334  1.00  0.00     0.134 A 
ATOM     86  C   UNL A   1      49.392  26.298  26.023  1.00  0.00     0.134 A 
ATOM     87  F   UNL A   1      49.304  25.646  29.595  1.00  0.00    -0.206 F 
ATOM     88  C   UNL A   1      51.103  25.580  28.089  1.00  0.00     0.040 A 
ATOM     89  C   UNL A   1      50.744  26.071  25.760  1.00  0.00     0.040 A 
ATOM     90  F   UNL A   1      48.604  26.653  24.997  1.00  0.00    -0.206 F 
ATOM     91  C   UNL A   1      51.606  25.723  26.798  1.00  0.00     0.006 A 
ENDBRANCH  67  84
ENDBRANCH  41  42
ENDBRANCH  33  36
ENDBRANCH  31  32
ENDBRANCH  30  31
ENDBRANCH   1  30
TORSDOF 14
ENDMDL
MODEL 2
REMARK VINA RESULT:     -13.1      1.450      6.176
REMARK SMILES O=C(NCCCCNC(=O)c1ccc(-c2c3nc(c(-c4c(F)cccc4F)c4ccc([nH]4)c(-c4c(F)cccc4F)c4nc(c(-c5c(F)cccc5F)c5ccc2[nH]5)C=C4)C=C3)cc1)C1=Cc2cc(Cl)cc(-c3ccc(O)cc3)c2O[C@@H]1C(F)(F)F
REMARK SMILES IDX 5 1 4 2 3 3 1 4 2 5 65 7 66 8 82 9 67 10 81 11 68 12 80 13
REMARK SMILES IDX 69 14 72 15 70 16 71 17 83 18 84 19 85 20 86 21 73 22 74 23
REMARK SMILES IDX 79 24 75 25 78 26 76 27 77 28 6 30 7 31 8 32 9 33 10 35
REMARK SMILES IDX 11 36 12 37 64 38 13 39 63 40 14 41 15 42 16 43 57 44 17 45
REMARK SMILES IDX 62 46 56 47 58 48 18 49 61 50 55 51 54 52 19 54 45 55 28 56
REMARK SMILES IDX 44 57 29 58 32 59 43 60 59 61 30 62 31 63 42 65 60 66 33 67
REMARK SMILES IDX 20 68 21 69 26 70 22 71 23 72 25 73 27 74 24 75 46 76 47 77
REMARK SMILES IDX 52 78 48 79 49 80 51 81 53 82 50 83 34 84 35 85 40 86 36 87
REMARK SMILES IDX 37 88 39 89 41 90 38 91
REMARK H PARENT 3 6 77 29 8 34 58 53 32 64
REMARK Flexibility Score: inf
ROOT
ATOM      1  C   UNL A   1      31.436  27.822  27.040  1.00  0.00     0.023 C 
ENDROOT
BRANCH   1   2
ATOM      2  C   UNL A   1      31.112  26.601  26.188  1.00  0.00     0.116 C 
BRANCH   2   3
ATOM      3  N   UNL A   1      31.388  25.322  26.821  1.00  0.00    -0.352 N 
ATOM      4  O   UNL A   1      32.495  23.429  27.281  1.00  0.00    -0.270 OA
ATOM      5  C   UNL A   1      32.282  24.343  26.484  1.00  0.00     0.251 C 
ATOM      6  H   UNL A   1      30.846  25.130  27.618  1.00  0.00     0.163 HD
BRANCH   5   7
ATOM      7  C   UNL A   1      33.086  24.375  25.226  1.00  0.00     0.067 C 
ATOM      8  C   UNL A   1      34.407  24.624  25.219  1.00  0.00     0.025 C 
ATOM      9  C   UNL A   1      32.534  23.455  24.165  1.00  0.00     0.314 C 
ATOM     10  C   UNL A   1      35.203  23.403  24.914  1.00  0.00     0.019 A 
ATOM     11  O   UNL A   1      33.220  22.176  24.200  1.00  0.00    -0.475 OA
ATOM     12  C   UNL A   1      36.542  23.401  25.315  1.00  0.00     0.032 A 
ATOM     13  C   UNL A   1      34.542  22.193  24.596  1.00  0.00     0.135 A 
ATOM     14  C   UNL A   1      37.193  22.187  25.491  1.00  0.00     0.042 A 
ATOM     15  C   UNL A   1      35.179  20.958  24.834  1.00  0.00     0.026 A 
ATOM     16  Cl  UNL A   1      38.785  22.168  26.144  1.00  0.00    -0.084 Cl
ATOM     17  C   UNL A   1      36.521  20.984  25.270  1.00  0.00     0.033 A 
BRANCH   9  18
ATOM     18  C   UNL A   1      32.554  24.107  22.769  1.00  0.00     0.429 C 
ATOM     19  F   UNL A   1      33.378  25.180  22.734  1.00  0.00    -0.167 F 
ATOM     20  F   UNL A   1      32.996  23.241  21.825  1.00  0.00    -0.167 F 
ATOM     21  F   UNL A   1      31.330  24.530  22.372  1.00  0.00    -0.167 F 
ENDBRANCH   9  18
BRANCH  15  22
ATOM     22  C   UNL A   1      34.454  19.666  24.833  1.00  0.00    -0.014 A 
ATOM     23  C   UNL A   1      35.054  18.531  24.251  1.00  0.00     0.012 A 
ATOM     24  C   UNL A   1      33.182  19.507  25.401  1.00  0.00     0.012 A 
ATOM     25  C   UNL A   1      34.406  17.296  24.221  1.00  0.00     0.047 A 
ATOM     26  C   UNL A   1      32.528  18.267  25.376  1.00  0.00     0.047 A 
ATOM     27  C   UNL A   1      33.146  17.173  24.781  1.00  0.00     0.115 A 
BRANCH  27  28
ATOM     28  O   UNL A   1      32.549  15.951  24.719  1.00  0.00    -0.508 OA
ATOM     29  H   UNL A   1      32.718  15.383  23.993  1.00  0.00     0.293 HD
ENDBRANCH  27  28
ENDBRANCH  15  22
ENDBRANCH   5   7
ENDBRANCH   2   3
ENDBRANCH   1   2
BRANCH   1  30
ATOM     30  C   UNL A   1      32.452  28.798  26.454  1.00  0.00     0.023 C 
BRANCH  30  31
ATOM     31  C   UNL A   1      33.734  29.023  27.257  1.00  0.00     0.116 C 
BRANCH  31  32
ATOM     32  N   UNL A   1      33.796  30.279  27.990  1.00  0.00    -0.352 N 
ATOM     33  C   UNL A   1      34.872  30.850  28.641  1.00  0.00     0.251 C 
ATOM     34  H   UNL A   1      32.957  30.791  28.025  1.00  0.00     0.163 HD
ATOM     35  O   UNL A   1      34.737  31.922  29.215  1.00  0.00    -0.269 OA
BRANCH  33  36
ATOM     36  C   UNL A   1      36.177  30.147  28.689  1.00  0.00     0.039 A 
ATOM     37  C   UNL A   1      37.004  30.199  27.563  1.00  0.00     0.014 A 
ATOM     38  C   UNL A   1      36.607  29.476  29.836  1.00  0.00     0.014 A 
ATOM     39  C   UNL A   1      38.298  29.676  27.627  1.00  0.00     0.010 A 
ATOM     40  C   UNL A   1      37.914  28.999  29.920  1.00  0.00     0.010 A 
ATOM     41  C   UNL A   1      38.779  29.122  28.826  1.00  0.00    -0.014 A 
BRANCH  41  42
ATOM     42  C   UNL A   1      40.214  28.789  28.980  1.00  0.00     0.031 A 
ATOM     43  C   UNL A   1      41.188  29.768  29.563  1.00  0.00     0.074 A 
ATOM     44  C   UNL A   1      40.646  27.602  28.509  1.00  0.00     0.049 A 
ATOM     45  N   UNL A   1      42.458  29.602  29.831  1.00  0.00    -0.248 NA
ATOM     46  C   UNL A   1      40.678  31.114  29.861  1.00  0.00     0.031 C 
ATOM     47  C   UNL A   1      39.809  26.609  27.831  1.00  0.00     0.029 A 
ATOM     48  N   UNL A   1      41.892  27.029  28.526  1.00  0.00    -0.354 N 
ATOM     49  C   UNL A   1      42.900  30.819  30.336  1.00  0.00     0.074 A 
ATOM     50  C   UNL A   1      41.775  31.729  30.282  1.00  0.00     0.031 C 
ATOM     51  C   UNL A   1      40.554  25.533  27.535  1.00  0.00     0.029 A 
ATOM     52  C   UNL A   1      41.921  25.767  27.985  1.00  0.00     0.049 A 
ATOM     53  H   UNL A   1      42.689  27.480  28.890  1.00  0.00     0.167 HD
ATOM     54  C   UNL A   1      44.127  31.137  30.815  1.00  0.00     0.037 A 
ATOM     55  C   UNL A   1      42.934  24.887  27.886  1.00  0.00     0.037 A 
ATOM     56  C   UNL A   1      45.242  30.223  30.854  1.00  0.00     0.049 A 
ATOM     57  C   UNL A   1      44.276  25.253  28.451  1.00  0.00     0.074 A 
ATOM     58  C   UNL A   1      46.502  30.418  31.392  1.00  0.00     0.029 A 
ATOM     59  N   UNL A   1      45.234  28.945  30.314  1.00  0.00    -0.354 N 
ATOM     60  N   UNL A   1      44.649  26.361  29.045  1.00  0.00    -0.248 NA
ATOM     61  C   UNL A   1      45.332  24.237  28.351  1.00  0.00     0.031 C 
ATOM     62  C   UNL A   1      47.272  29.278  31.132  1.00  0.00     0.029 A 
ATOM     63  C   UNL A   1      46.476  28.351  30.481  1.00  0.00     0.049 A 
ATOM     64  H   UNL A   1      44.460  28.521  29.878  1.00  0.00     0.167 HD
ATOM     65  C   UNL A   1      45.973  26.166  29.415  1.00  0.00     0.074 A 
ATOM     66  C   UNL A   1      46.328  24.825  28.996  1.00  0.00     0.031 C 
ATOM     67  C   UNL A   1      46.818  27.019  30.047  1.00  0.00     0.037 A 
BRANCH  54  68
ATOM     68  C   UNL A   1      44.325  32.533  31.335  1.00  0.00     0.057 A 
ATOM     69  C   UNL A   1      44.082  32.863  32.676  1.00  0.00     0.134 A 
ATOM     70  C   UNL A   1      44.794  33.553  30.497  1.00  0.00     0.134 A 
ATOM     71  F   UNL A   1      43.625  31.937  33.533  1.00  0.00    -0.206 F 
ATOM     72  C   UNL A   1      44.268  34.162  33.156  1.00  0.00     0.040 A 
ATOM     73  C   UNL A   1      45.009  34.848  30.971  1.00  0.00     0.040 A 
ATOM     74  F   UNL A   1      45.054  33.306  29.205  1.00  0.00    -0.206 F 
ATOM     75  C   UNL A   1      44.739  35.157  32.303  1.00  0.00     0.006 A 
ENDBRANCH  54  68
BRANCH  55  76
ATOM     76  C   UNL A   1      42.693  23.546  27.299  1.00  0.00     0.057 A 
ATOM     77  C   UNL A   1      42.891  23.317  25.932  1.00  0.00     0.134 A 
ATOM     78  C   UNL A   1      42.274  22.464  28.081  1.00  0.00     0.134 A 
ATOM     79  F   UNL A   1      43.279  24.318  25.129  1.00  0.00    -0.206 F 
ATOM     80  C   UNL A   1      42.661  22.066  25.359  1.00  0.00     0.040 A 
ATOM     81  C   UNL A   1      42.064  21.200  27.526  1.00  0.00     0.040 A 
ATOM     82  F   UNL A   1      42.080  22.616  29.400  1.00  0.00    -0.206 F 
ATOM     83  C   UNL A   1      42.252  21.001  26.160  1.00  0.00     0.006 A 
ENDBRANCH  55  76
BRANCH  67  84
ATOM     84  C   UNL A   1      48.199  26.505  30.339  1.00  0.00     0.057 A 
ATOM     85  C   UNL A   1      48.502  25.830  31.529  1.00  0.00     0.134 A 
ATOM     86  C   UNL A   1      49.241  26.699  29.424  1.00  0.00     0.134 A 
ATOM     87  F   UNL A   1      47.553  25.625  32.456  1.00  0.00    -0.206 F 
ATOM     88  C   UNL A   1      49.800  25.403  31.815  1.00  0.00     0.040 A 
ATOM     89  C   UNL A   1      50.536  26.249  29.685  1.00  0.00     0.040 A 
ATOM     90  F   UNL A   1      49.018  27.329  28.261  1.00  0.00    -0.206 F 
ATOM     91  C   UNL A   1      50.821  25.610  30.890  1.00  0.00     0.006 A 
ENDBRANCH  67  84
ENDBRANCH  41  42
ENDBRANCH  33  36
ENDBRANCH  31  32
ENDBRANCH  30  31
ENDBRANCH   1  30
TORSDOF 14
ENDMDL
MODEL 3
REMARK VINA RESULT:     -13.0      3.924      7.123
REMARK SMILES O=C(NCCCCNC(=O)c1ccc(-c2c3nc(c(-c4c(F)cccc4F)c4ccc([nH]4)c(-c4c(F)cccc4F)c4nc(c(-c5c(F)cccc5F)c5ccc2[nH]5)C=C4)C=C3)cc1)C1=Cc2cc(Cl)cc(-c3ccc(O)cc3)c2O[C@@H]1C(F)(F)F
REMARK SMILES IDX 5 1 4 2 3 3 1 4 2 5 65 7 66 8 82 9 67 10 81 11 68 12 80 13
REMARK SMILES IDX 69 14 72 15 70 16 71 17 83 18 84 19 85 20 86 21 73 22 74 23
REMARK SMILES IDX 79 24 75 25 78 26 76 27 77 28 6 30 7 31 8 32 9 33 10 35
REMARK SMILES IDX 11 36 12 37 64 38 13 39 63 40 14 41 15 42 16 43 57 44 17 45
REMARK SMILES IDX 62 46 56 47 58 48 18 49 61 50 55 51 54 52 19 54 45 55 28 56
REMARK SMILES IDX 44 57 29 58 32 59 43 60 59 61 30 62 31 63 42 65 60 66 33 67
REMARK SMILES IDX 20 68 21 69 26 70 22 71 23 72 25 73 27 74 24 75 46 76 47 77
REMARK SMILES IDX 52 78 48 79 49 80 51 81 53 82 50 83 34 84 35 85 40 86 36 87
REMARK SMILES IDX 37 88 39 89 41 90 38 91
REMARK H PARENT 3 6 77 29 8 34 58 53 32 64
REMARK Flexibility Score: inf
ROOT
ATOM      1  C   UNL A   1      32.275  27.438  26.673  1.00  0.00     0.023 C 
ENDROOT
BRANCH   1   2
ATOM      2  C   UNL A   1      31.263  26.373  26.268  1.00  0.00     0.116 C 
BRANCH   2   3
ATOM      3  N   UNL A   1      31.485  25.063  26.856  1.00  0.00    -0.352 N 
ATOM      4  O   UNL A   1      32.509  23.109  27.248  1.00  0.00    -0.270 OA
ATOM      5  C   UNL A   1      32.334  24.058  26.483  1.00  0.00     0.251 C 
ATOM      6  H   UNL A   1      30.936  24.868  27.648  1.00  0.00     0.163 HD
BRANCH   5   7
ATOM      7  C   UNL A   1      33.137  24.098  25.224  1.00  0.00     0.067 C 
ATOM      8  C   UNL A   1      34.456  24.354  25.216  1.00  0.00     0.025 C 
ATOM      9  C   UNL A   1      32.587  23.179  24.161  1.00  0.00     0.314 C 
ATOM     10  C   UNL A   1      35.257  23.137  24.906  1.00  0.00     0.019 A 
ATOM     11  O   UNL A   1      33.279  21.903  24.191  1.00  0.00    -0.475 OA
ATOM     12  C   UNL A   1      36.597  23.140  25.305  1.00  0.00     0.032 A 
ATOM     13  C   UNL A   1      34.602  21.925  24.584  1.00  0.00     0.135 A 
ATOM     14  C   UNL A   1      37.254  21.928  25.476  1.00  0.00     0.042 A 
ATOM     15  C   UNL A   1      35.245  20.692  24.817  1.00  0.00     0.026 A 
ATOM     16  Cl  UNL A   1      38.846  21.915  26.126  1.00  0.00    -0.084 Cl
ATOM     17  C   UNL A   1      36.587  20.723  25.251  1.00  0.00     0.033 A 
BRANCH   9  18
ATOM     18  C   UNL A   1      32.602  23.835  22.767  1.00  0.00     0.429 C 
ATOM     19  F   UNL A   1      32.954  22.951  21.805  1.00  0.00    -0.167 F 
ATOM     20  F   UNL A   1      31.379  24.315  22.433  1.00  0.00    -0.167 F 
ATOM     21  F   UNL A   1      33.467  24.876  22.688  1.00  0.00    -0.167 F 
ENDBRANCH   9  18
BRANCH  15  22
ATOM     22  C   UNL A   1      34.525  19.397  24.813  1.00  0.00    -0.014 A 
ATOM     23  C   UNL A   1      33.239  19.313  25.384  1.00  0.00     0.012 A 
ATOM     24  C   UNL A   1      35.062  18.230  24.251  1.00  0.00     0.012 A 
ATOM     25  C   UNL A   1      32.527  18.114  25.409  1.00  0.00     0.047 A 
ATOM     26  C   UNL A   1      34.349  17.022  24.271  1.00  0.00     0.047 A 
ATOM     27  C   UNL A   1      33.088  16.976  24.855  1.00  0.00     0.115 A 
BRANCH  27  28
ATOM     28  O   UNL A   1      32.360  15.826  24.912  1.00  0.00    -0.508 OA
ATOM     29  H   UNL A   1      31.545  15.764  24.455  1.00  0.00     0.293 HD
ENDBRANCH  27  28
ENDBRANCH  15  22
ENDBRANCH   5   7
ENDBRANCH   2   3
ENDBRANCH   1   2
BRANCH   1  30
ATOM     30  C   UNL A   1      31.742  28.863  26.781  1.00  0.00     0.023 C 
BRANCH  30  31
ATOM     31  C   UNL A   1      32.553  29.958  26.086  1.00  0.00     0.116 C 
BRANCH  31  32
ATOM     32  N   UNL A   1      32.355  31.303  26.605  1.00  0.00    -0.352 N 
ATOM     33  C   UNL A   1      33.213  32.076  27.361  1.00  0.00     0.251 C 
ATOM     34  H   UNL A   1      31.490  31.718  26.386  1.00  0.00     0.163 HD
ATOM     35  O   UNL A   1      32.873  33.196  27.715  1.00  0.00    -0.269 OA
BRANCH  33  36
ATOM     36  C   UNL A   1      34.529  31.536  27.785  1.00  0.00     0.039 A 
ATOM     37  C   UNL A   1      35.581  32.433  27.991  1.00  0.00     0.014 A 
ATOM     38  C   UNL A   1      34.722  30.173  28.018  1.00  0.00     0.014 A 
ATOM     39  C   UNL A   1      36.786  31.977  28.532  1.00  0.00     0.010 A 
ATOM     40  C   UNL A   1      35.902  29.724  28.606  1.00  0.00     0.010 A 
ATOM     41  C   UNL A   1      36.933  30.627  28.895  1.00  0.00    -0.014 A 
BRANCH  41  42
ATOM     42  C   UNL A   1      38.103  30.182  29.687  1.00  0.00     0.031 A 
ATOM     43  C   UNL A   1      38.309  30.632  31.102  1.00  0.00     0.074 A 
ATOM     44  C   UNL A   1      39.030  29.417  29.078  1.00  0.00     0.049 A 
ATOM     45  N   UNL A   1      39.239  30.275  31.950  1.00  0.00    -0.248 NA
ATOM     46  C   UNL A   1      37.364  31.629  31.625  1.00  0.00     0.031 C 
ATOM     47  C   UNL A   1      38.988  28.999  27.675  1.00  0.00     0.029 A 
ATOM     48  N   UNL A   1      40.186  28.856  29.556  1.00  0.00    -0.354 N 
ATOM     49  C   UNL A   1      38.990  30.997  33.110  1.00  0.00     0.074 A 
ATOM     50  C   UNL A   1      37.856  31.854  32.836  1.00  0.00     0.031 C 
ATOM     51  C   UNL A   1      40.046  28.214  27.417  1.00  0.00     0.029 A 
ATOM     52  C   UNL A   1      40.847  28.088  28.628  1.00  0.00     0.049 A 
ATOM     53  H   UNL A   1      40.512  28.991  30.476  1.00  0.00     0.167 HD
ATOM     54  C   UNL A   1      39.640  30.935  34.298  1.00  0.00     0.037 A 
ATOM     55  C   UNL A   1      41.962  27.345  28.750  1.00  0.00     0.037 A 
ATOM     56  C   UNL A   1      40.775  30.083  34.555  1.00  0.00     0.049 A 
ATOM     57  C   UNL A   1      42.646  27.270  30.084  1.00  0.00     0.074 A 
ATOM     58  C   UNL A   1      41.456  29.884  35.744  1.00  0.00     0.029 A 
ATOM     59  N   UNL A   1      41.410  29.303  33.599  1.00  0.00    -0.354 N 
ATOM     60  N   UNL A   1      42.326  27.857  31.212  1.00  0.00    -0.248 NA
ATOM     61  C   UNL A   1      43.835  26.412  30.166  1.00  0.00     0.031 C 
ATOM     62  C   UNL A   1      42.532  29.023  35.494  1.00  0.00     0.029 A 
ATOM     63  C   UNL A   1      42.491  28.644  34.163  1.00  0.00     0.049 A 
ATOM     64  H   UNL A   1      41.132  29.228  32.656  1.00  0.00     0.167 HD
ATOM     65  C   UNL A   1      43.255  27.417  32.146  1.00  0.00     0.074 A 
ATOM     66  C   UNL A   1      44.137  26.498  31.453  1.00  0.00     0.031 C 
ATOM     67  C   UNL A   1      43.367  27.742  33.458  1.00  0.00     0.037 A 
BRANCH  54  68
ATOM     68  C   UNL A   1      39.136  31.813  35.409  1.00  0.00     0.057 A 
ATOM     69  C   UNL A   1      38.244  31.337  36.380  1.00  0.00     0.134 A 
ATOM     70  C   UNL A   1      39.570  33.139  35.530  1.00  0.00     0.134 A 
ATOM     71  F   UNL A   1      37.782  30.078  36.321  1.00  0.00    -0.206 F 
ATOM     72  C   UNL A   1      37.778  32.156  37.411  1.00  0.00     0.040 A 
ATOM     73  C   UNL A   1      39.132  33.960  36.571  1.00  0.00     0.040 A 
ATOM     74  F   UNL A   1      40.429  33.658  34.640  1.00  0.00    -0.206 F 
ATOM     75  C   UNL A   1      38.228  33.470  37.512  1.00  0.00     0.006 A 
ENDBRANCH  54  68
BRANCH  55  76
ATOM     76  C   UNL A   1      42.452  26.553  27.595  1.00  0.00     0.057 A 
ATOM     77  C   UNL A   1      43.373  27.095  26.692  1.00  0.00     0.134 A 
ATOM     78  C   UNL A   1      42.024  25.239  27.371  1.00  0.00     0.134 A 
ATOM     79  F   UNL A   1      43.808  28.354  26.848  1.00  0.00    -0.206 F 
ATOM     80  C   UNL A   1      43.838  26.369  25.595  1.00  0.00     0.040 A 
ATOM     81  C   UNL A   1      42.500  24.491  26.291  1.00  0.00     0.040 A 
ATOM     82  F   UNL A   1      41.152  24.657  28.207  1.00  0.00    -0.206 F 
ATOM     83  C   UNL A   1      43.405  25.059  25.397  1.00  0.00     0.006 A 
ENDBRANCH  55  76
BRANCH  67  84
ATOM     84  C   UNL A   1      44.472  27.074  34.225  1.00  0.00     0.057 A 
ATOM     85  C   UNL A   1      45.742  27.654  34.353  1.00  0.00     0.134 A 
ATOM     86  C   UNL A   1      44.267  25.829  34.832  1.00  0.00     0.134 A 
ATOM     87  F   UNL A   1      46.009  28.838  33.782  1.00  0.00    -0.206 F 
ATOM     88  C   UNL A   1      46.778  27.001  35.023  1.00  0.00     0.040 A 
ATOM     89  C   UNL A   1      45.286  25.181  35.531  1.00  0.00     0.040 A 
ATOM     90  F   UNL A   1      43.073  25.222  34.757  1.00  0.00    -0.206 F 
ATOM     91  C   UNL A   1      46.550  25.761  35.617  1.00  0.00     0.006 A 
ENDBRANCH  67  84
ENDBRANCH  41  42
ENDBRANCH  33  36
ENDBRANCH  31  32
ENDBRANCH  30  31
ENDBRANCH   1  30
TORSDOF 14
ENDMDL
