MODEL 1
REMARK VINA RESULT:     -13.4      0.000      0.000
REMARK SMILES C=C1C[C@@]23CC[C@H]4[C@@](C)(CCC[C@@]4(C)C(=O)NCCCCNC(=O)c4ccc(-c5c6nc(c(-c7c(F)cccc7F)c7ccc([nH]7)c(-c7c(F)cccc7F)c7nc(c(-c8c(F)cccc8F)c8ccc5[nH]8)C=C7)C=C6)cc4)[C@H]2CC[C@]1(O)C3
REMARK SMILES IDX 20 1 19 2 18 3 17 4 15 5 16 6 13 8 1 9 2 10 3 11 82 12 4 13
REMARK SMILES IDX 81 14 84 15 5 16 79 17 80 18 6 19 8 20 7 21 9 22 10 23 11 24
REMARK SMILES IDX 12 25 14 26 83 27 21 29 22 30 23 31 24 33 25 34 26 35 78 36
REMARK SMILES IDX 27 37 77 38 28 39 29 40 30 41 71 42 31 43 76 44 70 45 72 46
REMARK SMILES IDX 32 47 75 48 69 49 68 50 33 52 59 53 42 54 58 55 43 56 46 57
REMARK SMILES IDX 57 58 73 59 44 60 45 61 56 63 74 64 47 65 34 66 35 67 40 68
REMARK SMILES IDX 36 69 37 70 39 71 41 72 38 73 60 74 61 75 66 76 62 77 63 78
REMARK SMILES IDX 65 79 67 80 64 81 48 82 49 83 54 84 50 85 51 86 53 87 55 88
REMARK SMILES IDX 52 89
REMARK H PARENT 17 7 83 28 22 32 72 51 46 62
REMARK Flexibility Score: inf
ROOT
ATOM      1  C   UNL A   1      38.938  22.788  26.534  1.00  0.00     0.023 C 
ENDROOT
BRANCH   1   2
ATOM      2  C   UNL A   1      37.904  23.845  26.115  1.00  0.00     0.023 C 
BRANCH   2   3
ATOM      3  C   UNL A   1      36.463  23.356  26.132  1.00  0.00     0.116 C 
BRANCH   3   4
ATOM      4  N   UNL A   1      36.356  22.013  25.603  1.00  0.00    -0.356 N 
ATOM      5  C   UNL A   1      35.315  21.168  25.430  1.00  0.00     0.226 C 
ATOM      6  O   UNL A   1      35.600  20.112  24.853  1.00  0.00    -0.274 OA
ATOM      7  H   UNL A   1      37.218  21.638  25.308  1.00  0.00     0.163 HD
BRANCH   5   8
ATOM      8  C   UNL A   1      33.894  21.444  25.952  1.00  0.00     0.050 C 
ATOM      9  C   UNL A   1      29.899  28.106  23.419  1.00  0.00     0.011 C 
ATOM     10  C   UNL A   1      30.822  27.157  23.630  1.00  0.00    -0.045 C 
ATOM     11  C   UNL A   1      30.577  25.662  23.510  1.00  0.00     0.040 C 
ATOM     12  C   UNL A   1      32.149  27.354  24.313  1.00  0.00     0.086 C 
ATOM     13  C   UNL A   1      31.604  25.057  24.515  1.00  0.00    -0.020 C 
ATOM     14  C   UNL A   1      33.361  27.044  23.407  1.00  0.00     0.040 C 
ATOM     15  C   UNL A   1      31.981  26.290  25.375  1.00  0.00     0.047 C 
ATOM     16  C   UNL A   1      31.007  24.024  25.439  1.00  0.00     0.008 C 
ATOM     17  C   UNL A   1      32.941  24.561  23.862  1.00  0.00     0.002 C 
ATOM     18  C   UNL A   1      33.414  25.599  22.805  1.00  0.00     0.008 C 
ATOM     19  C   UNL A   1      32.153  23.454  26.297  1.00  0.00     0.006 C 
ATOM     20  C   UNL A   1      33.283  22.980  23.856  1.00  0.00    -0.025 C 
ATOM     21  C   UNL A   1      33.057  22.597  25.370  1.00  0.00     0.010 C 
ATOM     22  C   UNL A   1      34.658  22.921  23.135  1.00  0.00     0.012 C 
ATOM     23  C   UNL A   1      32.546  21.750  23.159  1.00  0.00     0.007 C 
ATOM     24  C   UNL A   1      32.504  20.343  23.998  1.00  0.00     0.002 C 
ATOM     25  C   UNL A   1      33.024  20.223  25.503  1.00  0.00     0.017 C 
ATOM     26  C   UNL A   1      34.023  21.568  27.486  1.00  0.00     0.022 C 
BRANCH  12  27
ATOM     27  O   UNL A   1      32.289  28.621  24.928  1.00  0.00    -0.386 OA
ATOM     28  H   UNL A   1      31.490  28.822  25.440  1.00  0.00     0.211 HD
ENDBRANCH  12  27
ENDBRANCH   5   8
ENDBRANCH   3   4
ENDBRANCH   2   3
ENDBRANCH   1   2
BRANCH   1  29
ATOM     29  C   UNL A   1      40.279  23.326  27.032  1.00  0.00     0.116 C 
BRANCH  29  30
ATOM     30  N   UNL A   1      40.989  24.083  26.010  1.00  0.00    -0.352 N 
ATOM     31  C   UNL A   1      41.352  25.405  26.008  1.00  0.00     0.251 C 
ATOM     32  H   UNL A   1      41.241  23.575  25.206  1.00  0.00     0.163 HD
ATOM     33  O   UNL A   1      41.769  25.932  24.973  1.00  0.00    -0.269 OA
BRANCH  31  34
ATOM     34  C   UNL A   1      41.227  26.207  27.240  1.00  0.00     0.039 A 
ATOM     35  C   UNL A   1      42.193  27.175  27.523  1.00  0.00     0.014 A 
ATOM     36  C   UNL A   1      40.150  26.011  28.110  1.00  0.00     0.014 A 
ATOM     37  C   UNL A   1      42.040  27.995  28.643  1.00  0.00     0.010 A 
ATOM     38  C   UNL A   1      39.960  26.879  29.182  1.00  0.00     0.010 A 
ATOM     39  C   UNL A   1      40.902  27.882  29.459  1.00  0.00    -0.014 A 
BRANCH  39  40
ATOM     40  C   UNL A   1      40.678  28.809  30.599  1.00  0.00     0.031 A 
ATOM     41  C   UNL A   1      39.603  29.859  30.523  1.00  0.00     0.074 A 
ATOM     42  C   UNL A   1      41.482  28.744  31.679  1.00  0.00     0.049 A 
ATOM     43  N   UNL A   1      39.295  30.791  31.390  1.00  0.00    -0.248 NA
ATOM     44  C   UNL A   1      38.780  29.881  29.303  1.00  0.00     0.031 C 
ATOM     45  C   UNL A   1      42.589  27.801  31.855  1.00  0.00     0.029 A 
ATOM     46  N   UNL A   1      41.500  29.492  32.830  1.00  0.00    -0.354 N 
ATOM     47  C   UNL A   1      38.259  31.515  30.816  1.00  0.00     0.074 A 
ATOM     48  C   UNL A   1      38.023  30.949  29.505  1.00  0.00     0.031 C 
ATOM     49  C   UNL A   1      43.157  28.008  33.054  1.00  0.00     0.029 A 
ATOM     50  C   UNL A   1      42.488  29.125  33.712  1.00  0.00     0.049 A 
ATOM     51  H   UNL A   1      40.864  30.223  33.006  1.00  0.00     0.167 HD
ATOM     52  C   UNL A   1      37.553  32.544  31.341  1.00  0.00     0.037 A 
ATOM     53  C   UNL A   1      42.822  29.637  34.912  1.00  0.00     0.037 A 
ATOM     54  C   UNL A   1      37.775  33.091  32.654  1.00  0.00     0.049 A 
ATOM     55  C   UNL A   1      42.033  30.795  35.461  1.00  0.00     0.074 A 
ATOM     56  C   UNL A   1      37.067  34.090  33.301  1.00  0.00     0.029 A 
ATOM     57  N   UNL A   1      38.781  32.688  33.519  1.00  0.00    -0.354 N 
ATOM     58  N   UNL A   1      41.005  31.419  34.939  1.00  0.00    -0.248 NA
ATOM     59  C   UNL A   1      42.449  31.319  36.770  1.00  0.00     0.031 C 
ATOM     60  C   UNL A   1      37.682  34.332  34.533  1.00  0.00     0.029 A 
ATOM     61  C   UNL A   1      38.732  33.441  34.681  1.00  0.00     0.049 A 
ATOM     62  H   UNL A   1      39.432  31.974  33.335  1.00  0.00     0.167 HD
ATOM     63  C   UNL A   1      40.630  32.380  35.869  1.00  0.00     0.074 A 
ATOM     64  C   UNL A   1      41.532  32.248  36.995  1.00  0.00     0.031 C 
ATOM     65  C   UNL A   1      39.628  33.290  35.800  1.00  0.00     0.037 A 
BRANCH  52  66
ATOM     66  C   UNL A   1      36.470  33.153  30.496  1.00  0.00     0.057 A 
ATOM     67  C   UNL A   1      36.758  34.034  29.445  1.00  0.00     0.134 A 
ATOM     68  C   UNL A   1      35.127  32.809  30.699  1.00  0.00     0.134 A 
ATOM     69  F   UNL A   1      38.021  34.413  29.202  1.00  0.00    -0.206 F 
ATOM     70  C   UNL A   1      35.748  34.569  28.643  1.00  0.00     0.040 A 
ATOM     71  C   UNL A   1      34.113  33.313  29.885  1.00  0.00     0.040 A 
ATOM     72  F   UNL A   1      34.782  31.965  31.683  1.00  0.00    -0.206 F 
ATOM     73  C   UNL A   1      34.421  34.200  28.857  1.00  0.00     0.006 A 
ENDBRANCH  52  66
BRANCH  53  74
ATOM     74  C   UNL A   1      43.948  29.057  35.690  1.00  0.00     0.057 A 
ATOM     75  C   UNL A   1      45.254  29.540  35.539  1.00  0.00     0.134 A 
ATOM     76  C   UNL A   1      43.756  27.988  36.574  1.00  0.00     0.134 A 
ATOM     77  F   UNL A   1      45.506  30.550  34.694  1.00  0.00    -0.206 F 
ATOM     78  C   UNL A   1      46.332  28.963  36.214  1.00  0.00     0.040 A 
ATOM     79  C   UNL A   1      44.820  27.420  37.278  1.00  0.00     0.040 A 
ATOM     80  F   UNL A   1      42.530  27.483  36.770  1.00  0.00    -0.206 F 
ATOM     81  C   UNL A   1      46.114  27.901  37.089  1.00  0.00     0.006 A 
ENDBRANCH  53  74
BRANCH  65  82
ATOM     82  C   UNL A   1      39.422  34.182  36.990  1.00  0.00     0.057 A 
ATOM     83  C   UNL A   1      38.745  33.749  38.136  1.00  0.00     0.134 A 
ATOM     84  C   UNL A   1      39.944  35.482  37.002  1.00  0.00     0.134 A 
ATOM     85  F   UNL A   1      38.209  32.519  38.187  1.00  0.00    -0.206 F 
ATOM     86  C   UNL A   1      38.570  34.585  39.240  1.00  0.00     0.040 A 
ATOM     87  C   UNL A   1      39.804  36.317  38.112  1.00  0.00     0.040 A 
ATOM     88  F   UNL A   1      40.613  35.958  35.940  1.00  0.00    -0.206 F 
ATOM     89  C   UNL A   1      39.108  35.871  39.233  1.00  0.00     0.006 A 
ENDBRANCH  65  82
ENDBRANCH  39  40
ENDBRANCH  31  34
ENDBRANCH  29  30
ENDBRANCH   1  29
TORSDOF 12
ENDMDL
MODEL 2
REMARK VINA RESULT:     -13.4      1.282      2.063
REMARK SMILES C=C1C[C@@]23CC[C@H]4[C@@](C)(CCC[C@@]4(C)C(=O)NCCCCNC(=O)c4ccc(-c5c6nc(c(-c7c(F)cccc7F)c7ccc([nH]7)c(-c7c(F)cccc7F)c7nc(c(-c8c(F)cccc8F)c8ccc5[nH]8)C=C7)C=C6)cc4)[C@H]2CC[C@]1(O)C3
REMARK SMILES IDX 20 1 19 2 18 3 17 4 15 5 16 6 13 8 1 9 2 10 3 11 82 12 4 13
REMARK SMILES IDX 81 14 84 15 5 16 79 17 80 18 6 19 8 20 7 21 9 22 10 23 11 24
REMARK SMILES IDX 12 25 14 26 83 27 21 29 22 30 23 31 24 33 25 34 26 35 78 36
REMARK SMILES IDX 27 37 77 38 28 39 29 40 30 41 71 42 31 43 76 44 70 45 72 46
REMARK SMILES IDX 32 47 75 48 69 49 68 50 33 52 59 53 42 54 58 55 43 56 46 57
REMARK SMILES IDX 57 58 73 59 44 60 45 61 56 63 74 64 47 65 34 66 35 67 40 68
REMARK SMILES IDX 36 69 37 70 39 71 41 72 38 73 60 74 61 75 66 76 62 77 63 78
REMARK SMILES IDX 65 79 67 80 64 81 48 82 49 83 54 84 50 85 51 86 53 87 55 88
REMARK SMILES IDX 52 89
REMARK H PARENT 17 7 83 28 22 32 72 51 46 62
REMARK Flexibility Score: inf
ROOT
ATOM      1  C   UNL A   1      37.572  23.721  25.551  1.00  0.00     0.023 C 
ENDROOT
BRANCH   1   2
ATOM      2  C   UNL A   1      36.179  24.202  25.990  1.00  0.00     0.023 C 
BRANCH   2   3
ATOM      3  C   UNL A   1      35.180  23.084  26.249  1.00  0.00     0.116 C 
BRANCH   3   4
ATOM      4  N   UNL A   1      34.623  22.581  25.012  1.00  0.00    -0.356 N 
ATOM      5  C   UNL A   1      33.393  22.658  24.453  1.00  0.00     0.226 C 
ATOM      6  O   UNL A   1      33.312  22.172  23.319  1.00  0.00    -0.274 OA
ATOM      7  H   UNL A   1      35.270  22.079  24.465  1.00  0.00     0.163 HD
BRANCH   5   8
ATOM      8  C   UNL A   1      32.164  23.244  25.170  1.00  0.00     0.050 C 
ATOM      9  C   UNL A   1      31.825  31.268  26.673  1.00  0.00     0.011 C 
ATOM     10  C   UNL A   1      32.212  30.040  26.297  1.00  0.00    -0.045 C 
ATOM     11  C   UNL A   1      31.375  29.079  25.470  1.00  0.00     0.040 C 
ATOM     12  C   UNL A   1      33.374  29.271  26.864  1.00  0.00     0.086 C 
ATOM     13  C   UNL A   1      31.879  27.681  25.941  1.00  0.00    -0.020 C 
ATOM     14  C   UNL A   1      34.462  28.937  25.818  1.00  0.00     0.040 C 
ATOM     15  C   UNL A   1      32.609  28.028  27.263  1.00  0.00     0.047 C 
ATOM     16  C   UNL A   1      30.766  26.719  26.276  1.00  0.00     0.008 C 
ATOM     17  C   UNL A   1      32.961  27.030  25.010  1.00  0.00     0.002 C 
ATOM     18  C   UNL A   1      33.986  28.115  24.573  1.00  0.00     0.008 C 
ATOM     19  C   UNL A   1      31.414  25.365  26.627  1.00  0.00     0.006 C 
ATOM     20  C   UNL A   1      32.593  25.687  24.185  1.00  0.00    -0.025 C 
ATOM     21  C   UNL A   1      31.998  24.767  25.319  1.00  0.00     0.010 C 
ATOM     22  C   UNL A   1      33.905  25.382  23.409  1.00  0.00     0.012 C 
ATOM     23  C   UNL A   1      31.518  25.423  23.037  1.00  0.00     0.007 C 
ATOM     24  C   UNL A   1      30.754  23.974  23.062  1.00  0.00     0.002 C 
ATOM     25  C   UNL A   1      30.937  22.925  24.252  1.00  0.00     0.017 C 
ATOM     26  C   UNL A   1      32.097  22.538  26.542  1.00  0.00     0.022 C 
BRANCH  12  27
ATOM     27  O   UNL A   1      33.945  29.867  28.014  1.00  0.00    -0.386 OA
ATOM     28  H   UNL A   1      34.814  30.235  27.790  1.00  0.00     0.211 HD
ENDBRANCH  12  27
ENDBRANCH   5   8
ENDBRANCH   3   4
ENDBRANCH   2   3
ENDBRANCH   1   2
BRANCH   1  29
ATOM     29  C   UNL A   1      38.633  23.656  26.648  1.00  0.00     0.116 C 
BRANCH  29  30
ATOM     30  N   UNL A   1      39.985  23.797  26.124  1.00  0.00    -0.352 N 
ATOM     31  C   UNL A   1      40.885  24.813  26.314  1.00  0.00     0.251 C 
ATOM     32  H   UNL A   1      40.295  23.059  25.551  1.00  0.00     0.163 HD
ATOM     33  O   UNL A   1      41.911  24.868  25.631  1.00  0.00    -0.269 OA
BRANCH  31  34
ATOM     34  C   UNL A   1      40.620  25.856  27.323  1.00  0.00     0.039 A 
ATOM     35  C   UNL A   1      39.757  25.572  28.384  1.00  0.00     0.014 A 
ATOM     36  C   UNL A   1      41.231  27.110  27.228  1.00  0.00     0.014 A 
ATOM     37  C   UNL A   1      39.563  26.522  29.389  1.00  0.00     0.010 A 
ATOM     38  C   UNL A   1      41.096  28.025  28.268  1.00  0.00     0.010 A 
ATOM     39  C   UNL A   1      40.262  27.741  29.361  1.00  0.00    -0.014 A 
BRANCH  39  40
ATOM     40  C   UNL A   1      40.139  28.723  30.469  1.00  0.00     0.031 A 
ATOM     41  C   UNL A   1      39.112  29.821  30.400  1.00  0.00     0.074 A 
ATOM     42  C   UNL A   1      40.991  28.662  31.512  1.00  0.00     0.049 A 
ATOM     43  N   UNL A   1      38.893  30.801  31.241  1.00  0.00    -0.248 NA
ATOM     44  C   UNL A   1      38.233  29.836  29.220  1.00  0.00     0.031 C 
ATOM     45  C   UNL A   1      42.059  27.672  31.676  1.00  0.00     0.029 A 
ATOM     46  N   UNL A   1      41.101  29.453  32.628  1.00  0.00    -0.354 N 
ATOM     47  C   UNL A   1      37.865  31.553  30.685  1.00  0.00     0.074 A 
ATOM     48  C   UNL A   1      37.539  30.948  29.413  1.00  0.00     0.031 C 
ATOM     49  C   UNL A   1      42.695  27.898  32.837  1.00  0.00     0.029 A 
ATOM     50  C   UNL A   1      42.112  29.073  33.478  1.00  0.00     0.049 A 
ATOM     51  H   UNL A   1      40.510  30.221  32.804  1.00  0.00     0.167 HD
ATOM     52  C   UNL A   1      37.236  32.636  31.200  1.00  0.00     0.037 A 
ATOM     53  C   UNL A   1      42.529  29.615  34.638  1.00  0.00     0.037 A 
ATOM     54  C   UNL A   1      37.548  33.223  32.477  1.00  0.00     0.049 A 
ATOM     55  C   UNL A   1      41.825  30.832  35.174  1.00  0.00     0.074 A 
ATOM     56  C   UNL A   1      36.922  34.281  33.113  1.00  0.00     0.029 A 
ATOM     57  N   UNL A   1      38.575  32.806  33.309  1.00  0.00    -0.354 N 
ATOM     58  N   UNL A   1      40.803  31.485  34.676  1.00  0.00    -0.248 NA
ATOM     59  C   UNL A   1      42.329  31.386  36.439  1.00  0.00     0.031 C 
ATOM     60  C   UNL A   1      37.607  34.541  34.303  1.00  0.00     0.029 A 
ATOM     61  C   UNL A   1      38.620  33.606  34.439  1.00  0.00     0.049 A 
ATOM     62  H   UNL A   1      39.181  32.053  33.125  1.00  0.00     0.167 HD
ATOM     63  C   UNL A   1      40.521  32.500  35.581  1.00  0.00     0.074 A 
ATOM     64  C   UNL A   1      41.470  32.368  36.667  1.00  0.00     0.031 C 
ATOM     65  C   UNL A   1      39.561  33.455  35.520  1.00  0.00     0.037 A 
BRANCH  52  66
ATOM     66  C   UNL A   1      36.143  33.263  30.382  1.00  0.00     0.057 A 
ATOM     67  C   UNL A   1      34.788  33.068  30.680  1.00  0.00     0.134 A 
ATOM     68  C   UNL A   1      36.451  34.119  29.315  1.00  0.00     0.134 A 
ATOM     69  F   UNL A   1      34.423  32.254  31.682  1.00  0.00    -0.206 F 
ATOM     70  C   UNL A   1      33.780  33.683  29.936  1.00  0.00     0.040 A 
ATOM     71  C   UNL A   1      35.453  34.762  28.583  1.00  0.00     0.040 A 
ATOM     72  F   UNL A   1      37.728  34.356  28.979  1.00  0.00    -0.206 F 
ATOM     73  C   UNL A   1      34.113  34.540  28.889  1.00  0.00     0.006 A 
ENDBRANCH  52  66
BRANCH  53  74
ATOM     74  C   UNL A   1      43.663  29.011  35.386  1.00  0.00     0.057 A 
ATOM     75  C   UNL A   1      44.988  29.360  35.094  1.00  0.00     0.134 A 
ATOM     76  C   UNL A   1      43.457  28.050  36.382  1.00  0.00     0.134 A 
ATOM     77  F   UNL A   1      45.252  30.261  34.137  1.00  0.00    -0.206 F 
ATOM     78  C   UNL A   1      46.066  28.754  35.742  1.00  0.00     0.040 A 
ATOM     79  C   UNL A   1      44.523  27.457  37.060  1.00  0.00     0.040 A 
ATOM     80  F   UNL A   1      42.213  27.677  36.716  1.00  0.00    -0.206 F 
ATOM     81  C   UNL A   1      45.834  27.801  36.732  1.00  0.00     0.006 A 
ENDBRANCH  53  74
BRANCH  65  82
ATOM     82  C   UNL A   1      39.456  34.403  36.679  1.00  0.00     0.057 A 
ATOM     83  C   UNL A   1      38.783  34.064  37.860  1.00  0.00     0.134 A 
ATOM     84  C   UNL A   1      40.073  35.660  36.627  1.00  0.00     0.134 A 
ATOM     85  F   UNL A   1      38.160  32.880  37.972  1.00  0.00    -0.206 F 
ATOM     86  C   UNL A   1      38.704  34.951  38.935  1.00  0.00     0.040 A 
ATOM     87  C   UNL A   1      40.028  36.543  37.707  1.00  0.00     0.040 A 
ATOM     88  F   UNL A   1      40.744  36.046  35.530  1.00  0.00    -0.206 F 
ATOM     89  C   UNL A   1      39.335  36.191  38.863  1.00  0.00     0.006 A 
ENDBRANCH  65  82
ENDBRANCH  39  40
ENDBRANCH  31  34
ENDBRANCH  29  30
ENDBRANCH   1  29
TORSDOF 12
ENDMDL
MODEL 3
REMARK VINA RESULT:     -13.4      4.057      5.725
REMARK SMILES C=C1C[C@@]23CC[C@H]4[C@@](C)(CCC[C@@]4(C)C(=O)NCCCCNC(=O)c4ccc(-c5c6nc(c(-c7c(F)cccc7F)c7ccc([nH]7)c(-c7c(F)cccc7F)c7nc(c(-c8c(F)cccc8F)c8ccc5[nH]8)C=C7)C=C6)cc4)[C@H]2CC[C@]1(O)C3
REMARK SMILES IDX 20 1 19 2 18 3 17 4 15 5 16 6 13 8 1 9 2 10 3 11 82 12 4 13
REMARK SMILES IDX 81 14 84 15 5 16 79 17 80 18 6 19 8 20 7 21 9 22 10 23 11 24
REMARK SMILES IDX 12 25 14 26 83 27 21 29 22 30 23 31 24 33 25 34 26 35 78 36
REMARK SMILES IDX 27 37 77 38 28 39 29 40 30 41 71 42 31 43 76 44 70 45 72 46
REMARK SMILES IDX 32 47 75 48 69 49 68 50 33 52 59 53 42 54 58 55 43 56 46 57
REMARK SMILES IDX 57 58 73 59 44 60 45 61 56 63 74 64 47 65 34 66 35 67 40 68
REMARK SMILES IDX 36 69 37 70 39 71 41 72 38 73 60 74 61 75 66 76 62 77 63 78
REMARK SMILES IDX 65 79 67 80 64 81 48 82 49 83 54 84 50 85 51 86 53 87 55 88
REMARK SMILES IDX 52 89
REMARK H PARENT 17 7 83 28 22 32 72 51 46 62
REMARK Flexibility Score: inf
ROOT
ATOM      1  C   UNL A   1      37.493  20.839  24.430  1.00  0.00     0.023 C 
ENDROOT
BRANCH   1   2
ATOM      2  C   UNL A   1      37.041  22.244  24.003  1.00  0.00     0.023 C 
BRANCH   2   3
ATOM      3  C   UNL A   1      35.538  22.391  23.814  1.00  0.00     0.116 C 
BRANCH   3   4
ATOM      4  N   UNL A   1      34.811  21.427  24.611  1.00  0.00    -0.356 N 
ATOM      5  C   UNL A   1      34.021  21.539  25.703  1.00  0.00     0.226 C 
ATOM      6  O   UNL A   1      33.488  20.483  26.062  1.00  0.00    -0.274 OA
ATOM      7  H   UNL A   1      34.910  20.500  24.293  1.00  0.00     0.163 HD
BRANCH   5   8
ATOM      8  C   UNL A   1      33.831  22.847  26.490  1.00  0.00     0.050 C 
ATOM      9  C   UNL A   1      30.649  29.374  22.743  1.00  0.00     0.011 C 
ATOM     10  C   UNL A   1      31.143  28.159  23.023  1.00  0.00    -0.045 C 
ATOM     11  C   UNL A   1      30.713  27.293  24.195  1.00  0.00     0.040 C 
ATOM     12  C   UNL A   1      32.397  27.562  22.444  1.00  0.00     0.086 C 
ATOM     13  C   UNL A   1      31.991  26.455  24.499  1.00  0.00    -0.020 C 
ATOM     14  C   UNL A   1      32.150  26.270  21.635  1.00  0.00     0.040 C 
ATOM     15  C   UNL A   1      33.089  27.256  23.754  1.00  0.00     0.047 C 
ATOM     16  C   UNL A   1      32.362  26.428  25.961  1.00  0.00     0.008 C 
ATOM     17  C   UNL A   1      31.997  25.021  23.862  1.00  0.00     0.002 C 
ATOM     18  C   UNL A   1      31.452  25.100  22.408  1.00  0.00     0.008 C 
ATOM     19  C   UNL A   1      33.576  25.489  26.113  1.00  0.00     0.006 C 
ATOM     20  C   UNL A   1      31.936  23.724  24.828  1.00  0.00    -0.025 C 
ATOM     21  C   UNL A   1      33.086  24.038  25.860  1.00  0.00     0.010 C 
ATOM     22  C   UNL A   1      31.961  22.538  23.824  1.00  0.00     0.012 C 
ATOM     23  C   UNL A   1      30.808  23.217  25.834  1.00  0.00     0.007 C 
ATOM     24  C   UNL A   1      31.318  22.533  27.232  1.00  0.00     0.002 C 
ATOM     25  C   UNL A   1      32.856  22.507  27.665  1.00  0.00     0.017 C 
ATOM     26  C   UNL A   1      35.240  23.262  26.970  1.00  0.00     0.022 C 
BRANCH  12  27
ATOM     27  O   UNL A   1      33.174  28.483  21.701  1.00  0.00    -0.386 OA
ATOM     28  H   UNL A   1      33.255  29.312  22.197  1.00  0.00     0.211 HD
ENDBRANCH  12  27
ENDBRANCH   5   8
ENDBRANCH   3   4
ENDBRANCH   2   3
ENDBRANCH   1   2
BRANCH   1  29
ATOM     29  C   UNL A   1      38.304  20.761  25.724  1.00  0.00     0.116 C 
BRANCH  29  30
ATOM     30  N   UNL A   1      39.312  19.712  25.686  1.00  0.00    -0.352 N 
ATOM     31  C   UNL A   1      40.655  19.792  25.952  1.00  0.00     0.251 C 
ATOM     32  H   UNL A   1      38.984  18.819  25.433  1.00  0.00     0.163 HD
ATOM     33  O   UNL A   1      41.399  18.848  25.675  1.00  0.00    -0.269 OA
BRANCH  31  34
ATOM     34  C   UNL A   1      41.217  21.017  26.553  1.00  0.00     0.039 A 
ATOM     35  C   UNL A   1      41.806  21.972  25.722  1.00  0.00     0.014 A 
ATOM     36  C   UNL A   1      41.153  21.226  27.933  1.00  0.00     0.014 A 
ATOM     37  C   UNL A   1      42.267  23.172  26.269  1.00  0.00     0.010 A 
ATOM     38  C   UNL A   1      41.543  22.452  28.465  1.00  0.00     0.010 A 
ATOM     39  C   UNL A   1      42.103  23.439  27.639  1.00  0.00    -0.014 A 
BRANCH  39  40
ATOM     40  C   UNL A   1      42.502  24.747  28.220  1.00  0.00     0.031 A 
ATOM     41  C   UNL A   1      41.476  25.827  28.436  1.00  0.00     0.074 A 
ATOM     42  C   UNL A   1      43.800  24.985  28.498  1.00  0.00     0.049 A 
ATOM     43  N   UNL A   1      41.642  27.048  28.877  1.00  0.00    -0.248 NA
ATOM     44  C   UNL A   1      40.084  25.500  28.088  1.00  0.00     0.031 C 
ATOM     45  C   UNL A   1      44.897  24.037  28.292  1.00  0.00     0.029 A 
ATOM     46  N   UNL A   1      44.418  26.101  29.005  1.00  0.00    -0.354 N 
ATOM     47  C   UNL A   1      40.384  27.636  28.846  1.00  0.00     0.074 A 
ATOM     48  C   UNL A   1      39.474  26.658  28.294  1.00  0.00     0.031 C 
ATOM     49  C   UNL A   1      46.047  24.601  28.696  1.00  0.00     0.029 A 
ATOM     50  C   UNL A   1      45.778  25.962  29.146  1.00  0.00     0.049 A 
ATOM     51  H   UNL A   1      43.932  26.923  29.245  1.00  0.00     0.167 HD
ATOM     52  C   UNL A   1      40.018  28.873  29.259  1.00  0.00     0.037 A 
ATOM     53  C   UNL A   1      46.705  26.838  29.581  1.00  0.00     0.037 A 
ATOM     54  C   UNL A   1      40.922  29.837  29.828  1.00  0.00     0.049 A 
ATOM     55  C   UNL A   1      46.271  28.212  30.013  1.00  0.00     0.074 A 
ATOM     56  C   UNL A   1      40.633  31.092  30.338  1.00  0.00     0.029 A 
ATOM     57  N   UNL A   1      42.291  29.657  29.959  1.00  0.00    -0.354 N 
ATOM     58  N   UNL A   1      45.066  28.727  30.051  1.00  0.00    -0.248 NA
ATOM     59  C   UNL A   1      47.327  29.127  30.469  1.00  0.00     0.031 C 
ATOM     60  C   UNL A   1      41.835  31.693  30.723  1.00  0.00     0.029 A 
ATOM     61  C   UNL A   1      42.864  30.791  30.513  1.00  0.00     0.049 A 
ATOM     62  H   UNL A   1      42.782  28.845  29.699  1.00  0.00     0.167 HD
ATOM     63  C   UNL A   1      45.215  30.008  30.566  1.00  0.00     0.074 A 
ATOM     64  C   UNL A   1      46.625  30.188  30.841  1.00  0.00     0.031 C 
ATOM     65  C   UNL A   1      44.269  30.952  30.794  1.00  0.00     0.037 A 
BRANCH  52  66
ATOM     66  C   UNL A   1      38.574  29.259  29.112  1.00  0.00     0.057 A 
ATOM     67  C   UNL A   1      37.688  29.248  30.198  1.00  0.00     0.134 A 
ATOM     68  C   UNL A   1      38.075  29.703  27.880  1.00  0.00     0.134 A 
ATOM     69  F   UNL A   1      38.097  28.825  31.404  1.00  0.00    -0.206 F 
ATOM     70  C   UNL A   1      36.356  29.641  30.059  1.00  0.00     0.040 A 
ATOM     71  C   UNL A   1      36.754  30.127  27.736  1.00  0.00     0.040 A 
ATOM     72  F   UNL A   1      38.870  29.746  26.800  1.00  0.00    -0.206 F 
ATOM     73  C   UNL A   1      35.889  30.092  28.826  1.00  0.00     0.006 A 
ENDBRANCH  52  66
BRANCH  53  74
ATOM     74  C   UNL A   1      48.138  26.446  29.645  1.00  0.00     0.057 A 
ATOM     75  C   UNL A   1      49.002  26.691  28.569  1.00  0.00     0.134 A 
ATOM     76  C   UNL A   1      48.671  25.790  30.760  1.00  0.00     0.134 A 
ATOM     77  F   UNL A   1      48.546  27.298  27.464  1.00  0.00    -0.206 F 
ATOM     78  C   UNL A   1      50.333  26.270  28.588  1.00  0.00     0.040 A 
ATOM     79  C   UNL A   1      50.008  25.391  30.806  1.00  0.00     0.040 A 
ATOM     80  F   UNL A   1      47.900  25.533  31.827  1.00  0.00    -0.206 F 
ATOM     81  C   UNL A   1      50.840  25.621  29.711  1.00  0.00     0.006 A 
ENDBRANCH  53  74
BRANCH  65  82
ATOM     82  C   UNL A   1      44.717  32.244  31.412  1.00  0.00     0.057 A 
ATOM     83  C   UNL A   1      45.092  33.349  30.637  1.00  0.00     0.134 A 
ATOM     84  C   UNL A   1      44.734  32.397  32.805  1.00  0.00     0.134 A 
ATOM     85  F   UNL A   1      45.110  33.267  29.298  1.00  0.00    -0.206 F 
ATOM     86  C   UNL A   1      45.496  34.549  31.225  1.00  0.00     0.040 A 
ATOM     87  C   UNL A   1      45.105  33.602  33.404  1.00  0.00     0.040 A 
ATOM     88  F   UNL A   1      44.376  31.382  33.606  1.00  0.00    -0.206 F 
ATOM     89  C   UNL A   1      45.494  34.680  32.613  1.00  0.00     0.006 A 
ENDBRANCH  65  82
ENDBRANCH  39  40
ENDBRANCH  31  34
ENDBRANCH  29  30
ENDBRANCH   1  29
TORSDOF 12
ENDMDL
