MODEL 1
REMARK VINA RESULT:     -11.9      0.000      0.000
REMARK SMILES Cc1nn(C)c2c1nc(SCC(=O)NCCCCNC(=O)c1ccc(-c3c4nc(c(-c5c(F)cccc5F)c5ccc([nH]5)c(-c5c(F)cccc5F)c5nc(c(-c6c(F)cccc6F)c6ccc3[nH]6)C=C5)C=C4)cc1)n2[C@H]1CC[N@@H+](C)C1
REMARK SMILES IDX 16 1 15 2 14 3 12 4 13 5 11 7 10 8 9 9 1 10 2 11 3 12 7 13
REMARK SMILES IDX 4 14 6 15 8 16 5 17 76 18 77 19 78 20 82 21 79 22 80 23
REMARK SMILES IDX 81 24 17 26 18 27 19 28 20 29 21 31 22 32 23 33 75 34 24 35
REMARK SMILES IDX 74 36 25 37 26 38 27 39 68 40 28 41 73 42 67 43 69 44 29 45
REMARK SMILES IDX 72 46 66 47 65 48 30 50 56 51 39 52 55 53 40 54 43 55 54 56
REMARK SMILES IDX 70 57 41 58 42 59 53 61 71 62 44 63 31 64 32 65 37 66 33 67
REMARK SMILES IDX 34 68 36 69 38 70 35 71 57 72 58 73 63 74 59 75 60 76 62 77
REMARK SMILES IDX 64 78 61 79 45 80 46 81 51 82 47 83 48 84 50 85 52 86 49 87
REMARK H PARENT 14 6 80 25 19 30 69 49 43 60
REMARK Flexibility Score: inf
ROOT
ATOM      1  C   UNL A   1      42.097  19.805  26.652  1.00  0.00     0.023 C 
ENDROOT
BRANCH   1   2
ATOM      2  C   UNL A   1      40.597  19.919  26.357  1.00  0.00     0.116 C 
BRANCH   2   3
ATOM      3  N   UNL A   1      40.083  21.243  26.652  1.00  0.00    -0.355 N 
ATOM      4  C   UNL A   1      39.066  21.972  26.108  1.00  0.00     0.230 C 
ATOM      5  O   UNL A   1      38.866  23.083  26.612  1.00  0.00    -0.274 OA
ATOM      6  H   UNL A   1      40.556  21.701  27.383  1.00  0.00     0.163 HD
BRANCH   4   7
ATOM      7  C   UNL A   1      38.110  21.411  25.076  1.00  0.00     0.178 C 
BRANCH   7   8
ATOM      8  S   UNL A   1      37.024  22.599  24.283  1.00  0.00    -0.078 SA
BRANCH   8   9
ATOM      9  C   UNL A   1      35.419  22.051  24.637  1.00  0.00     0.171 A 
ATOM     10  C   UNL A   1      32.650  18.518  25.123  1.00  0.00     0.071 C 
ATOM     11  C   UNL A   1      32.670  19.995  25.147  1.00  0.00     0.087 A 
ATOM     12  N   UNL A   1      31.541  20.696  25.358  1.00  0.00    -0.174 NA
ATOM     13  C   UNL A   1      33.734  20.873  24.957  1.00  0.00     0.132 A 
ATOM     14  N   UNL A   1      31.928  22.000  25.299  1.00  0.00    -0.250 N 
ATOM     15  C   UNL A   1      33.259  22.139  25.035  1.00  0.00     0.159 A 
ATOM     16  N   UNL A   1      35.054  20.788  24.714  1.00  0.00    -0.219 NA
ATOM     17  C   UNL A   1      30.904  22.993  25.498  1.00  0.00     0.176 C 
ATOM     18  N   UNL A   1      34.347  22.941  24.811  1.00  0.00    -0.295 N 
BRANCH  18  19
ATOM     19  C   UNL A   1      34.473  24.390  24.820  1.00  0.00     0.152 C 
ATOM     20  C   UNL A   1      33.935  25.099  23.558  1.00  0.00     0.093 C 
ATOM     21  C   UNL A   1      33.793  25.163  25.948  1.00  0.00     0.288 C 
ATOM     22  C   UNL A   1      33.143  26.300  24.050  1.00  0.00     0.264 C 
ATOM     23  N   UNL A   1      33.664  26.515  25.399  1.00  0.00    -0.336 N 
ATOM     24  C   UNL A   1      32.775  27.355  26.194  1.00  0.00     0.332 C 
ATOM     25  H   UNL A   1      34.551  27.018  25.402  1.00  0.00     0.347 HD
ENDBRANCH  18  19
ENDBRANCH   8   9
ENDBRANCH   7   8
ENDBRANCH   4   7
ENDBRANCH   2   3
ENDBRANCH   1   2
BRANCH   1  26
ATOM     26  C   UNL A   1      42.759  18.478  26.246  1.00  0.00     0.023 C 
BRANCH  26  27
ATOM     27  C   UNL A   1      44.274  18.535  26.079  1.00  0.00     0.116 C 
BRANCH  27  28
ATOM     28  N   UNL A   1      44.684  18.553  24.680  1.00  0.00    -0.352 N 
ATOM     29  C   UNL A   1      44.757  19.636  23.826  1.00  0.00     0.251 C 
ATOM     30  H   UNL A   1      44.941  17.685  24.295  1.00  0.00     0.163 HD
ATOM     31  O   UNL A   1      44.754  19.476  22.614  1.00  0.00    -0.269 OA
BRANCH  29  32
ATOM     32  C   UNL A   1      44.816  20.996  24.394  1.00  0.00     0.039 A 
ATOM     33  C   UNL A   1      43.887  21.960  24.000  1.00  0.00     0.014 A 
ATOM     34  C   UNL A   1      45.786  21.298  25.347  1.00  0.00     0.014 A 
ATOM     35  C   UNL A   1      43.876  23.194  24.647  1.00  0.00     0.010 A 
ATOM     36  C   UNL A   1      45.712  22.484  26.054  1.00  0.00     0.010 A 
ATOM     37  C   UNL A   1      44.765  23.447  25.705  1.00  0.00    -0.014 A 
BRANCH  37  38
ATOM     38  C   UNL A   1      44.596  24.666  26.508  1.00  0.00     0.031 A 
ATOM     39  C   UNL A   1      45.668  25.696  26.369  1.00  0.00     0.074 A 
ATOM     40  C   UNL A   1      43.481  25.009  27.191  1.00  0.00     0.049 A 
ATOM     41  N   UNL A   1      46.462  26.142  27.289  1.00  0.00    -0.248 NA
ATOM     42  C   UNL A   1      45.925  26.261  25.035  1.00  0.00     0.031 C 
ATOM     43  C   UNL A   1      42.190  24.318  27.224  1.00  0.00     0.029 A 
ATOM     44  N   UNL A   1      43.244  26.135  27.931  1.00  0.00    -0.354 N 
ATOM     45  C   UNL A   1      47.193  27.174  26.705  1.00  0.00     0.074 A 
ATOM     46  C   UNL A   1      46.914  27.119  25.292  1.00  0.00     0.031 C 
ATOM     47  C   UNL A   1      41.254  25.141  27.742  1.00  0.00     0.029 A 
ATOM     48  C   UNL A   1      41.908  26.340  28.235  1.00  0.00     0.049 A 
ATOM     49  H   UNL A   1      43.960  26.746  28.221  1.00  0.00     0.167 HD
ATOM     50  C   UNL A   1      47.805  28.128  27.459  1.00  0.00     0.037 A 
ATOM     51  C   UNL A   1      41.355  27.416  28.841  1.00  0.00     0.037 A 
ATOM     52  C   UNL A   1      47.935  27.720  28.835  1.00  0.00     0.049 A 
ATOM     53  C   UNL A   1      42.418  28.104  29.606  1.00  0.00     0.074 A 
ATOM     54  C   UNL A   1      48.528  26.670  29.505  1.00  0.00     0.029 A 
ATOM     55  N   UNL A   1      47.108  28.323  29.747  1.00  0.00    -0.354 N 
ATOM     56  N   UNL A   1      42.975  27.625  30.682  1.00  0.00    -0.248 NA
ATOM     57  C   UNL A   1      43.104  29.234  29.001  1.00  0.00     0.031 C 
ATOM     58  C   UNL A   1      47.685  26.420  30.630  1.00  0.00     0.029 A 
ATOM     59  C   UNL A   1      46.648  27.352  30.596  1.00  0.00     0.049 A 
ATOM     60  H   UNL A   1      46.885  29.281  29.786  1.00  0.00     0.167 HD
ATOM     61  C   UNL A   1      44.279  28.082  30.629  1.00  0.00     0.074 A 
ATOM     62  C   UNL A   1      44.248  29.191  29.685  1.00  0.00     0.031 C 
ATOM     63  C   UNL A   1      45.304  27.329  31.125  1.00  0.00     0.037 A 
BRANCH  50  64
ATOM     64  C   UNL A   1      47.943  29.580  27.055  1.00  0.00     0.057 A 
ATOM     65  C   UNL A   1      49.184  30.226  27.217  1.00  0.00     0.134 A 
ATOM     66  C   UNL A   1      46.849  30.438  26.830  1.00  0.00     0.134 A 
ATOM     67  F   UNL A   1      50.301  29.523  27.456  1.00  0.00    -0.206 F 
ATOM     68  C   UNL A   1      49.310  31.621  27.238  1.00  0.00     0.040 A 
ATOM     69  C   UNL A   1      46.972  31.831  26.796  1.00  0.00     0.040 A 
ATOM     70  F   UNL A   1      45.593  29.985  26.737  1.00  0.00    -0.206 F 
ATOM     71  C   UNL A   1      48.199  32.430  27.036  1.00  0.00     0.006 A 
ENDBRANCH  50  64
BRANCH  51  72
ATOM     72  C   UNL A   1      39.996  27.980  28.696  1.00  0.00     0.057 A 
ATOM     73  C   UNL A   1      39.077  27.941  29.754  1.00  0.00     0.134 A 
ATOM     74  C   UNL A   1      39.656  28.804  27.611  1.00  0.00     0.134 A 
ATOM     75  F   UNL A   1      39.327  27.209  30.850  1.00  0.00    -0.206 F 
ATOM     76  C   UNL A   1      37.903  28.703  29.749  1.00  0.00     0.040 A 
ATOM     77  C   UNL A   1      38.481  29.563  27.587  1.00  0.00     0.040 A 
ATOM     78  F   UNL A   1      40.492  28.967  26.575  1.00  0.00    -0.206 F 
ATOM     79  C   UNL A   1      37.609  29.528  28.668  1.00  0.00     0.006 A 
ENDBRANCH  51  72
BRANCH  63  80
ATOM     80  C   UNL A   1      44.960  26.229  32.088  1.00  0.00     0.057 A 
ATOM     81  C   UNL A   1      44.630  24.917  31.716  1.00  0.00     0.134 A 
ATOM     82  C   UNL A   1      45.061  26.490  33.460  1.00  0.00     0.134 A 
ATOM     83  F   UNL A   1      44.611  24.542  30.430  1.00  0.00    -0.206 F 
ATOM     84  C   UNL A   1      44.350  23.931  32.667  1.00  0.00     0.040 A 
ATOM     85  C   UNL A   1      44.823  25.503  34.420  1.00  0.00     0.040 A 
ATOM     86  F   UNL A   1      45.430  27.707  33.893  1.00  0.00    -0.206 F 
ATOM     87  C   UNL A   1      44.448  24.223  34.024  1.00  0.00     0.006 A 
ENDBRANCH  63  80
ENDBRANCH  37  38
ENDBRANCH  29  32
ENDBRANCH  27  28
ENDBRANCH  26  27
ENDBRANCH   1  26
TORSDOF 14
ENDMDL
MODEL 2
REMARK VINA RESULT:     -11.9      5.475     11.019
REMARK SMILES Cc1nn(C)c2c1nc(SCC(=O)NCCCCNC(=O)c1ccc(-c3c4nc(c(-c5c(F)cccc5F)c5ccc([nH]5)c(-c5c(F)cccc5F)c5nc(c(-c6c(F)cccc6F)c6ccc3[nH]6)C=C5)C=C4)cc1)n2[C@H]1CC[N@@H+](C)C1
REMARK SMILES IDX 16 1 15 2 14 3 12 4 13 5 11 7 10 8 9 9 1 10 2 11 3 12 7 13
REMARK SMILES IDX 4 14 6 15 8 16 5 17 76 18 77 19 78 20 82 21 79 22 80 23
REMARK SMILES IDX 81 24 17 26 18 27 19 28 20 29 21 31 22 32 23 33 75 34 24 35
REMARK SMILES IDX 74 36 25 37 26 38 27 39 68 40 28 41 73 42 67 43 69 44 29 45
REMARK SMILES IDX 72 46 66 47 65 48 30 50 56 51 39 52 55 53 40 54 43 55 54 56
REMARK SMILES IDX 70 57 41 58 42 59 53 61 71 62 44 63 31 64 32 65 37 66 33 67
REMARK SMILES IDX 34 68 36 69 38 70 35 71 57 72 58 73 63 74 59 75 60 76 62 77
REMARK SMILES IDX 64 78 61 79 45 80 46 81 51 82 47 83 48 84 50 85 52 86 49 87
REMARK H PARENT 14 6 80 25 19 30 69 49 43 60
REMARK Flexibility Score: inf
ROOT
ATOM      1  C   UNL A   1      34.030  35.115  28.598  1.00  0.00     0.023 C 
ENDROOT
BRANCH   1   2
ATOM      2  C   UNL A   1      33.281  33.821  28.257  1.00  0.00     0.116 C 
BRANCH   2   3
ATOM      3  N   UNL A   1      34.188  32.724  27.976  1.00  0.00    -0.355 N 
ATOM      4  C   UNL A   1      33.972  31.434  27.589  1.00  0.00     0.230 C 
ATOM      5  O   UNL A   1      34.982  30.745  27.410  1.00  0.00    -0.274 OA
ATOM      6  H   UNL A   1      35.139  32.953  28.086  1.00  0.00     0.163 HD
BRANCH   4   7
ATOM      7  C   UNL A   1      32.603  30.904  27.216  1.00  0.00     0.178 C 
BRANCH   7   8
ATOM      8  S   UNL A   1      32.399  29.124  27.302  1.00  0.00    -0.078 SA
BRANCH   8   9
ATOM      9  C   UNL A   1      31.932  28.644  25.704  1.00  0.00     0.171 A 
ATOM     10  C   UNL A   1      29.866  29.804  21.861  1.00  0.00     0.071 C 
ATOM     11  C   UNL A   1      30.551  28.674  22.520  1.00  0.00     0.087 A 
ATOM     12  N   UNL A   1      30.675  27.487  21.899  1.00  0.00    -0.174 NA
ATOM     13  C   UNL A   1      31.128  28.600  23.784  1.00  0.00     0.132 A 
ATOM     14  N   UNL A   1      31.333  26.697  22.792  1.00  0.00    -0.250 N 
ATOM     15  C   UNL A   1      31.604  27.345  23.961  1.00  0.00     0.159 A 
ATOM     16  N   UNL A   1      31.314  29.418  24.835  1.00  0.00    -0.219 NA
ATOM     17  C   UNL A   1      31.611  25.344  22.384  1.00  0.00     0.176 C 
ATOM     18  N   UNL A   1      32.127  27.338  25.228  1.00  0.00    -0.295 N 
BRANCH  18  19
ATOM     19  C   UNL A   1      32.822  26.291  25.960  1.00  0.00     0.152 C 
ATOM     20  C   UNL A   1      31.939  25.097  26.385  1.00  0.00     0.093 C 
ATOM     21  C   UNL A   1      34.003  25.601  25.280  1.00  0.00     0.288 C 
ATOM     22  C   UNL A   1      32.742  23.843  26.077  1.00  0.00     0.264 C 
ATOM     23  N   UNL A   1      34.117  24.334  26.006  1.00  0.00    -0.336 N 
ATOM     24  C   UNL A   1      34.995  23.385  25.333  1.00  0.00     0.332 C 
ATOM     25  H   UNL A   1      34.538  24.455  26.927  1.00  0.00     0.347 HD
ENDBRANCH  18  19
ENDBRANCH   8   9
ENDBRANCH   7   8
ENDBRANCH   4   7
ENDBRANCH   2   3
ENDBRANCH   1   2
BRANCH   1  26
ATOM     26  C   UNL A   1      33.149  36.331  28.924  1.00  0.00     0.023 C 
BRANCH  26  27
ATOM     27  C   UNL A   1      33.480  37.038  30.235  1.00  0.00     0.116 C 
BRANCH  27  28
ATOM     28  N   UNL A   1      32.543  36.707  31.302  1.00  0.00    -0.352 N 
ATOM     29  C   UNL A   1      32.559  35.613  32.143  1.00  0.00     0.251 C 
ATOM     30  H   UNL A   1      31.806  37.345  31.441  1.00  0.00     0.163 HD
ATOM     31  O   UNL A   1      31.545  35.261  32.730  1.00  0.00    -0.269 OA
BRANCH  29  32
ATOM     32  C   UNL A   1      33.812  34.852  32.310  1.00  0.00     0.039 A 
ATOM     33  C   UNL A   1      33.862  33.501  31.964  1.00  0.00     0.014 A 
ATOM     34  C   UNL A   1      34.949  35.502  32.784  1.00  0.00     0.014 A 
ATOM     35  C   UNL A   1      35.087  32.838  32.000  1.00  0.00     0.010 A 
ATOM     36  C   UNL A   1      36.178  34.871  32.727  1.00  0.00     0.010 A 
ATOM     37  C   UNL A   1      36.259  33.532  32.346  1.00  0.00    -0.014 A 
BRANCH  37  38
ATOM     38  C   UNL A   1      37.561  32.873  32.174  1.00  0.00     0.031 A 
ATOM     39  C   UNL A   1      38.402  32.753  33.402  1.00  0.00     0.074 A 
ATOM     40  C   UNL A   1      37.964  32.207  31.069  1.00  0.00     0.049 A 
ATOM     41  N   UNL A   1      39.571  33.266  33.613  1.00  0.00    -0.248 NA
ATOM     42  C   UNL A   1      37.855  32.020  34.553  1.00  0.00     0.031 C 
ATOM     43  C   UNL A   1      37.197  31.915  29.856  1.00  0.00     0.029 A 
ATOM     44  N   UNL A   1      39.143  31.547  30.852  1.00  0.00    -0.354 N 
ATOM     45  C   UNL A   1      39.994  32.772  34.845  1.00  0.00     0.074 A 
ATOM     46  C   UNL A   1      38.854  32.116  35.433  1.00  0.00     0.031 C 
ATOM     47  C   UNL A   1      37.831  30.960  29.143  1.00  0.00     0.029 A 
ATOM     48  C   UNL A   1      39.122  30.701  29.754  1.00  0.00     0.049 A 
ATOM     49  H   UNL A   1      39.935  31.663  31.425  1.00  0.00     0.167 HD
ATOM     50  C   UNL A   1      41.312  32.757  35.191  1.00  0.00     0.037 A 
ATOM     51  C   UNL A   1      40.085  29.835  29.361  1.00  0.00     0.037 A 
ATOM     52  C   UNL A   1      42.094  33.631  34.355  1.00  0.00     0.049 A 
ATOM     53  C   UNL A   1      41.367  30.286  29.944  1.00  0.00     0.074 A 
ATOM     54  C   UNL A   1      42.088  34.978  34.051  1.00  0.00     0.029 A 
ATOM     55  N   UNL A   1      42.907  33.044  33.421  1.00  0.00    -0.354 N 
ATOM     56  N   UNL A   1      42.006  31.360  29.574  1.00  0.00    -0.248 NA
ATOM     57  C   UNL A   1      41.825  29.688  31.189  1.00  0.00     0.031 C 
ATOM     58  C   UNL A   1      42.518  35.056  32.692  1.00  0.00     0.029 A 
ATOM     59  C   UNL A   1      42.790  33.758  32.259  1.00  0.00     0.049 A 
ATOM     60  H   UNL A   1      43.475  32.251  33.560  1.00  0.00     0.167 HD
ATOM     61  C   UNL A   1      42.614  31.815  30.730  1.00  0.00     0.074 A 
ATOM     62  C   UNL A   1      42.614  30.669  31.630  1.00  0.00     0.031 C 
ATOM     63  C   UNL A   1      42.788  33.151  30.948  1.00  0.00     0.037 A 
BRANCH  50  64
ATOM     64  C   UNL A   1      41.966  31.674  36.021  1.00  0.00     0.057 A 
ATOM     65  C   UNL A   1      42.831  32.038  37.072  1.00  0.00     0.134 A 
ATOM     66  C   UNL A   1      42.037  30.322  35.631  1.00  0.00     0.134 A 
ATOM     67  F   UNL A   1      42.872  33.300  37.524  1.00  0.00    -0.206 F 
ATOM     68  C   UNL A   1      43.756  31.145  37.629  1.00  0.00     0.040 A 
ATOM     69  C   UNL A   1      42.920  29.410  36.217  1.00  0.00     0.040 A 
ATOM     70  F   UNL A   1      41.339  29.840  34.596  1.00  0.00    -0.206 F 
ATOM     71  C   UNL A   1      43.809  29.827  37.196  1.00  0.00     0.006 A 
ENDBRANCH  50  64
BRANCH  51  72
ATOM     72  C   UNL A   1      39.956  28.559  28.628  1.00  0.00     0.057 A 
ATOM     73  C   UNL A   1      40.567  28.373  27.380  1.00  0.00     0.134 A 
ATOM     74  C   UNL A   1      39.456  27.403  29.250  1.00  0.00     0.134 A 
ATOM     75  F   UNL A   1      41.104  29.411  26.720  1.00  0.00    -0.206 F 
ATOM     76  C   UNL A   1      40.702  27.107  26.798  1.00  0.00     0.040 A 
ATOM     77  C   UNL A   1      39.575  26.133  28.675  1.00  0.00     0.040 A 
ATOM     78  F   UNL A   1      38.912  27.454  30.475  1.00  0.00    -0.206 F 
ATOM     79  C   UNL A   1      40.216  25.980  27.453  1.00  0.00     0.006 A 
ENDBRANCH  51  72
BRANCH  63  80
ATOM     80  C   UNL A   1      42.705  34.069  29.762  1.00  0.00     0.057 A 
ATOM     81  C   UNL A   1      41.542  34.736  29.350  1.00  0.00     0.134 A 
ATOM     82  C   UNL A   1      43.883  34.363  29.064  1.00  0.00     0.134 A 
ATOM     83  F   UNL A   1      40.389  34.604  30.019  1.00  0.00    -0.206 F 
ATOM     84  C   UNL A   1      41.541  35.603  28.253  1.00  0.00     0.040 A 
ATOM     85  C   UNL A   1      43.902  35.258  27.992  1.00  0.00     0.040 A 
ATOM     86  F   UNL A   1      45.048  33.808  29.437  1.00  0.00    -0.206 F 
ATOM     87  C   UNL A   1      42.724  35.867  27.572  1.00  0.00     0.006 A 
ENDBRANCH  63  80
ENDBRANCH  37  38
ENDBRANCH  29  32
ENDBRANCH  27  28
ENDBRANCH  26  27
ENDBRANCH   1  26
TORSDOF 14
ENDMDL
MODEL 3
REMARK VINA RESULT:     -11.8      1.408      2.844
REMARK SMILES Cc1nn(C)c2c1nc(SCC(=O)NCCCCNC(=O)c1ccc(-c3c4nc(c(-c5c(F)cccc5F)c5ccc([nH]5)c(-c5c(F)cccc5F)c5nc(c(-c6c(F)cccc6F)c6ccc3[nH]6)C=C5)C=C4)cc1)n2[C@H]1CC[N@@H+](C)C1
REMARK SMILES IDX 16 1 15 2 14 3 12 4 13 5 11 7 10 8 9 9 1 10 2 11 3 12 7 13
REMARK SMILES IDX 4 14 6 15 8 16 5 17 76 18 77 19 78 20 82 21 79 22 80 23
REMARK SMILES IDX 81 24 17 26 18 27 19 28 20 29 21 31 22 32 23 33 75 34 24 35
REMARK SMILES IDX 74 36 25 37 26 38 27 39 68 40 28 41 73 42 67 43 69 44 29 45
REMARK SMILES IDX 72 46 66 47 65 48 30 50 56 51 39 52 55 53 40 54 43 55 54 56
REMARK SMILES IDX 70 57 41 58 42 59 53 61 71 62 44 63 31 64 32 65 37 66 33 67
REMARK SMILES IDX 34 68 36 69 38 70 35 71 57 72 58 73 63 74 59 75 60 76 62 77
REMARK SMILES IDX 64 78 61 79 45 80 46 81 51 82 47 83 48 84 50 85 52 86 49 87
REMARK H PARENT 14 6 80 25 19 30 69 49 43 60
REMARK Flexibility Score: inf
ROOT
ATOM      1  C   UNL A   1      41.046  21.281  27.325  1.00  0.00     0.023 C 
ENDROOT
BRANCH   1   2
ATOM      2  C   UNL A   1      39.963  22.191  26.732  1.00  0.00     0.116 C 
BRANCH   2   3
ATOM      3  N   UNL A   1      39.054  21.464  25.867  1.00  0.00    -0.355 N 
ATOM      4  C   UNL A   1      37.797  21.745  25.417  1.00  0.00     0.230 C 
ATOM      5  O   UNL A   1      37.292  20.909  24.660  1.00  0.00    -0.274 OA
ATOM      6  H   UNL A   1      39.410  20.606  25.543  1.00  0.00     0.163 HD
BRANCH   4   7
ATOM      7  C   UNL A   1      37.111  23.072  25.666  1.00  0.00     0.178 C 
BRANCH   7   8
ATOM      8  S   UNL A   1      36.161  23.735  24.296  1.00  0.00    -0.078 SA
BRANCH   8   9
ATOM      9  C   UNL A   1      34.593  24.068  24.951  1.00  0.00     0.171 A 
ATOM     10  C   UNL A   1      31.786  27.167  26.653  1.00  0.00     0.071 C 
ATOM     11  C   UNL A   1      31.885  25.724  26.356  1.00  0.00     0.087 A 
ATOM     12  N   UNL A   1      30.873  24.887  26.652  1.00  0.00    -0.174 NA
ATOM     13  C   UNL A   1      32.934  25.003  25.791  1.00  0.00     0.132 A 
ATOM     14  N   UNL A   1      31.314  23.661  26.260  1.00  0.00    -0.250 N 
ATOM     15  C   UNL A   1      32.578  23.697  25.750  1.00  0.00     0.159 A 
ATOM     16  N   UNL A   1      34.163  25.260  25.309  1.00  0.00    -0.219 NA
ATOM     17  C   UNL A   1      30.415  22.552  26.458  1.00  0.00     0.176 C 
ATOM     18  N   UNL A   1      33.661  23.050  25.215  1.00  0.00    -0.295 N 
BRANCH  18  19
ATOM     19  C   UNL A   1      33.855  21.649  24.878  1.00  0.00     0.152 C 
ATOM     20  C   UNL A   1      33.607  20.660  26.037  1.00  0.00     0.093 C 
ATOM     21  C   UNL A   1      33.011  21.057  23.752  1.00  0.00     0.288 C 
ATOM     22  C   UNL A   1      32.797  19.514  25.453  1.00  0.00     0.264 C 
ATOM     23  N   UNL A   1      33.058  19.616  24.018  1.00  0.00    -0.336 N 
ATOM     24  C   UNL A   1      32.076  18.874  23.236  1.00  0.00     0.332 C 
ATOM     25  H   UNL A   1      33.953  19.205  23.752  1.00  0.00     0.347 HD
ENDBRANCH  18  19
ENDBRANCH   8   9
ENDBRANCH   7   8
ENDBRANCH   4   7
ENDBRANCH   2   3
ENDBRANCH   1   2
BRANCH   1  26
ATOM     26  C   UNL A   1      41.490  20.106  26.439  1.00  0.00     0.023 C 
BRANCH  26  27
ATOM     27  C   UNL A   1      42.828  19.479  26.818  1.00  0.00     0.116 C 
BRANCH  27  28
ATOM     28  N   UNL A   1      43.716  19.318  25.672  1.00  0.00    -0.352 N 
ATOM     29  C   UNL A   1      44.217  20.296  24.838  1.00  0.00     0.251 C 
ATOM     30  H   UNL A   1      43.995  18.397  25.469  1.00  0.00     0.163 HD
ATOM     31  O   UNL A   1      44.636  20.013  23.724  1.00  0.00    -0.269 OA
BRANCH  29  32
ATOM     32  C   UNL A   1      44.221  21.699  25.295  1.00  0.00     0.039 A 
ATOM     33  C   UNL A   1      43.338  22.621  24.731  1.00  0.00     0.014 A 
ATOM     34  C   UNL A   1      45.090  22.084  26.313  1.00  0.00     0.014 A 
ATOM     35  C   UNL A   1      43.264  23.904  25.270  1.00  0.00     0.010 A 
ATOM     36  C   UNL A   1      44.947  23.324  26.909  1.00  0.00     0.010 A 
ATOM     37  C   UNL A   1      44.043  24.249  26.389  1.00  0.00    -0.014 A 
BRANCH  37  38
ATOM     38  C   UNL A   1      43.795  25.529  27.068  1.00  0.00     0.031 A 
ATOM     39  C   UNL A   1      44.742  26.637  26.742  1.00  0.00     0.074 A 
ATOM     40  C   UNL A   1      42.696  25.835  27.790  1.00  0.00     0.049 A 
ATOM     41  N   UNL A   1      45.540  27.260  27.548  1.00  0.00    -0.248 NA
ATOM     42  C   UNL A   1      44.854  27.069  25.340  1.00  0.00     0.031 C 
ATOM     43  C   UNL A   1      41.489  25.029  27.991  1.00  0.00     0.029 A 
ATOM     44  N   UNL A   1      42.387  27.009  28.421  1.00  0.00    -0.354 N 
ATOM     45  C   UNL A   1      46.120  28.285  26.805  1.00  0.00     0.074 A 
ATOM     46  C   UNL A   1      45.761  28.044  25.430  1.00  0.00     0.031 C 
ATOM     47  C   UNL A   1      40.505  25.809  28.486  1.00  0.00     0.029 A 
ATOM     48  C   UNL A   1      41.058  27.115  28.798  1.00  0.00     0.049 A 
ATOM     49  H   UNL A   1      43.051  27.717  28.591  1.00  0.00     0.167 HD
ATOM     50  C   UNL A   1      46.673  29.374  27.407  1.00  0.00     0.037 A 
ATOM     51  C   UNL A   1      40.433  28.193  29.325  1.00  0.00     0.037 A 
ATOM     52  C   UNL A   1      46.930  29.140  28.804  1.00  0.00     0.049 A 
ATOM     53  C   UNL A   1      41.462  29.064  29.933  1.00  0.00     0.074 A 
ATOM     54  C   UNL A   1      47.672  28.236  29.537  1.00  0.00     0.029 A 
ATOM     55  N   UNL A   1      46.103  29.758  29.706  1.00  0.00    -0.354 N 
ATOM     56  N   UNL A   1      42.133  28.767  31.011  1.00  0.00    -0.248 NA
ATOM     57  C   UNL A   1      41.987  30.180  29.162  1.00  0.00     0.031 C 
ATOM     58  C   UNL A   1      46.932  28.034  30.742  1.00  0.00     0.029 A 
ATOM     59  C   UNL A   1      45.801  28.850  30.685  1.00  0.00     0.049 A 
ATOM     60  H   UNL A   1      45.783  30.688  29.659  1.00  0.00     0.167 HD
ATOM     61  C   UNL A   1      43.375  29.342  30.813  1.00  0.00     0.074 A 
ATOM     62  C   UNL A   1      43.169  30.329  29.762  1.00  0.00     0.031 C 
ATOM     63  C   UNL A   1      44.503  28.754  31.311  1.00  0.00     0.037 A 
BRANCH  50  64
ATOM     64  C   UNL A   1      46.631  30.778  26.841  1.00  0.00     0.057 A 
ATOM     65  C   UNL A   1      47.800  31.564  26.860  1.00  0.00     0.134 A 
ATOM     66  C   UNL A   1      45.440  31.486  26.589  1.00  0.00     0.134 A 
ATOM     67  F   UNL A   1      48.997  31.013  27.107  1.00  0.00    -0.206 F 
ATOM     68  C   UNL A   1      47.772  32.958  26.723  1.00  0.00     0.040 A 
ATOM     69  C   UNL A   1      45.407  32.871  26.399  1.00  0.00     0.040 A 
ATOM     70  F   UNL A   1      44.239  30.897  26.619  1.00  0.00    -0.206 F 
ATOM     71  C   UNL A   1      46.571  33.618  26.500  1.00  0.00     0.006 A 
ENDBRANCH  50  64
BRANCH  51  72
ATOM     72  C   UNL A   1      39.016  28.601  29.222  1.00  0.00     0.057 A 
ATOM     73  C   UNL A   1      38.176  28.603  30.345  1.00  0.00     0.134 A 
ATOM     74  C   UNL A   1      38.520  29.249  28.078  1.00  0.00     0.134 A 
ATOM     75  F   UNL A   1      38.572  28.038  31.496  1.00  0.00    -0.206 F 
ATOM     76  C   UNL A   1      36.930  29.241  30.342  1.00  0.00     0.040 A 
ATOM     77  C   UNL A   1      37.273  29.881  28.058  1.00  0.00     0.040 A 
ATOM     78  F   UNL A   1      39.266  29.364  26.969  1.00  0.00    -0.206 F 
ATOM     79  C   UNL A   1      36.481  29.894  29.199  1.00  0.00     0.006 A 
ENDBRANCH  51  72
BRANCH  63  80
ATOM     80  C   UNL A   1      44.338  27.742  32.408  1.00  0.00     0.057 A 
ATOM     81  C   UNL A   1      44.211  28.054  33.769  1.00  0.00     0.134 A 
ATOM     82  C   UNL A   1      44.206  26.393  32.054  1.00  0.00     0.134 A 
ATOM     83  F   UNL A   1      44.217  29.324  34.196  1.00  0.00    -0.206 F 
ATOM     84  C   UNL A   1      44.028  27.062  34.737  1.00  0.00     0.040 A 
ATOM     85  C   UNL A   1      43.983  25.398  33.007  1.00  0.00     0.040 A 
ATOM     86  F   UNL A   1      44.257  26.024  30.763  1.00  0.00    -0.206 F 
ATOM     87  C   UNL A   1      43.912  25.729  34.357  1.00  0.00     0.006 A 
ENDBRANCH  63  80
ENDBRANCH  37  38
ENDBRANCH  29  32
ENDBRANCH  27  28
ENDBRANCH  26  27
ENDBRANCH   1  26
TORSDOF 14
ENDMDL
