MODEL 1
REMARK VINA RESULT:     -10.0      0.000      0.000
REMARK SMILES O=C(COC1CC[NH+](Cc2nccs2)CC1)NCCCCNC(=O)c1ccc(-c2c3nc(c(-c4c(F)cccc4F)c4ccc([nH]4)c(-c4c(F)cccc4F)c4nc(c(-c5c(F)cccc5F)c5ccc2[nH]5)C=C4)C=C3)cc1
REMARK SMILES IDX 18 1 17 2 1 3 2 4 3 6 4 7 5 8 6 9 16 10 7 11 15 12 8 13 9 15
REMARK SMILES IDX 10 16 11 17 14 18 12 19 13 20 19 21 20 22 21 23 22 24 23 25
REMARK SMILES IDX 24 27 25 28 26 29 78 30 27 31 77 32 28 33 29 34 30 35 71 36
REMARK SMILES IDX 31 37 76 38 70 39 72 40 32 41 75 42 69 43 68 44 33 46 59 47
REMARK SMILES IDX 42 48 58 49 43 50 46 51 57 52 73 53 44 54 45 55 56 57 74 58
REMARK SMILES IDX 47 59 34 60 35 61 40 62 36 63 37 64 39 65 41 66 38 67 60 68
REMARK SMILES IDX 61 69 66 70 62 71 63 72 65 73 67 74 64 75 48 76 49 77 54 78
REMARK SMILES IDX 50 79 51 80 53 81 55 82 52 83
REMARK H PARENT 17 5 8 14 22 26 72 45 46 56
REMARK Flexibility Score: inf
ROOT
ATOM      1  C   UNL A   1      37.435  22.185  25.583  1.00  0.00     0.116 C 
ENDROOT
BRANCH   1   2
ATOM      2  N   UNL A   1      36.296  22.808  26.248  1.00  0.00    -0.354 N 
ATOM      3  O   UNL A   1      35.769  24.143  24.452  1.00  0.00    -0.272 OA
ATOM      4  C   UNL A   1      35.466  23.689  25.557  1.00  0.00     0.246 C 
ATOM      5  H   UNL A   1      36.113  22.606  27.195  1.00  0.00     0.163 HD
BRANCH   4   6
ATOM      6  C   UNL A   1      34.117  24.069  26.232  1.00  0.00     0.260 C 
BRANCH   6   7
ATOM      7  O   UNL A   1      33.330  25.069  25.607  1.00  0.00    -0.368 OA
BRANCH   7   8
ATOM      8  C   UNL A   1      33.077  26.286  26.330  1.00  0.00     0.130 C 
ATOM      9  C   UNL A   1      31.547  26.549  26.312  1.00  0.00     0.093 C 
ATOM     10  C   UNL A   1      33.762  27.524  25.742  1.00  0.00     0.093 C 
ATOM     11  C   UNL A   1      31.050  27.139  24.979  1.00  0.00     0.265 C 
ATOM     12  C   UNL A   1      33.337  27.755  24.286  1.00  0.00     0.265 C 
ATOM     13  N   UNL A   1      32.096  27.065  24.000  1.00  0.00    -0.329 N 
ATOM     14  H   UNL A   1      32.350  26.089  24.155  1.00  0.00     0.348 HD
BRANCH  13  15
ATOM     15  C   UNL A   1      31.869  26.474  22.705  1.00  0.00     0.331 C 
BRANCH  15  16
ATOM     16  C   UNL A   1      32.134  24.976  22.580  1.00  0.00     0.147 A 
ATOM     17  N   UNL A   1      33.230  24.460  22.053  1.00  0.00    -0.244 NA
ATOM     18  S   UNL A   1      31.089  23.802  23.295  1.00  0.00    -0.122 S 
ATOM     19  C   UNL A   1      33.248  23.087  22.239  1.00  0.00     0.123 A 
ATOM     20  C   UNL A   1      32.192  22.560  22.940  1.00  0.00     0.087 A 
ENDBRANCH  15  16
ENDBRANCH  13  15
ENDBRANCH   7   8
ENDBRANCH   6   7
ENDBRANCH   4   6
ENDBRANCH   1   2
BRANCH   1  21
ATOM     21  C   UNL A   1      37.198  20.943  24.697  1.00  0.00     0.023 C 
BRANCH  21  22
ATOM     22  C   UNL A   1      38.177  19.756  24.705  1.00  0.00     0.023 C 
BRANCH  22  23
ATOM     23  C   UNL A   1      38.987  19.470  25.978  1.00  0.00     0.116 C 
BRANCH  23  24
ATOM     24  N   UNL A   1      40.301  18.889  25.772  1.00  0.00    -0.352 N 
ATOM     25  C   UNL A   1      41.566  19.370  26.016  1.00  0.00     0.251 C 
ATOM     26  H   UNL A   1      40.283  17.983  25.386  1.00  0.00     0.163 HD
ATOM     27  O   UNL A   1      42.523  18.616  25.798  1.00  0.00    -0.269 OA
BRANCH  25  28
ATOM     28  C   UNL A   1      41.866  20.758  26.467  1.00  0.00     0.039 A 
ATOM     29  C   UNL A   1      41.660  21.049  27.824  1.00  0.00     0.014 A 
ATOM     30  C   UNL A   1      42.219  21.806  25.613  1.00  0.00     0.014 A 
ATOM     31  C   UNL A   1      41.876  22.340  28.331  1.00  0.00     0.010 A 
ATOM     32  C   UNL A   1      42.470  23.096  26.130  1.00  0.00     0.010 A 
ATOM     33  C   UNL A   1      42.321  23.378  27.498  1.00  0.00    -0.014 A 
BRANCH  33  34
ATOM     34  C   UNL A   1      42.661  24.718  28.075  1.00  0.00     0.031 A 
ATOM     35  C   UNL A   1      41.613  25.782  28.295  1.00  0.00     0.074 A 
ATOM     36  C   UNL A   1      43.939  24.999  28.412  1.00  0.00     0.049 A 
ATOM     37  N   UNL A   1      41.747  26.981  28.813  1.00  0.00    -0.248 NA
ATOM     38  C   UNL A   1      40.243  25.463  27.875  1.00  0.00     0.031 C 
ATOM     39  C   UNL A   1      45.073  24.090  28.243  1.00  0.00     0.029 A 
ATOM     40  N   UNL A   1      44.500  26.125  28.971  1.00  0.00    -0.354 N 
ATOM     41  C   UNL A   1      40.482  27.560  28.778  1.00  0.00     0.074 A 
ATOM     42  C   UNL A   1      39.604  26.593  28.152  1.00  0.00     0.031 C 
ATOM     43  C   UNL A   1      46.184  24.682  28.710  1.00  0.00     0.029 A 
ATOM     44  C   UNL A   1      45.855  26.024  29.182  1.00  0.00     0.049 A 
ATOM     45  H   UNL A   1      43.978  26.929  29.200  1.00  0.00     0.167 HD
ATOM     46  C   UNL A   1      40.081  28.773  29.239  1.00  0.00     0.037 A 
ATOM     47  C   UNL A   1      46.741  26.904  29.691  1.00  0.00     0.037 A 
ATOM     48  C   UNL A   1      40.938  29.742  29.876  1.00  0.00     0.049 A 
ATOM     49  C   UNL A   1      46.277  28.255  30.161  1.00  0.00     0.074 A 
ATOM     50  C   UNL A   1      40.593  30.970  30.422  1.00  0.00     0.029 A 
ATOM     51  N   UNL A   1      42.307  29.607  30.047  1.00  0.00    -0.354 N 
ATOM     52  N   UNL A   1      45.066  28.753  30.184  1.00  0.00    -0.248 NA
ATOM     53  C   UNL A   1      47.308  29.168  30.683  1.00  0.00     0.031 C 
ATOM     54  C   UNL A   1      41.759  31.598  30.874  1.00  0.00     0.029 A 
ATOM     55  C   UNL A   1      42.824  30.739  30.659  1.00  0.00     0.049 A 
ATOM     56  H   UNL A   1      42.834  28.821  29.774  1.00  0.00     0.167 HD
ATOM     57  C   UNL A   1      45.184  30.018  30.748  1.00  0.00     0.074 A 
ATOM     58  C   UNL A   1      46.582  30.210  31.064  1.00  0.00     0.031 C 
ATOM     59  C   UNL A   1      44.214  30.936  30.981  1.00  0.00     0.037 A 
BRANCH  46  60
ATOM     60  C   UNL A   1      38.632  29.136  29.069  1.00  0.00     0.057 A 
ATOM     61  C   UNL A   1      37.724  29.061  30.132  1.00  0.00     0.134 A 
ATOM     62  C   UNL A   1      38.157  29.628  27.847  1.00  0.00     0.134 A 
ATOM     63  F   UNL A   1      38.114  28.599  31.330  1.00  0.00    -0.206 F 
ATOM     64  C   UNL A   1      36.388  29.439  29.979  1.00  0.00     0.040 A 
ATOM     65  C   UNL A   1      36.830  30.033  27.688  1.00  0.00     0.040 A 
ATOM     66  F   UNL A   1      38.978  29.743  26.791  1.00  0.00    -0.206 F 
ATOM     67  C   UNL A   1      35.939  29.933  28.755  1.00  0.00     0.006 A 
ENDBRANCH  46  60
BRANCH  47  68
ATOM     68  C   UNL A   1      48.176  26.535  29.797  1.00  0.00     0.057 A 
ATOM     69  C   UNL A   1      49.083  26.849  28.778  1.00  0.00     0.134 A 
ATOM     70  C   UNL A   1      48.670  25.837  30.906  1.00  0.00     0.134 A 
ATOM     71  F   UNL A   1      48.665  27.492  27.677  1.00  0.00    -0.206 F 
ATOM     72  C   UNL A   1      50.424  26.469  28.847  1.00  0.00     0.040 A 
ATOM     73  C   UNL A   1      50.014  25.473  31.001  1.00  0.00     0.040 A 
ATOM     74  F   UNL A   1      47.853  25.507  31.917  1.00  0.00    -0.206 F 
ATOM     75  C   UNL A   1      50.893  25.782  29.965  1.00  0.00     0.006 A 
ENDBRANCH  47  68
BRANCH  59  76
ATOM     76  C   UNL A   1      44.619  32.222  31.643  1.00  0.00     0.057 A 
ATOM     77  C   UNL A   1      44.982  33.355  30.903  1.00  0.00     0.134 A 
ATOM     78  C   UNL A   1      44.617  32.339  33.039  1.00  0.00     0.134 A 
ATOM     79  F   UNL A   1      45.020  33.309  29.563  1.00  0.00    -0.206 F 
ATOM     80  C   UNL A   1      45.349  34.550  31.528  1.00  0.00     0.040 A 
ATOM     81  C   UNL A   1      44.957  33.536  33.674  1.00  0.00     0.040 A 
ATOM     82  F   UNL A   1      44.274  31.296  33.810  1.00  0.00    -0.206 F 
ATOM     83  C   UNL A   1      45.330  34.644  32.918  1.00  0.00     0.006 A 
ENDBRANCH  59  76
ENDBRANCH  33  34
ENDBRANCH  25  28
ENDBRANCH  23  24
ENDBRANCH  22  23
ENDBRANCH  21  22
ENDBRANCH   1  21
TORSDOF 15
ENDMDL
MODEL 2
REMARK VINA RESULT:      -9.9      1.388      2.375
REMARK SMILES O=C(COC1CC[NH+](Cc2nccs2)CC1)NCCCCNC(=O)c1ccc(-c2c3nc(c(-c4c(F)cccc4F)c4ccc([nH]4)c(-c4c(F)cccc4F)c4nc(c(-c5c(F)cccc5F)c5ccc2[nH]5)C=C4)C=C3)cc1
REMARK SMILES IDX 18 1 17 2 1 3 2 4 3 6 4 7 5 8 6 9 16 10 7 11 15 12 8 13 9 15
REMARK SMILES IDX 10 16 11 17 14 18 12 19 13 20 19 21 20 22 21 23 22 24 23 25
REMARK SMILES IDX 24 27 25 28 26 29 78 30 27 31 77 32 28 33 29 34 30 35 71 36
REMARK SMILES IDX 31 37 76 38 70 39 72 40 32 41 75 42 69 43 68 44 33 46 59 47
REMARK SMILES IDX 42 48 58 49 43 50 46 51 57 52 73 53 44 54 45 55 56 57 74 58
REMARK SMILES IDX 47 59 34 60 35 61 40 62 36 63 37 64 39 65 41 66 38 67 60 68
REMARK SMILES IDX 61 69 66 70 62 71 63 72 65 73 67 74 64 75 48 76 49 77 54 78
REMARK SMILES IDX 50 79 51 80 53 81 55 82 52 83
REMARK H PARENT 17 5 8 14 22 26 72 45 46 56
REMARK Flexibility Score: inf
ROOT
ATOM      1  C   UNL A   1      36.971  22.600  24.380  1.00  0.00     0.116 C 
ENDROOT
BRANCH   1   2
ATOM      2  N   UNL A   1      35.879  23.531  24.641  1.00  0.00    -0.354 N 
ATOM      3  O   UNL A   1      34.972  23.310  22.540  1.00  0.00    -0.272 OA
ATOM      4  C   UNL A   1      34.874  23.728  23.694  1.00  0.00     0.246 C 
ATOM      5  H   UNL A   1      35.851  24.025  25.492  1.00  0.00     0.163 HD
BRANCH   4   6
ATOM      6  C   UNL A   1      33.601  24.491  24.161  1.00  0.00     0.260 C 
BRANCH   6   7
ATOM      7  O   UNL A   1      33.683  25.902  24.265  1.00  0.00    -0.368 OA
BRANCH   7   8
ATOM      8  C   UNL A   1      33.493  26.501  25.559  1.00  0.00     0.130 C 
ATOM      9  C   UNL A   1      32.113  26.043  26.104  1.00  0.00     0.093 C 
ATOM     10  C   UNL A   1      33.497  28.033  25.552  1.00  0.00     0.093 C 
ATOM     11  C   UNL A   1      30.931  26.810  25.482  1.00  0.00     0.265 C 
ATOM     12  C   UNL A   1      32.411  28.589  24.622  1.00  0.00     0.265 C 
ATOM     13  N   UNL A   1      31.395  27.588  24.369  1.00  0.00    -0.329 N 
ATOM     14  H   UNL A   1      31.927  26.849  23.908  1.00  0.00     0.348 HD
BRANCH  13  15
ATOM     15  C   UNL A   1      30.757  27.501  23.079  1.00  0.00     0.331 C 
BRANCH  15  16
ATOM     16  C   UNL A   1      29.438  28.251  22.916  1.00  0.00     0.147 A 
ATOM     17  N   UNL A   1      28.262  27.770  23.281  1.00  0.00    -0.244 NA
ATOM     18  S   UNL A   1      29.382  29.898  22.400  1.00  0.00    -0.122 S 
ATOM     19  C   UNL A   1      27.288  28.747  23.164  1.00  0.00     0.123 A 
ATOM     20  C   UNL A   1      27.721  29.983  22.749  1.00  0.00     0.087 A 
ENDBRANCH  15  16
ENDBRANCH  13  15
ENDBRANCH   7   8
ENDBRANCH   6   7
ENDBRANCH   4   6
ENDBRANCH   1   2
BRANCH   1  21
ATOM     21  C   UNL A   1      36.768  21.101  24.687  1.00  0.00     0.023 C 
BRANCH  21  22
ATOM     22  C   UNL A   1      37.937  20.103  24.612  1.00  0.00     0.023 C 
BRANCH  22  23
ATOM     23  C   UNL A   1      38.690  19.744  25.900  1.00  0.00     0.116 C 
BRANCH  23  24
ATOM     24  N   UNL A   1      39.961  19.066  25.720  1.00  0.00    -0.352 N 
ATOM     25  C   UNL A   1      41.244  19.412  26.076  1.00  0.00     0.251 C 
ATOM     26  H   UNL A   1      39.893  18.200  25.257  1.00  0.00     0.163 HD
ATOM     27  O   UNL A   1      42.147  18.595  25.849  1.00  0.00    -0.269 OA
BRANCH  25  28
ATOM     28  C   UNL A   1      41.630  20.726  26.662  1.00  0.00     0.039 A 
ATOM     29  C   UNL A   1      42.124  21.699  25.781  1.00  0.00     0.014 A 
ATOM     30  C   UNL A   1      41.644  21.007  28.030  1.00  0.00     0.014 A 
ATOM     31  C   UNL A   1      42.552  22.952  26.248  1.00  0.00     0.010 A 
ATOM     32  C   UNL A   1      42.040  22.280  28.495  1.00  0.00     0.010 A 
ATOM     33  C   UNL A   1      42.482  23.278  27.611  1.00  0.00    -0.014 A 
BRANCH  33  34
ATOM     34  C   UNL A   1      42.829  24.658  28.078  1.00  0.00     0.031 A 
ATOM     35  C   UNL A   1      41.776  25.719  28.288  1.00  0.00     0.074 A 
ATOM     36  C   UNL A   1      44.119  24.979  28.320  1.00  0.00     0.049 A 
ATOM     37  N   UNL A   1      41.917  26.952  28.717  1.00  0.00    -0.248 NA
ATOM     38  C   UNL A   1      40.390  25.353  27.971  1.00  0.00     0.031 C 
ATOM     39  C   UNL A   1      45.258  24.078  28.144  1.00  0.00     0.029 A 
ATOM     40  N   UNL A   1      44.690  26.148  28.769  1.00  0.00    -0.354 N 
ATOM     41  C   UNL A   1      40.642  27.508  28.718  1.00  0.00     0.074 A 
ATOM     42  C   UNL A   1      39.748  26.489  28.210  1.00  0.00     0.031 C 
ATOM     43  C   UNL A   1      46.383  24.715  28.506  1.00  0.00     0.029 A 
ATOM     44  C   UNL A   1      46.056  26.081  28.907  1.00  0.00     0.049 A 
ATOM     45  H   UNL A   1      44.168  26.958  28.975  1.00  0.00     0.167 HD
ATOM     46  C   UNL A   1      40.246  28.743  29.121  1.00  0.00     0.037 A 
ATOM     47  C   UNL A   1      46.954  27.006  29.304  1.00  0.00     0.037 A 
ATOM     48  C   UNL A   1      41.120  29.766  29.642  1.00  0.00     0.049 A 
ATOM     49  C   UNL A   1      46.493  28.379  29.711  1.00  0.00     0.074 A 
ATOM     50  C   UNL A   1      40.785  31.022  30.125  1.00  0.00     0.029 A 
ATOM     51  N   UNL A   1      42.498  29.662  29.741  1.00  0.00    -0.354 N 
ATOM     52  N   UNL A   1      45.276  28.859  29.772  1.00  0.00    -0.248 NA
ATOM     53  C   UNL A   1      47.535  29.339  30.110  1.00  0.00     0.031 C 
ATOM     54  C   UNL A   1      41.963  31.695  30.466  1.00  0.00     0.029 A 
ATOM     55  C   UNL A   1      43.029  30.840  30.246  1.00  0.00     0.049 A 
ATOM     56  H   UNL A   1      43.024  28.867  29.490  1.00  0.00     0.167 HD
ATOM     57  C   UNL A   1      45.403  30.161  30.244  1.00  0.00     0.074 A 
ATOM     58  C   UNL A   1      46.814  30.394  30.464  1.00  0.00     0.031 C 
ATOM     59  C   UNL A   1      44.431  31.077  30.473  1.00  0.00     0.037 A 
BRANCH  46  60
ATOM     60  C   UNL A   1      38.783  29.073  29.013  1.00  0.00     0.057 A 
ATOM     61  C   UNL A   1      37.921  28.971  30.111  1.00  0.00     0.134 A 
ATOM     62  C   UNL A   1      38.247  29.560  27.814  1.00  0.00     0.134 A 
ATOM     63  F   UNL A   1      38.371  28.511  31.289  1.00  0.00    -0.206 F 
ATOM     64  C   UNL A   1      36.571  29.318  30.015  1.00  0.00     0.040 A 
ATOM     65  C   UNL A   1      36.906  29.936  27.712  1.00  0.00     0.040 A 
ATOM     66  F   UNL A   1      39.021  29.701  26.727  1.00  0.00    -0.206 F 
ATOM     67  C   UNL A   1      36.062  29.808  28.814  1.00  0.00     0.006 A 
ENDBRANCH  46  60
BRANCH  47  68
ATOM     68  C   UNL A   1      48.400  26.666  29.350  1.00  0.00     0.057 A 
ATOM     69  C   UNL A   1      48.992  26.174  30.519  1.00  0.00     0.134 A 
ATOM     70  C   UNL A   1      49.228  26.849  28.236  1.00  0.00     0.134 A 
ATOM     71  F   UNL A   1      48.256  26.003  31.627  1.00  0.00    -0.206 F 
ATOM     72  C   UNL A   1      50.357  25.893  30.586  1.00  0.00     0.040 A 
ATOM     73  C   UNL A   1      50.590  26.548  28.280  1.00  0.00     0.040 A 
ATOM     74  F   UNL A   1      48.722  27.316  27.085  1.00  0.00    -0.206 F 
ATOM     75  C   UNL A   1      51.159  26.075  29.461  1.00  0.00     0.006 A 
ENDBRANCH  47  68
BRANCH  59  76
ATOM     76  C   UNL A   1      44.850  32.411  31.024  1.00  0.00     0.057 A 
ATOM     77  C   UNL A   1      44.958  32.644  32.401  1.00  0.00     0.134 A 
ATOM     78  C   UNL A   1      45.182  33.467  30.165  1.00  0.00     0.134 A 
ATOM     79  F   UNL A   1      44.644  31.681  33.280  1.00  0.00    -0.206 F 
ATOM     80  C   UNL A   1      45.359  33.885  32.903  1.00  0.00     0.040 A 
ATOM     81  C   UNL A   1      45.607  34.704  30.654  1.00  0.00     0.040 A 
ATOM     82  F   UNL A   1      45.106  33.312  28.834  1.00  0.00    -0.206 F 
ATOM     83  C   UNL A   1      45.691  34.917  32.028  1.00  0.00     0.006 A 
ENDBRANCH  59  76
ENDBRANCH  33  34
ENDBRANCH  25  28
ENDBRANCH  23  24
ENDBRANCH  22  23
ENDBRANCH  21  22
ENDBRANCH   1  21
TORSDOF 15
ENDMDL
MODEL 3
REMARK VINA RESULT:      -9.9      4.069      8.761
REMARK SMILES O=C(COC1CC[NH+](Cc2nccs2)CC1)NCCCCNC(=O)c1ccc(-c2c3nc(c(-c4c(F)cccc4F)c4ccc([nH]4)c(-c4c(F)cccc4F)c4nc(c(-c5c(F)cccc5F)c5ccc2[nH]5)C=C4)C=C3)cc1
REMARK SMILES IDX 18 1 17 2 1 3 2 4 3 6 4 7 5 8 6 9 16 10 7 11 15 12 8 13 9 15
REMARK SMILES IDX 10 16 11 17 14 18 12 19 13 20 19 21 20 22 21 23 22 24 23 25
REMARK SMILES IDX 24 27 25 28 26 29 78 30 27 31 77 32 28 33 29 34 30 35 71 36
REMARK SMILES IDX 31 37 76 38 70 39 72 40 32 41 75 42 69 43 68 44 33 46 59 47
REMARK SMILES IDX 42 48 58 49 43 50 46 51 57 52 73 53 44 54 45 55 56 57 74 58
REMARK SMILES IDX 47 59 34 60 35 61 40 62 36 63 37 64 39 65 41 66 38 67 60 68
REMARK SMILES IDX 61 69 66 70 62 71 63 72 65 73 67 74 64 75 48 76 49 77 54 78
REMARK SMILES IDX 50 79 51 80 53 81 55 82 52 83
REMARK H PARENT 17 5 8 14 22 26 72 45 46 56
REMARK Flexibility Score: inf
ROOT
ATOM      1  C   UNL A   1      31.800  29.499  26.065  1.00  0.00     0.116 C 
ENDROOT
BRANCH   1   2
ATOM      2  N   UNL A   1      32.487  28.570  25.175  1.00  0.00    -0.354 N 
ATOM      3  O   UNL A   1      34.020  27.926  26.763  1.00  0.00    -0.272 OA
ATOM      4  C   UNL A   1      33.510  27.753  25.656  1.00  0.00     0.246 C 
ATOM      5  H   UNL A   1      32.227  28.519  24.227  1.00  0.00     0.163 HD
BRANCH   4   6
ATOM      6  C   UNL A   1      33.978  26.589  24.736  1.00  0.00     0.260 C 
BRANCH   6   7
ATOM      7  O   UNL A   1      33.961  25.279  25.277  1.00  0.00    -0.368 OA
BRANCH   7   8
ATOM      8  C   UNL A   1      35.052  24.397  24.960  1.00  0.00     0.130 C 
ATOM      9  C   UNL A   1      34.670  23.596  23.686  1.00  0.00     0.093 C 
ATOM     10  C   UNL A   1      35.382  23.381  26.059  1.00  0.00     0.093 C 
ATOM     11  C   UNL A   1      33.702  22.433  23.970  1.00  0.00     0.265 C 
ATOM     12  C   UNL A   1      34.165  22.508  26.393  1.00  0.00     0.265 C 
ATOM     13  N   UNL A   1      33.203  22.538  25.311  1.00  0.00    -0.329 N 
ATOM     14  H   UNL A   1      32.946  23.525  25.277  1.00  0.00     0.348 HD
BRANCH  13  15
ATOM     15  C   UNL A   1      31.789  22.501  25.588  1.00  0.00     0.331 C 
BRANCH  15  16
ATOM     16  C   UNL A   1      31.033  23.821  25.466  1.00  0.00     0.147 A 
ATOM     17  N   UNL A   1      30.738  24.603  26.490  1.00  0.00    -0.244 NA
ATOM     18  S   UNL A   1      30.648  24.514  23.931  1.00  0.00    -0.122 S 
ATOM     19  C   UNL A   1      30.205  25.800  26.039  1.00  0.00     0.123 A 
ATOM     20  C   UNL A   1      30.129  25.950  24.676  1.00  0.00     0.087 A 
ENDBRANCH  15  16
ENDBRANCH  13  15
ENDBRANCH   7   8
ENDBRANCH   6   7
ENDBRANCH   4   6
ENDBRANCH   1   2
BRANCH   1  21
ATOM     21  C   UNL A   1      31.020  30.683  25.455  1.00  0.00     0.023 C 
BRANCH  21  22
ATOM     22  C   UNL A   1      31.015  32.069  26.125  1.00  0.00     0.023 C 
BRANCH  22  23
ATOM     23  C   UNL A   1      32.270  32.533  26.879  1.00  0.00     0.116 C 
BRANCH  23  24
ATOM     24  N   UNL A   1      32.171  33.827  27.530  1.00  0.00    -0.352 N 
ATOM     25  C   UNL A   1      33.016  34.487  28.392  1.00  0.00     0.251 C 
ATOM     26  H   UNL A   1      31.350  34.324  27.313  1.00  0.00     0.163 HD
ATOM     27  O   UNL A   1      32.701  35.631  28.747  1.00  0.00    -0.269 OA
BRANCH  25  28
ATOM     28  C   UNL A   1      34.251  33.895  28.978  1.00  0.00     0.039 A 
ATOM     29  C   UNL A   1      34.086  32.864  29.915  1.00  0.00     0.014 A 
ATOM     30  C   UNL A   1      35.542  34.375  28.747  1.00  0.00     0.014 A 
ATOM     31  C   UNL A   1      35.190  32.276  30.550  1.00  0.00     0.010 A 
ATOM     32  C   UNL A   1      36.655  33.759  29.359  1.00  0.00     0.010 A 
ATOM     33  C   UNL A   1      36.498  32.688  30.255  1.00  0.00    -0.014 A 
BRANCH  33  34
ATOM     34  C   UNL A   1      37.671  31.971  30.850  1.00  0.00     0.031 A 
ATOM     35  C   UNL A   1      38.174  32.279  32.240  1.00  0.00     0.074 A 
ATOM     36  C   UNL A   1      38.309  31.019  30.135  1.00  0.00     0.049 A 
ATOM     37  N   UNL A   1      39.159  31.723  32.905  1.00  0.00    -0.248 NA
ATOM     38  C   UNL A   1      37.488  33.350  32.973  1.00  0.00     0.031 C 
ATOM     39  C   UNL A   1      37.963  30.619  28.770  1.00  0.00     0.029 A 
ATOM     40  N   UNL A   1      39.378  30.213  30.454  1.00  0.00    -0.354 N 
ATOM     41  C   UNL A   1      39.214  32.377  34.132  1.00  0.00     0.074 A 
ATOM     42  C   UNL A   1      38.187  33.398  34.100  1.00  0.00     0.031 C 
ATOM     43  C   UNL A   1      38.784  29.629  28.382  1.00  0.00     0.029 A 
ATOM     44  C   UNL A   1      39.737  29.344  29.451  1.00  0.00     0.049 A 
ATOM     45  H   UNL A   1      39.842  30.254  31.322  1.00  0.00     0.167 HD
ATOM     46  C   UNL A   1      40.029  32.143  35.193  1.00  0.00     0.037 A 
ATOM     47  C   UNL A   1      40.720  28.423  29.385  1.00  0.00     0.037 A 
ATOM     48  C   UNL A   1      41.048  31.123  35.248  1.00  0.00     0.049 A 
ATOM     49  C   UNL A   1      41.632  28.207  30.562  1.00  0.00     0.074 A 
ATOM     50  C   UNL A   1      41.873  30.786  36.309  1.00  0.00     0.029 A 
ATOM     51  N   UNL A   1      41.391  30.283  34.200  1.00  0.00    -0.354 N 
ATOM     52  N   UNL A   1      41.619  28.787  31.736  1.00  0.00    -0.248 NA
ATOM     53  C   UNL A   1      42.694  27.200  30.405  1.00  0.00     0.031 C 
ATOM     54  C   UNL A   1      42.750  29.781  35.888  1.00  0.00     0.029 A 
ATOM     55  C   UNL A   1      42.436  29.453  34.580  1.00  0.00     0.049 A 
ATOM     56  H   UNL A   1      40.957  30.276  33.316  1.00  0.00     0.167 HD
ATOM     57  C   UNL A   1      42.646  28.198  32.464  1.00  0.00     0.074 A 
ATOM     58  C   UNL A   1      43.256  27.205  31.606  1.00  0.00     0.031 C 
ATOM     59  C   UNL A   1      43.044  28.460  33.733  1.00  0.00     0.037 A 
BRANCH  46  60
ATOM     60  C   UNL A   1      39.858  33.015  36.405  1.00  0.00     0.057 A 
ATOM     61  C   UNL A   1      38.937  32.705  37.414  1.00  0.00     0.134 A 
ATOM     62  C   UNL A   1      40.670  34.140  36.597  1.00  0.00     0.134 A 
ATOM     63  F   UNL A   1      38.129  31.640  37.293  1.00  0.00    -0.206 F 
ATOM     64  C   UNL A   1      38.811  33.497  38.558  1.00  0.00     0.040 A 
ATOM     65  C   UNL A   1      40.572  34.925  37.748  1.00  0.00     0.040 A 
ATOM     66  F   UNL A   1      41.586  34.485  35.679  1.00  0.00    -0.206 F 
ATOM     67  C   UNL A   1      39.636  34.608  38.730  1.00  0.00     0.006 A 
ENDBRANCH  46  60
BRANCH  47  68
ATOM     68  C   UNL A   1      40.897  27.612  28.152  1.00  0.00     0.057 A 
ATOM     69  C   UNL A   1      41.684  28.071  27.090  1.00  0.00     0.134 A 
ATOM     70  C   UNL A   1      40.262  26.373  27.996  1.00  0.00     0.134 A 
ATOM     71  F   UNL A   1      42.294  29.263  27.168  1.00  0.00    -0.206 F 
ATOM     72  C   UNL A   1      41.821  27.338  25.910  1.00  0.00     0.040 A 
ATOM     73  C   UNL A   1      40.411  25.618  26.833  1.00  0.00     0.040 A 
ATOM     74  F   UNL A   1      39.495  25.878  28.978  1.00  0.00    -0.206 F 
ATOM     75  C   UNL A   1      41.187  26.104  25.782  1.00  0.00     0.006 A 
ENDBRANCH  47  68
BRANCH  59  76
ATOM     76  C   UNL A   1      44.171  27.638  34.291  1.00  0.00     0.057 A 
ATOM     77  C   UNL A   1      43.954  26.391  34.892  1.00  0.00     0.134 A 
ATOM     78  C   UNL A   1      45.496  28.084  34.196  1.00  0.00     0.134 A 
ATOM     79  F   UNL A   1      42.710  25.909  35.028  1.00  0.00    -0.206 F 
ATOM     80  C   UNL A   1      45.011  25.630  35.399  1.00  0.00     0.040 A 
ATOM     81  C   UNL A   1      46.562  27.321  34.677  1.00  0.00     0.040 A 
ATOM     82  F   UNL A   1      45.777  29.267  33.627  1.00  0.00    -0.206 F 
ATOM     83  C   UNL A   1      46.320  26.092  35.285  1.00  0.00     0.006 A 
ENDBRANCH  59  76
ENDBRANCH  33  34
ENDBRANCH  25  28
ENDBRANCH  23  24
ENDBRANCH  22  23
ENDBRANCH  21  22
ENDBRANCH   1  21
TORSDOF 15
ENDMDL
