MODEL 1
REMARK VINA RESULT:     -12.3      0.000      0.000
REMARK SMILES CC1=C2C(CSc3c(Cl)cccc3Cl)=CC(=O)N=C2S[C@H]1C(=O)NCCCCNC(=O)c1ccc(-c2c3nc(c(-c4c(F)cccc4F)c4ccc([nH]4)c(-c4c(F)cccc4F)c4nc(c(-c5c(F)cccc5F)c5ccc2[nH]5)C=C4)C=C3)cc1
REMARK SMILES IDX 26 1 25 2 24 3 22 4 23 5 21 7 1 8 2 9 3 10 4 11 19 12 20 13
REMARK SMILES IDX 15 14 18 15 16 16 17 17 5 18 6 19 7 20 8 21 13 22 9 23 10 24
REMARK SMILES IDX 12 25 14 26 11 27 27 28 28 29 29 30 30 31 31 33 32 34 33 35
REMARK SMILES IDX 85 36 34 37 84 38 35 39 36 40 37 41 78 42 38 43 83 44 77 45
REMARK SMILES IDX 79 46 39 47 82 48 76 49 75 50 40 52 66 53 49 54 65 55 50 56
REMARK SMILES IDX 53 57 64 58 80 59 51 60 52 61 63 63 81 64 54 65 41 66 42 67
REMARK SMILES IDX 47 68 43 69 44 70 46 71 48 72 45 73 67 74 68 75 73 76 69 77
REMARK SMILES IDX 70 78 72 79 74 80 71 81 55 82 56 83 61 84 57 85 58 86 60 87
REMARK SMILES IDX 62 88 59 89
REMARK H PARENT 24 6 29 32 79 51 53 62
REMARK Flexibility Score: inf
ROOT
ATOM      1  C   UNL A   1      37.015  22.454  24.331  1.00  0.00     0.023 C 
ENDROOT
BRANCH   1   2
ATOM      2  C   UNL A   1      35.557  22.823  24.599  1.00  0.00     0.116 C 
BRANCH   2   3
ATOM      3  N   UNL A   1      35.123  22.465  25.937  1.00  0.00    -0.355 N 
ATOM      4  C   UNL A   1      34.099  21.728  26.443  1.00  0.00     0.237 C 
ATOM      5  O   UNL A   1      34.207  21.458  27.650  1.00  0.00    -0.273 OA
ATOM      6  H   UNL A   1      35.702  22.842  26.638  1.00  0.00     0.163 HD
BRANCH   4   7
ATOM      7  C   UNL A   1      32.783  21.366  25.723  1.00  0.00     0.168 C 
ATOM      8  C   UNL A   1      31.261  23.028  26.896  1.00  0.00     0.042 C 
ATOM      9  C   UNL A   1      31.917  22.602  25.624  1.00  0.00    -0.040 C 
ATOM     10  C   UNL A   1      31.862  23.186  24.415  1.00  0.00     0.012 C 
ATOM     11  C   UNL A   1      31.262  24.387  23.878  1.00  0.00    -0.022 C 
ATOM     12  C   UNL A   1      32.554  22.335  23.414  1.00  0.00     0.109 C 
ATOM     13  S   UNL A   1      32.917  20.748  24.044  1.00  0.00    -0.088 SA
ATOM     14  C   UNL A   1      31.651  24.737  22.633  1.00  0.00     0.079 C 
ATOM     15  N   UNL A   1      32.916  22.683  22.233  1.00  0.00    -0.202 NA
ATOM     16  C   UNL A   1      32.688  23.986  21.872  1.00  0.00     0.271 C 
ATOM     17  O   UNL A   1      33.286  24.547  20.963  1.00  0.00    -0.267 OA
BRANCH  11  18
ATOM     18  C   UNL A   1      30.177  25.159  24.587  1.00  0.00     0.111 C 
BRANCH  18  19
ATOM     19  S   UNL A   1      30.811  26.460  25.706  1.00  0.00    -0.118 SA
BRANCH  19  20
ATOM     20  C   UNL A   1      31.851  27.427  24.597  1.00  0.00     0.045 A 
ATOM     21  C   UNL A   1      33.256  27.323  24.658  1.00  0.00     0.056 A 
ATOM     22  C   UNL A   1      31.301  28.270  23.608  1.00  0.00     0.056 A 
ATOM     23  Cl  UNL A   1      34.067  26.262  25.763  1.00  0.00    -0.083 Cl
ATOM     24  C   UNL A   1      34.073  28.079  23.807  1.00  0.00     0.022 A 
ATOM     25  C   UNL A   1      32.126  29.035  22.771  1.00  0.00     0.022 A 
ATOM     26  Cl  UNL A   1      29.592  28.454  23.378  1.00  0.00    -0.083 Cl
ATOM     27  C   UNL A   1      33.511  28.946  22.875  1.00  0.00     0.003 A 
ENDBRANCH  19  20
ENDBRANCH  18  19
ENDBRANCH  11  18
ENDBRANCH   4   7
ENDBRANCH   2   3
ENDBRANCH   1   2
BRANCH   1  28
ATOM     28  C   UNL A   1      37.429  21.100  24.897  1.00  0.00     0.023 C 
BRANCH  28  29
ATOM     29  C   UNL A   1      38.705  21.079  25.727  1.00  0.00     0.116 C 
BRANCH  29  30
ATOM     30  N   UNL A   1      39.544  19.902  25.570  1.00  0.00    -0.352 N 
ATOM     31  C   UNL A   1      40.857  19.760  25.975  1.00  0.00     0.251 C 
ATOM     32  H   UNL A   1      39.133  19.124  25.128  1.00  0.00     0.163 HD
ATOM     33  O   UNL A   1      41.480  18.721  25.802  1.00  0.00    -0.269 OA
BRANCH  31  34
ATOM     34  C   UNL A   1      41.532  20.933  26.569  1.00  0.00     0.039 A 
ATOM     35  C   UNL A   1      42.090  21.886  25.715  1.00  0.00     0.014 A 
ATOM     36  C   UNL A   1      41.464  21.161  27.944  1.00  0.00     0.014 A 
ATOM     37  C   UNL A   1      42.486  23.118  26.233  1.00  0.00     0.010 A 
ATOM     38  C   UNL A   1      41.751  22.427  28.437  1.00  0.00     0.010 A 
ATOM     39  C   UNL A   1      42.262  23.422  27.587  1.00  0.00    -0.014 A 
BRANCH  39  40
ATOM     40  C   UNL A   1      42.551  24.776  28.131  1.00  0.00     0.031 A 
ATOM     41  C   UNL A   1      43.950  25.132  28.553  1.00  0.00     0.074 A 
ATOM     42  C   UNL A   1      41.546  25.659  28.309  1.00  0.00     0.049 A 
ATOM     43  N   UNL A   1      44.393  26.237  29.100  1.00  0.00    -0.248 NA
ATOM     44  C   UNL A   1      44.981  24.098  28.378  1.00  0.00     0.031 C 
ATOM     45  C   UNL A   1      40.133  25.414  28.008  1.00  0.00     0.029 A 
ATOM     46  N   UNL A   1      41.561  26.945  28.789  1.00  0.00    -0.354 N 
ATOM     47  C   UNL A   1      45.742  26.018  29.347  1.00  0.00     0.074 A 
ATOM     48  C   UNL A   1      46.028  24.654  28.962  1.00  0.00     0.031 C 
ATOM     49  C   UNL A   1      39.427  26.524  28.272  1.00  0.00     0.029 A 
ATOM     50  C   UNL A   1      40.326  27.548  28.794  1.00  0.00     0.049 A 
ATOM     51  H   UNL A   1      42.380  27.395  29.099  1.00  0.00     0.167 HD
ATOM     52  C   UNL A   1      46.670  26.885  29.816  1.00  0.00     0.037 A 
ATOM     53  C   UNL A   1      39.959  28.787  29.175  1.00  0.00     0.037 A 
ATOM     54  C   UNL A   1      46.392  28.252  30.163  1.00  0.00     0.049 A 
ATOM     55  C   UNL A   1      41.012  29.738  29.677  1.00  0.00     0.074 A 
ATOM     56  C   UNL A   1      47.273  29.232  30.582  1.00  0.00     0.029 A 
ATOM     57  N   UNL A   1      45.133  28.833  30.128  1.00  0.00    -0.354 N 
ATOM     58  N   UNL A   1      42.299  29.543  29.830  1.00  0.00    -0.248 NA
ATOM     59  C   UNL A   1      40.560  31.086  30.051  1.00  0.00     0.031 C 
ATOM     60  C   UNL A   1      46.541  30.394  30.847  1.00  0.00     0.029 A 
ATOM     61  C   UNL A   1      45.211  30.153  30.539  1.00  0.00     0.049 A 
ATOM     62  H   UNL A   1      44.306  28.375  29.852  1.00  0.00     0.167 HD
ATOM     63  C   UNL A   1      42.816  30.748  30.288  1.00  0.00     0.074 A 
ATOM     64  C   UNL A   1      41.704  31.673  30.371  1.00  0.00     0.031 C 
ATOM     65  C   UNL A   1      44.094  31.061  30.612  1.00  0.00     0.037 A 
BRANCH  52  66
ATOM     66  C   UNL A   1      48.074  26.373  29.969  1.00  0.00     0.057 A 
ATOM     67  C   UNL A   1      48.528  25.800  31.165  1.00  0.00     0.134 A 
ATOM     68  C   UNL A   1      48.981  26.443  28.904  1.00  0.00     0.134 A 
ATOM     69  F   UNL A   1      47.716  25.715  32.229  1.00  0.00    -0.206 F 
ATOM     70  C   UNL A   1      49.841  25.346  31.307  1.00  0.00     0.040 A 
ATOM     71  C   UNL A   1      50.286  25.964  29.024  1.00  0.00     0.040 A 
ATOM     72  F   UNL A   1      48.614  26.976  27.729  1.00  0.00    -0.206 F 
ATOM     73  C   UNL A   1      50.722  25.422  30.232  1.00  0.00     0.006 A 
ENDBRANCH  52  66
BRANCH  53  74
ATOM     74  C   UNL A   1      38.541  29.216  29.065  1.00  0.00     0.057 A 
ATOM     75  C   UNL A   1      38.009  29.648  27.844  1.00  0.00     0.134 A 
ATOM     76  C   UNL A   1      37.687  29.219  30.175  1.00  0.00     0.134 A 
ATOM     77  F   UNL A   1      38.781  29.687  26.748  1.00  0.00    -0.206 F 
ATOM     78  C   UNL A   1      36.689  30.088  27.734  1.00  0.00     0.040 A 
ATOM     79  C   UNL A   1      36.357  29.632  30.074  1.00  0.00     0.040 A 
ATOM     80  F   UNL A   1      38.131  28.810  31.373  1.00  0.00    -0.206 F 
ATOM     81  C   UNL A   1      35.857  30.077  28.852  1.00  0.00     0.006 A 
ENDBRANCH  53  74
BRANCH  65  82
ATOM     82  C   UNL A   1      44.364  32.472  31.051  1.00  0.00     0.057 A 
ATOM     83  C   UNL A   1      44.342  32.845  32.401  1.00  0.00     0.134 A 
ATOM     84  C   UNL A   1      44.677  33.462  30.111  1.00  0.00     0.134 A 
ATOM     85  F   UNL A   1      44.037  31.948  33.351  1.00  0.00    -0.206 F 
ATOM     86  C   UNL A   1      44.592  34.161  32.797  1.00  0.00     0.040 A 
ATOM     87  C   UNL A   1      44.960  34.772  30.497  1.00  0.00     0.040 A 
ATOM     88  F   UNL A   1      44.726  33.168  28.803  1.00  0.00    -0.206 F 
ATOM     89  C   UNL A   1      44.909  35.126  31.843  1.00  0.00     0.006 A 
ENDBRANCH  65  82
ENDBRANCH  39  40
ENDBRANCH  31  34
ENDBRANCH  29  30
ENDBRANCH  28  29
ENDBRANCH   1  28
TORSDOF 14
ENDMDL
MODEL 2
REMARK VINA RESULT:     -12.2      2.554      7.628
REMARK SMILES CC1=C2C(CSc3c(Cl)cccc3Cl)=CC(=O)N=C2S[C@H]1C(=O)NCCCCNC(=O)c1ccc(-c2c3nc(c(-c4c(F)cccc4F)c4ccc([nH]4)c(-c4c(F)cccc4F)c4nc(c(-c5c(F)cccc5F)c5ccc2[nH]5)C=C4)C=C3)cc1
REMARK SMILES IDX 26 1 25 2 24 3 22 4 23 5 21 7 1 8 2 9 3 10 4 11 19 12 20 13
REMARK SMILES IDX 15 14 18 15 16 16 17 17 5 18 6 19 7 20 8 21 13 22 9 23 10 24
REMARK SMILES IDX 12 25 14 26 11 27 27 28 28 29 29 30 30 31 31 33 32 34 33 35
REMARK SMILES IDX 85 36 34 37 84 38 35 39 36 40 37 41 78 42 38 43 83 44 77 45
REMARK SMILES IDX 79 46 39 47 82 48 76 49 75 50 40 52 66 53 49 54 65 55 50 56
REMARK SMILES IDX 53 57 64 58 80 59 51 60 52 61 63 63 81 64 54 65 41 66 42 67
REMARK SMILES IDX 47 68 43 69 44 70 46 71 48 72 45 73 67 74 68 75 73 76 69 77
REMARK SMILES IDX 70 78 72 79 74 80 71 81 55 82 56 83 61 84 57 85 58 86 60 87
REMARK SMILES IDX 62 88 59 89
REMARK H PARENT 24 6 29 32 79 51 53 62
REMARK Flexibility Score: inf
ROOT
ATOM      1  C   UNL A   1      32.048  28.194  27.620  1.00  0.00     0.023 C 
ENDROOT
BRANCH   1   2
ATOM      2  C   UNL A   1      31.065  27.756  26.535  1.00  0.00     0.116 C 
BRANCH   2   3
ATOM      3  N   UNL A   1      31.095  28.619  25.368  1.00  0.00    -0.355 N 
ATOM      4  C   UNL A   1      31.055  28.409  24.026  1.00  0.00     0.237 C 
ATOM      5  O   UNL A   1      30.861  29.433  23.351  1.00  0.00    -0.273 OA
ATOM      6  H   UNL A   1      31.158  29.572  25.602  1.00  0.00     0.163 HD
BRANCH   4   7
ATOM      7  C   UNL A   1      31.394  27.096  23.289  1.00  0.00     0.168 C 
ATOM      8  C   UNL A   1      33.925  27.231  23.457  1.00  0.00     0.042 C 
ATOM      9  C   UNL A   1      32.673  26.525  23.860  1.00  0.00    -0.040 C 
ATOM     10  C   UNL A   1      32.532  25.470  24.681  1.00  0.00     0.012 C 
ATOM     11  C   UNL A   1      33.420  24.676  25.499  1.00  0.00    -0.022 C 
ATOM     12  C   UNL A   1      31.116  25.018  24.677  1.00  0.00     0.109 C 
ATOM     13  S   UNL A   1      30.194  25.767  23.400  1.00  0.00    -0.088 SA
ATOM     14  C   UNL A   1      32.826  23.835  26.374  1.00  0.00     0.079 C 
ATOM     15  N   UNL A   1      30.568  24.217  25.515  1.00  0.00    -0.202 NA
ATOM     16  C   UNL A   1      31.348  23.770  26.551  1.00  0.00     0.271 C 
ATOM     17  O   UNL A   1      30.890  23.322  27.594  1.00  0.00    -0.267 OA
BRANCH  11  18
ATOM     18  C   UNL A   1      34.918  24.671  25.331  1.00  0.00     0.111 C 
BRANCH  18  19
ATOM     19  S   UNL A   1      35.491  23.728  23.871  1.00  0.00    -0.118 SA
BRANCH  19  20
ATOM     20  C   UNL A   1      34.342  22.342  23.853  1.00  0.00     0.045 A 
ATOM     21  C   UNL A   1      33.263  22.317  22.945  1.00  0.00     0.056 A 
ATOM     22  C   UNL A   1      34.509  21.225  24.698  1.00  0.00     0.056 A 
ATOM     23  Cl  UNL A   1      32.985  23.578  21.789  1.00  0.00    -0.083 Cl
ATOM     24  C   UNL A   1      32.357  21.248  22.930  1.00  0.00     0.022 A 
ATOM     25  C   UNL A   1      33.589  20.167  24.688  1.00  0.00     0.022 A 
ATOM     26  Cl  UNL A   1      35.821  21.091  25.825  1.00  0.00    -0.083 Cl
ATOM     27  C   UNL A   1      32.509  20.182  23.810  1.00  0.00     0.003 A 
ENDBRANCH  19  20
ENDBRANCH  18  19
ENDBRANCH  11  18
ENDBRANCH   4   7
ENDBRANCH   2   3
ENDBRANCH   1   2
BRANCH   1  28
ATOM     28  C   UNL A   1      33.499  28.262  27.155  1.00  0.00     0.023 C 
BRANCH  28  29
ATOM     29  C   UNL A   1      34.024  29.642  26.789  1.00  0.00     0.116 C 
BRANCH  29  30
ATOM     30  N   UNL A   1      33.934  30.652  27.832  1.00  0.00    -0.352 N 
ATOM     31  C   UNL A   1      34.913  30.987  28.748  1.00  0.00     0.251 C 
ATOM     32  H   UNL A   1      33.086  31.148  27.894  1.00  0.00     0.163 HD
ATOM     33  O   UNL A   1      34.742  31.860  29.589  1.00  0.00    -0.269 OA
BRANCH  31  34
ATOM     34  C   UNL A   1      36.170  30.210  28.739  1.00  0.00     0.039 A 
ATOM     35  C   UNL A   1      37.020  30.328  27.638  1.00  0.00     0.014 A 
ATOM     36  C   UNL A   1      36.570  29.509  29.878  1.00  0.00     0.014 A 
ATOM     37  C   UNL A   1      38.319  29.827  27.723  1.00  0.00     0.010 A 
ATOM     38  C   UNL A   1      37.896  29.115  30.000  1.00  0.00     0.010 A 
ATOM     39  C   UNL A   1      38.788  29.273  28.926  1.00  0.00    -0.014 A 
BRANCH  39  40
ATOM     40  C   UNL A   1      40.207  28.857  29.082  1.00  0.00     0.031 A 
ATOM     41  C   UNL A   1      41.205  29.806  29.687  1.00  0.00     0.074 A 
ATOM     42  C   UNL A   1      40.612  27.655  28.621  1.00  0.00     0.049 A 
ATOM     43  N   UNL A   1      42.494  29.652  29.858  1.00  0.00    -0.248 NA
ATOM     44  C   UNL A   1      40.697  31.117  30.118  1.00  0.00     0.031 C 
ATOM     45  C   UNL A   1      39.760  26.670  27.949  1.00  0.00     0.029 A 
ATOM     46  N   UNL A   1      41.848  27.058  28.645  1.00  0.00    -0.354 N 
ATOM     47  C   UNL A   1      42.946  30.850  30.396  1.00  0.00     0.074 A 
ATOM     48  C   UNL A   1      41.813  31.744  30.453  1.00  0.00     0.031 C 
ATOM     49  C   UNL A   1      40.488  25.579  27.663  1.00  0.00     0.029 A 
ATOM     50  C   UNL A   1      41.864  25.798  28.096  1.00  0.00     0.049 A 
ATOM     51  H   UNL A   1      42.648  27.491  29.022  1.00  0.00     0.167 HD
ATOM     52  C   UNL A   1      44.186  31.166  30.840  1.00  0.00     0.037 A 
ATOM     53  C   UNL A   1      42.875  24.918  27.958  1.00  0.00     0.037 A 
ATOM     54  C   UNL A   1      45.304  30.262  30.818  1.00  0.00     0.049 A 
ATOM     55  C   UNL A   1      44.240  25.286  28.474  1.00  0.00     0.074 A 
ATOM     56  C   UNL A   1      46.583  30.460  31.306  1.00  0.00     0.029 A 
ATOM     57  N   UNL A   1      45.274  28.984  30.279  1.00  0.00    -0.354 N 
ATOM     58  N   UNL A   1      44.634  26.393  29.055  1.00  0.00    -0.248 NA
ATOM     59  C   UNL A   1      45.297  24.276  28.325  1.00  0.00     0.031 C 
ATOM     60  C   UNL A   1      47.340  29.321  31.019  1.00  0.00     0.029 A 
ATOM     61  C   UNL A   1      46.518  28.390  30.402  1.00  0.00     0.049 A 
ATOM     62  H   UNL A   1      44.484  28.563  29.869  1.00  0.00     0.167 HD
ATOM     63  C   UNL A   1      45.975  26.204  29.366  1.00  0.00     0.074 A 
ATOM     64  C   UNL A   1      46.320  24.867  28.926  1.00  0.00     0.031 C 
ATOM     65  C   UNL A   1      46.843  27.058  29.962  1.00  0.00     0.037 A 
BRANCH  52  66
ATOM     66  C   UNL A   1      44.386  32.547  31.396  1.00  0.00     0.057 A 
ATOM     67  C   UNL A   1      44.182  32.837  32.752  1.00  0.00     0.134 A 
ATOM     68  C   UNL A   1      44.801  33.598  30.568  1.00  0.00     0.134 A 
ATOM     69  F   UNL A   1      43.770  31.881  33.597  1.00  0.00    -0.206 F 
ATOM     70  C   UNL A   1      44.348  34.128  33.257  1.00  0.00     0.040 A 
ATOM     71  C   UNL A   1      45.001  34.886  31.068  1.00  0.00     0.040 A 
ATOM     72  F   UNL A   1      45.019  33.392  29.261  1.00  0.00    -0.206 F 
ATOM     73  C   UNL A   1      44.766  35.155  32.415  1.00  0.00     0.006 A 
ENDBRANCH  52  66
BRANCH  53  74
ATOM     74  C   UNL A   1      42.633  23.590  27.338  1.00  0.00     0.057 A 
ATOM     75  C   UNL A   1      42.269  22.484  28.116  1.00  0.00     0.134 A 
ATOM     76  C   UNL A   1      42.770  23.387  25.959  1.00  0.00     0.134 A 
ATOM     77  F   UNL A   1      42.139  22.608  29.445  1.00  0.00    -0.206 F 
ATOM     78  C   UNL A   1      42.074  21.222  27.551  1.00  0.00     0.040 A 
ATOM     79  C   UNL A   1      42.552  22.137  25.377  1.00  0.00     0.040 A 
ATOM     80  F   UNL A   1      43.109  24.406  25.155  1.00  0.00    -0.206 F 
ATOM     81  C   UNL A   1      42.211  21.047  26.176  1.00  0.00     0.006 A 
ENDBRANCH  53  74
BRANCH  65  82
ATOM     82  C   UNL A   1      48.239  26.559  30.202  1.00  0.00     0.057 A 
ATOM     83  C   UNL A   1      49.267  26.756  29.273  1.00  0.00     0.134 A 
ATOM     84  C   UNL A   1      48.561  25.897  31.395  1.00  0.00     0.134 A 
ATOM     85  F   UNL A   1      49.022  27.371  28.107  1.00  0.00    -0.206 F 
ATOM     86  C   UNL A   1      50.562  26.286  29.508  1.00  0.00     0.040 A 
ATOM     87  C   UNL A   1      49.857  25.451  31.654  1.00  0.00     0.040 A 
ATOM     88  F   UNL A   1      47.625  25.687  32.332  1.00  0.00    -0.206 F 
ATOM     89  C   UNL A   1      50.859  25.637  30.705  1.00  0.00     0.006 A 
ENDBRANCH  65  82
ENDBRANCH  39  40
ENDBRANCH  31  34
ENDBRANCH  29  30
ENDBRANCH  28  29
ENDBRANCH   1  28
TORSDOF 14
ENDMDL
MODEL 3
REMARK VINA RESULT:     -12.2      0.388      6.030
REMARK SMILES CC1=C2C(CSc3c(Cl)cccc3Cl)=CC(=O)N=C2S[C@H]1C(=O)NCCCCNC(=O)c1ccc(-c2c3nc(c(-c4c(F)cccc4F)c4ccc([nH]4)c(-c4c(F)cccc4F)c4nc(c(-c5c(F)cccc5F)c5ccc2[nH]5)C=C4)C=C3)cc1
REMARK SMILES IDX 26 1 25 2 24 3 22 4 23 5 21 7 1 8 2 9 3 10 4 11 19 12 20 13
REMARK SMILES IDX 15 14 18 15 16 16 17 17 5 18 6 19 7 20 8 21 13 22 9 23 10 24
REMARK SMILES IDX 12 25 14 26 11 27 27 28 28 29 29 30 30 31 31 33 32 34 33 35
REMARK SMILES IDX 85 36 34 37 84 38 35 39 36 40 37 41 78 42 38 43 83 44 77 45
REMARK SMILES IDX 79 46 39 47 82 48 76 49 75 50 40 52 66 53 49 54 65 55 50 56
REMARK SMILES IDX 53 57 64 58 80 59 51 60 52 61 63 63 81 64 54 65 41 66 42 67
REMARK SMILES IDX 47 68 43 69 44 70 46 71 48 72 45 73 67 74 68 75 73 76 69 77
REMARK SMILES IDX 70 78 72 79 74 80 71 81 55 82 56 83 61 84 57 85 58 86 60 87
REMARK SMILES IDX 62 88 59 89
REMARK H PARENT 24 6 29 32 79 51 53 62
REMARK Flexibility Score: inf
ROOT
ATOM      1  C   UNL A   1      36.922  22.944  24.559  1.00  0.00     0.023 C 
ENDROOT
BRANCH   1   2
ATOM      2  C   UNL A   1      35.429  23.138  24.812  1.00  0.00     0.116 C 
BRANCH   2   3
ATOM      3  N   UNL A   1      35.008  22.640  26.109  1.00  0.00    -0.355 N 
ATOM      4  C   UNL A   1      34.026  21.804  26.537  1.00  0.00     0.237 C 
ATOM      5  O   UNL A   1      34.142  21.436  27.717  1.00  0.00    -0.273 OA
ATOM      6  H   UNL A   1      35.560  22.987  26.846  1.00  0.00     0.163 HD
BRANCH   4   7
ATOM      7  C   UNL A   1      32.737  21.432  25.774  1.00  0.00     0.168 C 
ATOM      8  C   UNL A   1      31.161  23.071  26.906  1.00  0.00     0.042 C 
ATOM      9  C   UNL A   1      31.861  22.659  25.654  1.00  0.00    -0.040 C 
ATOM     10  C   UNL A   1      31.838  23.248  24.447  1.00  0.00     0.012 C 
ATOM     11  C   UNL A   1      31.243  24.446  23.896  1.00  0.00    -0.022 C 
ATOM     12  C   UNL A   1      32.571  22.409  23.464  1.00  0.00     0.109 C 
ATOM     13  S   UNL A   1      32.931  20.824  24.097  1.00  0.00    -0.088 SA
ATOM     14  C   UNL A   1      31.667  24.806  22.666  1.00  0.00     0.079 C 
ATOM     15  N   UNL A   1      32.966  22.767  22.297  1.00  0.00    -0.202 NA
ATOM     16  C   UNL A   1      32.736  24.069  21.934  1.00  0.00     0.271 C 
ATOM     17  O   UNL A   1      33.357  24.641  21.048  1.00  0.00    -0.267 OA
BRANCH  11  18
ATOM     18  C   UNL A   1      30.128  25.202  24.573  1.00  0.00     0.111 C 
BRANCH  18  19
ATOM     19  S   UNL A   1      30.711  26.538  25.679  1.00  0.00    -0.118 SA
BRANCH  19  20
ATOM     20  C   UNL A   1      31.790  27.478  24.585  1.00  0.00     0.045 A 
ATOM     21  C   UNL A   1      33.192  27.364  24.689  1.00  0.00     0.056 A 
ATOM     22  C   UNL A   1      31.277  28.309  23.567  1.00  0.00     0.056 A 
ATOM     23  Cl  UNL A   1      33.962  26.315  25.835  1.00  0.00    -0.083 Cl
ATOM     24  C   UNL A   1      34.040  28.099  23.851  1.00  0.00     0.022 A 
ATOM     25  C   UNL A   1      32.132  29.053  22.742  1.00  0.00     0.022 A 
ATOM     26  Cl  UNL A   1      29.577  28.502  23.285  1.00  0.00    -0.083 Cl
ATOM     27  C   UNL A   1      33.513  28.955  22.889  1.00  0.00     0.003 A 
ENDBRANCH  19  20
ENDBRANCH  18  19
ENDBRANCH  11  18
ENDBRANCH   4   7
ENDBRANCH   2   3
ENDBRANCH   1   2
BRANCH   1  28
ATOM     28  C   UNL A   1      37.415  21.520  24.796  1.00  0.00     0.023 C 
BRANCH  28  29
ATOM     29  C   UNL A   1      38.634  21.371  25.695  1.00  0.00     0.116 C 
BRANCH  29  30
ATOM     30  N   UNL A   1      39.375  20.128  25.557  1.00  0.00    -0.352 N 
ATOM     31  C   UNL A   1      40.666  19.881  25.982  1.00  0.00     0.251 C 
ATOM     32  H   UNL A   1      38.908  19.383  25.113  1.00  0.00     0.163 HD
ATOM     33  O   UNL A   1      41.204  18.792  25.824  1.00  0.00    -0.269 OA
BRANCH  31  34
ATOM     34  C   UNL A   1      41.427  20.997  26.581  1.00  0.00     0.039 A 
ATOM     35  C   UNL A   1      42.039  21.920  25.730  1.00  0.00     0.014 A 
ATOM     36  C   UNL A   1      41.389  21.214  27.959  1.00  0.00     0.014 A 
ATOM     37  C   UNL A   1      42.525  23.116  26.257  1.00  0.00     0.010 A 
ATOM     38  C   UNL A   1      41.769  22.452  28.461  1.00  0.00     0.010 A 
ATOM     39  C   UNL A   1      42.338  23.419  27.616  1.00  0.00    -0.014 A 
BRANCH  39  40
ATOM     40  C   UNL A   1      42.725  24.743  28.171  1.00  0.00     0.031 A 
ATOM     41  C   UNL A   1      41.680  25.804  28.383  1.00  0.00     0.074 A 
ATOM     42  C   UNL A   1      44.023  25.016  28.421  1.00  0.00     0.049 A 
ATOM     43  N   UNL A   1      41.823  27.036  28.803  1.00  0.00    -0.248 NA
ATOM     44  C   UNL A   1      40.294  25.449  28.037  1.00  0.00     0.031 C 
ATOM     45  C   UNL A   1      45.145  24.102  28.191  1.00  0.00     0.029 A 
ATOM     46  N   UNL A   1      44.619  26.147  28.923  1.00  0.00    -0.354 N 
ATOM     47  C   UNL A   1      40.555  27.600  28.753  1.00  0.00     0.074 A 
ATOM     48  C   UNL A   1      39.670  26.604  28.192  1.00  0.00     0.031 C 
ATOM     49  C   UNL A   1      46.283  24.691  28.589  1.00  0.00     0.029 A 
ATOM     50  C   UNL A   1      45.981  26.037  29.066  1.00  0.00     0.049 A 
ATOM     51  H   UNL A   1      44.117  26.960  29.159  1.00  0.00     0.167 HD
ATOM     52  C   UNL A   1      40.154  28.823  29.171  1.00  0.00     0.037 A 
ATOM     53  C   UNL A   1      46.885  26.920  29.531  1.00  0.00     0.037 A 
ATOM     54  C   UNL A   1      41.028  29.798  29.764  1.00  0.00     0.049 A 
ATOM     55  C   UNL A   1      46.412  28.268  30.006  1.00  0.00     0.074 A 
ATOM     56  C   UNL A   1      40.709  31.040  30.284  1.00  0.00     0.029 A 
ATOM     57  N   UNL A   1      42.398  29.639  29.917  1.00  0.00    -0.354 N 
ATOM     58  N   UNL A   1      45.197  28.758  30.028  1.00  0.00    -0.248 NA
ATOM     59  C   UNL A   1      47.437  29.180  30.531  1.00  0.00     0.031 C 
ATOM     60  C   UNL A   1      41.893  31.652  30.708  1.00  0.00     0.029 A 
ATOM     61  C   UNL A   1      42.942  30.768  30.504  1.00  0.00     0.049 A 
ATOM     62  H   UNL A   1      42.907  28.840  29.648  1.00  0.00     0.167 HD
ATOM     63  C   UNL A   1      45.305  30.022  30.593  1.00  0.00     0.074 A 
ATOM     64  C   UNL A   1      46.704  30.214  30.918  1.00  0.00     0.031 C 
ATOM     65  C   UNL A   1      44.336  30.941  30.824  1.00  0.00     0.037 A 
BRANCH  52  66
ATOM     66  C   UNL A   1      38.700  29.163  29.008  1.00  0.00     0.057 A 
ATOM     67  C   UNL A   1      37.794  29.079  30.075  1.00  0.00     0.134 A 
ATOM     68  C   UNL A   1      38.200  29.593  27.772  1.00  0.00     0.134 A 
ATOM     69  F   UNL A   1      38.203  28.660  31.282  1.00  0.00    -0.206 F 
ATOM     70  C   UNL A   1      36.440  29.375  29.910  1.00  0.00     0.040 A 
ATOM     71  C   UNL A   1      36.854  29.923  27.603  1.00  0.00     0.040 A 
ATOM     72  F   UNL A   1      39.010  29.701  26.708  1.00  0.00    -0.206 F 
ATOM     73  C   UNL A   1      35.969  29.805  28.673  1.00  0.00     0.006 A 
ENDBRANCH  52  66
BRANCH  53  74
ATOM     74  C   UNL A   1      48.323  26.553  29.607  1.00  0.00     0.057 A 
ATOM     75  C   UNL A   1      48.836  25.864  30.713  1.00  0.00     0.134 A 
ATOM     76  C   UNL A   1      49.221  26.889  28.587  1.00  0.00     0.134 A 
ATOM     77  F   UNL A   1      48.031  25.530  31.732  1.00  0.00    -0.206 F 
ATOM     78  C   UNL A   1      50.191  25.544  30.814  1.00  0.00     0.040 A 
ATOM     79  C   UNL A   1      50.574  26.552  28.662  1.00  0.00     0.040 A 
ATOM     80  F   UNL A   1      48.794  27.542  27.496  1.00  0.00    -0.206 F 
ATOM     81  C   UNL A   1      51.064  25.885  29.783  1.00  0.00     0.006 A 
ENDBRANCH  53  74
BRANCH  65  82
ATOM     82  C   UNL A   1      44.751  32.223  31.488  1.00  0.00     0.057 A 
ATOM     83  C   UNL A   1      44.761  32.367  32.881  1.00  0.00     0.134 A 
ATOM     84  C   UNL A   1      45.172  33.317  30.721  1.00  0.00     0.134 A 
ATOM     85  F   UNL A   1      44.359  31.361  33.672  1.00  0.00    -0.206 F 
ATOM     86  C   UNL A   1      45.148  33.564  33.487  1.00  0.00     0.040 A 
ATOM     87  C   UNL A   1      45.589  34.508  31.315  1.00  0.00     0.040 A 
ATOM     88  F   UNL A   1      45.196  33.241  29.382  1.00  0.00    -0.206 F 
ATOM     89  C   UNL A   1      45.569  34.636  32.703  1.00  0.00     0.006 A 
ENDBRANCH  65  82
ENDBRANCH  39  40
ENDBRANCH  31  34
ENDBRANCH  29  30
ENDBRANCH  28  29
ENDBRANCH   1  28
TORSDOF 14
ENDMDL
