MODEL 1
REMARK VINA RESULT:     -11.7      0.000      0.000
REMARK SMILES Cc1cc(N2CCC[C@H](C(=O)NCCCCNC(=O)c3ccc(-c4c5nc(c(-c6c(F)cccc6F)c6ccc([nH]6)c(-c6c(F)cccc6F)c6nc(c(-c7c(F)cccc7F)c7ccc4[nH]7)C=C6)C=C5)cc3)C2)nc(C(C)C)n1
REMARK SMILES IDX 14 1 13 2 12 3 10 4 11 5 9 7 5 8 6 9 74 10 7 11 8 12 4 13
REMARK SMILES IDX 1 14 2 15 3 16 80 17 76 18 75 19 77 20 78 21 79 22 15 23
REMARK SMILES IDX 16 24 17 25 18 26 19 28 20 29 21 30 73 31 22 32 72 33 23 34
REMARK SMILES IDX 24 35 25 36 66 37 26 38 71 39 65 40 67 41 27 42 70 43 64 44
REMARK SMILES IDX 63 45 28 47 54 48 37 49 53 50 38 51 41 52 52 53 68 54 39 55
REMARK SMILES IDX 40 56 51 58 69 59 42 60 29 61 30 62 35 63 31 64 32 65 34 66
REMARK SMILES IDX 36 67 33 68 55 69 56 70 61 71 57 72 58 73 60 74 62 75 59 76
REMARK SMILES IDX 43 77 44 78 49 79 45 80 46 81 48 82 50 83 47 84
REMARK H PARENT 12 6 17 27 67 46 41 57
REMARK Flexibility Score: inf
ROOT
ATOM      1  C   UNL A   1      36.902  22.257  24.267  1.00  0.00     0.023 C 
ENDROOT
BRANCH   1   2
ATOM      2  C   UNL A   1      37.038  23.684  24.791  1.00  0.00     0.116 C 
BRANCH   2   3
ATOM      3  N   UNL A   1      35.893  24.113  25.561  1.00  0.00    -0.356 N 
ATOM      4  C   UNL A   1      34.596  24.278  25.200  1.00  0.00     0.224 C 
ATOM      5  O   UNL A   1      33.794  24.471  26.123  1.00  0.00    -0.275 OA
ATOM      6  H   UNL A   1      36.086  24.318  26.505  1.00  0.00     0.163 HD
BRANCH   4   7
ATOM      7  C   UNL A   1      34.080  24.241  23.760  1.00  0.00     0.098 C 
ATOM      8  N   UNL A   1      32.092  25.638  23.394  1.00  0.00    -0.356 N 
ATOM      9  C   UNL A   1      31.295  24.611  22.755  1.00  0.00     0.118 C 
ATOM     10  C   UNL A   1      33.538  25.580  23.274  1.00  0.00     0.131 C 
ATOM     11  C   UNL A   1      31.722  23.233  23.271  1.00  0.00     0.022 C 
ATOM     12  C   UNL A   1      33.237  23.022  23.365  1.00  0.00     0.017 C 
BRANCH   8  13
ATOM     13  C   UNL A   1      31.559  26.876  23.678  1.00  0.00     0.132 A 
ATOM     14  C   UNL A   1      29.865  29.805  22.075  1.00  0.00     0.067 C 
ATOM     15  C   UNL A   1      30.530  28.900  23.066  1.00  0.00     0.043 A 
ATOM     16  C   UNL A   1      30.877  27.606  22.729  1.00  0.00     0.070 A 
ATOM     17  N   UNL A   1      30.818  29.436  24.268  1.00  0.00    -0.238 NA
ATOM     18  C   UNL A   1      31.472  28.650  25.139  1.00  0.00     0.133 A 
ATOM     19  N   UNL A   1      31.854  27.389  24.883  1.00  0.00    -0.216 NA
BRANCH  18  20
ATOM     20  C   UNL A   1      31.886  29.233  26.472  1.00  0.00     0.051 C 
ATOM     21  C   UNL A   1      31.584  28.255  27.607  1.00  0.00     0.016 C 
ATOM     22  C   UNL A   1      33.356  29.643  26.470  1.00  0.00     0.016 C 
ENDBRANCH  18  20
ENDBRANCH   8  13
ENDBRANCH   4   7
ENDBRANCH   2   3
ENDBRANCH   1   2
BRANCH   1  23
ATOM     23  C   UNL A   1      37.335  21.180  25.258  1.00  0.00     0.023 C 
BRANCH  23  24
ATOM     24  C   UNL A   1      38.775  21.293  25.751  1.00  0.00     0.116 C 
BRANCH  24  25
ATOM     25  N   UNL A   1      39.558  20.070  25.636  1.00  0.00    -0.352 N 
ATOM     26  C   UNL A   1      40.883  19.894  25.981  1.00  0.00     0.251 C 
ATOM     27  H   UNL A   1      39.090  19.284  25.273  1.00  0.00     0.163 HD
ATOM     28  O   UNL A   1      41.464  18.840  25.791  1.00  0.00    -0.269 OA
BRANCH  26  29
ATOM     29  C   UNL A   1      41.596  21.052  26.559  1.00  0.00     0.039 A 
ATOM     30  C   UNL A   1      42.113  22.030  25.707  1.00  0.00     0.014 A 
ATOM     31  C   UNL A   1      41.624  21.220  27.945  1.00  0.00     0.014 A 
ATOM     32  C   UNL A   1      42.581  23.228  26.250  1.00  0.00     0.010 A 
ATOM     33  C   UNL A   1      42.028  22.437  28.475  1.00  0.00     0.010 A 
ATOM     34  C   UNL A   1      42.497  23.457  27.632  1.00  0.00    -0.014 A 
BRANCH  34  35
ATOM     35  C   UNL A   1      42.885  24.753  28.241  1.00  0.00     0.031 A 
ATOM     36  C   UNL A   1      41.832  25.794  28.489  1.00  0.00     0.074 A 
ATOM     37  C   UNL A   1      44.184  25.034  28.459  1.00  0.00     0.049 A 
ATOM     38  N   UNL A   1      41.972  27.045  28.843  1.00  0.00    -0.248 NA
ATOM     39  C   UNL A   1      40.437  25.380  28.268  1.00  0.00     0.031 C 
ATOM     40  C   UNL A   1      45.305  24.124  28.214  1.00  0.00     0.029 A 
ATOM     41  N   UNL A   1      44.783  26.183  28.912  1.00  0.00    -0.354 N 
ATOM     42  C   UNL A   1      40.689  27.576  28.854  1.00  0.00     0.074 A 
ATOM     43  C   UNL A   1      39.789  26.524  28.432  1.00  0.00     0.031 C 
ATOM     44  C   UNL A   1      46.453  24.746  28.530  1.00  0.00     0.029 A 
ATOM     45  C   UNL A   1      46.154  26.107  28.963  1.00  0.00     0.049 A 
ATOM     46  H   UNL A   1      44.278  26.985  29.177  1.00  0.00     0.167 HD
ATOM     47  C   UNL A   1      40.294  28.824  29.199  1.00  0.00     0.037 A 
ATOM     48  C   UNL A   1      47.065  27.037  29.308  1.00  0.00     0.037 A 
ATOM     49  C   UNL A   1      41.186  29.853  29.660  1.00  0.00     0.049 A 
ATOM     50  C   UNL A   1      46.600  28.406  29.721  1.00  0.00     0.074 A 
ATOM     51  C   UNL A   1      40.879  31.131  30.090  1.00  0.00     0.029 A 
ATOM     52  N   UNL A   1      42.562  29.714  29.759  1.00  0.00    -0.354 N 
ATOM     53  N   UNL A   1      45.380  28.882  29.773  1.00  0.00    -0.248 NA
ATOM     54  C   UNL A   1      47.636  29.367  30.125  1.00  0.00     0.031 C 
ATOM     55  C   UNL A   1      42.073  31.775  30.430  1.00  0.00     0.029 A 
ATOM     56  C   UNL A   1      43.119  30.885  30.243  1.00  0.00     0.049 A 
ATOM     57  H   UNL A   1      43.068  28.903  29.521  1.00  0.00     0.167 HD
ATOM     58  C   UNL A   1      45.497  30.180  30.250  1.00  0.00     0.074 A 
ATOM     59  C   UNL A   1      46.908  30.420  30.471  1.00  0.00     0.031 C 
ATOM     60  C   UNL A   1      44.523  31.091  30.487  1.00  0.00     0.037 A 
BRANCH  47  61
ATOM     61  C   UNL A   1      38.832  29.135  29.098  1.00  0.00     0.057 A 
ATOM     62  C   UNL A   1      37.985  29.064  30.212  1.00  0.00     0.134 A 
ATOM     63  C   UNL A   1      38.266  29.523  27.879  1.00  0.00     0.134 A 
ATOM     64  F   UNL A   1      38.464  28.684  31.407  1.00  0.00    -0.206 F 
ATOM     65  C   UNL A   1      36.622  29.342  30.111  1.00  0.00     0.040 A 
ATOM     66  C   UNL A   1      36.908  29.828  27.769  1.00  0.00     0.040 A 
ATOM     67  F   UNL A   1      39.022  29.614  26.774  1.00  0.00    -0.206 F 
ATOM     68  C   UNL A   1      36.081  29.731  28.886  1.00  0.00     0.006 A 
ENDBRANCH  47  61
BRANCH  48  69
ATOM     69  C   UNL A   1      48.510  26.697  29.311  1.00  0.00     0.057 A 
ATOM     70  C   UNL A   1      49.315  26.982  28.202  1.00  0.00     0.134 A 
ATOM     71  C   UNL A   1      49.117  26.078  30.409  1.00  0.00     0.134 A 
ATOM     72  F   UNL A   1      48.784  27.557  27.114  1.00  0.00    -0.206 F 
ATOM     73  C   UNL A   1      50.670  26.647  28.177  1.00  0.00     0.040 A 
ATOM     74  C   UNL A   1      50.476  25.757  30.406  1.00  0.00     0.040 A 
ATOM     75  F   UNL A   1      48.401  25.786  31.504  1.00  0.00    -0.206 F 
ATOM     76  C   UNL A   1      51.255  26.036  29.284  1.00  0.00     0.006 A 
ENDBRANCH  48  69
BRANCH  60  77
ATOM     77  C   UNL A   1      44.935  32.408  31.068  1.00  0.00     0.057 A 
ATOM     78  C   UNL A   1      45.298  33.492  30.261  1.00  0.00     0.134 A 
ATOM     79  C   UNL A   1      44.896  32.611  32.454  1.00  0.00     0.134 A 
ATOM     80  F   UNL A   1      45.363  33.355  28.928  1.00  0.00    -0.206 F 
ATOM     81  C   UNL A   1      45.616  34.734  30.814  1.00  0.00     0.040 A 
ATOM     82  C   UNL A   1      45.193  33.853  33.016  1.00  0.00     0.040 A 
ATOM     83  F   UNL A   1      44.550  31.612  33.279  1.00  0.00    -0.206 F 
ATOM     84  C   UNL A   1      45.554  34.919  32.194  1.00  0.00     0.006 A 
ENDBRANCH  60  77
ENDBRANCH  34  35
ENDBRANCH  26  29
ENDBRANCH  24  25
ENDBRANCH  23  24
ENDBRANCH   1  23
TORSDOF 13
ENDMDL
MODEL 2
REMARK VINA RESULT:     -11.5      4.210      9.315
REMARK SMILES Cc1cc(N2CCC[C@H](C(=O)NCCCCNC(=O)c3ccc(-c4c5nc(c(-c6c(F)cccc6F)c6ccc([nH]6)c(-c6c(F)cccc6F)c6nc(c(-c7c(F)cccc7F)c7ccc4[nH]7)C=C6)C=C5)cc3)C2)nc(C(C)C)n1
REMARK SMILES IDX 14 1 13 2 12 3 10 4 11 5 9 7 5 8 6 9 74 10 7 11 8 12 4 13
REMARK SMILES IDX 1 14 2 15 3 16 80 17 76 18 75 19 77 20 78 21 79 22 15 23
REMARK SMILES IDX 16 24 17 25 18 26 19 28 20 29 21 30 73 31 22 32 72 33 23 34
REMARK SMILES IDX 24 35 25 36 66 37 26 38 71 39 65 40 67 41 27 42 70 43 64 44
REMARK SMILES IDX 63 45 28 47 54 48 37 49 53 50 38 51 41 52 52 53 68 54 39 55
REMARK SMILES IDX 40 56 51 58 69 59 42 60 29 61 30 62 35 63 31 64 32 65 34 66
REMARK SMILES IDX 36 67 33 68 55 69 56 70 61 71 57 72 58 73 60 74 62 75 59 76
REMARK SMILES IDX 43 77 44 78 49 79 45 80 46 81 48 82 50 83 47 84
REMARK H PARENT 12 6 17 27 67 46 41 57
REMARK Flexibility Score: inf
ROOT
ATOM      1  C   UNL A   1      31.813  30.553  26.844  1.00  0.00     0.023 C 
ENDROOT
BRANCH   1   2
ATOM      2  C   UNL A   1      33.311  30.309  27.004  1.00  0.00     0.116 C 
BRANCH   2   3
ATOM      3  N   UNL A   1      33.893  29.620  25.876  1.00  0.00    -0.356 N 
ATOM      4  C   UNL A   1      33.457  28.543  25.177  1.00  0.00     0.224 C 
ATOM      5  O   UNL A   1      34.068  28.287  24.131  1.00  0.00    -0.275 OA
ATOM      6  H   UNL A   1      34.748  29.995  25.562  1.00  0.00     0.163 HD
BRANCH   4   7
ATOM      7  C   UNL A   1      32.287  27.648  25.593  1.00  0.00     0.098 C 
ATOM      8  N   UNL A   1      32.655  25.266  25.114  1.00  0.00    -0.356 N 
ATOM      9  C   UNL A   1      31.402  25.051  24.419  1.00  0.00     0.118 C 
ATOM     10  C   UNL A   1      32.722  26.294  26.138  1.00  0.00     0.131 C 
ATOM     11  C   UNL A   1      30.949  26.358  23.760  1.00  0.00     0.022 C 
ATOM     12  C   UNL A   1      31.086  27.605  24.639  1.00  0.00     0.017 C 
BRANCH   8  13
ATOM     13  C   UNL A   1      33.600  24.268  25.197  1.00  0.00     0.132 A 
ATOM     14  C   UNL A   1      37.288  23.706  25.515  1.00  0.00     0.067 C 
ATOM     15  C   UNL A   1      35.815  23.493  25.347  1.00  0.00     0.043 A 
ATOM     16  C   UNL A   1      34.926  24.545  25.449  1.00  0.00     0.070 A 
ATOM     17  N   UNL A   1      35.422  22.242  25.035  1.00  0.00    -0.238 NA
ATOM     18  C   UNL A   1      34.109  22.057  24.819  1.00  0.00     0.133 A 
ATOM     19  N   UNL A   1      33.186  23.029  24.888  1.00  0.00    -0.216 NA
BRANCH  18  20
ATOM     20  C   UNL A   1      33.631  20.687  24.391  1.00  0.00     0.051 C 
ATOM     21  C   UNL A   1      34.653  19.615  24.769  1.00  0.00     0.016 C 
ATOM     22  C   UNL A   1      32.255  20.370  24.970  1.00  0.00     0.016 C 
ENDBRANCH  18  20
ENDBRANCH   8  13
ENDBRANCH   4   7
ENDBRANCH   2   3
ENDBRANCH   1   2
BRANCH   1  23
ATOM     23  C   UNL A   1      31.423  32.025  26.732  1.00  0.00     0.023 C 
BRANCH  23  24
ATOM     24  C   UNL A   1      32.582  33.012  26.838  1.00  0.00     0.116 C 
BRANCH  24  25
ATOM     25  N   UNL A   1      32.315  34.180  27.665  1.00  0.00    -0.352 N 
ATOM     26  C   UNL A   1      33.066  34.635  28.731  1.00  0.00     0.251 C 
ATOM     27  H   UNL A   1      31.511  34.702  27.440  1.00  0.00     0.163 HD
ATOM     28  O   UNL A   1      32.722  35.595  29.399  1.00  0.00    -0.269 OA
BRANCH  26  29
ATOM     29  C   UNL A   1      34.295  33.887  29.068  1.00  0.00     0.039 A 
ATOM     30  C   UNL A   1      35.536  34.422  28.719  1.00  0.00     0.014 A 
ATOM     31  C   UNL A   1      34.204  32.730  29.844  1.00  0.00     0.014 A 
ATOM     32  C   UNL A   1      36.698  33.840  29.231  1.00  0.00     0.010 A 
ATOM     33  C   UNL A   1      35.356  32.194  30.404  1.00  0.00     0.010 A 
ATOM     34  C   UNL A   1      36.611  32.752  30.115  1.00  0.00    -0.014 A 
BRANCH  34  35
ATOM     35  C   UNL A   1      37.810  32.168  30.764  1.00  0.00     0.031 A 
ATOM     36  C   UNL A   1      38.561  31.069  30.070  1.00  0.00     0.074 A 
ATOM     37  C   UNL A   1      38.148  32.538  32.014  1.00  0.00     0.049 A 
ATOM     38  N   UNL A   1      39.518  30.304  30.526  1.00  0.00    -0.248 NA
ATOM     39  C   UNL A   1      38.150  30.766  28.689  1.00  0.00     0.031 C 
ATOM     40  C   UNL A   1      37.468  33.560  32.813  1.00  0.00     0.029 A 
ATOM     41  N   UNL A   1      39.138  32.074  32.844  1.00  0.00    -0.354 N 
ATOM     42  C   UNL A   1      39.799  29.408  29.503  1.00  0.00     0.074 A 
ATOM     43  C   UNL A   1      38.886  29.698  28.419  1.00  0.00     0.031 C 
ATOM     44  C   UNL A   1      38.068  33.652  34.011  1.00  0.00     0.029 A 
ATOM     45  C   UNL A   1      39.148  32.673  34.080  1.00  0.00     0.049 A 
ATOM     46  H   UNL A   1      39.781  31.378  32.577  1.00  0.00     0.167 HD
ATOM     47  C   UNL A   1      40.745  28.440  29.465  1.00  0.00     0.037 A 
ATOM     48  C   UNL A   1      39.932  32.447  35.151  1.00  0.00     0.037 A 
ATOM     49  C   UNL A   1      41.680  28.184  30.526  1.00  0.00     0.049 A 
ATOM     50  C   UNL A   1      40.999  31.389  35.072  1.00  0.00     0.074 A 
ATOM     51  C   UNL A   1      42.714  27.266  30.562  1.00  0.00     0.029 A 
ATOM     52  N   UNL A   1      41.698  28.858  31.738  1.00  0.00    -0.354 N 
ATOM     53  N   UNL A   1      41.286  30.580  34.082  1.00  0.00    -0.248 NA
ATOM     54  C   UNL A   1      41.850  31.214  36.258  1.00  0.00     0.031 C 
ATOM     55  C   UNL A   1      43.346  27.369  31.805  1.00  0.00     0.029 A 
ATOM     56  C   UNL A   1      42.725  28.375  32.529  1.00  0.00     0.049 A 
ATOM     57  H   UNL A   1      41.073  29.574  31.996  1.00  0.00     0.167 HD
ATOM     58  C   UNL A   1      42.373  29.828  34.508  1.00  0.00     0.074 A 
ATOM     59  C   UNL A   1      42.693  30.275  35.848  1.00  0.00     0.031 C 
ATOM     60  C   UNL A   1      43.047  28.857  33.847  1.00  0.00     0.037 A 
BRANCH  47  61
ATOM     61  C   UNL A   1      40.815  27.597  28.229  1.00  0.00     0.057 A 
ATOM     62  C   UNL A   1      40.114  26.389  28.120  1.00  0.00     0.134 A 
ATOM     63  C   UNL A   1      41.580  28.002  27.129  1.00  0.00     0.134 A 
ATOM     64  F   UNL A   1      39.375  25.938  29.145  1.00  0.00    -0.206 F 
ATOM     65  C   UNL A   1      40.192  25.600  26.971  1.00  0.00     0.040 A 
ATOM     66  C   UNL A   1      41.647  27.235  25.965  1.00  0.00     0.040 A 
ATOM     67  F   UNL A   1      42.274  29.150  27.166  1.00  0.00    -0.206 F 
ATOM     68  C   UNL A   1      40.957  26.027  25.886  1.00  0.00     0.006 A 
ENDBRANCH  47  61
BRANCH  48  69
ATOM     69  C   UNL A   1      39.764  33.259  36.382  1.00  0.00     0.057 A 
ATOM     70  C   UNL A   1      38.933  32.822  37.420  1.00  0.00     0.134 A 
ATOM     71  C   UNL A   1      40.416  34.486  36.548  1.00  0.00     0.134 A 
ATOM     72  F   UNL A   1      38.267  31.664  37.308  1.00  0.00    -0.206 F 
ATOM     73  C   UNL A   1      38.742  33.585  38.574  1.00  0.00     0.040 A 
ATOM     74  C   UNL A   1      40.251  35.248  37.706  1.00  0.00     0.040 A 
ATOM     75  F   UNL A   1      41.230  34.955  35.592  1.00  0.00    -0.206 F 
ATOM     76  C   UNL A   1      39.406  34.800  38.721  1.00  0.00     0.006 A 
ENDBRANCH  48  69
BRANCH  60  77
ATOM     77  C   UNL A   1      44.234  28.251  34.531  1.00  0.00     0.057 A 
ATOM     78  C   UNL A   1      44.129  27.088  35.301  1.00  0.00     0.134 A 
ATOM     79  C   UNL A   1      45.509  28.803  34.353  1.00  0.00     0.134 A 
ATOM     80  F   UNL A   1      42.933  26.519  35.516  1.00  0.00    -0.206 F 
ATOM     81  C   UNL A   1      45.254  26.496  35.879  1.00  0.00     0.040 A 
ATOM     82  C   UNL A   1      46.642  28.210  34.909  1.00  0.00     0.040 A 
ATOM     83  F   UNL A   1      45.673  29.914  33.620  1.00  0.00    -0.206 F 
ATOM     84  C   UNL A   1      46.516  27.053  35.676  1.00  0.00     0.006 A 
ENDBRANCH  60  77
ENDBRANCH  34  35
ENDBRANCH  26  29
ENDBRANCH  24  25
ENDBRANCH  23  24
ENDBRANCH   1  23
TORSDOF 13
ENDMDL
MODEL 3
REMARK VINA RESULT:     -11.5      2.002      7.535
REMARK SMILES Cc1cc(N2CCC[C@H](C(=O)NCCCCNC(=O)c3ccc(-c4c5nc(c(-c6c(F)cccc6F)c6ccc([nH]6)c(-c6c(F)cccc6F)c6nc(c(-c7c(F)cccc7F)c7ccc4[nH]7)C=C6)C=C5)cc3)C2)nc(C(C)C)n1
REMARK SMILES IDX 14 1 13 2 12 3 10 4 11 5 9 7 5 8 6 9 74 10 7 11 8 12 4 13
REMARK SMILES IDX 1 14 2 15 3 16 80 17 76 18 75 19 77 20 78 21 79 22 15 23
REMARK SMILES IDX 16 24 17 25 18 26 19 28 20 29 21 30 73 31 22 32 72 33 23 34
REMARK SMILES IDX 24 35 25 36 66 37 26 38 71 39 65 40 67 41 27 42 70 43 64 44
REMARK SMILES IDX 63 45 28 47 54 48 37 49 53 50 38 51 41 52 52 53 68 54 39 55
REMARK SMILES IDX 40 56 51 58 69 59 42 60 29 61 30 62 35 63 31 64 32 65 34 66
REMARK SMILES IDX 36 67 33 68 55 69 56 70 61 71 57 72 58 73 60 74 62 75 59 76
REMARK SMILES IDX 43 77 44 78 49 79 45 80 46 81 48 82 50 83 47 84
REMARK H PARENT 12 6 17 27 67 46 41 57
REMARK Flexibility Score: inf
ROOT
ATOM      1  C   UNL A   1      32.701  29.636  25.112  1.00  0.00     0.023 C 
ENDROOT
BRANCH   1   2
ATOM      2  C   UNL A   1      32.193  28.934  23.855  1.00  0.00     0.116 C 
BRANCH   2   3
ATOM      3  N   UNL A   1      33.115  27.940  23.354  1.00  0.00    -0.356 N 
ATOM      4  C   UNL A   1      33.117  26.590  23.487  1.00  0.00     0.224 C 
ATOM      5  O   UNL A   1      33.929  25.975  22.783  1.00  0.00    -0.275 OA
ATOM      6  H   UNL A   1      33.864  28.302  22.828  1.00  0.00     0.163 HD
BRANCH   4   7
ATOM      7  C   UNL A   1      32.201  25.804  24.428  1.00  0.00     0.098 C 
ATOM      8  N   UNL A   1      32.633  23.385  24.422  1.00  0.00    -0.356 N 
ATOM      9  C   UNL A   1      31.259  22.981  24.204  1.00  0.00     0.118 C 
ATOM     10  C   UNL A   1      32.896  24.635  25.115  1.00  0.00     0.131 C 
ATOM     11  C   UNL A   1      30.519  24.076  23.428  1.00  0.00     0.022 C 
ATOM     12  C   UNL A   1      30.787  25.504  23.915  1.00  0.00     0.017 C 
BRANCH   8  13
ATOM     13  C   UNL A   1      33.650  22.456  24.446  1.00  0.00     0.132 A 
ATOM     14  C   UNL A   1      34.293  18.781  24.750  1.00  0.00     0.067 C 
ATOM     15  C   UNL A   1      34.476  20.263  24.642  1.00  0.00     0.043 A 
ATOM     16  C   UNL A   1      33.396  21.103  24.450  1.00  0.00     0.070 A 
ATOM     17  N   UNL A   1      35.731  20.725  24.802  1.00  0.00    -0.238 NA
ATOM     18  C   UNL A   1      35.893  22.059  24.771  1.00  0.00     0.133 A 
ATOM     19  N   UNL A   1      34.894  22.939  24.601  1.00  0.00    -0.216 NA
BRANCH  18  20
ATOM     20  C   UNL A   1      37.271  22.628  25.024  1.00  0.00     0.051 C 
ATOM     21  C   UNL A   1      37.200  23.807  25.994  1.00  0.00     0.016 C 
ATOM     22  C   UNL A   1      38.235  21.555  25.525  1.00  0.00     0.016 C 
ENDBRANCH  18  20
ENDBRANCH   8  13
ENDBRANCH   4   7
ENDBRANCH   2   3
ENDBRANCH   1   2
BRANCH   1  23
ATOM     23  C   UNL A   1      33.857  28.921  25.807  1.00  0.00     0.023 C 
BRANCH  23  24
ATOM     24  C   UNL A   1      33.797  28.921  27.332  1.00  0.00     0.116 C 
BRANCH  24  25
ATOM     25  N   UNL A   1      33.806  30.243  27.943  1.00  0.00    -0.352 N 
ATOM     26  C   UNL A   1      34.865  30.859  28.579  1.00  0.00     0.251 C 
ATOM     27  H   UNL A   1      32.965  30.752  27.898  1.00  0.00     0.163 HD
ATOM     28  O   UNL A   1      34.752  31.950  29.111  1.00  0.00    -0.269 OA
BRANCH  26  29
ATOM     29  C   UNL A   1      36.148  30.127  28.630  1.00  0.00     0.039 A 
ATOM     30  C   UNL A   1      37.026  30.212  27.548  1.00  0.00     0.014 A 
ATOM     31  C   UNL A   1      36.522  29.476  29.808  1.00  0.00     0.014 A 
ATOM     32  C   UNL A   1      38.325  29.717  27.682  1.00  0.00     0.010 A 
ATOM     33  C   UNL A   1      37.832  29.045  29.961  1.00  0.00     0.010 A 
ATOM     34  C   UNL A   1      38.749  29.174  28.906  1.00  0.00    -0.014 A 
BRANCH  34  35
ATOM     35  C   UNL A   1      40.147  28.732  29.128  1.00  0.00     0.031 A 
ATOM     36  C   UNL A   1      41.147  29.703  29.685  1.00  0.00     0.074 A 
ATOM     37  C   UNL A   1      40.540  27.509  28.724  1.00  0.00     0.049 A 
ATOM     38  N   UNL A   1      42.445  29.585  29.793  1.00  0.00    -0.248 NA
ATOM     39  C   UNL A   1      40.617  30.998  30.143  1.00  0.00     0.031 C 
ATOM     40  C   UNL A   1      39.674  26.491  28.124  1.00  0.00     0.029 A 
ATOM     41  N   UNL A   1      41.781  26.923  28.733  1.00  0.00    -0.354 N 
ATOM     42  C   UNL A   1      42.890  30.800  30.298  1.00  0.00     0.074 A 
ATOM     43  C   UNL A   1      41.730  31.654  30.438  1.00  0.00     0.031 C 
ATOM     44  C   UNL A   1      40.408  25.404  27.834  1.00  0.00     0.029 A 
ATOM     45  C   UNL A   1      41.800  25.661  28.190  1.00  0.00     0.049 A 
ATOM     46  H   UNL A   1      42.583  27.366  29.094  1.00  0.00     0.167 HD
ATOM     47  C   UNL A   1      44.150  31.164  30.632  1.00  0.00     0.037 A 
ATOM     48  C   UNL A   1      42.828  24.813  27.993  1.00  0.00     0.037 A 
ATOM     49  C   UNL A   1      45.293  30.298  30.534  1.00  0.00     0.049 A 
ATOM     50  C   UNL A   1      44.214  25.228  28.403  1.00  0.00     0.074 A 
ATOM     51  C   UNL A   1      46.602  30.553  30.901  1.00  0.00     0.029 A 
ATOM     52  N   UNL A   1      45.258  29.003  30.039  1.00  0.00    -0.354 N 
ATOM     53  N   UNL A   1      44.615  26.362  28.924  1.00  0.00    -0.248 NA
ATOM     54  C   UNL A   1      45.289  24.247  28.199  1.00  0.00     0.031 C 
ATOM     55  C   UNL A   1      47.365  29.417  30.609  1.00  0.00     0.029 A 
ATOM     56  C   UNL A   1      46.523  28.445  30.091  1.00  0.00     0.049 A 
ATOM     57  H   UNL A   1      44.452  28.548  29.703  1.00  0.00     0.167 HD
ATOM     58  C   UNL A   1      45.978  26.218  29.146  1.00  0.00     0.074 A 
ATOM     59  C   UNL A   1      46.338  24.888  28.700  1.00  0.00     0.031 C 
ATOM     60  C   UNL A   1      46.852  27.108  29.674  1.00  0.00     0.037 A 
BRANCH  47  61
ATOM     61  C   UNL A   1      44.349  32.559  31.141  1.00  0.00     0.057 A 
ATOM     62  C   UNL A   1      44.632  33.626  30.278  1.00  0.00     0.134 A 
ATOM     63  C   UNL A   1      44.244  32.843  32.507  1.00  0.00     0.134 A 
ATOM     64  F   UNL A   1      44.760  33.416  28.958  1.00  0.00    -0.206 F 
ATOM     65  C   UNL A   1      44.829  34.921  30.758  1.00  0.00     0.040 A 
ATOM     66  C   UNL A   1      44.414  34.139  32.998  1.00  0.00     0.040 A 
ATOM     67  F   UNL A   1      43.972  31.868  33.388  1.00  0.00    -0.206 F 
ATOM     68  C   UNL A   1      44.714  35.181  32.123  1.00  0.00     0.006 A 
ENDBRANCH  47  61
BRANCH  48  69
ATOM     69  C   UNL A   1      42.584  23.472  27.406  1.00  0.00     0.057 A 
ATOM     70  C   UNL A   1      42.679  23.265  26.026  1.00  0.00     0.134 A 
ATOM     71  C   UNL A   1      42.244  22.372  28.203  1.00  0.00     0.134 A 
ATOM     72  F   UNL A   1      42.981  24.286  25.211  1.00  0.00    -0.206 F 
ATOM     73  C   UNL A   1      42.427  22.016  25.454  1.00  0.00     0.040 A 
ATOM     74  C   UNL A   1      42.011  21.113  27.646  1.00  0.00     0.040 A 
ATOM     75  F   UNL A   1      42.144  22.505  29.533  1.00  0.00    -0.206 F 
ATOM     76  C   UNL A   1      42.097  20.935  26.266  1.00  0.00     0.006 A 
ENDBRANCH  48  69
BRANCH  60  77
ATOM     77  C   UNL A   1      48.269  26.658  29.859  1.00  0.00     0.057 A 
ATOM     78  C   UNL A   1      48.684  25.974  31.006  1.00  0.00     0.134 A 
ATOM     79  C   UNL A   1      49.209  26.851  28.839  1.00  0.00     0.134 A 
ATOM     80  F   UNL A   1      47.831  25.768  32.021  1.00  0.00    -0.206 F 
ATOM     81  C   UNL A   1      49.992  25.502  31.137  1.00  0.00     0.040 A 
ATOM     82  C   UNL A   1      50.513  26.367  28.950  1.00  0.00     0.040 A 
ATOM     83  F   UNL A   1      48.869  27.494  27.712  1.00  0.00    -0.206 F 
ATOM     84  C   UNL A   1      50.907  25.690  30.102  1.00  0.00     0.006 A 
ENDBRANCH  60  77
ENDBRANCH  34  35
ENDBRANCH  26  29
ENDBRANCH  24  25
ENDBRANCH  23  24
ENDBRANCH   1  23
TORSDOF 13
ENDMDL
