MODEL 1
REMARK VINA RESULT:     -10.7      0.000      0.000
REMARK SMILES O=C(NCCCCNC(=O)c1cn2ccnc2s1)c1ccc(-c2c3nc(c(-c4c(F)cccc4F)c4ccc([nH]4)c(-c4c(F)cccc4F)c4nc(c(-c5c(F)cccc5F)c5ccc2[nH]5)C=C4)C=C3)cc1
REMARK SMILES IDX 4 1 3 2 1 3 2 4 19 6 20 7 72 8 21 9 71 10 22 11 23 12 24 13
REMARK SMILES IDX 65 14 25 15 70 16 64 17 66 18 26 19 69 20 63 21 62 22 27 24
REMARK SMILES IDX 53 25 36 26 52 27 37 28 40 29 51 30 67 31 38 32 39 33 50 35
REMARK SMILES IDX 68 36 41 37 28 38 29 39 34 40 30 41 31 42 33 43 35 44 32 45
REMARK SMILES IDX 54 46 55 47 60 48 56 49 57 50 59 51 61 52 58 53 42 54 43 55
REMARK SMILES IDX 48 56 44 57 45 58 47 59 49 60 46 61 5 62 6 63 7 64 8 65 9 66
REMARK SMILES IDX 10 68 11 69 12 70 18 71 13 72 17 73 14 74 16 75 15 76
REMARK H PARENT 3 5 66 23 40 34 8 67
REMARK Flexibility Score: inf
ROOT
ATOM      1  C   UNL A   1      38.882  20.142  25.741  1.00  0.00     0.116 C 
ENDROOT
BRANCH   1   2
ATOM      2  N   UNL A   1      40.004  19.217  25.769  1.00  0.00    -0.352 N 
ATOM      3  O   UNL A   1      42.168  18.595  25.916  1.00  0.00    -0.269 OA
ATOM      4  C   UNL A   1      41.319  19.468  26.077  1.00  0.00     0.251 C 
ATOM      5  H   UNL A   1      39.792  18.285  25.535  1.00  0.00     0.163 HD
BRANCH   4   6
ATOM      6  C   UNL A   1      41.714  20.799  26.585  1.00  0.00     0.039 A 
ATOM      7  C   UNL A   1      42.118  21.804  25.703  1.00  0.00     0.014 A 
ATOM      8  C   UNL A   1      41.661  21.048  27.959  1.00  0.00     0.014 A 
ATOM      9  C   UNL A   1      42.577  23.018  26.202  1.00  0.00     0.010 A 
ATOM     10  C   UNL A   1      42.049  22.296  28.454  1.00  0.00     0.010 A 
ATOM     11  C   UNL A   1      42.520  23.286  27.579  1.00  0.00    -0.014 A 
BRANCH  11  12
ATOM     12  C   UNL A   1      42.841  24.651  28.064  1.00  0.00     0.031 A 
ATOM     13  C   UNL A   1      41.770  25.678  28.291  1.00  0.00     0.074 A 
ATOM     14  C   UNL A   1      44.134  24.950  28.299  1.00  0.00     0.049 A 
ATOM     15  N   UNL A   1      41.896  26.914  28.705  1.00  0.00    -0.248 NA
ATOM     16  C   UNL A   1      40.382  25.275  28.016  1.00  0.00     0.031 C 
ATOM     17  C   UNL A   1      45.260  24.034  28.088  1.00  0.00     0.029 A 
ATOM     18  N   UNL A   1      44.723  26.095  28.766  1.00  0.00    -0.354 N 
ATOM     19  C   UNL A   1      40.613  27.444  28.722  1.00  0.00     0.074 A 
ATOM     20  C   UNL A   1      39.720  26.399  28.265  1.00  0.00     0.031 C 
ATOM     21  C   UNL A   1      46.397  24.644  28.450  1.00  0.00     0.029 A 
ATOM     22  C   UNL A   1      46.091  26.009  28.859  1.00  0.00     0.049 A 
ATOM     23  H   UNL A   1      44.215  26.901  29.013  1.00  0.00     0.167 HD
ATOM     24  C   UNL A   1      40.223  28.687  29.092  1.00  0.00     0.037 A 
ATOM     25  C   UNL A   1      47.004  26.934  29.204  1.00  0.00     0.037 A 
ATOM     26  C   UNL A   1      41.118  29.712  29.567  1.00  0.00     0.049 A 
ATOM     27  C   UNL A   1      46.538  28.308  29.582  1.00  0.00     0.074 A 
ATOM     28  C   UNL A   1      40.804  30.976  30.040  1.00  0.00     0.029 A 
ATOM     29  N   UNL A   1      42.498  29.596  29.621  1.00  0.00    -0.354 N 
ATOM     30  N   UNL A   1      45.315  28.770  29.659  1.00  0.00    -0.248 NA
ATOM     31  C   UNL A   1      47.578  29.291  29.912  1.00  0.00     0.031 C 
ATOM     32  C   UNL A   1      41.999  31.642  30.330  1.00  0.00     0.029 A 
ATOM     33  C   UNL A   1      43.053  30.779  30.080  1.00  0.00     0.049 A 
ATOM     34  H   UNL A   1      43.008  28.792  29.370  1.00  0.00     0.167 HD
ATOM     35  C   UNL A   1      45.436  30.096  30.048  1.00  0.00     0.074 A 
ATOM     36  C   UNL A   1      46.850  30.354  30.223  1.00  0.00     0.031 C 
ATOM     37  C   UNL A   1      44.464  31.021  30.236  1.00  0.00     0.037 A 
BRANCH  24  38
ATOM     38  C   UNL A   1      38.767  29.033  28.990  1.00  0.00     0.057 A 
ATOM     39  C   UNL A   1      37.912  28.968  30.097  1.00  0.00     0.134 A 
ATOM     40  C   UNL A   1      38.239  29.538  27.794  1.00  0.00     0.134 A 
ATOM     41  F   UNL A   1      38.354  28.490  31.270  1.00  0.00    -0.206 F 
ATOM     42  C   UNL A   1      36.583  29.390  30.018  1.00  0.00     0.040 A 
ATOM     43  C   UNL A   1      36.918  29.980  27.707  1.00  0.00     0.040 A 
ATOM     44  F   UNL A   1      39.007  29.633  26.699  1.00  0.00    -0.206 F 
ATOM     45  C   UNL A   1      36.086  29.908  28.823  1.00  0.00     0.006 A 
ENDBRANCH  24  38
BRANCH  25  46
ATOM     46  C   UNL A   1      48.448  26.599  29.168  1.00  0.00     0.057 A 
ATOM     47  C   UNL A   1      49.106  26.089  30.292  1.00  0.00     0.134 A 
ATOM     48  C   UNL A   1      49.207  26.790  28.006  1.00  0.00     0.134 A 
ATOM     49  F   UNL A   1      48.436  25.900  31.438  1.00  0.00    -0.206 F 
ATOM     50  C   UNL A   1      50.471  25.800  30.269  1.00  0.00     0.040 A 
ATOM     51  C   UNL A   1      50.566  26.479  27.960  1.00  0.00     0.040 A 
ATOM     52  F   UNL A   1      48.632  27.268  26.892  1.00  0.00    -0.206 F 
ATOM     53  C   UNL A   1      51.204  25.991  29.098  1.00  0.00     0.006 A 
ENDBRANCH  25  46
BRANCH  37  54
ATOM     54  C   UNL A   1      44.906  32.392  30.650  1.00  0.00     0.057 A 
ATOM     55  C   UNL A   1      45.155  33.395  29.705  1.00  0.00     0.134 A 
ATOM     56  C   UNL A   1      45.065  32.717  32.002  1.00  0.00     0.134 A 
ATOM     57  F   UNL A   1      45.038  33.139  28.394  1.00  0.00    -0.206 F 
ATOM     58  C   UNL A   1      45.568  34.671  30.092  1.00  0.00     0.040 A 
ATOM     59  C   UNL A   1      45.454  33.996  32.402  1.00  0.00     0.040 A 
ATOM     60  F   UNL A   1      44.836  31.801  32.955  1.00  0.00    -0.206 F 
ATOM     61  C   UNL A   1      45.713  34.975  31.444  1.00  0.00     0.006 A 
ENDBRANCH  37  54
ENDBRANCH  11  12
ENDBRANCH   4   6
ENDBRANCH   1   2
BRANCH   1  62
ATOM     62  C   UNL A   1      37.778  19.706  24.787  1.00  0.00     0.023 C 
BRANCH  62  63
ATOM     63  C   UNL A   1      36.412  20.343  25.037  1.00  0.00     0.023 C 
BRANCH  63  64
ATOM     64  C   UNL A   1      36.433  21.846  25.305  1.00  0.00     0.116 C 
BRANCH  64  65
ATOM     65  N   UNL A   1      36.178  22.629  24.108  1.00  0.00    -0.351 N 
ATOM     66  C   UNL A   1      35.027  23.232  23.684  1.00  0.00     0.263 C 
ATOM     67  H   UNL A   1      36.952  22.741  23.509  1.00  0.00     0.163 HD
ATOM     68  O   UNL A   1      34.989  23.756  22.574  1.00  0.00    -0.268 OA
BRANCH  66  69
ATOM     69  C   UNL A   1      33.859  23.243  24.585  1.00  0.00     0.112 A 
ATOM     70  C   UNL A   1      32.819  22.391  24.551  1.00  0.00     0.118 A 
ATOM     71  S   UNL A   1      33.755  24.446  25.874  1.00  0.00    -0.091 S 
ATOM     72  N   UNL A   1      31.893  22.718  25.508  1.00  0.00    -0.297 N 
ATOM     73  C   UNL A   1      32.211  23.779  26.303  1.00  0.00     0.194 A 
ATOM     74  C   UNL A   1      30.661  22.281  25.888  1.00  0.00     0.114 A 
ATOM     75  N   UNL A   1      31.286  24.075  27.171  1.00  0.00    -0.227 NA
ATOM     76  C   UNL A   1      30.304  23.133  26.920  1.00  0.00     0.133 A 
ENDBRANCH  66  69
ENDBRANCH  64  65
ENDBRANCH  63  64
ENDBRANCH  62  63
ENDBRANCH   1  62
TORSDOF 11
ENDMDL
MODEL 2
REMARK VINA RESULT:     -10.7      1.153      2.129
REMARK SMILES O=C(NCCCCNC(=O)c1cn2ccnc2s1)c1ccc(-c2c3nc(c(-c4c(F)cccc4F)c4ccc([nH]4)c(-c4c(F)cccc4F)c4nc(c(-c5c(F)cccc5F)c5ccc2[nH]5)C=C4)C=C3)cc1
REMARK SMILES IDX 4 1 3 2 1 3 2 4 19 6 20 7 72 8 21 9 71 10 22 11 23 12 24 13
REMARK SMILES IDX 65 14 25 15 70 16 64 17 66 18 26 19 69 20 63 21 62 22 27 24
REMARK SMILES IDX 53 25 36 26 52 27 37 28 40 29 51 30 67 31 38 32 39 33 50 35
REMARK SMILES IDX 68 36 41 37 28 38 29 39 34 40 30 41 31 42 33 43 35 44 32 45
REMARK SMILES IDX 54 46 55 47 60 48 56 49 57 50 59 51 61 52 58 53 42 54 43 55
REMARK SMILES IDX 48 56 44 57 45 58 47 59 49 60 46 61 5 62 6 63 7 64 8 65 9 66
REMARK SMILES IDX 10 68 11 69 12 70 18 71 13 72 17 73 14 74 16 75 15 76
REMARK H PARENT 3 5 66 23 40 34 8 67
REMARK Flexibility Score: inf
ROOT
ATOM      1  C   UNL A   1      39.075  20.019  25.835  1.00  0.00     0.116 C 
ENDROOT
BRANCH   1   2
ATOM      2  N   UNL A   1      40.148  19.039  25.906  1.00  0.00    -0.352 N 
ATOM      3  O   UNL A   1      42.282  18.313  26.018  1.00  0.00    -0.269 OA
ATOM      4  C   UNL A   1      41.488  19.245  26.127  1.00  0.00     0.251 C 
ATOM      5  H   UNL A   1      39.876  18.102  25.779  1.00  0.00     0.163 HD
BRANCH   4   6
ATOM      6  C   UNL A   1      41.977  20.595  26.478  1.00  0.00     0.039 A 
ATOM      7  C   UNL A   1      42.309  21.513  25.479  1.00  0.00     0.014 A 
ATOM      8  C   UNL A   1      42.086  20.952  27.825  1.00  0.00     0.014 A 
ATOM      9  C   UNL A   1      42.856  22.742  25.823  1.00  0.00     0.010 A 
ATOM     10  C   UNL A   1      42.564  22.219  28.171  1.00  0.00     0.010 A 
ATOM     11  C   UNL A   1      42.963  23.119  27.172  1.00  0.00    -0.014 A 
BRANCH  11  12
ATOM     12  C   UNL A   1      43.376  24.504  27.506  1.00  0.00     0.031 A 
ATOM     13  C   UNL A   1      42.378  25.545  27.924  1.00  0.00     0.074 A 
ATOM     14  C   UNL A   1      44.686  24.809  27.424  1.00  0.00     0.049 A 
ATOM     15  N   UNL A   1      42.586  26.799  28.239  1.00  0.00    -0.248 NA
ATOM     16  C   UNL A   1      40.967  25.135  27.993  1.00  0.00     0.031 C 
ATOM     17  C   UNL A   1      45.741  23.880  27.005  1.00  0.00     0.029 A 
ATOM     18  N   UNL A   1      45.358  25.973  27.691  1.00  0.00    -0.354 N 
ATOM     19  C   UNL A   1      41.337  27.334  28.524  1.00  0.00     0.074 A 
ATOM     20  C   UNL A   1      40.371  26.272  28.334  1.00  0.00     0.031 C 
ATOM     21  C   UNL A   1      46.926  24.502  27.068  1.00  0.00     0.029 A 
ATOM     22  C   UNL A   1      46.711  25.886  27.472  1.00  0.00     0.049 A 
ATOM     23  H   UNL A   1      44.914  26.792  28.009  1.00  0.00     0.167 HD
ATOM     24  C   UNL A   1      41.033  28.594  28.914  1.00  0.00     0.037 A 
ATOM     25  C   UNL A   1      47.673  26.823  27.555  1.00  0.00     0.037 A 
ATOM     26  C   UNL A   1      42.006  29.637  29.124  1.00  0.00     0.049 A 
ATOM     27  C   UNL A   1      47.296  28.215  27.964  1.00  0.00     0.074 A 
ATOM     28  C   UNL A   1      41.800  30.923  29.596  1.00  0.00     0.029 A 
ATOM     29  N   UNL A   1      43.363  29.519  28.866  1.00  0.00    -0.354 N 
ATOM     30  N   UNL A   1      46.119  28.685  28.297  1.00  0.00    -0.248 NA
ATOM     31  C   UNL A   1      48.376  29.209  28.001  1.00  0.00     0.031 C 
ATOM     32  C   UNL A   1      43.024  31.598  29.573  1.00  0.00     0.029 A 
ATOM     33  C   UNL A   1      44.000  30.721  29.130  1.00  0.00     0.049 A 
ATOM     34  H   UNL A   1      43.808  28.702  28.543  1.00  0.00     0.167 HD
ATOM     35  C   UNL A   1      46.316  30.027  28.585  1.00  0.00     0.074 A 
ATOM     36  C   UNL A   1      47.731  30.288  28.420  1.00  0.00     0.031 C 
ATOM     37  C   UNL A   1      45.407  30.964  28.947  1.00  0.00     0.037 A 
BRANCH  24  38
ATOM     38  C   UNL A   1      39.590  28.941  29.132  1.00  0.00     0.057 A 
ATOM     39  C   UNL A   1      38.758  29.339  28.080  1.00  0.00     0.134 A 
ATOM     40  C   UNL A   1      39.002  28.772  30.394  1.00  0.00     0.134 A 
ATOM     41  F   UNL A   1      39.258  29.523  26.849  1.00  0.00    -0.206 F 
ATOM     42  C   UNL A   1      37.392  29.559  28.273  1.00  0.00     0.040 A 
ATOM     43  C   UNL A   1      37.636  28.971  30.596  1.00  0.00     0.040 A 
ATOM     44  F   UNL A   1      39.744  28.385  31.443  1.00  0.00    -0.206 F 
ATOM     45  C   UNL A   1      36.827  29.365  29.533  1.00  0.00     0.006 A 
ENDBRANCH  24  38
BRANCH  25  46
ATOM     46  C   UNL A   1      49.073  26.481  27.205  1.00  0.00     0.057 A 
ATOM     47  C   UNL A   1      49.570  26.679  25.912  1.00  0.00     0.134 A 
ATOM     48  C   UNL A   1      49.946  25.939  28.157  1.00  0.00     0.134 A 
ATOM     49  F   UNL A   1      48.776  27.179  24.954  1.00  0.00    -0.206 F 
ATOM     50  C   UNL A   1      50.878  26.333  25.573  1.00  0.00     0.040 A 
ATOM     51  C   UNL A   1      51.265  25.615  27.839  1.00  0.00     0.040 A 
ATOM     52  F   UNL A   1      49.532  25.733  29.416  1.00  0.00    -0.206 F 
ATOM     53  C   UNL A   1      51.732  25.803  26.541  1.00  0.00     0.006 A 
ENDBRANCH  25  46
BRANCH  37  54
ATOM     54  C   UNL A   1      45.922  32.351  29.184  1.00  0.00     0.057 A 
ATOM     55  C   UNL A   1      46.366  32.759  30.448  1.00  0.00     0.134 A 
ATOM     56  C   UNL A   1      45.990  33.280  28.139  1.00  0.00     0.134 A 
ATOM     57  F   UNL A   1      46.308  31.921  31.493  1.00  0.00    -0.206 F 
ATOM     58  C   UNL A   1      46.842  34.052  30.668  1.00  0.00     0.040 A 
ATOM     59  C   UNL A   1      46.488  34.568  28.341  1.00  0.00     0.040 A 
ATOM     60  F   UNL A   1      45.585  32.948  26.903  1.00  0.00    -0.206 F 
ATOM     61  C   UNL A   1      46.910  34.959  29.611  1.00  0.00     0.006 A 
ENDBRANCH  37  54
ENDBRANCH  11  12
ENDBRANCH   4   6
ENDBRANCH   1   2
BRANCH   1  62
ATOM     62  C   UNL A   1      38.085  19.733  24.715  1.00  0.00     0.023 C 
BRANCH  62  63
ATOM     63  C   UNL A   1      36.636  20.118  25.012  1.00  0.00     0.023 C 
BRANCH  63  64
ATOM     64  C   UNL A   1      36.408  21.593  25.335  1.00  0.00     0.116 C 
BRANCH  64  65
ATOM     65  N   UNL A   1      36.211  22.400  24.143  1.00  0.00    -0.351 N 
ATOM     66  C   UNL A   1      35.102  23.073  23.713  1.00  0.00     0.263 C 
ATOM     67  H   UNL A   1      36.997  22.473  23.554  1.00  0.00     0.163 HD
ATOM     68  O   UNL A   1      35.107  23.608  22.608  1.00  0.00    -0.268 OA
BRANCH  66  69
ATOM     69  C   UNL A   1      33.926  23.142  24.602  1.00  0.00     0.112 A 
ATOM     70  C   UNL A   1      32.840  22.352  24.548  1.00  0.00     0.118 A 
ATOM     71  S   UNL A   1      33.877  24.338  25.900  1.00  0.00    -0.091 S 
ATOM     72  N   UNL A   1      31.923  22.723  25.499  1.00  0.00    -0.297 N 
ATOM     73  C   UNL A   1      32.293  23.757  26.306  1.00  0.00     0.194 A 
ATOM     74  C   UNL A   1      30.664  22.354  25.861  1.00  0.00     0.114 A 
ATOM     75  N   UNL A   1      31.376  24.098  27.168  1.00  0.00    -0.227 NA
ATOM     76  C   UNL A   1      30.345  23.216  26.897  1.00  0.00     0.133 A 
ENDBRANCH  66  69
ENDBRANCH  64  65
ENDBRANCH  63  64
ENDBRANCH  62  63
ENDBRANCH   1  62
TORSDOF 11
ENDMDL
MODEL 3
REMARK VINA RESULT:     -10.7      4.994      9.679
REMARK SMILES O=C(NCCCCNC(=O)c1cn2ccnc2s1)c1ccc(-c2c3nc(c(-c4c(F)cccc4F)c4ccc([nH]4)c(-c4c(F)cccc4F)c4nc(c(-c5c(F)cccc5F)c5ccc2[nH]5)C=C4)C=C3)cc1
REMARK SMILES IDX 4 1 3 2 1 3 2 4 19 6 20 7 72 8 21 9 71 10 22 11 23 12 24 13
REMARK SMILES IDX 65 14 25 15 70 16 64 17 66 18 26 19 69 20 63 21 62 22 27 24
REMARK SMILES IDX 53 25 36 26 52 27 37 28 40 29 51 30 67 31 38 32 39 33 50 35
REMARK SMILES IDX 68 36 41 37 28 38 29 39 34 40 30 41 31 42 33 43 35 44 32 45
REMARK SMILES IDX 54 46 55 47 60 48 56 49 57 50 59 51 61 52 58 53 42 54 43 55
REMARK SMILES IDX 48 56 44 57 45 58 47 59 49 60 46 61 5 62 6 63 7 64 8 65 9 66
REMARK SMILES IDX 10 68 11 69 12 70 18 71 13 72 17 73 14 74 16 75 15 76
REMARK H PARENT 3 5 66 23 40 34 8 67
REMARK Flexibility Score: inf
ROOT
ATOM      1  C   UNL A   1      32.504  32.461  27.124  1.00  0.00     0.116 C 
ENDROOT
BRANCH   1   2
ATOM      2  N   UNL A   1      32.392  33.846  27.552  1.00  0.00    -0.352 N 
ATOM      3  O   UNL A   1      32.810  35.655  28.836  1.00  0.00    -0.269 OA
ATOM      4  C   UNL A   1      33.130  34.518  28.497  1.00  0.00     0.251 C 
ATOM      5  H   UNL A   1      31.692  34.374  27.105  1.00  0.00     0.163 HD
BRANCH   4   6
ATOM      6  C   UNL A   1      34.301  33.862  29.118  1.00  0.00     0.039 A 
ATOM      7  C   UNL A   1      34.129  32.831  30.043  1.00  0.00     0.014 A 
ATOM      8  C   UNL A   1      35.585  34.275  28.754  1.00  0.00     0.014 A 
ATOM      9  C   UNL A   1      35.233  32.289  30.689  1.00  0.00     0.010 A 
ATOM     10  C   UNL A   1      36.701  33.675  29.347  1.00  0.00     0.010 A 
ATOM     11  C   UNL A   1      36.532  32.686  30.327  1.00  0.00    -0.014 A 
BRANCH  11  12
ATOM     12  C   UNL A   1      37.694  31.962  30.897  1.00  0.00     0.031 A 
ATOM     13  C   UNL A   1      38.422  30.905  30.120  1.00  0.00     0.074 A 
ATOM     14  C   UNL A   1      38.086  32.282  32.146  1.00  0.00     0.049 A 
ATOM     15  N   UNL A   1      39.450  30.181  30.487  1.00  0.00    -0.248 NA
ATOM     16  C   UNL A   1      37.938  30.614  28.761  1.00  0.00     0.031 C 
ATOM     17  C   UNL A   1      37.434  33.278  33.003  1.00  0.00     0.029 A 
ATOM     18  N   UNL A   1      39.120  31.814  32.914  1.00  0.00    -0.354 N 
ATOM     19  C   UNL A   1      39.725  29.338  29.418  1.00  0.00     0.074 A 
ATOM     20  C   UNL A   1      38.748  29.630  28.390  1.00  0.00     0.031 C 
ATOM     21  C   UNL A   1      38.099  33.365  34.163  1.00  0.00     0.029 A 
ATOM     22  C   UNL A   1      39.182  32.391  34.159  1.00  0.00     0.049 A 
ATOM     23  H   UNL A   1      39.757  31.131  32.602  1.00  0.00     0.167 HD
ATOM     24  C   UNL A   1      40.708  28.412  29.311  1.00  0.00     0.037 A 
ATOM     25  C   UNL A   1      40.001  32.144  35.197  1.00  0.00     0.037 A 
ATOM     26  C   UNL A   1      41.690  28.147  30.332  1.00  0.00     0.049 A 
ATOM     27  C   UNL A   1      41.061  31.093  35.052  1.00  0.00     0.074 A 
ATOM     28  C   UNL A   1      42.771  27.283  30.281  1.00  0.00     0.029 A 
ATOM     29  N   UNL A   1      41.704  28.732  31.589  1.00  0.00    -0.354 N 
ATOM     30  N   UNL A   1      41.349  30.354  34.009  1.00  0.00    -0.248 NA
ATOM     31  C   UNL A   1      41.901  30.835  36.227  1.00  0.00     0.031 C 
ATOM     32  C   UNL A   1      43.409  27.307  31.526  1.00  0.00     0.029 A 
ATOM     33  C   UNL A   1      42.751  28.218  32.336  1.00  0.00     0.049 A 
ATOM     34  H   UNL A   1      41.065  29.411  31.903  1.00  0.00     0.167 HD
ATOM     35  C   UNL A   1      42.406  29.545  34.401  1.00  0.00     0.074 A 
ATOM     36  C   UNL A   1      42.728  29.908  35.765  1.00  0.00     0.031 C 
ATOM     37  C   UNL A   1      43.048  28.582  33.697  1.00  0.00     0.037 A 
BRANCH  24  38
ATOM     38  C   UNL A   1      40.778  27.596  28.055  1.00  0.00     0.057 A 
ATOM     39  C   UNL A   1      41.537  28.001  26.950  1.00  0.00     0.134 A 
ATOM     40  C   UNL A   1      40.163  26.337  27.990  1.00  0.00     0.134 A 
ATOM     41  F   UNL A   1      42.146  29.196  26.946  1.00  0.00    -0.206 F 
ATOM     42  C   UNL A   1      41.680  27.186  25.825  1.00  0.00     0.040 A 
ATOM     43  C   UNL A   1      40.314  25.506  26.879  1.00  0.00     0.040 A 
ATOM     44  F   UNL A   1      39.428  25.887  29.018  1.00  0.00    -0.206 F 
ATOM     45  C   UNL A   1      41.075  25.930  25.793  1.00  0.00     0.006 A 
ENDBRANCH  24  38
BRANCH  25  46
ATOM     46  C   UNL A   1      39.822  32.877  36.473  1.00  0.00     0.057 A 
ATOM     47  C   UNL A   1      38.876  32.471  37.421  1.00  0.00     0.134 A 
ATOM     48  C   UNL A   1      40.589  34.011  36.771  1.00  0.00     0.134 A 
ATOM     49  F   UNL A   1      38.101  31.402  37.184  1.00  0.00    -0.206 F 
ATOM     50  C   UNL A   1      38.686  33.175  38.610  1.00  0.00     0.040 A 
ATOM     51  C   UNL A   1      40.429  34.708  37.968  1.00  0.00     0.040 A 
ATOM     52  F   UNL A   1      41.518  34.447  35.907  1.00  0.00    -0.206 F 
ATOM     53  C   UNL A   1      39.468  34.296  38.888  1.00  0.00     0.006 A 
ENDBRANCH  25  46
BRANCH  37  54
ATOM     54  C   UNL A   1      44.158  27.858  34.397  1.00  0.00     0.057 A 
ATOM     55  C   UNL A   1      45.466  28.358  34.403  1.00  0.00     0.134 A 
ATOM     56  C   UNL A   1      43.914  26.664  35.085  1.00  0.00     0.134 A 
ATOM     57  F   UNL A   1      45.765  29.488  33.746  1.00  0.00    -0.206 F 
ATOM     58  C   UNL A   1      46.499  27.682  35.053  1.00  0.00     0.040 A 
ATOM     59  C   UNL A   1      44.935  25.992  35.760  1.00  0.00     0.040 A 
ATOM     60  F   UNL A   1      42.681  26.137  35.122  1.00  0.00    -0.206 F 
ATOM     61  C   UNL A   1      46.233  26.498  35.739  1.00  0.00     0.006 A 
ENDBRANCH  37  54
ENDBRANCH  11  12
ENDBRANCH   4   6
ENDBRANCH   1   2
BRANCH   1  62
ATOM     62  C   UNL A   1      31.253  31.956  26.418  1.00  0.00     0.023 C 
BRANCH  62  63
ATOM     63  C   UNL A   1      31.436  30.672  25.609  1.00  0.00     0.023 C 
BRANCH  63  64
ATOM     64  C   UNL A   1      32.549  29.748  26.097  1.00  0.00     0.116 C 
BRANCH  64  65
ATOM     65  N   UNL A   1      32.041  28.611  26.844  1.00  0.00    -0.351 N 
ATOM     66  C   UNL A   1      31.740  27.347  26.420  1.00  0.00     0.263 C 
ATOM     67  H   UNL A   1      31.889  28.776  27.803  1.00  0.00     0.163 HD
ATOM     68  O   UNL A   1      31.208  26.557  27.195  1.00  0.00    -0.268 OA
BRANCH  66  69
ATOM     69  C   UNL A   1      32.075  26.965  25.035  1.00  0.00     0.112 A 
ATOM     70  C   UNL A   1      31.231  26.947  23.988  1.00  0.00     0.118 A 
ATOM     71  S   UNL A   1      33.728  26.497  24.628  1.00  0.00    -0.091 S 
ATOM     72  N   UNL A   1      31.869  26.502  22.858  1.00  0.00    -0.297 N 
ATOM     73  C   UNL A   1      33.193  26.211  23.001  1.00  0.00     0.194 A 
ATOM     74  C   UNL A   1      31.527  26.219  21.572  1.00  0.00     0.114 A 
ATOM     75  N   UNL A   1      33.747  25.758  21.913  1.00  0.00    -0.227 NA
ATOM     76  C   UNL A   1      32.705  25.761  21.003  1.00  0.00     0.133 A 
ENDBRANCH  66  69
ENDBRANCH  64  65
ENDBRANCH  63  64
ENDBRANCH  62  63
ENDBRANCH   1  62
TORSDOF 11
ENDMDL
