MODEL 1
REMARK VINA RESULT:     -10.7      0.000      0.000
REMARK SMILES C[C@H](Nc1ccc(N(C)C)cc1)[C@@H](C)C(=O)NCCCCNC(=O)c1ccc(-c2c3nc(c(-c4c(F)cccc4F)c4ccc([nH]4)c(-c4c(F)cccc4F)c4nc(c(-c5c(F)cccc5F)c5ccc2[nH]5)C=C4)C=C3)cc1
REMARK SMILES IDX 18 1 17 2 15 3 16 4 13 6 14 7 2 8 1 9 3 10 4 12 5 13 12 14
REMARK SMILES IDX 6 15 11 16 7 17 8 18 9 19 10 20 19 21 20 22 21 23 22 24
REMARK SMILES IDX 23 25 24 27 25 28 26 29 78 30 27 31 77 32 28 33 29 34 30 35
REMARK SMILES IDX 71 36 31 37 76 38 70 39 72 40 32 41 75 42 69 43 68 44 33 46
REMARK SMILES IDX 59 47 42 48 58 49 43 50 46 51 57 52 73 53 44 54 45 55 56 57
REMARK SMILES IDX 74 58 47 59 34 60 35 61 40 62 36 63 37 64 39 65 41 66 38 67
REMARK SMILES IDX 60 68 61 69 66 70 62 71 63 72 65 73 67 74 64 75 48 76 49 77
REMARK SMILES IDX 54 78 50 79 51 80 53 81 55 82 52 83
REMARK H PARENT 17 5 3 11 22 26 72 45 46 56
REMARK Flexibility Score: inf
ROOT
ATOM      1  C   UNL A   1      36.671  21.823  25.601  1.00  0.00     0.116 C 
ENDROOT
BRANCH   1   2
ATOM      2  N   UNL A   1      35.505  22.289  26.327  1.00  0.00    -0.356 N 
ATOM      3  C   UNL A   1      34.461  23.069  25.940  1.00  0.00     0.224 C 
ATOM      4  O   UNL A   1      33.601  23.318  26.789  1.00  0.00    -0.275 OA
ATOM      5  H   UNL A   1      35.463  21.988  27.263  1.00  0.00     0.163 HD
BRANCH   3   6
ATOM      6  C   UNL A   1      34.323  23.613  24.522  1.00  0.00     0.097 C 
ATOM      7  C   UNL A   1      33.596  24.962  24.554  1.00  0.00     0.020 C 
BRANCH   6   8
ATOM      8  C   UNL A   1      33.768  22.555  23.538  1.00  0.00     0.088 C 
ATOM      9  C   UNL A   1      33.244  23.238  22.260  1.00  0.00     0.031 C 
BRANCH   8  10
ATOM     10  N   UNL A   1      32.688  21.790  24.165  1.00  0.00    -0.382 N 
ATOM     11  H   UNL A   1      31.850  22.265  24.371  1.00  0.00     0.160 HD
BRANCH  10  12
ATOM     12  C   UNL A   1      32.765  20.448  24.488  1.00  0.00     0.034 A 
ATOM     13  C   UNL A   1      32.897  19.518  23.460  1.00  0.00     0.028 A 
ATOM     14  C   UNL A   1      32.777  19.952  25.786  1.00  0.00     0.028 A 
ATOM     15  C   UNL A   1      33.109  18.155  23.720  1.00  0.00     0.028 A 
ATOM     16  C   UNL A   1      32.986  18.584  26.043  1.00  0.00     0.028 A 
ATOM     17  C   UNL A   1      33.188  17.640  25.020  1.00  0.00     0.036 A 
BRANCH  17  18
ATOM     18  N   UNL A   1      33.435  16.302  25.290  1.00  0.00    -0.378 N 
ATOM     19  C   UNL A   1      32.391  15.286  25.378  1.00  0.00     0.143 C 
ATOM     20  C   UNL A   1      34.802  15.787  25.292  1.00  0.00     0.143 C 
ENDBRANCH  17  18
ENDBRANCH  10  12
ENDBRANCH   8  10
ENDBRANCH   6   8
ENDBRANCH   3   6
ENDBRANCH   1   2
BRANCH   1  21
ATOM     21  C   UNL A   1      36.453  20.435  25.004  1.00  0.00     0.023 C 
BRANCH  21  22
ATOM     22  C   UNL A   1      37.699  19.552  24.969  1.00  0.00     0.023 C 
BRANCH  22  23
ATOM     23  C   UNL A   1      38.891  20.092  25.746  1.00  0.00     0.116 C 
BRANCH  23  24
ATOM     24  N   UNL A   1      40.011  19.165  25.790  1.00  0.00    -0.352 N 
ATOM     25  C   UNL A   1      41.326  19.417  26.083  1.00  0.00     0.251 C 
ATOM     26  H   UNL A   1      39.793  18.228  25.581  1.00  0.00     0.163 HD
ATOM     27  O   UNL A   1      42.168  18.532  25.947  1.00  0.00    -0.269 OA
BRANCH  25  28
ATOM     28  C   UNL A   1      41.734  20.763  26.536  1.00  0.00     0.039 A 
ATOM     29  C   UNL A   1      42.080  21.717  25.577  1.00  0.00     0.014 A 
ATOM     30  C   UNL A   1      41.776  21.083  27.896  1.00  0.00     0.014 A 
ATOM     31  C   UNL A   1      42.433  23.005  25.983  1.00  0.00     0.010 A 
ATOM     32  C   UNL A   1      42.039  22.390  28.292  1.00  0.00     0.010 A 
ATOM     33  C   UNL A   1      42.394  23.358  27.341  1.00  0.00    -0.014 A 
BRANCH  33  34
ATOM     34  C   UNL A   1      42.772  24.724  27.783  1.00  0.00     0.031 A 
ATOM     35  C   UNL A   1      44.222  25.123  27.840  1.00  0.00     0.074 A 
ATOM     36  C   UNL A   1      41.814  25.594  28.161  1.00  0.00     0.049 A 
ATOM     37  N   UNL A   1      44.753  26.263  28.205  1.00  0.00    -0.248 NA
ATOM     38  C   UNL A   1      45.209  24.097  27.467  1.00  0.00     0.031 C 
ATOM     39  C   UNL A   1      40.379  25.309  28.206  1.00  0.00     0.029 A 
ATOM     40  N   UNL A   1      41.907  26.897  28.579  1.00  0.00    -0.354 N 
ATOM     41  C   UNL A   1      46.128  26.085  28.115  1.00  0.00     0.074 A 
ATOM     42  C   UNL A   1      46.354  24.711  27.728  1.00  0.00     0.031 C 
ATOM     43  C   UNL A   1      39.724  26.414  28.596  1.00  0.00     0.029 A 
ATOM     44  C   UNL A   1      40.692  27.474  28.857  1.00  0.00     0.049 A 
ATOM     45  H   UNL A   1      42.764  27.374  28.671  1.00  0.00     0.167 HD
ATOM     46  C   UNL A   1      47.115  26.991  28.309  1.00  0.00     0.037 A 
ATOM     47  C   UNL A   1      40.394  28.719  29.272  1.00  0.00     0.037 A 
ATOM     48  C   UNL A   1      46.887  28.366  28.666  1.00  0.00     0.049 A 
ATOM     49  C   UNL A   1      41.509  29.714  29.460  1.00  0.00     0.074 A 
ATOM     50  C   UNL A   1      47.815  29.379  28.836  1.00  0.00     0.029 A 
ATOM     51  N   UNL A   1      45.640  28.921  28.909  1.00  0.00    -0.354 N 
ATOM     52  N   UNL A   1      42.800  29.552  29.301  1.00  0.00    -0.248 NA
ATOM     53  C   UNL A   1      41.120  31.071  29.867  1.00  0.00     0.031 C 
ATOM     54  C   UNL A   1      47.132  30.537  29.223  1.00  0.00     0.029 A 
ATOM     55  C   UNL A   1      45.774  30.259  29.239  1.00  0.00     0.049 A 
ATOM     56  H   UNL A   1      44.785  28.435  28.856  1.00  0.00     0.167 HD
ATOM     57  C   UNL A   1      43.373  30.793  29.549  1.00  0.00     0.074 A 
ATOM     58  C   UNL A   1      42.286  31.699  29.854  1.00  0.00     0.031 C 
ATOM     59  C   UNL A   1      44.680  31.152  29.525  1.00  0.00     0.037 A 
BRANCH  46  60
ATOM     60  C   UNL A   1      48.531  26.524  28.128  1.00  0.00     0.057 A 
ATOM     61  C   UNL A   1      49.274  25.984  29.188  1.00  0.00     0.134 A 
ATOM     62  C   UNL A   1      49.149  26.581  26.873  1.00  0.00     0.134 A 
ATOM     63  F   UNL A   1      48.747  25.914  30.420  1.00  0.00    -0.206 F 
ATOM     64  C   UNL A   1      50.587  25.545  29.012  1.00  0.00     0.040 A 
ATOM     65  C   UNL A   1      50.451  26.116  26.677  1.00  0.00     0.040 A 
ATOM     66  F   UNL A   1      48.495  27.080  25.813  1.00  0.00    -0.206 F 
ATOM     67  C   UNL A   1      51.176  25.602  27.751  1.00  0.00     0.006 A 
ENDBRANCH  46  60
BRANCH  47  68
ATOM     68  C   UNL A   1      38.981  29.114  29.504  1.00  0.00     0.057 A 
ATOM     69  C   UNL A   1      38.400  29.014  30.775  1.00  0.00     0.134 A 
ATOM     70  C   UNL A   1      38.171  29.573  28.460  1.00  0.00     0.134 A 
ATOM     71  F   UNL A   1      39.120  28.564  31.814  1.00  0.00    -0.206 F 
ATOM     72  C   UNL A   1      37.057  29.325  30.992  1.00  0.00     0.040 A 
ATOM     73  C   UNL A   1      36.833  29.915  28.670  1.00  0.00     0.040 A 
ATOM     74  F   UNL A   1      38.668  29.702  27.222  1.00  0.00    -0.206 F 
ATOM     75  C   UNL A   1      36.270  29.780  29.937  1.00  0.00     0.006 A 
ENDBRANCH  47  68
BRANCH  59  76
ATOM     76  C   UNL A   1      44.997  32.598  29.778  1.00  0.00     0.057 A 
ATOM     77  C   UNL A   1      45.028  33.547  28.747  1.00  0.00     0.134 A 
ATOM     78  C   UNL A   1      45.262  33.048  31.078  1.00  0.00     0.134 A 
ATOM     79  F   UNL A   1      44.794  33.182  27.478  1.00  0.00    -0.206 F 
ATOM     80  C   UNL A   1      45.353  34.882  28.996  1.00  0.00     0.040 A 
ATOM     81  C   UNL A   1      45.555  34.385  31.343  1.00  0.00     0.040 A 
ATOM     82  F   UNL A   1      45.235  32.194  32.114  1.00  0.00    -0.206 F 
ATOM     83  C   UNL A   1      45.613  35.304  30.298  1.00  0.00     0.006 A 
ENDBRANCH  59  76
ENDBRANCH  33  34
ENDBRANCH  25  28
ENDBRANCH  23  24
ENDBRANCH  22  23
ENDBRANCH  21  22
ENDBRANCH   1  21
TORSDOF 15
ENDMDL
MODEL 2
REMARK VINA RESULT:     -10.7      5.397     10.388
REMARK SMILES C[C@H](Nc1ccc(N(C)C)cc1)[C@@H](C)C(=O)NCCCCNC(=O)c1ccc(-c2c3nc(c(-c4c(F)cccc4F)c4ccc([nH]4)c(-c4c(F)cccc4F)c4nc(c(-c5c(F)cccc5F)c5ccc2[nH]5)C=C4)C=C3)cc1
REMARK SMILES IDX 18 1 17 2 15 3 16 4 13 6 14 7 2 8 1 9 3 10 4 12 5 13 12 14
REMARK SMILES IDX 6 15 11 16 7 17 8 18 9 19 10 20 19 21 20 22 21 23 22 24
REMARK SMILES IDX 23 25 24 27 25 28 26 29 78 30 27 31 77 32 28 33 29 34 30 35
REMARK SMILES IDX 71 36 31 37 76 38 70 39 72 40 32 41 75 42 69 43 68 44 33 46
REMARK SMILES IDX 59 47 42 48 58 49 43 50 46 51 57 52 73 53 44 54 45 55 56 57
REMARK SMILES IDX 74 58 47 59 34 60 35 61 40 62 36 63 37 64 39 65 41 66 38 67
REMARK SMILES IDX 60 68 61 69 66 70 62 71 63 72 65 73 67 74 64 75 48 76 49 77
REMARK SMILES IDX 54 78 50 79 51 80 53 81 55 82 52 83
REMARK H PARENT 17 5 3 11 22 26 72 45 46 56
REMARK Flexibility Score: inf
ROOT
ATOM      1  C   UNL A   1      32.916  29.722  26.386  1.00  0.00     0.116 C 
ENDROOT
BRANCH   1   2
ATOM      2  N   UNL A   1      33.508  29.061  25.239  1.00  0.00    -0.356 N 
ATOM      3  C   UNL A   1      33.562  27.748  24.890  1.00  0.00     0.224 C 
ATOM      4  O   UNL A   1      34.154  27.469  23.844  1.00  0.00    -0.275 OA
ATOM      5  H   UNL A   1      33.948  29.670  24.603  1.00  0.00     0.163 HD
BRANCH   3   6
ATOM      6  C   UNL A   1      32.916  26.648  25.726  1.00  0.00     0.097 C 
ATOM      7  C   UNL A   1      33.803  25.398  25.711  1.00  0.00     0.020 C 
BRANCH   6   8
ATOM      8  C   UNL A   1      31.425  26.439  25.370  1.00  0.00     0.088 C 
ATOM      9  C   UNL A   1      30.957  25.045  25.831  1.00  0.00     0.031 C 
BRANCH   8  10
ATOM     10  N   UNL A   1      31.221  26.573  23.926  1.00  0.00    -0.382 N 
ATOM     11  H   UNL A   1      31.619  25.889  23.341  1.00  0.00     0.160 HD
BRANCH  10  12
ATOM     12  C   UNL A   1      30.507  27.596  23.329  1.00  0.00     0.034 A 
ATOM     13  C   UNL A   1      29.127  27.646  23.514  1.00  0.00     0.028 A 
ATOM     14  C   UNL A   1      31.077  28.626  22.591  1.00  0.00     0.028 A 
ATOM     15  C   UNL A   1      28.358  28.724  23.045  1.00  0.00     0.028 A 
ATOM     16  C   UNL A   1      30.303  29.703  22.120  1.00  0.00     0.028 A 
ATOM     17  C   UNL A   1      28.920  29.805  22.355  1.00  0.00     0.036 A 
BRANCH  17  18
ATOM     18  N   UNL A   1      28.177  30.893  21.920  1.00  0.00    -0.378 N 
ATOM     19  C   UNL A   1      27.718  31.965  22.797  1.00  0.00     0.143 C 
ATOM     20  C   UNL A   1      27.989  31.138  20.492  1.00  0.00     0.143 C 
ENDBRANCH  17  18
ENDBRANCH  10  12
ENDBRANCH   8  10
ENDBRANCH   6   8
ENDBRANCH   3   6
ENDBRANCH   1   2
BRANCH   1  21
ATOM     21  C   UNL A   1      31.575  30.367  26.042  1.00  0.00     0.023 C 
BRANCH  21  22
ATOM     22  C   UNL A   1      31.403  31.794  26.558  1.00  0.00     0.023 C 
BRANCH  22  23
ATOM     23  C   UNL A   1      32.696  32.496  26.950  1.00  0.00     0.116 C 
BRANCH  23  24
ATOM     24  N   UNL A   1      32.476  33.810  27.533  1.00  0.00    -0.352 N 
ATOM     25  C   UNL A   1      33.162  34.427  28.547  1.00  0.00     0.251 C 
ATOM     26  H   UNL A   1      31.734  34.328  27.144  1.00  0.00     0.163 HD
ATOM     27  O   UNL A   1      32.757  35.495  29.003  1.00  0.00    -0.269 OA
BRANCH  25  28
ATOM     28  C   UNL A   1      34.371  33.793  29.110  1.00  0.00     0.039 A 
ATOM     29  C   UNL A   1      34.217  32.727  30.000  1.00  0.00     0.014 A 
ATOM     30  C   UNL A   1      35.648  34.243  28.765  1.00  0.00     0.014 A 
ATOM     31  C   UNL A   1      35.347  32.091  30.515  1.00  0.00     0.010 A 
ATOM     32  C   UNL A   1      36.770  33.550  29.207  1.00  0.00     0.010 A 
ATOM     33  C   UNL A   1      36.632  32.483  30.105  1.00  0.00    -0.014 A 
BRANCH  33  34
ATOM     34  C   UNL A   1      37.840  31.815  30.650  1.00  0.00     0.031 A 
ATOM     35  C   UNL A   1      38.367  32.201  32.006  1.00  0.00     0.074 A 
ATOM     36  C   UNL A   1      38.480  30.885  29.914  1.00  0.00     0.049 A 
ATOM     37  N   UNL A   1      39.410  31.740  32.651  1.00  0.00    -0.248 NA
ATOM     38  C   UNL A   1      37.646  33.266  32.722  1.00  0.00     0.031 C 
ATOM     39  C   UNL A   1      38.102  30.464  28.564  1.00  0.00     0.029 A 
ATOM     40  N   UNL A   1      39.584  30.123  30.202  1.00  0.00    -0.354 N 
ATOM     41  C   UNL A   1      39.473  32.465  33.834  1.00  0.00     0.074 A 
ATOM     42  C   UNL A   1      38.408  33.441  33.791  1.00  0.00     0.031 C 
ATOM     43  C   UNL A   1      38.940  29.498  28.154  1.00  0.00     0.029 A 
ATOM     44  C   UNL A   1      39.930  29.252  29.197  1.00  0.00     0.049 A 
ATOM     45  H   UNL A   1      40.081  30.193  31.049  1.00  0.00     0.167 HD
ATOM     46  C   UNL A   1      40.323  32.314  34.877  1.00  0.00     0.037 A 
ATOM     47  C   UNL A   1      40.930  28.354  29.130  1.00  0.00     0.037 A 
ATOM     48  C   UNL A   1      41.365  31.323  34.930  1.00  0.00     0.049 A 
ATOM     49  C   UNL A   1      41.849  28.192  30.311  1.00  0.00     0.074 A 
ATOM     50  C   UNL A   1      42.247  31.053  35.961  1.00  0.00     0.029 A 
ATOM     51  N   UNL A   1      41.664  30.439  33.905  1.00  0.00    -0.354 N 
ATOM     52  N   UNL A   1      41.851  28.835  31.454  1.00  0.00    -0.248 NA
ATOM     53  C   UNL A   1      42.892  27.163  30.199  1.00  0.00     0.031 C 
ATOM     54  C   UNL A   1      43.108  30.032  35.544  1.00  0.00     0.029 A 
ATOM     55  C   UNL A   1      42.725  29.629  34.274  1.00  0.00     0.049 A 
ATOM     56  H   UNL A   1      41.193  30.393  33.042  1.00  0.00     0.167 HD
ATOM     57  C   UNL A   1      42.867  28.263  32.211  1.00  0.00     0.074 A 
ATOM     58  C   UNL A   1      43.446  27.212  31.401  1.00  0.00     0.031 C 
ATOM     59  C   UNL A   1      43.281  28.577  33.462  1.00  0.00     0.037 A 
BRANCH  46  60
ATOM     60  C   UNL A   1      40.153  33.238  36.050  1.00  0.00     0.057 A 
ATOM     61  C   UNL A   1      40.848  34.452  36.143  1.00  0.00     0.134 A 
ATOM     62  C   UNL A   1      39.259  32.927  37.081  1.00  0.00     0.134 A 
ATOM     63  F   UNL A   1      41.731  34.804  35.196  1.00  0.00    -0.206 F 
ATOM     64  C   UNL A   1      40.680  35.309  37.232  1.00  0.00     0.040 A 
ATOM     65  C   UNL A   1      39.059  33.790  38.160  1.00  0.00     0.040 A 
ATOM     66  F   UNL A   1      38.556  31.784  37.054  1.00  0.00    -0.206 F 
ATOM     67  C   UNL A   1      39.776  34.983  38.240  1.00  0.00     0.006 A 
ENDBRANCH  46  60
BRANCH  47  68
ATOM     68  C   UNL A   1      41.099  27.511  27.919  1.00  0.00     0.057 A 
ATOM     69  C   UNL A   1      41.892  27.936  26.845  1.00  0.00     0.134 A 
ATOM     70  C   UNL A   1      40.453  26.277  27.792  1.00  0.00     0.134 A 
ATOM     71  F   UNL A   1      42.524  29.119  26.898  1.00  0.00    -0.206 F 
ATOM     72  C   UNL A   1      42.010  27.180  25.677  1.00  0.00     0.040 A 
ATOM     73  C   UNL A   1      40.586  25.497  26.641  1.00  0.00     0.040 A 
ATOM     74  F   UNL A   1      39.688  25.807  28.788  1.00  0.00    -0.206 F 
ATOM     75  C   UNL A   1      41.357  25.954  25.575  1.00  0.00     0.006 A 
ENDBRANCH  47  68
BRANCH  59  76
ATOM     76  C   UNL A   1      44.375  27.733  34.052  1.00  0.00     0.057 A 
ATOM     77  C   UNL A   1      45.727  28.085  33.950  1.00  0.00     0.134 A 
ATOM     78  C   UNL A   1      44.064  26.556  34.745  1.00  0.00     0.134 A 
ATOM     79  F   UNL A   1      46.095  29.194  33.291  1.00  0.00    -0.206 F 
ATOM     80  C   UNL A   1      46.733  27.272  34.479  1.00  0.00     0.040 A 
ATOM     81  C   UNL A   1      45.058  25.754  35.306  1.00  0.00     0.040 A 
ATOM     82  F   UNL A   1      42.788  26.167  34.892  1.00  0.00    -0.206 F 
ATOM     83  C   UNL A   1      46.398  26.106  35.163  1.00  0.00     0.006 A 
ENDBRANCH  59  76
ENDBRANCH  33  34
ENDBRANCH  25  28
ENDBRANCH  23  24
ENDBRANCH  22  23
ENDBRANCH  21  22
ENDBRANCH   1  21
TORSDOF 15
ENDMDL
MODEL 3
REMARK VINA RESULT:     -10.6      0.818      6.401
REMARK SMILES C[C@H](Nc1ccc(N(C)C)cc1)[C@@H](C)C(=O)NCCCCNC(=O)c1ccc(-c2c3nc(c(-c4c(F)cccc4F)c4ccc([nH]4)c(-c4c(F)cccc4F)c4nc(c(-c5c(F)cccc5F)c5ccc2[nH]5)C=C4)C=C3)cc1
REMARK SMILES IDX 18 1 17 2 15 3 16 4 13 6 14 7 2 8 1 9 3 10 4 12 5 13 12 14
REMARK SMILES IDX 6 15 11 16 7 17 8 18 9 19 10 20 19 21 20 22 21 23 22 24
REMARK SMILES IDX 23 25 24 27 25 28 26 29 78 30 27 31 77 32 28 33 29 34 30 35
REMARK SMILES IDX 71 36 31 37 76 38 70 39 72 40 32 41 75 42 69 43 68 44 33 46
REMARK SMILES IDX 59 47 42 48 58 49 43 50 46 51 57 52 73 53 44 54 45 55 56 57
REMARK SMILES IDX 74 58 47 59 34 60 35 61 40 62 36 63 37 64 39 65 41 66 38 67
REMARK SMILES IDX 60 68 61 69 66 70 62 71 63 72 65 73 67 74 64 75 48 76 49 77
REMARK SMILES IDX 54 78 50 79 51 80 53 81 55 82 52 83
REMARK H PARENT 17 5 3 11 22 26 72 45 46 56
REMARK Flexibility Score: inf
ROOT
ATOM      1  C   UNL A   1      36.748  22.047  25.530  1.00  0.00     0.116 C 
ENDROOT
BRANCH   1   2
ATOM      2  N   UNL A   1      35.685  22.346  26.470  1.00  0.00    -0.356 N 
ATOM      3  C   UNL A   1      34.642  23.216  26.398  1.00  0.00     0.224 C 
ATOM      4  O   UNL A   1      33.887  23.269  27.372  1.00  0.00    -0.275 OA
ATOM      5  H   UNL A   1      35.726  21.829  27.307  1.00  0.00     0.163 HD
BRANCH   3   6
ATOM      6  C   UNL A   1      34.384  24.089  25.174  1.00  0.00     0.097 C 
ATOM      7  C   UNL A   1      33.926  25.481  25.619  1.00  0.00     0.020 C 
BRANCH   6   8
ATOM      8  C   UNL A   1      33.501  23.377  24.120  1.00  0.00     0.088 C 
ATOM      9  C   UNL A   1      32.767  24.416  23.251  1.00  0.00     0.031 C 
BRANCH   8  10
ATOM     10  N   UNL A   1      32.523  22.506  24.778  1.00  0.00    -0.382 N 
ATOM     11  H   UNL A   1      31.795  22.935  25.282  1.00  0.00     0.160 HD
BRANCH  10  12
ATOM     12  C   UNL A   1      32.555  21.125  24.737  1.00  0.00     0.034 A 
ATOM     13  C   UNL A   1      32.470  20.489  23.501  1.00  0.00     0.028 A 
ATOM     14  C   UNL A   1      32.723  20.310  25.850  1.00  0.00     0.028 A 
ATOM     15  C   UNL A   1      32.623  19.099  23.374  1.00  0.00     0.028 A 
ATOM     16  C   UNL A   1      32.874  18.916  25.719  1.00  0.00     0.028 A 
ATOM     17  C   UNL A   1      32.857  18.264  24.473  1.00  0.00     0.036 A 
BRANCH  17  18
ATOM     18  N   UNL A   1      33.048  16.895  24.356  1.00  0.00    -0.378 N 
ATOM     19  C   UNL A   1      33.933  16.280  23.371  1.00  0.00     0.143 C 
ATOM     20  C   UNL A   1      32.524  15.985  25.371  1.00  0.00     0.143 C 
ENDBRANCH  17  18
ENDBRANCH  10  12
ENDBRANCH   8  10
ENDBRANCH   6   8
ENDBRANCH   3   6
ENDBRANCH   1   2
BRANCH   1  21
ATOM     21  C   UNL A   1      36.530  20.707  24.831  1.00  0.00     0.023 C 
BRANCH  21  22
ATOM     22  C   UNL A   1      37.665  19.701  25.013  1.00  0.00     0.023 C 
BRANCH  22  23
ATOM     23  C   UNL A   1      38.936  20.270  25.627  1.00  0.00     0.116 C 
BRANCH  23  24
ATOM     24  N   UNL A   1      40.002  19.287  25.744  1.00  0.00    -0.352 N 
ATOM     25  C   UNL A   1      41.304  19.472  26.132  1.00  0.00     0.251 C 
ATOM     26  H   UNL A   1      39.753  18.363  25.515  1.00  0.00     0.163 HD
ATOM     27  O   UNL A   1      42.107  18.545  26.051  1.00  0.00    -0.269 OA
BRANCH  25  28
ATOM     28  C   UNL A   1      41.745  20.793  26.622  1.00  0.00     0.039 A 
ATOM     29  C   UNL A   1      42.233  21.722  25.699  1.00  0.00     0.014 A 
ATOM     30  C   UNL A   1      41.681  21.118  27.979  1.00  0.00     0.014 A 
ATOM     31  C   UNL A   1      42.621  22.989  26.136  1.00  0.00     0.010 A 
ATOM     32  C   UNL A   1      41.982  22.409  28.399  1.00  0.00     0.010 A 
ATOM     33  C   UNL A   1      42.478  23.350  27.485  1.00  0.00    -0.014 A 
BRANCH  33  34
ATOM     34  C   UNL A   1      42.891  24.694  27.961  1.00  0.00     0.031 A 
ATOM     35  C   UNL A   1      41.852  25.748  28.236  1.00  0.00     0.074 A 
ATOM     36  C   UNL A   1      44.200  24.977  28.115  1.00  0.00     0.049 A 
ATOM     37  N   UNL A   1      42.012  26.980  28.649  1.00  0.00    -0.248 NA
ATOM     38  C   UNL A   1      40.449  25.380  27.987  1.00  0.00     0.031 C 
ATOM     39  C   UNL A   1      45.305  24.061  27.827  1.00  0.00     0.029 A 
ATOM     40  N   UNL A   1      44.821  26.117  28.556  1.00  0.00    -0.354 N 
ATOM     41  C   UNL A   1      40.738  27.531  28.697  1.00  0.00     0.074 A 
ATOM     42  C   UNL A   1      39.822  26.525  28.208  1.00  0.00     0.031 C 
ATOM     43  C   UNL A   1      46.466  24.664  28.129  1.00  0.00     0.029 A 
ATOM     44  C   UNL A   1      46.190  26.016  28.603  1.00  0.00     0.049 A 
ATOM     45  H   UNL A   1      44.332  26.932  28.815  1.00  0.00     0.167 HD
ATOM     46  C   UNL A   1      40.358  28.755  29.135  1.00  0.00     0.037 A 
ATOM     47  C   UNL A   1      47.116  26.913  28.989  1.00  0.00     0.037 A 
ATOM     48  C   UNL A   1      41.269  29.744  29.648  1.00  0.00     0.049 A 
ATOM     49  C   UNL A   1      46.667  28.259  29.492  1.00  0.00     0.074 A 
ATOM     50  C   UNL A   1      40.981  30.995  30.166  1.00  0.00     0.029 A 
ATOM     51  N   UNL A   1      42.646  29.593  29.708  1.00  0.00    -0.354 N 
ATOM     52  N   UNL A   1      45.452  28.740  29.599  1.00  0.00    -0.248 NA
ATOM     53  C   UNL A   1      47.719  29.179  29.945  1.00  0.00     0.031 C 
ATOM     54  C   UNL A   1      42.189  31.618  30.500  1.00  0.00     0.029 A 
ATOM     55  C   UNL A   1      43.224  30.732  30.243  1.00  0.00     0.049 A 
ATOM     56  H   UNL A   1      43.140  28.794  29.413  1.00  0.00     0.167 HD
ATOM     57  C   UNL A   1      45.591  30.000  30.169  1.00  0.00     0.074 A 
ATOM     58  C   UNL A   1      47.007  30.200  30.396  1.00  0.00     0.031 C 
ATOM     59  C   UNL A   1      44.633  30.909  30.477  1.00  0.00     0.037 A 
BRANCH  46  60
ATOM     60  C   UNL A   1      38.894  29.085  29.087  1.00  0.00     0.057 A 
ATOM     61  C   UNL A   1      38.071  28.972  30.216  1.00  0.00     0.134 A 
ATOM     62  C   UNL A   1      38.306  29.557  27.906  1.00  0.00     0.134 A 
ATOM     63  F   UNL A   1      38.568  28.512  31.375  1.00  0.00    -0.206 F 
ATOM     64  C   UNL A   1      36.713  29.288  30.166  1.00  0.00     0.040 A 
ATOM     65  C   UNL A   1      36.955  29.906  27.852  1.00  0.00     0.040 A 
ATOM     66  F   UNL A   1      39.035  29.696  26.789  1.00  0.00    -0.206 F 
ATOM     67  C   UNL A   1      36.153  29.765  28.983  1.00  0.00     0.006 A 
ENDBRANCH  46  60
BRANCH  47  68
ATOM     68  C   UNL A   1      48.559  26.562  28.953  1.00  0.00     0.057 A 
ATOM     69  C   UNL A   1      49.332  26.788  27.806  1.00  0.00     0.134 A 
ATOM     70  C   UNL A   1      49.194  25.969  30.050  1.00  0.00     0.134 A 
ATOM     71  F   UNL A   1      48.777  27.339  26.716  1.00  0.00    -0.206 F 
ATOM     72  C   UNL A   1      50.673  26.408  27.740  1.00  0.00     0.040 A 
ATOM     73  C   UNL A   1      50.543  25.610  30.007  1.00  0.00     0.040 A 
ATOM     74  F   UNL A   1      48.514  25.735  31.181  1.00  0.00    -0.206 F 
ATOM     75  C   UNL A   1      51.283  25.819  28.845  1.00  0.00     0.006 A 
ENDBRANCH  47  68
BRANCH  59  76
ATOM     76  C   UNL A   1      45.084  32.175  31.149  1.00  0.00     0.057 A 
ATOM     77  C   UNL A   1      45.185  32.286  32.542  1.00  0.00     0.134 A 
ATOM     78  C   UNL A   1      45.435  33.296  30.384  1.00  0.00     0.134 A 
ATOM     79  F   UNL A   1      44.855  31.254  33.333  1.00  0.00    -0.206 F 
ATOM     80  C   UNL A   1      45.577  33.481  33.150  1.00  0.00     0.040 A 
ATOM     81  C   UNL A   1      45.859  34.483  30.980  1.00  0.00     0.040 A 
ATOM     82  F   UNL A   1      45.373  33.253  29.044  1.00  0.00    -0.206 F 
ATOM     83  C   UNL A   1      45.920  34.581  32.368  1.00  0.00     0.006 A 
ENDBRANCH  59  76
ENDBRANCH  33  34
ENDBRANCH  25  28
ENDBRANCH  23  24
ENDBRANCH  22  23
ENDBRANCH  21  22
ENDBRANCH   1  21
TORSDOF 15
ENDMDL
