MODEL 1
REMARK VINA RESULT:     -12.7      0.000      0.000
REMARK SMILES CC(C)CCn1nc(C(=O)NCCCCNC(=O)c2ccc(-c3c4nc(c(-c5c(F)cccc5F)c5ccc([nH]5)c(-c5c(F)cccc5F)c5nc(c(-c6c(F)cccc6F)c6ccc3[nH]6)C=C5)C=C4)cc2)c2c1CCN(C(=O)[C@@H]1CCc3nn(C)c(=O)n3C1)C2
REMARK SMILES IDX 13 1 12 2 11 3 9 4 10 5 8 7 6 8 7 9 74 10 73 11 75 12 91 13
REMARK SMILES IDX 76 14 77 15 5 16 4 17 2 18 1 19 3 20 78 21 79 22 80 23 81 24
REMARK SMILES IDX 90 25 82 26 89 27 83 28 87 29 84 30 85 31 88 32 86 33 14 34
REMARK SMILES IDX 15 35 16 36 17 37 18 39 19 40 20 41 72 42 21 43 71 44 22 45
REMARK SMILES IDX 23 46 24 47 65 48 25 49 70 50 64 51 66 52 26 53 69 54 63 55
REMARK SMILES IDX 62 56 27 58 53 59 36 60 52 61 37 62 40 63 51 64 67 65 38 66
REMARK SMILES IDX 39 67 50 69 68 70 41 71 28 72 29 73 34 74 30 75 31 76 33 77
REMARK SMILES IDX 35 78 32 79 54 80 55 81 60 82 56 83 57 84 59 85 61 86 58 87
REMARK SMILES IDX 42 88 43 89 48 90 44 91 45 92 47 93 49 94 46 95
REMARK H PARENT 11 6 16 38 66 57 40 68
REMARK Flexibility Score: inf
ROOT
ATOM      1  C   UNL A   1      37.116  21.935  24.525  1.00  0.00     0.023 C 
ENDROOT
BRANCH   1   2
ATOM      2  C   UNL A   1      36.968  23.056  25.571  1.00  0.00     0.116 C 
BRANCH   2   3
ATOM      3  N   UNL A   1      35.966  22.753  26.586  1.00  0.00    -0.351 N 
ATOM      4  C   UNL A   1      34.763  22.074  26.643  1.00  0.00     0.272 C 
ATOM      5  O   UNL A   1      34.351  21.906  27.798  1.00  0.00    -0.267 OA
ATOM      6  H   UNL A   1      36.211  23.131  27.462  1.00  0.00     0.163 HD
BRANCH   4   7
ATOM      7  C   UNL A   1      33.993  21.562  25.473  1.00  0.00     0.155 A 
ATOM      8  N   UNL A   1      33.006  20.050  24.272  1.00  0.00    -0.268 N 
ATOM      9  N   UNL A   1      33.800  20.223  25.349  1.00  0.00    -0.167 NA
ATOM     10  C   UNL A   1      32.846  21.209  23.583  1.00  0.00     0.046 A 
ATOM     11  C   UNL A   1      33.292  22.211  24.420  1.00  0.00     0.026 A 
ATOM     12  C   UNL A   1      32.209  21.450  22.265  1.00  0.00     0.078 C 
ATOM     13  C   UNL A   1      33.005  23.632  24.160  1.00  0.00     0.159 C 
ATOM     14  C   UNL A   1      32.475  22.924  21.892  1.00  0.00     0.126 C 
ATOM     15  N   UNL A   1      32.155  23.845  22.991  1.00  0.00    -0.338 N 
BRANCH   8  16
ATOM     16  C   UNL A   1      32.268  18.806  24.127  1.00  0.00     0.145 C 
BRANCH  16  17
ATOM     17  C   UNL A   1      33.009  17.635  23.471  1.00  0.00     0.027 C 
BRANCH  17  18
ATOM     18  C   UNL A   1      33.277  16.452  24.414  1.00  0.00    -0.016 C 
ATOM     19  C   UNL A   1      34.774  16.276  24.670  1.00  0.00     0.007 C 
ATOM     20  C   UNL A   1      32.534  16.652  25.736  1.00  0.00     0.007 C 
ENDBRANCH  17  18
ENDBRANCH  16  17
ENDBRANCH   8  16
BRANCH  15  21
ATOM     21  C   UNL A   1      31.465  25.044  22.992  1.00  0.00     0.227 C 
ATOM     22  O   UNL A   1      30.453  25.155  23.705  1.00  0.00    -0.274 OA
BRANCH  21  23
ATOM     23  C   UNL A   1      31.797  26.265  22.128  1.00  0.00     0.099 C 
ATOM     24  C   UNL A   1      33.288  26.555  21.949  1.00  0.00     0.023 C 
ATOM     25  C   UNL A   1      30.975  27.515  22.376  1.00  0.00     0.142 C 
ATOM     26  C   UNL A   1      33.896  27.423  23.038  1.00  0.00     0.078 C 
ATOM     27  N   UNL A   1      31.645  28.447  23.246  1.00  0.00    -0.278 N 
ATOM     28  C   UNL A   1      32.941  28.427  23.617  1.00  0.00     0.133 A 
ATOM     29  C   UNL A   1      31.006  29.299  24.110  1.00  0.00     0.345 A 
ATOM     30  N   UNL A   1      33.227  29.191  24.632  1.00  0.00    -0.155 NA
ATOM     31  N   UNL A   1      32.011  29.751  24.971  1.00  0.00    -0.216 N 
ATOM     32  O   UNL A   1      29.806  29.495  24.196  1.00  0.00    -0.246 OA
ATOM     33  C   UNL A   1      31.778  30.393  26.234  1.00  0.00     0.179 C 
ENDBRANCH  21  23
ENDBRANCH  15  21
ENDBRANCH   4   7
ENDBRANCH   2   3
ENDBRANCH   1   2
BRANCH   1  34
ATOM     34  C   UNL A   1      37.773  20.629  24.969  1.00  0.00     0.023 C 
BRANCH  34  35
ATOM     35  C   UNL A   1      39.033  20.823  25.807  1.00  0.00     0.116 C 
BRANCH  35  36
ATOM     36  N   UNL A   1      39.954  19.688  25.760  1.00  0.00    -0.352 N 
ATOM     37  C   UNL A   1      41.338  19.735  25.830  1.00  0.00     0.251 C 
ATOM     38  H   UNL A   1      39.548  18.795  25.666  1.00  0.00     0.163 HD
ATOM     39  O   UNL A   1      42.041  18.856  25.376  1.00  0.00    -0.269 OA
BRANCH  37  40
ATOM     40  C   UNL A   1      41.938  20.907  26.495  1.00  0.00     0.039 A 
ATOM     41  C   UNL A   1      42.285  22.040  25.763  1.00  0.00     0.014 A 
ATOM     42  C   UNL A   1      42.039  20.882  27.888  1.00  0.00     0.014 A 
ATOM     43  C   UNL A   1      42.621  23.199  26.457  1.00  0.00     0.010 A 
ATOM     44  C   UNL A   1      42.279  22.057  28.573  1.00  0.00     0.010 A 
ATOM     45  C   UNL A   1      42.563  23.223  27.866  1.00  0.00    -0.014 A 
BRANCH  45  46
ATOM     46  C   UNL A   1      42.572  24.519  28.556  1.00  0.00     0.031 A 
ATOM     47  C   UNL A   1      41.378  25.358  28.249  1.00  0.00     0.074 A 
ATOM     48  C   UNL A   1      43.433  24.900  29.528  1.00  0.00     0.049 A 
ATOM     49  N   UNL A   1      41.349  26.435  27.538  1.00  0.00    -0.248 NA
ATOM     50  C   UNL A   1      40.043  24.873  28.644  1.00  0.00     0.031 C 
ATOM     51  C   UNL A   1      44.463  24.082  30.175  1.00  0.00     0.029 A 
ATOM     52  N   UNL A   1      43.516  26.084  30.214  1.00  0.00    -0.354 N 
ATOM     53  C   UNL A   1      40.040  26.904  27.619  1.00  0.00     0.074 A 
ATOM     54  C   UNL A   1      39.250  25.817  28.130  1.00  0.00     0.031 C 
ATOM     55  C   UNL A   1      44.907  24.704  31.291  1.00  0.00     0.029 A 
ATOM     56  C   UNL A   1      44.336  26.038  31.341  1.00  0.00     0.049 A 
ATOM     57  H   UNL A   1      43.037  26.899  29.935  1.00  0.00     0.167 HD
ATOM     58  C   UNL A   1      39.801  28.244  27.578  1.00  0.00     0.037 A 
ATOM     59  C   UNL A   1      44.566  27.025  32.242  1.00  0.00     0.037 A 
ATOM     60  C   UNL A   1      40.961  28.952  27.096  1.00  0.00     0.049 A 
ATOM     61  C   UNL A   1      44.269  28.312  31.585  1.00  0.00     0.074 A 
ATOM     62  C   UNL A   1      41.605  29.155  25.896  1.00  0.00     0.029 A 
ATOM     63  N   UNL A   1      41.848  29.260  28.087  1.00  0.00    -0.354 N 
ATOM     64  N   UNL A   1      45.007  28.821  30.643  1.00  0.00    -0.248 NA
ATOM     65  C   UNL A   1      42.970  28.945  31.781  1.00  0.00     0.031 C 
ATOM     66  C   UNL A   1      42.962  29.471  26.215  1.00  0.00     0.029 A 
ATOM     67  C   UNL A   1      43.102  29.497  27.598  1.00  0.00     0.049 A 
ATOM     68  H   UNL A   1      41.613  29.304  29.042  1.00  0.00     0.167 HD
ATOM     69  C   UNL A   1      44.106  29.496  29.850  1.00  0.00     0.074 A 
ATOM     70  C   UNL A   1      42.939  29.719  30.695  1.00  0.00     0.031 C 
ATOM     71  C   UNL A   1      44.234  29.477  28.493  1.00  0.00     0.037 A 
BRANCH  58  72
ATOM     72  C   UNL A   1      38.794  28.956  28.465  1.00  0.00     0.057 A 
ATOM     73  C   UNL A   1      38.845  28.747  29.858  1.00  0.00     0.134 A 
ATOM     74  C   UNL A   1      37.601  29.549  28.001  1.00  0.00     0.134 A 
ATOM     75  F   UNL A   1      39.911  28.163  30.426  1.00  0.00    -0.206 F 
ATOM     76  C   UNL A   1      37.772  29.051  30.708  1.00  0.00     0.040 A 
ATOM     77  C   UNL A   1      36.544  29.901  28.847  1.00  0.00     0.040 A 
ATOM     78  F   UNL A   1      37.343  29.720  26.699  1.00  0.00    -0.206 F 
ATOM     79  C   UNL A   1      36.613  29.627  30.202  1.00  0.00     0.006 A 
ENDBRANCH  58  72
BRANCH  59  80
ATOM     80  C   UNL A   1      44.946  26.987  33.672  1.00  0.00     0.057 A 
ATOM     81  C   UNL A   1      43.985  26.734  34.666  1.00  0.00     0.134 A 
ATOM     82  C   UNL A   1      46.288  26.873  34.065  1.00  0.00     0.134 A 
ATOM     83  F   UNL A   1      42.677  26.809  34.389  1.00  0.00    -0.206 F 
ATOM     84  C   UNL A   1      44.336  26.317  35.955  1.00  0.00     0.040 A 
ATOM     85  C   UNL A   1      46.652  26.463  35.353  1.00  0.00     0.040 A 
ATOM     86  F   UNL A   1      47.281  27.060  33.184  1.00  0.00    -0.206 F 
ATOM     87  C   UNL A   1      45.675  26.158  36.295  1.00  0.00     0.006 A 
ENDBRANCH  59  80
BRANCH  71  88
ATOM     88  C   UNL A   1      45.611  29.270  27.943  1.00  0.00     0.057 A 
ATOM     89  C   UNL A   1      46.168  28.026  27.616  1.00  0.00     0.134 A 
ATOM     90  C   UNL A   1      46.409  30.400  27.735  1.00  0.00     0.134 A 
ATOM     91  F   UNL A   1      45.454  26.896  27.712  1.00  0.00    -0.206 F 
ATOM     92  C   UNL A   1      47.483  27.913  27.155  1.00  0.00     0.040 A 
ATOM     93  C   UNL A   1      47.711  30.303  27.244  1.00  0.00     0.040 A 
ATOM     94  F   UNL A   1      45.928  31.626  27.997  1.00  0.00    -0.206 F 
ATOM     95  C   UNL A   1      48.258  29.053  26.968  1.00  0.00     0.006 A 
ENDBRANCH  71  88
ENDBRANCH  45  46
ENDBRANCH  37  40
ENDBRANCH  35  36
ENDBRANCH  34  35
ENDBRANCH   1  34
TORSDOF 16
ENDMDL
MODEL 2
REMARK VINA RESULT:     -12.5      2.498      8.269
REMARK SMILES CC(C)CCn1nc(C(=O)NCCCCNC(=O)c2ccc(-c3c4nc(c(-c5c(F)cccc5F)c5ccc([nH]5)c(-c5c(F)cccc5F)c5nc(c(-c6c(F)cccc6F)c6ccc3[nH]6)C=C5)C=C4)cc2)c2c1CCN(C(=O)[C@@H]1CCc3nn(C)c(=O)n3C1)C2
REMARK SMILES IDX 13 1 12 2 11 3 9 4 10 5 8 7 6 8 7 9 74 10 73 11 75 12 91 13
REMARK SMILES IDX 76 14 77 15 5 16 4 17 2 18 1 19 3 20 78 21 79 22 80 23 81 24
REMARK SMILES IDX 90 25 82 26 89 27 83 28 87 29 84 30 85 31 88 32 86 33 14 34
REMARK SMILES IDX 15 35 16 36 17 37 18 39 19 40 20 41 72 42 21 43 71 44 22 45
REMARK SMILES IDX 23 46 24 47 65 48 25 49 70 50 64 51 66 52 26 53 69 54 63 55
REMARK SMILES IDX 62 56 27 58 53 59 36 60 52 61 37 62 40 63 51 64 67 65 38 66
REMARK SMILES IDX 39 67 50 69 68 70 41 71 28 72 29 73 34 74 30 75 31 76 33 77
REMARK SMILES IDX 35 78 32 79 54 80 55 81 60 82 56 83 57 84 59 85 61 86 58 87
REMARK SMILES IDX 42 88 43 89 48 90 44 91 45 92 47 93 49 94 46 95
REMARK H PARENT 11 6 16 38 66 57 40 68
REMARK Flexibility Score: inf
ROOT
ATOM      1  C   UNL A   1      35.176  30.457  27.776  1.00  0.00     0.023 C 
ENDROOT
BRANCH   1   2
ATOM      2  C   UNL A   1      34.358  29.459  26.935  1.00  0.00     0.116 C 
BRANCH   2   3
ATOM      3  N   UNL A   1      33.137  29.024  27.603  1.00  0.00    -0.351 N 
ATOM      4  C   UNL A   1      31.981  28.353  27.249  1.00  0.00     0.272 C 
ATOM      5  O   UNL A   1      31.289  28.027  28.223  1.00  0.00    -0.267 OA
ATOM      6  H   UNL A   1      33.135  29.273  28.555  1.00  0.00     0.163 HD
BRANCH   4   7
ATOM      7  C   UNL A   1      31.556  28.017  25.860  1.00  0.00     0.155 A 
ATOM      8  N   UNL A   1      30.925  28.452  23.832  1.00  0.00    -0.268 N 
ATOM      9  N   UNL A   1      31.160  29.020  25.033  1.00  0.00    -0.167 NA
ATOM     10  C   UNL A   1      30.962  27.098  23.907  1.00  0.00     0.046 A 
ATOM     11  C   UNL A   1      31.546  26.802  25.121  1.00  0.00     0.026 A 
ATOM     12  C   UNL A   1      30.599  26.080  22.891  1.00  0.00     0.078 C 
ATOM     13  C   UNL A   1      32.039  25.452  25.444  1.00  0.00     0.159 C 
ATOM     14  C   UNL A   1      30.661  24.701  23.583  1.00  0.00     0.126 C 
ATOM     15  N   UNL A   1      31.908  24.510  24.335  1.00  0.00    -0.338 N 
BRANCH   8  16
ATOM     16  C   UNL A   1      30.914  29.289  22.642  1.00  0.00     0.145 C 
BRANCH  16  17
ATOM     17  C   UNL A   1      29.541  29.712  22.108  1.00  0.00     0.027 C 
BRANCH  17  18
ATOM     18  C   UNL A   1      28.480  29.928  23.199  1.00  0.00    -0.016 C 
ATOM     19  C   UNL A   1      27.991  31.376  23.218  1.00  0.00     0.007 C 
ATOM     20  C   UNL A   1      27.303  28.975  22.986  1.00  0.00     0.007 C 
ENDBRANCH  17  18
ENDBRANCH  16  17
ENDBRANCH   8  16
BRANCH  15  21
ATOM     21  C   UNL A   1      32.771  23.430  24.394  1.00  0.00     0.227 C 
ATOM     22  O   UNL A   1      33.129  22.887  23.335  1.00  0.00    -0.274 OA
BRANCH  21  23
ATOM     23  C   UNL A   1      33.296  22.777  25.677  1.00  0.00     0.099 C 
ATOM     24  C   UNL A   1      34.806  22.877  25.893  1.00  0.00     0.023 C 
ATOM     25  C   UNL A   1      32.737  21.409  26.018  1.00  0.00     0.142 C 
ATOM     26  C   UNL A   1      35.611  21.761  25.246  1.00  0.00     0.078 C 
ATOM     27  N   UNL A   1      33.606  20.342  25.595  1.00  0.00    -0.278 N 
ATOM     28  C   UNL A   1      34.888  20.447  25.190  1.00  0.00     0.133 A 
ATOM     29  C   UNL A   1      33.175  19.100  25.202  1.00  0.00     0.345 A 
ATOM     30  N   UNL A   1      35.353  19.394  24.582  1.00  0.00    -0.155 NA
ATOM     31  N   UNL A   1      34.280  18.525  24.567  1.00  0.00    -0.216 N 
ATOM     32  O   UNL A   1      32.039  18.663  25.263  1.00  0.00    -0.246 OA
ATOM     33  C   UNL A   1      34.223  17.377  23.706  1.00  0.00     0.179 C 
ENDBRANCH  21  23
ENDBRANCH  15  21
ENDBRANCH   4   7
ENDBRANCH   2   3
ENDBRANCH   1   2
BRANCH   1  34
ATOM     34  C   UNL A   1      34.453  31.685  28.328  1.00  0.00     0.023 C 
BRANCH  34  35
ATOM     35  C   UNL A   1      35.387  32.750  28.893  1.00  0.00     0.116 C 
BRANCH  35  36
ATOM     36  N   UNL A   1      35.370  32.836  30.354  1.00  0.00    -0.352 N 
ATOM     37  C   UNL A   1      35.943  31.942  31.246  1.00  0.00     0.251 C 
ATOM     38  H   UNL A   1      34.901  33.608  30.744  1.00  0.00     0.163 HD
ATOM     39  O   UNL A   1      35.553  31.829  32.390  1.00  0.00    -0.269 OA
BRANCH  37  40
ATOM     40  C   UNL A   1      37.068  31.126  30.753  1.00  0.00     0.039 A 
ATOM     41  C   UNL A   1      38.293  31.714  30.448  1.00  0.00     0.014 A 
ATOM     42  C   UNL A   1      36.896  29.741  30.712  1.00  0.00     0.014 A 
ATOM     43  C   UNL A   1      39.387  30.883  30.219  1.00  0.00     0.010 A 
ATOM     44  C   UNL A   1      38.000  28.923  30.580  1.00  0.00     0.010 A 
ATOM     45  C   UNL A   1      39.252  29.485  30.341  1.00  0.00    -0.014 A 
BRANCH  45  46
ATOM     46  C   UNL A   1      40.463  28.660  30.446  1.00  0.00     0.031 A 
ATOM     47  C   UNL A   1      41.028  28.619  31.826  1.00  0.00     0.074 A 
ATOM     48  C   UNL A   1      40.958  27.843  29.488  1.00  0.00     0.049 A 
ATOM     49  N   UNL A   1      42.119  29.175  32.234  1.00  0.00    -0.248 NA
ATOM     50  C   UNL A   1      40.224  28.025  32.910  1.00  0.00     0.031 C 
ATOM     51  C   UNL A   1      40.350  27.519  28.194  1.00  0.00     0.029 A 
ATOM     52  N   UNL A   1      42.076  27.050  29.502  1.00  0.00    -0.354 N 
ATOM     53  C   UNL A   1      42.271  28.778  33.560  1.00  0.00     0.074 A 
ATOM     54  C   UNL A   1      40.998  28.252  33.975  1.00  0.00     0.031 C 
ATOM     55  C   UNL A   1      40.974  26.448  27.652  1.00  0.00     0.029 A 
ATOM     56  C   UNL A   1      42.136  26.125  28.461  1.00  0.00     0.049 A 
ATOM     57  H   UNL A   1      42.778  27.128  30.189  1.00  0.00     0.167 HD
ATOM     58  C   UNL A   1      43.521  28.608  34.073  1.00  0.00     0.037 A 
ATOM     59  C   UNL A   1      43.081  25.176  28.244  1.00  0.00     0.037 A 
ATOM     60  C   UNL A   1      44.507  29.226  33.222  1.00  0.00     0.049 A 
ATOM     61  C   UNL A   1      44.311  25.601  28.939  1.00  0.00     0.074 A 
ATOM     62  C   UNL A   1      44.938  30.497  32.916  1.00  0.00     0.029 A 
ATOM     63  N   UNL A   1      44.936  28.403  32.219  1.00  0.00    -0.354 N 
ATOM     64  N   UNL A   1      45.042  26.605  28.551  1.00  0.00    -0.248 NA
ATOM     65  C   UNL A   1      44.616  25.074  30.264  1.00  0.00     0.031 C 
ATOM     66  C   UNL A   1      45.530  30.422  31.618  1.00  0.00     0.029 A 
ATOM     67  C   UNL A   1      45.486  29.101  31.182  1.00  0.00     0.049 A 
ATOM     68  H   UNL A   1      44.855  27.422  32.241  1.00  0.00     0.167 HD
ATOM     69  C   UNL A   1      45.550  27.114  29.725  1.00  0.00     0.074 A 
ATOM     70  C   UNL A   1      45.440  26.031  30.695  1.00  0.00     0.031 C 
ATOM     71  C   UNL A   1      45.660  28.461  29.900  1.00  0.00     0.037 A 
BRANCH  58  72
ATOM     72  C   UNL A   1      43.918  27.458  34.983  1.00  0.00     0.057 A 
ATOM     73  C   UNL A   1      44.598  27.743  36.184  1.00  0.00     0.134 A 
ATOM     74  C   UNL A   1      43.965  26.106  34.584  1.00  0.00     0.134 A 
ATOM     75  F   UNL A   1      44.657  28.996  36.659  1.00  0.00    -0.206 F 
ATOM     76  C   UNL A   1      45.314  26.770  36.896  1.00  0.00     0.040 A 
ATOM     77  C   UNL A   1      44.636  25.118  35.313  1.00  0.00     0.040 A 
ATOM     78  F   UNL A   1      43.464  25.682  33.418  1.00  0.00    -0.206 F 
ATOM     79  C   UNL A   1      45.338  25.451  36.458  1.00  0.00     0.006 A 
ENDBRANCH  58  72
BRANCH  59  80
ATOM     80  C   UNL A   1      43.027  23.867  27.557  1.00  0.00     0.057 A 
ATOM     81  C   UNL A   1      42.538  22.726  28.217  1.00  0.00     0.134 A 
ATOM     82  C   UNL A   1      43.141  23.773  26.162  1.00  0.00     0.134 A 
ATOM     83  F   UNL A   1      42.385  22.719  29.548  1.00  0.00    -0.206 F 
ATOM     84  C   UNL A   1      42.115  21.586  27.525  1.00  0.00     0.040 A 
ATOM     85  C   UNL A   1      42.727  22.636  25.458  1.00  0.00     0.040 A 
ATOM     86  F   UNL A   1      43.563  24.817  25.434  1.00  0.00    -0.206 F 
ATOM     87  C   UNL A   1      42.188  21.549  26.137  1.00  0.00     0.006 A 
ENDBRANCH  59  80
BRANCH  71  88
ATOM     88  C   UNL A   1      45.812  29.297  28.668  1.00  0.00     0.057 A 
ATOM     89  C   UNL A   1      44.758  29.913  27.979  1.00  0.00     0.134 A 
ATOM     90  C   UNL A   1      47.101  29.484  28.160  1.00  0.00     0.134 A 
ATOM     91  F   UNL A   1      43.498  29.851  28.432  1.00  0.00    -0.206 F 
ATOM     92  C   UNL A   1      44.978  30.636  26.802  1.00  0.00     0.040 A 
ATOM     93  C   UNL A   1      47.338  30.232  27.006  1.00  0.00     0.040 A 
ATOM     94  F   UNL A   1      48.160  28.949  28.787  1.00  0.00    -0.206 F 
ATOM     95  C   UNL A   1      46.271  30.797  26.313  1.00  0.00     0.006 A 
ENDBRANCH  71  88
ENDBRANCH  45  46
ENDBRANCH  37  40
ENDBRANCH  35  36
ENDBRANCH  34  35
ENDBRANCH   1  34
TORSDOF 16
ENDMDL
MODEL 3
REMARK VINA RESULT:     -12.4      2.597      8.295
REMARK SMILES CC(C)CCn1nc(C(=O)NCCCCNC(=O)c2ccc(-c3c4nc(c(-c5c(F)cccc5F)c5ccc([nH]5)c(-c5c(F)cccc5F)c5nc(c(-c6c(F)cccc6F)c6ccc3[nH]6)C=C5)C=C4)cc2)c2c1CCN(C(=O)[C@@H]1CCc3nn(C)c(=O)n3C1)C2
REMARK SMILES IDX 13 1 12 2 11 3 9 4 10 5 8 7 6 8 7 9 74 10 73 11 75 12 91 13
REMARK SMILES IDX 76 14 77 15 5 16 4 17 2 18 1 19 3 20 78 21 79 22 80 23 81 24
REMARK SMILES IDX 90 25 82 26 89 27 83 28 87 29 84 30 85 31 88 32 86 33 14 34
REMARK SMILES IDX 15 35 16 36 17 37 18 39 19 40 20 41 72 42 21 43 71 44 22 45
REMARK SMILES IDX 23 46 24 47 65 48 25 49 70 50 64 51 66 52 26 53 69 54 63 55
REMARK SMILES IDX 62 56 27 58 53 59 36 60 52 61 37 62 40 63 51 64 67 65 38 66
REMARK SMILES IDX 39 67 50 69 68 70 41 71 28 72 29 73 34 74 30 75 31 76 33 77
REMARK SMILES IDX 35 78 32 79 54 80 55 81 60 82 56 83 57 84 59 85 61 86 58 87
REMARK SMILES IDX 42 88 43 89 48 90 44 91 45 92 47 93 49 94 46 95
REMARK H PARENT 11 6 16 38 66 57 40 68
REMARK Flexibility Score: inf
ROOT
ATOM      1  C   UNL A   1      34.466  31.410  27.718  1.00  0.00     0.023 C 
ENDROOT
BRANCH   1   2
ATOM      2  C   UNL A   1      33.549  30.572  26.808  1.00  0.00     0.116 C 
BRANCH   2   3
ATOM      3  N   UNL A   1      32.678  29.674  27.555  1.00  0.00    -0.351 N 
ATOM      4  C   UNL A   1      31.851  28.603  27.268  1.00  0.00     0.272 C 
ATOM      5  O   UNL A   1      31.451  28.010  28.279  1.00  0.00    -0.267 OA
ATOM      6  H   UNL A   1      32.678  29.884  28.517  1.00  0.00     0.163 HD
BRANCH   4   7
ATOM      7  C   UNL A   1      31.449  28.150  25.905  1.00  0.00     0.155 A 
ATOM      8  N   UNL A   1      30.915  28.410  23.820  1.00  0.00    -0.268 N 
ATOM      9  N   UNL A   1      31.149  29.084  24.965  1.00  0.00    -0.167 NA
ATOM     10  C   UNL A   1      30.858  27.071  24.035  1.00  0.00     0.046 A 
ATOM     11  C   UNL A   1      31.382  26.868  25.295  1.00  0.00     0.026 A 
ATOM     12  C   UNL A   1      30.461  25.977  23.115  1.00  0.00     0.078 C 
ATOM     13  C   UNL A   1      31.773  25.531  25.774  1.00  0.00     0.159 C 
ATOM     14  C   UNL A   1      30.409  24.677  23.947  1.00  0.00     0.126 C 
ATOM     15  N   UNL A   1      31.615  24.487  24.763  1.00  0.00    -0.338 N 
BRANCH   8  16
ATOM     16  C   UNL A   1      30.998  29.116  22.551  1.00  0.00     0.145 C 
BRANCH  16  17
ATOM     17  C   UNL A   1      29.757  29.904  22.117  1.00  0.00     0.027 C 
BRANCH  17  18
ATOM     18  C   UNL A   1      28.656  29.985  23.187  1.00  0.00    -0.016 C 
ATOM     19  C   UNL A   1      28.079  31.397  23.282  1.00  0.00     0.007 C 
ATOM     20  C   UNL A   1      27.546  28.980  22.877  1.00  0.00     0.007 C 
ENDBRANCH  17  18
ENDBRANCH  16  17
ENDBRANCH   8  16
BRANCH  15  21
ATOM     21  C   UNL A   1      32.402  23.368  24.965  1.00  0.00     0.227 C 
ATOM     22  O   UNL A   1      32.751  23.078  26.123  1.00  0.00    -0.274 OA
BRANCH  21  23
ATOM     23  C   UNL A   1      32.957  22.457  23.864  1.00  0.00     0.099 C 
ATOM     24  C   UNL A   1      32.791  20.957  24.110  1.00  0.00     0.023 C 
ATOM     25  C   UNL A   1      34.320  22.819  23.309  1.00  0.00     0.142 C 
ATOM     26  C   UNL A   1      33.915  20.321  24.911  1.00  0.00     0.078 C 
ATOM     27  N   UNL A   1      35.380  22.059  23.918  1.00  0.00    -0.278 N 
ATOM     28  C   UNL A   1      35.255  20.959  24.688  1.00  0.00     0.133 A 
ATOM     29  C   UNL A   1      36.658  22.522  24.106  1.00  0.00     0.345 A 
ATOM     30  N   UNL A   1      36.326  20.639  25.355  1.00  0.00    -0.155 NA
ATOM     31  N   UNL A   1      37.232  21.623  25.010  1.00  0.00    -0.216 N 
ATOM     32  O   UNL A   1      37.130  23.566  23.691  1.00  0.00    -0.246 OA
ATOM     33  C   UNL A   1      38.431  21.870  25.760  1.00  0.00     0.179 C 
ENDBRANCH  21  23
ENDBRANCH  15  21
ENDBRANCH   4   7
ENDBRANCH   2   3
ENDBRANCH   1   2
BRANCH   1  34
ATOM     34  C   UNL A   1      33.903  32.706  28.298  1.00  0.00     0.023 C 
BRANCH  34  35
ATOM     35  C   UNL A   1      34.942  33.569  29.008  1.00  0.00     0.116 C 
BRANCH  35  36
ATOM     36  N   UNL A   1      34.913  33.447  30.466  1.00  0.00    -0.352 N 
ATOM     37  C   UNL A   1      35.503  32.452  31.230  1.00  0.00     0.251 C 
ATOM     38  H   UNL A   1      34.421  34.146  30.956  1.00  0.00     0.163 HD
ATOM     39  O   UNL A   1      35.109  32.169  32.343  1.00  0.00    -0.269 OA
BRANCH  37  40
ATOM     40  C   UNL A   1      36.652  31.742  30.639  1.00  0.00     0.039 A 
ATOM     41  C   UNL A   1      37.877  32.385  30.472  1.00  0.00     0.014 A 
ATOM     42  C   UNL A   1      36.502  30.382  30.360  1.00  0.00     0.014 A 
ATOM     43  C   UNL A   1      38.988  31.616  30.137  1.00  0.00     0.010 A 
ATOM     44  C   UNL A   1      37.621  29.609  30.123  1.00  0.00     0.010 A 
ATOM     45  C   UNL A   1      38.870  30.215  30.018  1.00  0.00    -0.014 A 
BRANCH  45  46
ATOM     46  C   UNL A   1      40.089  29.397  30.018  1.00  0.00     0.031 A 
ATOM     47  C   UNL A   1      40.671  29.207  31.378  1.00  0.00     0.074 A 
ATOM     48  C   UNL A   1      40.581  28.697  28.969  1.00  0.00     0.049 A 
ATOM     49  N   UNL A   1      41.761  29.725  31.834  1.00  0.00    -0.248 NA
ATOM     50  C   UNL A   1      39.886  28.487  32.397  1.00  0.00     0.031 C 
ATOM     51  C   UNL A   1      39.961  28.513  27.653  1.00  0.00     0.029 A 
ATOM     52  N   UNL A   1      41.707  27.919  28.882  1.00  0.00    -0.354 N 
ATOM     53  C   UNL A   1      41.933  29.183  33.105  1.00  0.00     0.074 A 
ATOM     54  C   UNL A   1      40.670  28.601  33.472  1.00  0.00     0.031 C 
ATOM     55  C   UNL A   1      40.588  27.517  26.988  1.00  0.00     0.029 A 
ATOM     56  C   UNL A   1      41.762  27.117  27.743  1.00  0.00     0.049 A 
ATOM     57  H   UNL A   1      42.416  27.927  29.565  1.00  0.00     0.167 HD
ATOM     58  C   UNL A   1      43.190  28.970  33.583  1.00  0.00     0.037 A 
ATOM     59  C   UNL A   1      42.713  26.209  27.411  1.00  0.00     0.037 A 
ATOM     60  C   UNL A   1      44.161  29.689  32.796  1.00  0.00     0.049 A 
ATOM     61  C   UNL A   1      43.948  26.566  28.137  1.00  0.00     0.074 A 
ATOM     62  C   UNL A   1      44.576  30.991  32.630  1.00  0.00     0.029 A 
ATOM     63  N   UNL A   1      44.585  28.988  31.703  1.00  0.00    -0.354 N 
ATOM     64  N   UNL A   1      44.664  27.614  27.856  1.00  0.00    -0.248 NA
ATOM     65  C   UNL A   1      44.273  25.897  29.391  1.00  0.00     0.031 C 
ATOM     66  C   UNL A   1      45.154  31.068  31.325  1.00  0.00     0.029 A 
ATOM     67  C   UNL A   1      45.117  29.804  30.745  1.00  0.00     0.049 A 
ATOM     68  H   UNL A   1      44.514  28.011  31.615  1.00  0.00     0.167 HD
ATOM     69  C   UNL A   1      45.181  27.993  29.074  1.00  0.00     0.074 A 
ATOM     70  C   UNL A   1      45.093  26.808  29.918  1.00  0.00     0.031 C 
ATOM     71  C   UNL A   1      45.281  29.313  29.398  1.00  0.00     0.037 A 
BRANCH  58  72
ATOM     72  C   UNL A   1      43.609  27.730  34.354  1.00  0.00     0.057 A 
ATOM     73  C   UNL A   1      43.456  26.467  33.748  1.00  0.00     0.134 A 
ATOM     74  C   UNL A   1      43.829  27.693  35.747  1.00  0.00     0.134 A 
ATOM     75  F   UNL A   1      43.210  26.361  32.433  1.00  0.00    -0.206 F 
ATOM     76  C   UNL A   1      43.464  25.271  34.480  1.00  0.00     0.040 A 
ATOM     77  C   UNL A   1      43.888  26.503  36.479  1.00  0.00     0.040 A 
ATOM     78  F   UNL A   1      43.889  28.801  36.495  1.00  0.00    -0.206 F 
ATOM     79  C   UNL A   1      43.677  25.286  35.853  1.00  0.00     0.006 A 
ENDBRANCH  58  72
BRANCH  59  80
ATOM     80  C   UNL A   1      42.663  24.984  26.582  1.00  0.00     0.057 A 
ATOM     81  C   UNL A   1      43.421  24.880  25.403  1.00  0.00     0.134 A 
ATOM     82  C   UNL A   1      42.137  23.786  27.087  1.00  0.00     0.134 A 
ATOM     83  F   UNL A   1      43.973  25.967  24.846  1.00  0.00    -0.206 F 
ATOM     84  C   UNL A   1      43.705  23.648  24.804  1.00  0.00     0.040 A 
ATOM     85  C   UNL A   1      42.409  22.547  26.493  1.00  0.00     0.040 A 
ATOM     86  F   UNL A   1      41.429  23.770  28.226  1.00  0.00    -0.206 F 
ATOM     87  C   UNL A   1      43.217  22.473  25.364  1.00  0.00     0.006 A 
ENDBRANCH  59  80
BRANCH  71  88
ATOM     88  C   UNL A   1      45.411  30.284  28.266  1.00  0.00     0.057 A 
ATOM     89  C   UNL A   1      46.607  30.587  27.599  1.00  0.00     0.134 A 
ATOM     90  C   UNL A   1      44.255  30.941  27.832  1.00  0.00     0.134 A 
ATOM     91  F   UNL A   1      47.750  29.954  27.896  1.00  0.00    -0.206 F 
ATOM     92  C   UNL A   1      46.654  31.547  26.584  1.00  0.00     0.040 A 
ATOM     93  C   UNL A   1      44.283  31.876  26.796  1.00  0.00     0.040 A 
ATOM     94  F   UNL A   1      43.070  30.675  28.403  1.00  0.00    -0.206 F 
ATOM     95  C   UNL A   1      45.490  32.194  26.180  1.00  0.00     0.006 A 
ENDBRANCH  71  88
ENDBRANCH  45  46
ENDBRANCH  37  40
ENDBRANCH  35  36
ENDBRANCH  34  35
ENDBRANCH   1  34
TORSDOF 16
ENDMDL
