MODEL 1
REMARK VINA RESULT:     -13.0      0.000      0.000
REMARK SMILES O=C1CC[C@@H](CC(=O)N2CCC(Oc3ccccc3)(C(=O)NCCCCNC(=O)c3ccc(-c4c5nc(c(-c6c(F)cccc6F)c6ccc([nH]6)c(-c6c(F)cccc6F)c6nc(c(-c7c(F)cccc7F)c7ccc4[nH]7)C=C6)C=C5)cc3)CC2)N1
REMARK SMILES IDX 24 1 23 2 22 3 20 4 21 5 12 7 7 8 8 9 9 10 10 11 85 12 11 13
REMARK SMILES IDX 84 14 6 15 5 16 1 17 2 18 3 19 86 20 4 21 13 23 14 24 15 25
REMARK SMILES IDX 19 26 16 27 18 28 17 29 25 30 26 31 27 32 28 33 29 35 30 36
REMARK SMILES IDX 31 37 83 38 32 39 82 40 33 41 34 42 35 43 76 44 36 45 81 46
REMARK SMILES IDX 75 47 77 48 37 49 80 50 74 51 73 52 38 54 64 55 47 56 63 57
REMARK SMILES IDX 48 58 51 59 62 60 78 61 49 62 50 63 61 65 79 66 52 67 39 68
REMARK SMILES IDX 40 69 45 70 41 71 42 72 44 73 46 74 43 75 65 76 66 77 71 78
REMARK SMILES IDX 67 79 68 80 70 81 72 82 69 83 53 84 54 85 59 86 55 87 56 88
REMARK SMILES IDX 58 89 60 90 57 91
REMARK H PARENT 22 6 86 22 27 34 77 53 51 64
REMARK Flexibility Score: inf
ROOT
ATOM      1  C   UNL A   1      37.432  21.130  24.729  1.00  0.00     0.023 C 
ENDROOT
BRANCH   1   2
ATOM      2  C   UNL A   1      35.984  20.857  25.119  1.00  0.00     0.116 C 
BRANCH   2   3
ATOM      3  N   UNL A   1      35.602  21.689  26.233  1.00  0.00    -0.353 N 
ATOM      4  C   UNL A   1      34.496  22.458  26.408  1.00  0.00     0.264 C 
ATOM      5  O   UNL A   1      34.426  23.038  27.497  1.00  0.00    -0.270 OA
ATOM      6  H   UNL A   1      36.239  21.700  26.984  1.00  0.00     0.163 HD
BRANCH   4   7
ATOM      7  C   UNL A   1      33.391  22.571  25.315  1.00  0.00     0.190 C 
ATOM      8  C   UNL A   1      33.689  25.973  22.929  1.00  0.00     0.224 C 
ATOM      9  O   UNL A   1      33.707  25.625  21.740  1.00  0.00    -0.275 OA
ATOM     10  N   UNL A   1      34.023  25.061  23.911  1.00  0.00    -0.342 N 
ATOM     11  C   UNL A   1      34.761  23.846  23.567  1.00  0.00     0.124 C 
ATOM     12  C   UNL A   1      33.528  25.080  25.266  1.00  0.00     0.124 C 
ATOM     13  C   UNL A   1      33.946  22.593  23.873  1.00  0.00     0.080 C 
ATOM     14  C   UNL A   1      32.633  23.881  25.563  1.00  0.00     0.080 C 
BRANCH   8  15
ATOM     15  C   UNL A   1      33.527  27.479  23.215  1.00  0.00     0.125 C 
BRANCH  15  16
ATOM     16  C   UNL A   1      32.242  28.268  23.475  1.00  0.00     0.091 C 
ATOM     17  O   UNL A   1      29.845  29.812  21.422  1.00  0.00    -0.275 OA
ATOM     18  C   UNL A   1      30.443  29.121  22.233  1.00  0.00     0.220 C 
ATOM     19  C   UNL A   1      29.831  28.072  23.128  1.00  0.00     0.102 C 
ATOM     20  N   UNL A   1      31.804  29.148  22.435  1.00  0.00    -0.353 N 
ATOM     21  C   UNL A   1      31.016  27.437  23.862  1.00  0.00     0.035 C 
ATOM     22  H   UNL A   1      32.417  29.717  21.914  1.00  0.00     0.163 HD
ENDBRANCH  15  16
ENDBRANCH   8  15
BRANCH   7  23
ATOM     23  O   UNL A   1      32.581  21.410  25.639  1.00  0.00    -0.477 OA
BRANCH  23  24
ATOM     24  C   UNL A   1      32.636  20.333  24.810  1.00  0.00     0.120 A 
ATOM     25  C   UNL A   1      32.221  20.495  23.491  1.00  0.00     0.046 A 
ATOM     26  C   UNL A   1      32.937  19.062  25.297  1.00  0.00     0.046 A 
ATOM     27  C   UNL A   1      32.184  19.394  22.635  1.00  0.00     0.004 A 
ATOM     28  C   UNL A   1      32.922  17.966  24.438  1.00  0.00     0.004 A 
ATOM     29  C   UNL A   1      32.550  18.133  23.104  1.00  0.00     0.000 A 
ENDBRANCH  23  24
ENDBRANCH   7  23
ENDBRANCH   4   7
ENDBRANCH   2   3
ENDBRANCH   1   2
BRANCH   1  30
ATOM     30  C   UNL A   1      38.356  19.923  24.893  1.00  0.00     0.023 C 
BRANCH  30  31
ATOM     31  C   UNL A   1      39.340  20.032  26.050  1.00  0.00     0.116 C 
BRANCH  31  32
ATOM     32  N   UNL A   1      40.487  19.152  25.891  1.00  0.00    -0.352 N 
ATOM     33  C   UNL A   1      41.819  19.447  26.021  1.00  0.00     0.251 C 
ATOM     34  H   UNL A   1      40.278  18.218  25.658  1.00  0.00     0.163 HD
ATOM     35  O   UNL A   1      42.674  18.630  25.700  1.00  0.00    -0.269 OA
BRANCH  33  36
ATOM     36  C   UNL A   1      42.209  20.777  26.526  1.00  0.00     0.039 A 
ATOM     37  C   UNL A   1      42.622  21.748  25.615  1.00  0.00     0.014 A 
ATOM     38  C   UNL A   1      42.124  21.068  27.891  1.00  0.00     0.014 A 
ATOM     39  C   UNL A   1      42.900  23.037  26.069  1.00  0.00     0.010 A 
ATOM     40  C   UNL A   1      42.318  22.372  28.327  1.00  0.00     0.010 A 
ATOM     41  C   UNL A   1      42.717  23.368  27.422  1.00  0.00    -0.014 A 
BRANCH  41  42
ATOM     42  C   UNL A   1      42.964  24.744  27.917  1.00  0.00     0.031 A 
ATOM     43  C   UNL A   1      44.362  25.166  28.280  1.00  0.00     0.074 A 
ATOM     44  C   UNL A   1      41.931  25.593  28.085  1.00  0.00     0.049 A 
ATOM     45  N   UNL A   1      44.775  26.294  28.801  1.00  0.00    -0.248 NA
ATOM     46  C   UNL A   1      45.434  24.183  28.052  1.00  0.00     0.031 C 
ATOM     47  C   UNL A   1      40.526  25.286  27.806  1.00  0.00     0.029 A 
ATOM     48  N   UNL A   1      41.903  26.886  28.541  1.00  0.00    -0.354 N 
ATOM     49  C   UNL A   1      46.147  26.152  28.965  1.00  0.00     0.074 A 
ATOM     50  C   UNL A   1      46.488  24.809  28.553  1.00  0.00     0.031 C 
ATOM     51  C   UNL A   1      39.778  26.369  28.074  1.00  0.00     0.029 A 
ATOM     52  C   UNL A   1      40.641  27.430  28.585  1.00  0.00     0.049 A 
ATOM     53  H   UNL A   1      42.711  27.380  28.812  1.00  0.00     0.167 HD
ATOM     54  C   UNL A   1      47.047  27.069  29.390  1.00  0.00     0.037 A 
ATOM     55  C   UNL A   1      40.229  28.642  29.001  1.00  0.00     0.037 A 
ATOM     56  C   UNL A   1      46.709  28.411  29.780  1.00  0.00     0.049 A 
ATOM     57  C   UNL A   1      41.251  29.630  29.499  1.00  0.00     0.074 A 
ATOM     58  C   UNL A   1      47.553  29.425  30.198  1.00  0.00     0.029 A 
ATOM     59  N   UNL A   1      45.422  28.928  29.795  1.00  0.00    -0.354 N 
ATOM     60  N   UNL A   1      42.551  29.499  29.595  1.00  0.00    -0.248 NA
ATOM     61  C   UNL A   1      40.746  30.939  29.938  1.00  0.00     0.031 C 
ATOM     62  C   UNL A   1      46.772  30.542  30.505  1.00  0.00     0.029 A 
ATOM     63  C   UNL A   1      45.448  30.243  30.226  1.00  0.00     0.049 A 
ATOM     64  H   UNL A   1      44.611  28.433  29.536  1.00  0.00     0.167 HD
ATOM     65  C   UNL A   1      43.022  30.719  30.065  1.00  0.00     0.074 A 
ATOM     66  C   UNL A   1      41.870  31.582  30.219  1.00  0.00     0.031 C 
ATOM     67  C   UNL A   1      44.293  31.094  30.345  1.00  0.00     0.037 A 
BRANCH  54  68
ATOM     68  C   UNL A   1      48.491  26.660  29.434  1.00  0.00     0.057 A 
ATOM     69  C   UNL A   1      49.336  26.831  28.330  1.00  0.00     0.134 A 
ATOM     70  C   UNL A   1      49.056  26.146  30.608  1.00  0.00     0.134 A 
ATOM     71  F   UNL A   1      48.854  27.305  27.171  1.00  0.00    -0.206 F 
ATOM     72  C   UNL A   1      50.689  26.492  28.386  1.00  0.00     0.040 A 
ATOM     73  C   UNL A   1      50.414  25.829  30.685  1.00  0.00     0.040 A 
ATOM     74  F   UNL A   1      48.304  25.960  31.703  1.00  0.00    -0.206 F 
ATOM     75  C   UNL A   1      51.233  26.000  29.571  1.00  0.00     0.006 A 
ENDBRANCH  54  68
BRANCH  55  76
ATOM     76  C   UNL A   1      38.788  29.005  28.968  1.00  0.00     0.057 A 
ATOM     77  C   UNL A   1      38.198  29.522  27.806  1.00  0.00     0.134 A 
ATOM     78  C   UNL A   1      37.980  28.901  30.106  1.00  0.00     0.134 A 
ATOM     79  F   UNL A   1      38.922  29.662  26.686  1.00  0.00    -0.206 F 
ATOM     80  C   UNL A   1      36.873  29.959  27.790  1.00  0.00     0.040 A 
ATOM     81  C   UNL A   1      36.643  29.305  30.095  1.00  0.00     0.040 A 
ATOM     82  F   UNL A   1      38.478  28.406  31.249  1.00  0.00    -0.206 F 
ATOM     83  C   UNL A   1      36.091  29.851  28.939  1.00  0.00     0.006 A 
ENDBRANCH  55  76
BRANCH  67  84
ATOM     84  C   UNL A   1      44.514  32.513  30.785  1.00  0.00     0.057 A 
ATOM     85  C   UNL A   1      44.528  32.879  32.136  1.00  0.00     0.134 A 
ATOM     86  C   UNL A   1      44.756  33.518  29.839  1.00  0.00     0.134 A 
ATOM     87  F   UNL A   1      44.293  31.967  33.092  1.00  0.00    -0.206 F 
ATOM     88  C   UNL A   1      44.747  34.201  32.529  1.00  0.00     0.040 A 
ATOM     89  C   UNL A   1      45.005  34.835  30.221  1.00  0.00     0.040 A 
ATOM     90  F   UNL A   1      44.767  33.231  28.528  1.00  0.00    -0.206 F 
ATOM     91  C   UNL A   1      44.994  35.181  31.571  1.00  0.00     0.006 A 
ENDBRANCH  67  84
ENDBRANCH  41  42
ENDBRANCH  33  36
ENDBRANCH  31  32
ENDBRANCH  30  31
ENDBRANCH   1  30
TORSDOF 15
ENDMDL
MODEL 2
REMARK VINA RESULT:     -12.9      4.118      9.700
REMARK SMILES O=C1CC[C@@H](CC(=O)N2CCC(Oc3ccccc3)(C(=O)NCCCCNC(=O)c3ccc(-c4c5nc(c(-c6c(F)cccc6F)c6ccc([nH]6)c(-c6c(F)cccc6F)c6nc(c(-c7c(F)cccc7F)c7ccc4[nH]7)C=C6)C=C5)cc3)CC2)N1
REMARK SMILES IDX 24 1 23 2 22 3 20 4 21 5 12 7 7 8 8 9 9 10 10 11 85 12 11 13
REMARK SMILES IDX 84 14 6 15 5 16 1 17 2 18 3 19 86 20 4 21 13 23 14 24 15 25
REMARK SMILES IDX 19 26 16 27 18 28 17 29 25 30 26 31 27 32 28 33 29 35 30 36
REMARK SMILES IDX 31 37 83 38 32 39 82 40 33 41 34 42 35 43 76 44 36 45 81 46
REMARK SMILES IDX 75 47 77 48 37 49 80 50 74 51 73 52 38 54 64 55 47 56 63 57
REMARK SMILES IDX 48 58 51 59 62 60 78 61 49 62 50 63 61 65 79 66 52 67 39 68
REMARK SMILES IDX 40 69 45 70 41 71 42 72 44 73 46 74 43 75 65 76 66 77 71 78
REMARK SMILES IDX 67 79 68 80 70 81 72 82 69 83 53 84 54 85 59 86 55 87 56 88
REMARK SMILES IDX 58 89 60 90 57 91
REMARK H PARENT 22 6 86 22 27 34 77 53 51 64
REMARK Flexibility Score: inf
ROOT
ATOM      1  C   UNL A   1      31.866  30.564  26.763  1.00  0.00     0.023 C 
ENDROOT
BRANCH   1   2
ATOM      2  C   UNL A   1      31.566  30.005  25.377  1.00  0.00     0.116 C 
BRANCH   2   3
ATOM      3  N   UNL A   1      32.774  29.508  24.766  1.00  0.00    -0.353 N 
ATOM      4  C   UNL A   1      33.008  28.332  24.128  1.00  0.00     0.264 C 
ATOM      5  O   UNL A   1      34.150  28.201  23.672  1.00  0.00    -0.270 OA
ATOM      6  H   UNL A   1      33.549  30.115  24.819  1.00  0.00     0.163 HD
BRANCH   4   7
ATOM      7  C   UNL A   1      31.901  27.248  23.967  1.00  0.00     0.190 C 
ATOM      8  C   UNL A   1      32.200  24.086  26.662  1.00  0.00     0.224 C 
ATOM      9  O   UNL A   1      31.118  23.961  27.251  1.00  0.00    -0.275 OA
ATOM     10  N   UNL A   1      32.509  25.286  26.052  1.00  0.00    -0.342 N 
ATOM     11  C   UNL A   1      31.786  26.504  26.415  1.00  0.00     0.124 C 
ATOM     12  C   UNL A   1      33.370  25.437  24.904  1.00  0.00     0.124 C 
ATOM     13  C   UNL A   1      31.019  27.072  25.224  1.00  0.00     0.080 C 
ATOM     14  C   UNL A   1      32.602  25.916  23.676  1.00  0.00     0.080 C 
BRANCH   8  15
ATOM     15  C   UNL A   1      33.237  22.963  26.859  1.00  0.00     0.125 C 
BRANCH  15  16
ATOM     16  C   UNL A   1      33.580  21.806  25.919  1.00  0.00     0.091 C 
ATOM     17  O   UNL A   1      32.528  18.465  25.645  1.00  0.00    -0.275 OA
ATOM     18  C   UNL A   1      32.791  19.643  25.461  1.00  0.00     0.220 C 
ATOM     19  C   UNL A   1      32.528  20.426  24.198  1.00  0.00     0.102 C 
ATOM     20  N   UNL A   1      33.333  20.483  26.407  1.00  0.00    -0.353 N 
ATOM     21  C   UNL A   1      32.941  21.863  24.529  1.00  0.00     0.035 C 
ATOM     22  H   UNL A   1      33.530  20.202  27.330  1.00  0.00     0.163 HD
ENDBRANCH  15  16
ENDBRANCH   8  15
BRANCH   7  23
ATOM     23  O   UNL A   1      31.204  27.757  22.799  1.00  0.00    -0.477 OA
BRANCH  23  24
ATOM     24  C   UNL A   1      29.931  28.214  22.955  1.00  0.00     0.120 A 
ATOM     25  C   UNL A   1      28.962  27.324  23.409  1.00  0.00     0.046 A 
ATOM     26  C   UNL A   1      29.564  29.485  22.517  1.00  0.00     0.046 A 
ATOM     27  C   UNL A   1      27.632  27.735  23.502  1.00  0.00     0.004 A 
ATOM     28  C   UNL A   1      28.239  29.904  22.629  1.00  0.00     0.004 A 
ATOM     29  C   UNL A   1      27.274  29.029  23.127  1.00  0.00     0.000 A 
ENDBRANCH  23  24
ENDBRANCH   7  23
ENDBRANCH   4   7
ENDBRANCH   2   3
ENDBRANCH   1   2
BRANCH   1  30
ATOM     30  C   UNL A   1      31.587  32.060  26.903  1.00  0.00     0.023 C 
BRANCH  30  31
ATOM     31  C   UNL A   1      32.832  32.926  27.034  1.00  0.00     0.116 C 
BRANCH  31  32
ATOM     32  N   UNL A   1      32.547  34.224  27.627  1.00  0.00    -0.352 N 
ATOM     33  C   UNL A   1      33.110  34.802  28.735  1.00  0.00     0.251 C 
ATOM     34  H   UNL A   1      31.857  34.759  27.171  1.00  0.00     0.163 HD
ATOM     35  O   UNL A   1      32.650  35.838  29.201  1.00  0.00    -0.269 OA
BRANCH  33  36
ATOM     36  C   UNL A   1      34.261  34.140  29.378  1.00  0.00     0.039 A 
ATOM     37  C   UNL A   1      34.024  33.174  30.355  1.00  0.00     0.014 A 
ATOM     38  C   UNL A   1      35.566  34.450  28.982  1.00  0.00     0.014 A 
ATOM     39  C   UNL A   1      35.100  32.473  30.899  1.00  0.00     0.010 A 
ATOM     40  C   UNL A   1      36.626  33.693  29.463  1.00  0.00     0.010 A 
ATOM     41  C   UNL A   1      36.405  32.703  30.433  1.00  0.00    -0.014 A 
BRANCH  41  42
ATOM     42  C   UNL A   1      37.558  31.937  30.967  1.00  0.00     0.031 A 
ATOM     43  C   UNL A   1      38.091  32.252  32.338  1.00  0.00     0.074 A 
ATOM     44  C   UNL A   1      38.151  30.998  30.205  1.00  0.00     0.049 A 
ATOM     45  N   UNL A   1      39.133  31.753  32.954  1.00  0.00    -0.248 NA
ATOM     46  C   UNL A   1      37.375  33.282  33.110  1.00  0.00     0.031 C 
ATOM     47  C   UNL A   1      37.750  30.630  28.844  1.00  0.00     0.029 A 
ATOM     48  N   UNL A   1      39.227  30.186  30.464  1.00  0.00    -0.354 N 
ATOM     49  C   UNL A   1      39.197  32.410  34.176  1.00  0.00     0.074 A 
ATOM     50  C   UNL A   1      38.133  33.388  34.191  1.00  0.00     0.031 C 
ATOM     51  C   UNL A   1      38.554  29.650  28.399  1.00  0.00     0.029 A 
ATOM     52  C   UNL A   1      39.552  29.351  29.421  1.00  0.00     0.049 A 
ATOM     53  H   UNL A   1      39.719  30.200  31.316  1.00  0.00     0.167 HD
ATOM     54  C   UNL A   1      40.046  32.194  35.208  1.00  0.00     0.037 A 
ATOM     55  C   UNL A   1      40.550  28.455  29.302  1.00  0.00     0.037 A 
ATOM     56  C   UNL A   1      41.091  31.206  35.200  1.00  0.00     0.049 A 
ATOM     57  C   UNL A   1      41.498  28.260  30.456  1.00  0.00     0.074 A 
ATOM     58  C   UNL A   1      41.986  30.891  36.208  1.00  0.00     0.029 A 
ATOM     59  N   UNL A   1      41.378  30.370  34.132  1.00  0.00    -0.354 N 
ATOM     60  N   UNL A   1      41.511  28.850  31.626  1.00  0.00    -0.248 NA
ATOM     61  C   UNL A   1      42.567  27.267  30.273  1.00  0.00     0.031 C 
ATOM     62  C   UNL A   1      42.841  29.892  35.734  1.00  0.00     0.029 A 
ATOM     63  C   UNL A   1      42.444  29.546  34.453  1.00  0.00     0.049 A 
ATOM     64  H   UNL A   1      40.894  30.362  33.275  1.00  0.00     0.167 HD
ATOM     65  C   UNL A   1      42.560  28.271  32.332  1.00  0.00     0.074 A 
ATOM     66  C   UNL A   1      43.149  27.274  31.463  1.00  0.00     0.031 C 
ATOM     67  C   UNL A   1      42.997  28.540  33.585  1.00  0.00     0.037 A 
BRANCH  54  68
ATOM     68  C   UNL A   1      39.867  33.028  36.444  1.00  0.00     0.057 A 
ATOM     69  C   UNL A   1      40.603  34.202  36.649  1.00  0.00     0.134 A 
ATOM     70  C   UNL A   1      38.911  32.687  37.408  1.00  0.00     0.134 A 
ATOM     71  F   UNL A   1      41.545  34.578  35.771  1.00  0.00    -0.206 F 
ATOM     72  C   UNL A   1      40.405  35.000  37.777  1.00  0.00     0.040 A 
ATOM     73  C   UNL A   1      38.683  33.492  38.526  1.00  0.00     0.040 A 
ATOM     74  F   UNL A   1      38.169  31.577  37.271  1.00  0.00    -0.206 F 
ATOM     75  C   UNL A   1      39.434  34.650  38.714  1.00  0.00     0.006 A 
ENDBRANCH  54  68
BRANCH  55  76
ATOM     76  C   UNL A   1      40.714  27.664  28.054  1.00  0.00     0.057 A 
ATOM     77  C   UNL A   1      40.136  26.395  27.919  1.00  0.00     0.134 A 
ATOM     78  C   UNL A   1      41.496  28.129  26.991  1.00  0.00     0.134 A 
ATOM     79  F   UNL A   1      39.388  25.885  28.910  1.00  0.00    -0.206 F 
ATOM     80  C   UNL A   1      40.364  25.602  26.794  1.00  0.00     0.040 A 
ATOM     81  C   UNL A   1      41.706  27.359  25.845  1.00  0.00     0.040 A 
ATOM     82  F   UNL A   1      42.070  29.340  27.049  1.00  0.00    -0.206 F 
ATOM     83  C   UNL A   1      41.153  26.084  25.752  1.00  0.00     0.006 A 
ENDBRANCH  55  76
BRANCH  67  84
ATOM     84  C   UNL A   1      44.125  27.704  34.117  1.00  0.00     0.057 A 
ATOM     85  C   UNL A   1      43.907  26.464  34.732  1.00  0.00     0.134 A 
ATOM     86  C   UNL A   1      45.452  28.130  33.973  1.00  0.00     0.134 A 
ATOM     87  F   UNL A   1      42.660  26.003  34.910  1.00  0.00    -0.206 F 
ATOM     88  C   UNL A   1      44.967  25.693  35.211  1.00  0.00     0.040 A 
ATOM     89  C   UNL A   1      46.521  27.354  34.420  1.00  0.00     0.040 A 
ATOM     90  F   UNL A   1      45.731  29.302  33.382  1.00  0.00    -0.206 F 
ATOM     91  C   UNL A   1      46.279  26.134  35.048  1.00  0.00     0.006 A 
ENDBRANCH  67  84
ENDBRANCH  41  42
ENDBRANCH  33  36
ENDBRANCH  31  32
ENDBRANCH  30  31
ENDBRANCH   1  30
TORSDOF 15
ENDMDL
MODEL 3
REMARK VINA RESULT:     -12.9      4.092      9.540
REMARK SMILES O=C1CC[C@@H](CC(=O)N2CCC(Oc3ccccc3)(C(=O)NCCCCNC(=O)c3ccc(-c4c5nc(c(-c6c(F)cccc6F)c6ccc([nH]6)c(-c6c(F)cccc6F)c6nc(c(-c7c(F)cccc7F)c7ccc4[nH]7)C=C6)C=C5)cc3)CC2)N1
REMARK SMILES IDX 24 1 23 2 22 3 20 4 21 5 12 7 7 8 8 9 9 10 10 11 85 12 11 13
REMARK SMILES IDX 84 14 6 15 5 16 1 17 2 18 3 19 86 20 4 21 13 23 14 24 15 25
REMARK SMILES IDX 19 26 16 27 18 28 17 29 25 30 26 31 27 32 28 33 29 35 30 36
REMARK SMILES IDX 31 37 83 38 32 39 82 40 33 41 34 42 35 43 76 44 36 45 81 46
REMARK SMILES IDX 75 47 77 48 37 49 80 50 74 51 73 52 38 54 64 55 47 56 63 57
REMARK SMILES IDX 48 58 51 59 62 60 78 61 49 62 50 63 61 65 79 66 52 67 39 68
REMARK SMILES IDX 40 69 45 70 41 71 42 72 44 73 46 74 43 75 65 76 66 77 71 78
REMARK SMILES IDX 67 79 68 80 70 81 72 82 69 83 53 84 54 85 59 86 55 87 56 88
REMARK SMILES IDX 58 89 60 90 57 91
REMARK H PARENT 22 6 86 22 27 34 77 53 51 64
REMARK Flexibility Score: inf
ROOT
ATOM      1  C   UNL A   1      31.799  30.537  26.749  1.00  0.00     0.023 C 
ENDROOT
BRANCH   1   2
ATOM      2  C   UNL A   1      31.514  29.991  25.354  1.00  0.00     0.116 C 
BRANCH   2   3
ATOM      3  N   UNL A   1      32.731  29.507  24.749  1.00  0.00    -0.353 N 
ATOM      4  C   UNL A   1      32.982  28.331  24.118  1.00  0.00     0.264 C 
ATOM      5  O   UNL A   1      34.126  28.213  23.664  1.00  0.00    -0.270 OA
ATOM      6  H   UNL A   1      33.496  30.125  24.798  1.00  0.00     0.163 HD
BRANCH   4   7
ATOM      7  C   UNL A   1      31.891  27.230  23.963  1.00  0.00     0.190 C 
ATOM      8  C   UNL A   1      32.250  24.076  26.661  1.00  0.00     0.224 C 
ATOM      9  O   UNL A   1      31.172  23.935  27.255  1.00  0.00    -0.275 OA
ATOM     10  N   UNL A   1      32.538  25.280  26.049  1.00  0.00    -0.342 N 
ATOM     11  C   UNL A   1      31.797  26.487  26.413  1.00  0.00     0.124 C 
ATOM     12  C   UNL A   1      33.392  25.443  24.897  1.00  0.00     0.124 C 
ATOM     13  C   UNL A   1      31.018  27.042  25.224  1.00  0.00     0.080 C 
ATOM     14  C   UNL A   1      32.612  25.908  23.671  1.00  0.00     0.080 C 
BRANCH   8  15
ATOM     15  C   UNL A   1      33.305  22.970  26.856  1.00  0.00     0.125 C 
BRANCH  15  16
ATOM     16  C   UNL A   1      33.621  21.782  25.945  1.00  0.00     0.091 C 
ATOM     17  O   UNL A   1      32.507  18.455  25.765  1.00  0.00    -0.275 OA
ATOM     18  C   UNL A   1      32.790  19.623  25.549  1.00  0.00     0.220 C 
ATOM     19  C   UNL A   1      32.533  20.377  24.268  1.00  0.00     0.102 C 
ATOM     20  N   UNL A   1      33.353  20.478  26.469  1.00  0.00    -0.353 N 
ATOM     21  C   UNL A   1      32.974  21.814  24.558  1.00  0.00     0.035 C 
ATOM     22  H   UNL A   1      33.552  20.217  27.398  1.00  0.00     0.163 HD
ENDBRANCH  15  16
ENDBRANCH   8  15
BRANCH   7  23
ATOM     23  O   UNL A   1      31.181  27.725  22.797  1.00  0.00    -0.477 OA
BRANCH  23  24
ATOM     24  C   UNL A   1      29.898  28.149  22.955  1.00  0.00     0.120 A 
ATOM     25  C   UNL A   1      28.957  27.238  23.428  1.00  0.00     0.046 A 
ATOM     26  C   UNL A   1      29.492  29.403  22.501  1.00  0.00     0.046 A 
ATOM     27  C   UNL A   1      27.616  27.613  23.523  1.00  0.00     0.004 A 
ATOM     28  C   UNL A   1      28.157  29.785  22.616  1.00  0.00     0.004 A 
ATOM     29  C   UNL A   1      27.219  28.891  23.132  1.00  0.00     0.000 A 
ENDBRANCH  23  24
ENDBRANCH   7  23
ENDBRANCH   4   7
ENDBRANCH   2   3
ENDBRANCH   1   2
BRANCH   1  30
ATOM     30  C   UNL A   1      31.541  32.036  26.893  1.00  0.00     0.023 C 
BRANCH  30  31
ATOM     31  C   UNL A   1      32.770  32.858  27.256  1.00  0.00     0.116 C 
BRANCH  31  32
ATOM     32  N   UNL A   1      32.435  34.218  27.648  1.00  0.00    -0.352 N 
ATOM     33  C   UNL A   1      33.002  34.993  28.626  1.00  0.00     0.251 C 
ATOM     34  H   UNL A   1      31.701  34.638  27.143  1.00  0.00     0.163 HD
ATOM     35  O   UNL A   1      32.501  36.067  28.941  1.00  0.00    -0.269 OA
BRANCH  33  36
ATOM     36  C   UNL A   1      34.209  34.501  29.316  1.00  0.00     0.039 A 
ATOM     37  C   UNL A   1      34.069  33.878  30.556  1.00  0.00     0.014 A 
ATOM     38  C   UNL A   1      35.465  34.620  28.714  1.00  0.00     0.014 A 
ATOM     39  C   UNL A   1      35.191  33.323  31.172  1.00  0.00     0.010 A 
ATOM     40  C   UNL A   1      36.563  33.992  29.288  1.00  0.00     0.010 A 
ATOM     41  C   UNL A   1      36.439  33.346  30.528  1.00  0.00    -0.014 A 
BRANCH  41  42
ATOM     42  C   UNL A   1      37.634  32.721  31.146  1.00  0.00     0.031 A 
ATOM     43  C   UNL A   1      38.256  31.509  30.508  1.00  0.00     0.074 A 
ATOM     44  C   UNL A   1      38.126  33.211  32.301  1.00  0.00     0.049 A 
ATOM     45  N   UNL A   1      39.252  30.772  30.930  1.00  0.00    -0.248 NA
ATOM     46  C   UNL A   1      37.665  31.048  29.240  1.00  0.00     0.031 C 
ATOM     47  C   UNL A   1      37.585  34.357  33.037  1.00  0.00     0.029 A 
ATOM     48  N   UNL A   1      39.189  32.799  33.064  1.00  0.00    -0.354 N 
ATOM     49  C   UNL A   1      39.401  29.765  29.986  1.00  0.00     0.074 A 
ATOM     50  C   UNL A   1      38.354  29.943  29.004  1.00  0.00     0.031 C 
ATOM     51  C   UNL A   1      38.335  34.570  34.131  1.00  0.00     0.029 A 
ATOM     52  C   UNL A   1      39.379  33.552  34.199  1.00  0.00     0.049 A 
ATOM     53  H   UNL A   1      39.763  32.036  32.822  1.00  0.00     0.167 HD
ATOM     54  C   UNL A   1      40.345  28.797  29.924  1.00  0.00     0.037 A 
ATOM     55  C   UNL A   1      40.286  33.426  35.185  1.00  0.00     0.037 A 
ATOM     56  C   UNL A   1      41.399  28.635  30.890  1.00  0.00     0.049 A 
ATOM     57  C   UNL A   1      41.305  32.320  35.105  1.00  0.00     0.074 A 
ATOM     58  C   UNL A   1      42.421  27.702  30.900  1.00  0.00     0.029 A 
ATOM     59  N   UNL A   1      41.566  29.427  32.015  1.00  0.00    -0.354 N 
ATOM     60  N   UNL A   1      41.467  31.409  34.176  1.00  0.00    -0.248 NA
ATOM     61  C   UNL A   1      42.273  32.231  36.207  1.00  0.00     0.031 C 
ATOM     62  C   UNL A   1      43.184  27.905  32.053  1.00  0.00     0.029 A 
ATOM     63  C   UNL A   1      42.670  28.998  32.733  1.00  0.00     0.049 A 
ATOM     64  H   UNL A   1      40.987  30.183  32.265  1.00  0.00     0.167 HD
ATOM     65  C   UNL A   1      42.577  30.667  34.561  1.00  0.00     0.074 A 
ATOM     66  C   UNL A   1      43.057  31.244  35.799  1.00  0.00     0.031 C 
ATOM     67  C   UNL A   1      43.149  29.603  33.948  1.00  0.00     0.037 A 
BRANCH  54  68
ATOM     68  C   UNL A   1      40.298  27.851  28.759  1.00  0.00     0.057 A 
ATOM     69  C   UNL A   1      41.004  28.108  27.576  1.00  0.00     0.134 A 
ATOM     70  C   UNL A   1      39.591  26.645  28.842  1.00  0.00     0.134 A 
ATOM     71  F   UNL A   1      41.689  29.252  27.427  1.00  0.00    -0.206 F 
ATOM     72  C   UNL A   1      40.995  27.207  26.511  1.00  0.00     0.040 A 
ATOM     73  C   UNL A   1      39.599  25.723  27.794  1.00  0.00     0.040 A 
ATOM     74  F   UNL A   1      38.898  26.335  29.947  1.00  0.00    -0.206 F 
ATOM     75  C   UNL A   1      40.300  26.004  26.623  1.00  0.00     0.006 A 
ENDBRANCH  54  68
BRANCH  55  76
ATOM     76  C   UNL A   1      40.288  34.365  36.338  1.00  0.00     0.057 A 
ATOM     77  C   UNL A   1      39.588  34.071  37.515  1.00  0.00     0.134 A 
ATOM     78  C   UNL A   1      40.941  35.602  36.272  1.00  0.00     0.134 A 
ATOM     79  F   UNL A   1      38.929  32.909  37.635  1.00  0.00    -0.206 F 
ATOM     80  C   UNL A   1      39.501  34.987  38.564  1.00  0.00     0.040 A 
ATOM     81  C   UNL A   1      40.888  36.515  37.327  1.00  0.00     0.040 A 
ATOM     82  F   UNL A   1      41.638  35.944  35.178  1.00  0.00    -0.206 F 
ATOM     83  C   UNL A   1      40.153  36.215  38.471  1.00  0.00     0.006 A 
ENDBRANCH  55  76
BRANCH  67  84
ATOM     84  C   UNL A   1      44.392  29.034  34.568  1.00  0.00     0.057 A 
ATOM     85  C   UNL A   1      44.345  28.028  35.541  1.00  0.00     0.134 A 
ATOM     86  C   UNL A   1      45.656  29.475  34.153  1.00  0.00     0.134 A 
ATOM     87  F   UNL A   1      43.166  27.569  35.989  1.00  0.00    -0.206 F 
ATOM     88  C   UNL A   1      45.510  27.501  36.099  1.00  0.00     0.040 A 
ATOM     89  C   UNL A   1      46.827  28.934  34.682  1.00  0.00     0.040 A 
ATOM     90  F   UNL A   1      45.771  30.429  33.216  1.00  0.00    -0.206 F 
ATOM     91  C   UNL A   1      46.756  27.948  35.664  1.00  0.00     0.006 A 
ENDBRANCH  67  84
ENDBRANCH  41  42
ENDBRANCH  33  36
ENDBRANCH  31  32
ENDBRANCH  30  31
ENDBRANCH   1  30
TORSDOF 15
ENDMDL
