MODEL 1
REMARK VINA RESULT:     -12.2      0.000      0.000
REMARK SMILES O=C(NCCCCNC(=O)[C@@H]1CCCC[C@@H]1C(=O)Nc1cccc(Br)c1)c1ccc(-c2c3nc(c(-c4c(F)cccc4F)c4ccc([nH]4)c(-c4c(F)cccc4F)c4nc(c(-c5c(F)cccc5F)c5ccc2[nH]5)C=C4)C=C3)cc1
REMARK SMILES IDX 5 1 4 2 3 3 1 4 2 5 27 7 28 8 80 9 29 10 79 11 30 12 31 13
REMARK SMILES IDX 32 14 73 15 33 16 78 17 72 18 74 19 34 20 77 21 71 22 70 23
REMARK SMILES IDX 35 25 61 26 44 27 60 28 45 29 48 30 59 31 75 32 46 33 47 34
REMARK SMILES IDX 58 36 76 37 49 38 36 39 37 40 42 41 38 42 39 43 41 44 43 45
REMARK SMILES IDX 40 46 62 47 63 48 68 49 64 50 65 51 67 52 69 53 66 54 50 55
REMARK SMILES IDX 51 56 56 57 52 58 53 59 55 60 57 61 54 62 6 63 7 64 8 65
REMARK SMILES IDX 9 66 10 68 11 69 12 70 16 71 13 72 15 73 14 74 17 75 18 76
REMARK SMILES IDX 19 77 20 79 21 80 26 81 22 82 24 83 23 84 25 85
REMARK H PARENT 3 6 74 24 48 35 8 67 19 78
REMARK Flexibility Score: inf
ROOT
ATOM      1  C   UNL A   1      37.611  21.113  24.789  1.00  0.00     0.023 C 
ENDROOT
BRANCH   1   2
ATOM      2  C   UNL A   1      38.762  21.071  25.784  1.00  0.00     0.116 C 
BRANCH   2   3
ATOM      3  N   UNL A   1      39.637  19.908  25.651  1.00  0.00    -0.352 N 
ATOM      4  O   UNL A   1      41.583  18.748  25.748  1.00  0.00    -0.269 OA
ATOM      5  C   UNL A   1      40.976  19.785  25.966  1.00  0.00     0.251 C 
ATOM      6  H   UNL A   1      39.212  19.099  25.286  1.00  0.00     0.163 HD
BRANCH   5   7
ATOM      7  C   UNL A   1      41.676  20.960  26.525  1.00  0.00     0.039 A 
ATOM      8  C   UNL A   1      41.814  21.082  27.905  1.00  0.00     0.014 A 
ATOM      9  C   UNL A   1      42.073  21.997  25.676  1.00  0.00     0.014 A 
ATOM     10  C   UNL A   1      42.107  22.323  28.442  1.00  0.00     0.010 A 
ATOM     11  C   UNL A   1      42.497  23.211  26.225  1.00  0.00     0.010 A 
ATOM     12  C   UNL A   1      42.454  23.407  27.613  1.00  0.00    -0.014 A 
BRANCH  12  13
ATOM     13  C   UNL A   1      42.778  24.709  28.255  1.00  0.00     0.031 A 
ATOM     14  C   UNL A   1      44.197  25.122  28.544  1.00  0.00     0.074 A 
ATOM     15  C   UNL A   1      41.766  25.571  28.478  1.00  0.00     0.049 A 
ATOM     16  N   UNL A   1      44.637  26.260  29.023  1.00  0.00    -0.248 NA
ATOM     17  C   UNL A   1      45.258  24.139  28.277  1.00  0.00     0.031 C 
ATOM     18  C   UNL A   1      40.348  25.276  28.251  1.00  0.00     0.029 A 
ATOM     19  N   UNL A   1      41.771  26.880  28.881  1.00  0.00    -0.354 N 
ATOM     20  C   UNL A   1      46.015  26.120  29.142  1.00  0.00     0.074 A 
ATOM     21  C   UNL A   1      46.341  24.782  28.698  1.00  0.00     0.031 C 
ATOM     22  C   UNL A   1      39.632  26.395  28.421  1.00  0.00     0.029 A 
ATOM     23  C   UNL A   1      40.527  27.463  28.849  1.00  0.00     0.049 A 
ATOM     24  H   UNL A   1      42.584  27.356  29.166  1.00  0.00     0.167 HD
ATOM     25  C   UNL A   1      46.922  27.027  29.580  1.00  0.00     0.037 A 
ATOM     26  C   UNL A   1      40.141  28.719  29.135  1.00  0.00     0.037 A 
ATOM     27  C   UNL A   1      46.597  28.369  29.992  1.00  0.00     0.049 A 
ATOM     28  C   UNL A   1      41.172  29.711  29.576  1.00  0.00     0.074 A 
ATOM     29  C   UNL A   1      47.445  29.361  30.455  1.00  0.00     0.029 A 
ATOM     30  N   UNL A   1      45.322  28.914  29.975  1.00  0.00    -0.354 N 
ATOM     31  N   UNL A   1      42.466  29.550  29.707  1.00  0.00    -0.248 NA
ATOM     32  C   UNL A   1      40.688  31.053  29.924  1.00  0.00     0.031 C 
ATOM     33  C   UNL A   1      46.679  30.498  30.741  1.00  0.00     0.029 A 
ATOM     34  C   UNL A   1      45.360  30.225  30.423  1.00  0.00     0.049 A 
ATOM     35  H   UNL A   1      44.509  28.439  29.687  1.00  0.00     0.167 HD
ATOM     36  C   UNL A   1      42.951  30.763  30.169  1.00  0.00     0.074 A 
ATOM     37  C   UNL A   1      41.819  31.664  30.251  1.00  0.00     0.031 C 
ATOM     38  C   UNL A   1      44.218  31.096  30.514  1.00  0.00     0.037 A 
BRANCH  25  39
ATOM     39  C   UNL A   1      48.360  26.601  29.653  1.00  0.00     0.057 A 
ATOM     40  C   UNL A   1      49.271  26.891  28.630  1.00  0.00     0.134 A 
ATOM     41  C   UNL A   1      48.855  25.951  30.792  1.00  0.00     0.134 A 
ATOM     42  F   UNL A   1      48.860  27.501  27.507  1.00  0.00    -0.206 F 
ATOM     43  C   UNL A   1      50.620  26.543  28.732  1.00  0.00     0.040 A 
ATOM     44  C   UNL A   1      50.204  25.616  30.914  1.00  0.00     0.040 A 
ATOM     45  F   UNL A   1      48.037  25.649  31.812  1.00  0.00    -0.206 F 
ATOM     46  C   UNL A   1      51.091  25.911  29.882  1.00  0.00     0.006 A 
ENDBRANCH  25  39
BRANCH  26  47
ATOM     47  C   UNL A   1      38.709  29.087  29.027  1.00  0.00     0.057 A 
ATOM     48  C   UNL A   1      37.854  29.014  30.130  1.00  0.00     0.134 A 
ATOM     49  C   UNL A   1      38.172  29.555  27.821  1.00  0.00     0.134 A 
ATOM     50  F   UNL A   1      38.307  28.560  31.308  1.00  0.00    -0.206 F 
ATOM     51  C   UNL A   1      36.513  29.388  30.038  1.00  0.00     0.040 A 
ATOM     52  C   UNL A   1      36.841  29.960  27.722  1.00  0.00     0.040 A 
ATOM     53  F   UNL A   1      38.946  29.658  26.730  1.00  0.00    -0.206 F 
ATOM     54  C   UNL A   1      36.006  29.871  28.832  1.00  0.00     0.006 A 
ENDBRANCH  26  47
BRANCH  38  55
ATOM     55  C   UNL A   1      44.426  32.491  31.021  1.00  0.00     0.057 A 
ATOM     56  C   UNL A   1      44.340  32.788  32.388  1.00  0.00     0.134 A 
ATOM     57  C   UNL A   1      44.701  33.542  30.141  1.00  0.00     0.134 A 
ATOM     58  F   UNL A   1      44.061  31.824  33.278  1.00  0.00    -0.206 F 
ATOM     59  C   UNL A   1      44.495  34.092  32.858  1.00  0.00     0.040 A 
ATOM     60  C   UNL A   1      44.879  34.847  30.602  1.00  0.00     0.040 A 
ATOM     61  F   UNL A   1      44.799  33.319  28.823  1.00  0.00    -0.206 F 
ATOM     62  C   UNL A   1      44.767  35.126  31.964  1.00  0.00     0.006 A 
ENDBRANCH  38  55
ENDBRANCH  12  13
ENDBRANCH   5   7
ENDBRANCH   2   3
ENDBRANCH   1   2
BRANCH   1  63
ATOM     63  C   UNL A   1      37.169  22.501  24.362  1.00  0.00     0.023 C 
BRANCH  63  64
ATOM     64  C   UNL A   1      37.192  23.558  25.451  1.00  0.00     0.116 C 
BRANCH  64  65
ATOM     65  N   UNL A   1      36.126  23.477  26.417  1.00  0.00    -0.356 N 
ATOM     66  C   UNL A   1      34.807  23.178  26.271  1.00  0.00     0.223 C 
ATOM     67  H   UNL A   1      36.399  23.673  27.342  1.00  0.00     0.163 HD
ATOM     68  O   UNL A   1      34.237  22.877  27.329  1.00  0.00    -0.275 OA
BRANCH  66  69
ATOM     69  C   UNL A   1      33.966  23.358  24.981  1.00  0.00     0.091 C 
ATOM     70  C   UNL A   1      33.106  24.638  25.116  1.00  0.00     0.014 C 
ATOM     71  C   UNL A   1      33.173  22.191  24.352  1.00  0.00     0.091 C 
ATOM     72  C   UNL A   1      32.365  25.003  23.833  1.00  0.00     0.001 C 
ATOM     73  C   UNL A   1      32.425  22.619  23.076  1.00  0.00     0.014 C 
ATOM     74  C   UNL A   1      31.544  23.840  23.299  1.00  0.00     0.001 C 
BRANCH  71  75
ATOM     75  C   UNL A   1      32.178  21.523  25.299  1.00  0.00     0.228 C 
ATOM     76  O   UNL A   1      31.332  22.185  25.908  1.00  0.00    -0.274 OA
ATOM     77  N   UNL A   1      32.128  20.165  25.452  1.00  0.00    -0.326 N 
ATOM     78  H   UNL A   1      31.293  19.862  25.877  1.00  0.00     0.169 HD
BRANCH  77  79
ATOM     79  C   UNL A   1      32.996  19.100  25.141  1.00  0.00     0.042 A 
ATOM     80  C   UNL A   1      34.293  19.230  24.640  1.00  0.00     0.026 A 
ATOM     81  C   UNL A   1      32.529  17.813  25.438  1.00  0.00     0.041 A 
ATOM     82  C   UNL A   1      35.099  18.107  24.416  1.00  0.00     0.003 A 
ATOM     83  C   UNL A   1      33.325  16.691  25.186  1.00  0.00     0.020 A 
ATOM     84  C   UNL A   1      34.611  16.834  24.677  1.00  0.00     0.016 A 
ATOM     85  Br  UNL A   1      32.647  14.961  25.533  1.00  0.00    -0.051 Br
ENDBRANCH  77  79
ENDBRANCH  71  75
ENDBRANCH  66  69
ENDBRANCH  64  65
ENDBRANCH  63  64
ENDBRANCH   1  63
TORSDOF 13
ENDMDL
MODEL 2
REMARK VINA RESULT:     -12.2      1.791      6.474
REMARK SMILES O=C(NCCCCNC(=O)[C@@H]1CCCC[C@@H]1C(=O)Nc1cccc(Br)c1)c1ccc(-c2c3nc(c(-c4c(F)cccc4F)c4ccc([nH]4)c(-c4c(F)cccc4F)c4nc(c(-c5c(F)cccc5F)c5ccc2[nH]5)C=C4)C=C3)cc1
REMARK SMILES IDX 5 1 4 2 3 3 1 4 2 5 27 7 28 8 80 9 29 10 79 11 30 12 31 13
REMARK SMILES IDX 32 14 73 15 33 16 78 17 72 18 74 19 34 20 77 21 71 22 70 23
REMARK SMILES IDX 35 25 61 26 44 27 60 28 45 29 48 30 59 31 75 32 46 33 47 34
REMARK SMILES IDX 58 36 76 37 49 38 36 39 37 40 42 41 38 42 39 43 41 44 43 45
REMARK SMILES IDX 40 46 62 47 63 48 68 49 64 50 65 51 67 52 69 53 66 54 50 55
REMARK SMILES IDX 51 56 56 57 52 58 53 59 55 60 57 61 54 62 6 63 7 64 8 65
REMARK SMILES IDX 9 66 10 68 11 69 12 70 16 71 13 72 15 73 14 74 17 75 18 76
REMARK SMILES IDX 19 77 20 79 21 80 26 81 22 82 24 83 23 84 25 85
REMARK H PARENT 3 6 74 24 48 35 8 67 19 78
REMARK Flexibility Score: inf
ROOT
ATOM      1  C   UNL A   1      38.181  19.959  25.038  1.00  0.00     0.023 C 
ENDROOT
BRANCH   1   2
ATOM      2  C   UNL A   1      39.489  20.197  25.779  1.00  0.00     0.116 C 
BRANCH   2   3
ATOM      3  N   UNL A   1      40.369  19.031  25.846  1.00  0.00    -0.352 N 
ATOM      4  O   UNL A   1      42.330  17.917  26.078  1.00  0.00    -0.269 OA
ATOM      5  C   UNL A   1      41.724  18.978  26.106  1.00  0.00     0.251 C 
ATOM      6  H   UNL A   1      39.935  18.164  25.681  1.00  0.00     0.163 HD
BRANCH   5   7
ATOM      7  C   UNL A   1      42.439  20.243  26.369  1.00  0.00     0.039 A 
ATOM      8  C   UNL A   1      42.341  20.837  27.624  1.00  0.00     0.014 A 
ATOM      9  C   UNL A   1      43.093  20.898  25.321  1.00  0.00     0.014 A 
ATOM     10  C   UNL A   1      42.670  22.175  27.761  1.00  0.00     0.010 A 
ATOM     11  C   UNL A   1      43.545  22.209  25.504  1.00  0.00     0.010 A 
ATOM     12  C   UNL A   1      43.277  22.882  26.706  1.00  0.00    -0.014 A 
BRANCH  12  13
ATOM     13  C   UNL A   1      43.623  24.312  26.924  1.00  0.00     0.031 A 
ATOM     14  C   UNL A   1      42.623  25.298  27.466  1.00  0.00     0.074 A 
ATOM     15  C   UNL A   1      44.903  24.688  26.727  1.00  0.00     0.049 A 
ATOM     16  N   UNL A   1      42.806  26.556  27.788  1.00  0.00    -0.248 NA
ATOM     17  C   UNL A   1      41.244  24.828  27.665  1.00  0.00     0.031 C 
ATOM     18  C   UNL A   1      45.957  23.822  26.190  1.00  0.00     0.029 A 
ATOM     19  N   UNL A   1      45.550  25.862  27.007  1.00  0.00    -0.354 N 
ATOM     20  C   UNL A   1      41.565  27.033  28.194  1.00  0.00     0.074 A 
ATOM     21  C   UNL A   1      40.632  25.935  28.069  1.00  0.00     0.031 C 
ATOM     22  C   UNL A   1      47.133  24.457  26.272  1.00  0.00     0.029 A 
ATOM     23  C   UNL A   1      46.905  25.802  26.788  1.00  0.00     0.049 A 
ATOM     24  H   UNL A   1      45.089  26.669  27.332  1.00  0.00     0.167 HD
ATOM     25  C   UNL A   1      41.238  28.273  28.634  1.00  0.00     0.037 A 
ATOM     26  C   UNL A   1      47.864  26.725  26.976  1.00  0.00     0.037 A 
ATOM     27  C   UNL A   1      42.178  29.356  28.787  1.00  0.00     0.049 A 
ATOM     28  C   UNL A   1      47.479  28.072  27.503  1.00  0.00     0.074 A 
ATOM     29  C   UNL A   1      41.943  30.650  29.221  1.00  0.00     0.029 A 
ATOM     30  N   UNL A   1      43.536  29.265  28.526  1.00  0.00    -0.354 N 
ATOM     31  N   UNL A   1      46.296  28.510  27.856  1.00  0.00    -0.248 NA
ATOM     32  C   UNL A   1      48.558  29.058  27.641  1.00  0.00     0.031 C 
ATOM     33  C   UNL A   1      43.156  31.349  29.199  1.00  0.00     0.029 A 
ATOM     34  C   UNL A   1      44.151  30.481  28.785  1.00  0.00     0.049 A 
ATOM     35  H   UNL A   1      43.997  28.457  28.204  1.00  0.00     0.167 HD
ATOM     36  C   UNL A   1      46.483  29.828  28.243  1.00  0.00     0.074 A 
ATOM     37  C   UNL A   1      47.901  30.103  28.125  1.00  0.00     0.031 C 
ATOM     38  C   UNL A   1      45.560  30.736  28.642  1.00  0.00     0.037 A 
BRANCH  25  39
ATOM     39  C   UNL A   1      39.800  28.541  28.972  1.00  0.00     0.057 A 
ATOM     40  C   UNL A   1      39.289  28.326  30.257  1.00  0.00     0.134 A 
ATOM     41  C   UNL A   1      38.932  29.084  28.015  1.00  0.00     0.134 A 
ATOM     42  F   UNL A   1      40.065  27.797  31.217  1.00  0.00    -0.206 F 
ATOM     43  C   UNL A   1      37.965  28.634  30.578  1.00  0.00     0.040 A 
ATOM     44  C   UNL A   1      37.612  29.414  28.329  1.00  0.00     0.040 A 
ATOM     45  F   UNL A   1      39.358  29.320  26.765  1.00  0.00    -0.206 F 
ATOM     46  C   UNL A   1      37.125  29.187  29.614  1.00  0.00     0.006 A 
ENDBRANCH  25  39
BRANCH  26  47
ATOM     47  C   UNL A   1      49.271  26.397  26.642  1.00  0.00     0.057 A 
ATOM     48  C   UNL A   1      50.105  25.753  27.561  1.00  0.00     0.134 A 
ATOM     49  C   UNL A   1      49.803  26.691  25.380  1.00  0.00     0.134 A 
ATOM     50  F   UNL A   1      49.656  25.459  28.791  1.00  0.00    -0.206 F 
ATOM     51  C   UNL A   1      51.420  25.417  27.240  1.00  0.00     0.040 A 
ATOM     52  C   UNL A   1      51.106  26.336  25.036  1.00  0.00     0.040 A 
ATOM     53  F   UNL A   1      49.048  27.299  24.452  1.00  0.00    -0.206 F 
ATOM     54  C   UNL A   1      51.921  25.701  25.970  1.00  0.00     0.006 A 
ENDBRANCH  26  47
BRANCH  38  55
ATOM     55  C   UNL A   1      46.070  32.108  28.962  1.00  0.00     0.057 A 
ATOM     56  C   UNL A   1      46.147  33.104  27.978  1.00  0.00     0.134 A 
ATOM     57  C   UNL A   1      46.496  32.434  30.254  1.00  0.00     0.134 A 
ATOM     58  F   UNL A   1      45.770  32.845  26.717  1.00  0.00    -0.206 F 
ATOM     59  C   UNL A   1      46.658  34.369  28.265  1.00  0.00     0.040 A 
ATOM     60  C   UNL A   1      46.989  33.703  30.557  1.00  0.00     0.040 A 
ATOM     61  F   UNL A   1      46.442  31.525  31.238  1.00  0.00    -0.206 F 
ATOM     62  C   UNL A   1      47.079  34.672  29.559  1.00  0.00     0.006 A 
ENDBRANCH  38  55
ENDBRANCH  12  13
ENDBRANCH   5   7
ENDBRANCH   2   3
ENDBRANCH   1   2
BRANCH   1  63
ATOM     63  C   UNL A   1      37.397  21.209  24.684  1.00  0.00     0.023 C 
BRANCH  63  64
ATOM     64  C   UNL A   1      37.741  22.448  25.492  1.00  0.00     0.116 C 
BRANCH  64  65
ATOM     65  N   UNL A   1      36.724  22.891  26.411  1.00  0.00    -0.356 N 
ATOM     66  C   UNL A   1      35.384  23.058  26.250  1.00  0.00     0.223 C 
ATOM     67  H   UNL A   1      37.057  23.110  27.311  1.00  0.00     0.163 HD
ATOM     68  O   UNL A   1      34.753  23.136  27.314  1.00  0.00    -0.275 OA
BRANCH  66  69
ATOM     69  C   UNL A   1      34.650  23.333  24.912  1.00  0.00     0.091 C 
ATOM     70  C   UNL A   1      33.933  24.702  25.003  1.00  0.00     0.014 C 
ATOM     71  C   UNL A   1      33.773  22.263  24.225  1.00  0.00     0.091 C 
ATOM     72  C   UNL A   1      33.319  25.148  23.679  1.00  0.00     0.001 C 
ATOM     73  C   UNL A   1      33.159  22.773  22.909  1.00  0.00     0.014 C 
ATOM     74  C   UNL A   1      32.409  24.086  23.086  1.00  0.00     0.001 C 
BRANCH  71  75
ATOM     75  C   UNL A   1      32.652  21.710  25.104  1.00  0.00     0.228 C 
ATOM     76  O   UNL A   1      32.115  22.408  25.969  1.00  0.00    -0.274 OA
ATOM     77  N   UNL A   1      32.142  20.455  24.918  1.00  0.00    -0.326 N 
ATOM     78  H   UNL A   1      31.274  20.329  25.364  1.00  0.00     0.169 HD
BRANCH  77  79
ATOM     79  C   UNL A   1      32.574  19.301  24.234  1.00  0.00     0.042 A 
ATOM     80  C   UNL A   1      32.246  18.967  22.918  1.00  0.00     0.026 A 
ATOM     81  C   UNL A   1      33.467  18.470  24.922  1.00  0.00     0.041 A 
ATOM     82  C   UNL A   1      32.774  17.824  22.307  1.00  0.00     0.003 A 
ATOM     83  C   UNL A   1      33.970  17.313  24.320  1.00  0.00     0.020 A 
ATOM     84  C   UNL A   1      33.628  16.986  23.013  1.00  0.00     0.016 A 
ATOM     85  Br  UNL A   1      35.122  16.173  25.294  1.00  0.00    -0.051 Br
ENDBRANCH  77  79
ENDBRANCH  71  75
ENDBRANCH  66  69
ENDBRANCH  64  65
ENDBRANCH  63  64
ENDBRANCH   1  63
TORSDOF 13
ENDMDL
MODEL 3
REMARK VINA RESULT:     -12.2      0.405      6.352
REMARK SMILES O=C(NCCCCNC(=O)[C@@H]1CCCC[C@@H]1C(=O)Nc1cccc(Br)c1)c1ccc(-c2c3nc(c(-c4c(F)cccc4F)c4ccc([nH]4)c(-c4c(F)cccc4F)c4nc(c(-c5c(F)cccc5F)c5ccc2[nH]5)C=C4)C=C3)cc1
REMARK SMILES IDX 5 1 4 2 3 3 1 4 2 5 27 7 28 8 80 9 29 10 79 11 30 12 31 13
REMARK SMILES IDX 32 14 73 15 33 16 78 17 72 18 74 19 34 20 77 21 71 22 70 23
REMARK SMILES IDX 35 25 61 26 44 27 60 28 45 29 48 30 59 31 75 32 46 33 47 34
REMARK SMILES IDX 58 36 76 37 49 38 36 39 37 40 42 41 38 42 39 43 41 44 43 45
REMARK SMILES IDX 40 46 62 47 63 48 68 49 64 50 65 51 67 52 69 53 66 54 50 55
REMARK SMILES IDX 51 56 56 57 52 58 53 59 55 60 57 61 54 62 6 63 7 64 8 65
REMARK SMILES IDX 9 66 10 68 11 69 12 70 16 71 13 72 15 73 14 74 17 75 18 76
REMARK SMILES IDX 19 77 20 79 21 80 26 81 22 82 24 83 23 84 25 85
REMARK H PARENT 3 6 74 24 48 35 8 67 19 78
REMARK Flexibility Score: inf
ROOT
ATOM      1  C   UNL A   1      37.798  20.596  25.027  1.00  0.00     0.023 C 
ENDROOT
BRANCH   1   2
ATOM      2  C   UNL A   1      39.071  20.785  25.841  1.00  0.00     0.116 C 
BRANCH   2   3
ATOM      3  N   UNL A   1      39.978  19.639  25.821  1.00  0.00    -0.352 N 
ATOM      4  O   UNL A   1      41.955  18.549  26.029  1.00  0.00    -0.269 OA
ATOM      5  C   UNL A   1      41.319  19.586  26.145  1.00  0.00     0.251 C 
ATOM      6  H   UNL A   1      39.577  18.787  25.537  1.00  0.00     0.163 HD
BRANCH   5   7
ATOM      7  C   UNL A   1      41.985  20.828  26.586  1.00  0.00     0.039 A 
ATOM      8  C   UNL A   1      42.049  21.125  27.946  1.00  0.00     0.014 A 
ATOM      9  C   UNL A   1      42.422  21.754  25.635  1.00  0.00     0.014 A 
ATOM     10  C   UNL A   1      42.310  22.427  28.336  1.00  0.00     0.010 A 
ATOM     11  C   UNL A   1      42.813  23.032  26.047  1.00  0.00     0.010 A 
ATOM     12  C   UNL A   1      42.696  23.401  27.396  1.00  0.00    -0.014 A 
BRANCH  12  13
ATOM     13  C   UNL A   1      42.981  24.776  27.884  1.00  0.00     0.031 A 
ATOM     14  C   UNL A   1      41.880  25.764  28.167  1.00  0.00     0.074 A 
ATOM     15  C   UNL A   1      44.259  25.090  28.176  1.00  0.00     0.049 A 
ATOM     16  N   UNL A   1      41.971  26.969  28.675  1.00  0.00    -0.248 NA
ATOM     17  C   UNL A   1      40.505  25.364  27.831  1.00  0.00     0.031 C 
ATOM     18  C   UNL A   1      45.412  24.218  27.931  1.00  0.00     0.029 A 
ATOM     19  N   UNL A   1      44.799  26.186  28.794  1.00  0.00    -0.354 N 
ATOM     20  C   UNL A   1      40.679  27.479  28.691  1.00  0.00     0.074 A 
ATOM     21  C   UNL A   1      39.819  26.460  28.130  1.00  0.00     0.031 C 
ATOM     22  C   UNL A   1      46.504  24.767  28.479  1.00  0.00     0.029 A 
ATOM     23  C   UNL A   1      46.145  26.064  29.041  1.00  0.00     0.049 A 
ATOM     24  H   UNL A   1      44.275  26.984  29.035  1.00  0.00     0.167 HD
ATOM     25  C   UNL A   1      40.251  28.686  29.135  1.00  0.00     0.037 A 
ATOM     26  C   UNL A   1      47.003  26.901  29.648  1.00  0.00     0.037 A 
ATOM     27  C   UNL A   1      41.107  29.687  29.722  1.00  0.00     0.049 A 
ATOM     28  C   UNL A   1      46.494  28.210  30.167  1.00  0.00     0.074 A 
ATOM     29  C   UNL A   1      40.769  30.943  30.199  1.00  0.00     0.029 A 
ATOM     30  N   UNL A   1      42.470  29.538  29.928  1.00  0.00    -0.354 N 
ATOM     31  N   UNL A   1      45.272  28.683  30.148  1.00  0.00    -0.248 NA
ATOM     32  C   UNL A   1      47.484  29.107  30.776  1.00  0.00     0.031 C 
ATOM     33  C   UNL A   1      41.932  31.563  30.670  1.00  0.00     0.029 A 
ATOM     34  C   UNL A   1      42.988  30.680  30.519  1.00  0.00     0.049 A 
ATOM     35  H   UNL A   1      42.994  28.740  29.688  1.00  0.00     0.167 HD
ATOM     36  C   UNL A   1      45.347  29.941  30.726  1.00  0.00     0.074 A 
ATOM     37  C   UNL A   1      46.726  30.137  31.128  1.00  0.00     0.031 C 
ATOM     38  C   UNL A   1      44.366  30.860  30.892  1.00  0.00     0.037 A 
BRANCH  25  39
ATOM     39  C   UNL A   1      38.791  29.008  28.995  1.00  0.00     0.057 A 
ATOM     40  C   UNL A   1      37.902  28.895  30.070  1.00  0.00     0.134 A 
ATOM     41  C   UNL A   1      38.282  29.503  27.786  1.00  0.00     0.134 A 
ATOM     42  F   UNL A   1      38.322  28.417  31.252  1.00  0.00    -0.206 F 
ATOM     43  C   UNL A   1      36.557  29.253  29.947  1.00  0.00     0.040 A 
ATOM     44  C   UNL A   1      36.946  29.882  27.657  1.00  0.00     0.040 A 
ATOM     45  F   UNL A   1      39.082  29.643  26.718  1.00  0.00    -0.206 F 
ATOM     46  C   UNL A   1      36.078  29.757  28.739  1.00  0.00     0.006 A 
ENDBRANCH  25  39
BRANCH  26  47
ATOM     47  C   UNL A   1      48.431  26.521  29.775  1.00  0.00     0.057 A 
ATOM     48  C   UNL A   1      49.373  26.902  28.814  1.00  0.00     0.134 A 
ATOM     49  C   UNL A   1      48.891  25.796  30.881  1.00  0.00     0.134 A 
ATOM     50  F   UNL A   1      48.989  27.586  27.725  1.00  0.00    -0.206 F 
ATOM     51  C   UNL A   1      50.722  26.571  28.946  1.00  0.00     0.040 A 
ATOM     52  C   UNL A   1      50.241  25.483  31.040  1.00  0.00     0.040 A 
ATOM     53  F   UNL A   1      48.037  25.411  31.841  1.00  0.00    -0.206 F 
ATOM     54  C   UNL A   1      51.160  25.867  30.066  1.00  0.00     0.006 A 
ENDBRANCH  26  47
BRANCH  38  55
ATOM     55  C   UNL A   1      44.769  32.158  31.523  1.00  0.00     0.057 A 
ATOM     56  C   UNL A   1      45.202  33.241  30.747  1.00  0.00     0.134 A 
ATOM     57  C   UNL A   1      44.734  32.323  32.912  1.00  0.00     0.134 A 
ATOM     58  F   UNL A   1      45.274  33.136  29.411  1.00  0.00    -0.206 F 
ATOM     59  C   UNL A   1      45.614  34.437  31.336  1.00  0.00     0.040 A 
ATOM     60  C   UNL A   1      45.124  33.522  33.510  1.00  0.00     0.040 A 
ATOM     61  F   UNL A   1      44.324  31.324  33.707  1.00  0.00    -0.206 F 
ATOM     62  C   UNL A   1      45.574  34.580  32.721  1.00  0.00     0.006 A 
ENDBRANCH  38  55
ENDBRANCH  12  13
ENDBRANCH   5   7
ENDBRANCH   2   3
ENDBRANCH   1   2
BRANCH   1  63
ATOM     63  C   UNL A   1      37.133  21.876  24.553  1.00  0.00     0.023 C 
BRANCH  63  64
ATOM     64  C   UNL A   1      37.271  23.068  25.483  1.00  0.00     0.116 C 
BRANCH  64  65
ATOM     65  N   UNL A   1      36.206  23.237  26.437  1.00  0.00    -0.356 N 
ATOM     66  C   UNL A   1      34.857  23.112  26.305  1.00  0.00     0.223 C 
ATOM     67  H   UNL A   1      36.504  23.486  27.341  1.00  0.00     0.163 HD
ATOM     68  O   UNL A   1      34.252  23.004  27.381  1.00  0.00    -0.275 OA
BRANCH  66  69
ATOM     69  C   UNL A   1      34.048  23.274  24.993  1.00  0.00     0.091 C 
ATOM     70  C   UNL A   1      33.189  24.558  25.086  1.00  0.00     0.014 C 
ATOM     71  C   UNL A   1      33.267  22.100  24.362  1.00  0.00     0.091 C 
ATOM     72  C   UNL A   1      32.480  24.905  23.780  1.00  0.00     0.001 C 
ATOM     73  C   UNL A   1      32.551  22.509  23.063  1.00  0.00     0.014 C 
ATOM     74  C   UNL A   1      31.669  23.736  23.245  1.00  0.00     0.001 C 
BRANCH  71  75
ATOM     75  C   UNL A   1      32.248  21.449  25.296  1.00  0.00     0.228 C 
ATOM     76  O   UNL A   1      31.411  22.126  25.900  1.00  0.00    -0.274 OA
ATOM     77  N   UNL A   1      32.164  20.091  25.439  1.00  0.00    -0.326 N 
ATOM     78  H   UNL A   1      31.319  19.805  25.853  1.00  0.00     0.169 HD
BRANCH  77  79
ATOM     79  C   UNL A   1      33.011  19.008  25.130  1.00  0.00     0.042 A 
ATOM     80  C   UNL A   1      34.302  19.110  24.608  1.00  0.00     0.026 A 
ATOM     81  C   UNL A   1      32.528  17.733  25.450  1.00  0.00     0.041 A 
ATOM     82  C   UNL A   1      35.087  17.973  24.388  1.00  0.00     0.003 A 
ATOM     83  C   UNL A   1      33.303  16.596  25.202  1.00  0.00     0.020 A 
ATOM     84  C   UNL A   1      34.583  16.711  24.673  1.00  0.00     0.016 A 
ATOM     85  Br  UNL A   1      32.602  14.881  25.582  1.00  0.00    -0.051 Br
ENDBRANCH  77  79
ENDBRANCH  71  75
ENDBRANCH  66  69
ENDBRANCH  64  65
ENDBRANCH  63  64
ENDBRANCH   1  63
TORSDOF 13
ENDMDL
