MODEL 1
REMARK VINA RESULT:     -13.9      0.000      0.000
REMARK SMILES CC1(C)S[C@@H]2[C@H]([NH2+]Cn3nnc4ccccc43)C(=O)N2[C@@H]1C(=O)NCCCCNC(=O)c1ccc(-c2c3nc(c(-c4c(F)cccc4F)c4ccc([nH]4)c(-c4c(F)cccc4F)c4nc(c(-c5c(F)cccc5F)c5ccc2[nH]5)C=C4)C=C3)cc1
REMARK SMILES IDX 26 1 25 2 24 3 22 4 23 5 21 7 1 8 2 9 3 10 4 11 5 12 20 13
REMARK SMILES IDX 6 14 18 15 19 16 7 17 8 20 9 21 10 22 17 23 11 24 12 25
REMARK SMILES IDX 16 26 13 27 15 28 14 29 27 30 28 31 29 32 30 33 31 35 32 36
REMARK SMILES IDX 33 37 85 38 34 39 84 40 35 41 36 42 37 43 78 44 38 45 83 46
REMARK SMILES IDX 77 47 79 48 39 49 82 50 76 51 75 52 40 54 66 55 49 56 65 57
REMARK SMILES IDX 50 58 53 59 64 60 80 61 51 62 52 63 63 65 81 66 54 67 41 68
REMARK SMILES IDX 42 69 47 70 43 71 44 72 46 73 48 74 45 75 67 76 68 77 73 78
REMARK SMILES IDX 69 79 70 80 72 81 74 82 71 83 55 84 56 85 61 86 57 87 58 88
REMARK SMILES IDX 60 89 62 90 59 91
REMARK H PARENT 24 6 7 18 7 19 29 34 79 53 53 64
REMARK Flexibility Score: inf
ROOT
ATOM      1  C   UNL A   1      38.262  24.449  26.492  1.00  0.00     0.023 C 
ENDROOT
BRANCH   1   2
ATOM      2  C   UNL A   1      37.774  23.202  25.787  1.00  0.00     0.116 C 
BRANCH   2   3
ATOM      3  N   UNL A   1      36.981  23.424  24.631  1.00  0.00    -0.354 N 
ATOM      4  C   UNL A   1      35.608  23.358  24.563  1.00  0.00     0.244 C 
ATOM      5  O   UNL A   1      35.101  23.634  23.471  1.00  0.00    -0.273 OA
ATOM      6  H   UNL A   1      37.457  23.647  23.799  1.00  0.00     0.163 HD
BRANCH   4   7
ATOM      7  C   UNL A   1      34.679  23.084  25.838  1.00  0.00     0.191 C 
ATOM      8  C   UNL A   1      34.391  20.716  24.808  1.00  0.00     0.026 C 
ATOM      9  C   UNL A   1      33.890  21.739  25.837  1.00  0.00     0.042 C 
ATOM     10  C   UNL A   1      33.767  21.067  27.213  1.00  0.00     0.026 C 
ATOM     11  S   UNL A   1      32.102  22.137  25.672  1.00  0.00    -0.121 SA
ATOM     12  C   UNL A   1      32.270  23.847  26.349  1.00  0.00     0.213 C 
ATOM     13  N   UNL A   1      33.696  24.123  26.169  1.00  0.00    -0.306 N 
ATOM     14  C   UNL A   1      31.968  25.204  25.619  1.00  0.00     0.307 C 
ATOM     15  C   UNL A   1      33.532  25.314  25.574  1.00  0.00     0.285 C 
ATOM     16  O   UNL A   1      34.408  26.089  25.138  1.00  0.00    -0.268 OA
BRANCH  14  17
ATOM     17  N   UNL A   1      31.099  25.184  24.395  1.00  0.00    -0.315 N 
ATOM     18  H   UNL A   1      30.590  24.300  24.389  1.00  0.00     0.348 HD
ATOM     19  H   UNL A   1      31.733  25.306  23.606  1.00  0.00     0.348 HD
BRANCH  17  20
ATOM     20  C   UNL A   1      30.117  26.266  24.286  1.00  0.00     0.415 C 
BRANCH  20  21
ATOM     21  N   UNL A   1      30.390  27.461  23.498  1.00  0.00    -0.194 N 
ATOM     22  N   UNL A   1      31.605  27.713  23.025  1.00  0.00    -0.061 NA
ATOM     23  C   UNL A   1      29.442  28.395  23.073  1.00  0.00     0.095 A 
ATOM     24  N   UNL A   1      31.550  28.945  22.549  1.00  0.00    -0.130 NA
ATOM     25  C   UNL A   1      30.222  29.329  22.418  1.00  0.00     0.113 A 
ATOM     26  C   UNL A   1      28.043  28.544  23.131  1.00  0.00     0.030 A 
ATOM     27  C   UNL A   1      29.592  30.335  21.633  1.00  0.00     0.032 A 
ATOM     28  C   UNL A   1      27.459  29.632  22.445  1.00  0.00     0.002 A 
ATOM     29  C   UNL A   1      28.210  30.476  21.640  1.00  0.00     0.002 A 
ENDBRANCH  20  21
ENDBRANCH  17  20
ENDBRANCH  14  17
ENDBRANCH   4   7
ENDBRANCH   2   3
ENDBRANCH   1   2
BRANCH   1  30
ATOM     30  C   UNL A   1      39.650  24.462  27.057  1.00  0.00     0.023 C 
BRANCH  30  31
ATOM     31  C   UNL A   1      40.487  25.590  26.457  1.00  0.00     0.116 C 
BRANCH  31  32
ATOM     32  N   UNL A   1      39.958  26.896  26.836  1.00  0.00    -0.352 N 
ATOM     33  C   UNL A   1      40.084  27.781  27.861  1.00  0.00     0.251 C 
ATOM     34  H   UNL A   1      39.329  27.231  26.157  1.00  0.00     0.163 HD
ATOM     35  O   UNL A   1      39.713  28.943  27.756  1.00  0.00    -0.269 OA
BRANCH  33  36
ATOM     36  C   UNL A   1      40.334  27.499  29.242  1.00  0.00     0.039 A 
ATOM     37  C   UNL A   1      39.282  26.957  29.912  1.00  0.00     0.014 A 
ATOM     38  C   UNL A   1      40.988  28.622  29.835  1.00  0.00     0.014 A 
ATOM     39  C   UNL A   1      38.644  27.909  30.786  1.00  0.00     0.010 A 
ATOM     40  C   UNL A   1      40.557  29.015  31.045  1.00  0.00     0.010 A 
ATOM     41  C   UNL A   1      39.218  29.299  31.013  1.00  0.00    -0.014 A 
BRANCH  41  42
ATOM     42  C   UNL A   1      39.000  30.620  32.147  1.00  0.00     0.031 A 
ATOM     43  C   UNL A   1      37.717  31.161  30.943  1.00  0.00     0.074 A 
ATOM     44  C   UNL A   1      39.578  31.099  33.624  1.00  0.00     0.049 A 
ATOM     45  N   UNL A   1      38.018  31.766  29.805  1.00  0.00    -0.248 NA
ATOM     46  C   UNL A   1      36.292  30.472  30.434  1.00  0.00     0.031 C 
ATOM     47  C   UNL A   1      40.623  30.722  34.983  1.00  0.00     0.029 A 
ATOM     48  N   UNL A   1      39.371  32.340  34.405  1.00  0.00    -0.354 N 
ATOM     49  C   UNL A   1      36.788  32.248  29.317  1.00  0.00     0.074 A 
ATOM     50  C   UNL A   1      35.803  31.279  29.476  1.00  0.00     0.031 C 
ATOM     51  C   UNL A   1      40.345  31.411  36.199  1.00  0.00     0.029 A 
ATOM     52  C   UNL A   1      39.434  32.467  35.907  1.00  0.00     0.049 A 
ATOM     53  H   UNL A   1      39.176  33.160  33.897  1.00  0.00     0.167 HD
ATOM     54  C   UNL A   1      36.520  33.558  29.447  1.00  0.00     0.037 A 
ATOM     55  C   UNL A   1      38.962  33.493  36.766  1.00  0.00     0.037 A 
ATOM     56  C   UNL A   1      37.760  34.182  29.777  1.00  0.00     0.049 A 
ATOM     57  C   UNL A   1      38.445  34.452  35.754  1.00  0.00     0.074 A 
ATOM     58  C   UNL A   1      38.976  34.182  29.123  1.00  0.00     0.029 A 
ATOM     59  N   UNL A   1      38.013  34.161  31.115  1.00  0.00    -0.354 N 
ATOM     60  N   UNL A   1      39.267  35.100  34.965  1.00  0.00    -0.248 NA
ATOM     61  C   UNL A   1      37.179  33.952  35.197  1.00  0.00     0.031 C 
ATOM     62  C   UNL A   1      39.975  34.092  30.121  1.00  0.00     0.029 A 
ATOM     63  C   UNL A   1      39.351  34.187  31.354  1.00  0.00     0.049 A 
ATOM     64  H   UNL A   1      37.321  34.133  31.814  1.00  0.00     0.167 HD
ATOM     65  C   UNL A   1      38.897  34.688  33.690  1.00  0.00     0.074 A 
ATOM     66  C   UNL A   1      37.534  34.006  33.900  1.00  0.00     0.031 C 
ATOM     67  C   UNL A   1      39.824  34.414  32.678  1.00  0.00     0.037 A 
BRANCH  54  68
ATOM     68  C   UNL A   1      35.190  34.143  29.786  1.00  0.00     0.057 A 
ATOM     69  C   UNL A   1      34.570  34.317  31.048  1.00  0.00     0.134 A 
ATOM     70  C   UNL A   1      34.592  34.778  28.705  1.00  0.00     0.134 A 
ATOM     71  F   UNL A   1      35.046  33.795  32.188  1.00  0.00    -0.206 F 
ATOM     72  C   UNL A   1      33.440  35.121  31.203  1.00  0.00     0.040 A 
ATOM     73  C   UNL A   1      33.552  35.677  28.872  1.00  0.00     0.040 A 
ATOM     74  F   UNL A   1      35.056  34.566  27.465  1.00  0.00    -0.206 F 
ATOM     75  C   UNL A   1      32.996  35.879  30.129  1.00  0.00     0.006 A 
ENDBRANCH  54  68
BRANCH  55  76
ATOM     76  C   UNL A   1      38.303  33.379  38.188  1.00  0.00     0.057 A 
ATOM     77  C   UNL A   1      38.679  34.392  39.082  1.00  0.00     0.134 A 
ATOM     78  C   UNL A   1      37.587  32.322  38.841  1.00  0.00     0.134 A 
ATOM     79  F   UNL A   1      39.393  35.429  38.632  1.00  0.00    -0.206 F 
ATOM     80  C   UNL A   1      38.414  34.397  40.465  1.00  0.00     0.040 A 
ATOM     81  C   UNL A   1      37.237  32.354  40.238  1.00  0.00     0.040 A 
ATOM     82  F   UNL A   1      37.206  31.211  38.189  1.00  0.00    -0.206 F 
ATOM     83  C   UNL A   1      37.645  33.407  41.049  1.00  0.00     0.006 A 
ENDBRANCH  55  76
BRANCH  67  84
ATOM     84  C   UNL A   1      41.355  34.558  32.822  1.00  0.00     0.057 A 
ATOM     85  C   UNL A   1      42.115  33.460  32.446  1.00  0.00     0.134 A 
ATOM     86  C   UNL A   1      42.126  35.575  33.438  1.00  0.00     0.134 A 
ATOM     87  F   UNL A   1      41.508  32.307  32.139  1.00  0.00    -0.206 F 
ATOM     88  C   UNL A   1      43.510  33.486  32.414  1.00  0.00     0.040 A 
ATOM     89  C   UNL A   1      43.515  35.699  33.262  1.00  0.00     0.040 A 
ATOM     90  F   UNL A   1      41.605  36.407  34.340  1.00  0.00    -0.206 F 
ATOM     91  C   UNL A   1      44.202  34.663  32.664  1.00  0.00     0.006 A 
ENDBRANCH  67  84
ENDBRANCH  41  42
ENDBRANCH  33  36
ENDBRANCH  31  32
ENDBRANCH  30  31
ENDBRANCH   1  30
TORSDOF 14
ENDMDL
MODEL 2
REMARK VINA RESULT:     -13.8      5.773     11.822
REMARK SMILES CC1(C)S[C@@H]2[C@H]([NH2+]Cn3nnc4ccccc43)C(=O)N2[C@@H]1C(=O)NCCCCNC(=O)c1ccc(-c2c3nc(c(-c4c(F)cccc4F)c4ccc([nH]4)c(-c4c(F)cccc4F)c4nc(c(-c5c(F)cccc5F)c5ccc2[nH]5)C=C4)C=C3)cc1
REMARK SMILES IDX 26 1 25 2 24 3 22 4 23 5 21 7 1 8 2 9 3 10 4 11 5 12 20 13
REMARK SMILES IDX 6 14 18 15 19 16 7 17 8 20 9 21 10 22 17 23 11 24 12 25
REMARK SMILES IDX 16 26 13 27 15 28 14 29 27 30 28 31 29 32 30 33 31 35 32 36
REMARK SMILES IDX 33 37 85 38 34 39 84 40 35 41 36 42 37 43 78 44 38 45 83 46
REMARK SMILES IDX 77 47 79 48 39 49 82 50 76 51 75 52 40 54 66 55 49 56 65 57
REMARK SMILES IDX 50 58 53 59 64 60 80 61 51 62 52 63 63 65 81 66 54 67 41 68
REMARK SMILES IDX 42 69 47 70 43 71 44 72 46 73 48 74 45 75 67 76 68 77 73 78
REMARK SMILES IDX 69 79 70 80 72 81 74 82 71 83 55 84 56 85 61 86 57 87 58 88
REMARK SMILES IDX 60 89 62 90 59 91
REMARK H PARENT 24 6 7 18 7 19 29 34 79 53 53 64
REMARK Flexibility Score: inf
ROOT
ATOM      1  C   UNL A   1      35.554  29.110  27.982  1.00  0.00     0.023 C 
ENDROOT
BRANCH   1   2
ATOM      2  C   UNL A   1      34.408  29.200  26.998  1.00  0.00     0.116 C 
BRANCH   2   3
ATOM      3  N   UNL A   1      33.369  28.249  27.182  1.00  0.00    -0.354 N 
ATOM      4  C   UNL A   1      32.797  27.473  26.201  1.00  0.00     0.244 C 
ATOM      5  O   UNL A   1      31.937  26.667  26.574  1.00  0.00    -0.273 OA
ATOM      6  H   UNL A   1      33.026  28.134  28.097  1.00  0.00     0.163 HD
BRANCH   4   7
ATOM      7  C   UNL A   1      33.290  27.479  24.678  1.00  0.00     0.191 C 
ATOM      8  C   UNL A   1      31.093  28.795  24.234  1.00  0.00     0.026 C 
ATOM      9  C   UNL A   1      32.269  28.016  23.627  1.00  0.00     0.042 C 
ATOM     10  C   UNL A   1      32.894  28.832  22.486  1.00  0.00     0.026 C 
ATOM     11  S   UNL A   1      31.753  26.600  22.573  1.00  0.00    -0.121 SA
ATOM     12  C   UNL A   1      33.274  25.608  22.904  1.00  0.00     0.213 C 
ATOM     13  N   UNL A   1      33.782  26.204  24.141  1.00  0.00    -0.306 N 
ATOM     14  C   UNL A   1      33.374  24.204  23.601  1.00  0.00     0.307 C 
ATOM     15  C   UNL A   1      33.937  25.046  24.799  1.00  0.00     0.285 C 
ATOM     16  O   UNL A   1      34.341  24.866  25.966  1.00  0.00    -0.268 OA
BRANCH  14  17
ATOM     17  N   UNL A   1      32.138  23.356  23.688  1.00  0.00    -0.315 N 
ATOM     18  H   UNL A   1      32.047  22.847  22.808  1.00  0.00     0.348 HD
ATOM     19  H   UNL A   1      31.374  24.004  23.877  1.00  0.00     0.348 HD
BRANCH  17  20
ATOM     20  C   UNL A   1      32.106  22.376  24.778  1.00  0.00     0.415 C 
BRANCH  20  21
ATOM     21  N   UNL A   1      33.111  21.327  24.883  1.00  0.00    -0.194 N 
ATOM     22  N   UNL A   1      34.119  21.420  25.744  1.00  0.00    -0.061 NA
ATOM     23  C   UNL A   1      33.094  20.106  24.205  1.00  0.00     0.095 A 
ATOM     24  N   UNL A   1      34.936  20.427  25.440  1.00  0.00    -0.130 NA
ATOM     25  C   UNL A   1      34.275  19.520  24.622  1.00  0.00     0.113 A 
ATOM     26  C   UNL A   1      32.224  19.423  23.333  1.00  0.00     0.030 A 
ATOM     27  C   UNL A   1      34.514  18.148  24.327  1.00  0.00     0.032 A 
ATOM     28  C   UNL A   1      32.559  18.103  22.956  1.00  0.00     0.002 A 
ATOM     29  C   UNL A   1      33.648  17.441  23.504  1.00  0.00     0.002 A 
ENDBRANCH  20  21
ENDBRANCH  17  20
ENDBRANCH  14  17
ENDBRANCH   4   7
ENDBRANCH   2   3
ENDBRANCH   1   2
BRANCH   1  30
ATOM     30  C   UNL A   1      35.904  30.319  28.796  1.00  0.00     0.023 C 
BRANCH  30  31
ATOM     31  C   UNL A   1      36.532  29.930  30.132  1.00  0.00     0.116 C 
BRANCH  31  32
ATOM     32  N   UNL A   1      37.491  28.844  29.966  1.00  0.00    -0.352 N 
ATOM     33  C   UNL A   1      38.815  28.696  29.694  1.00  0.00     0.251 C 
ATOM     34  H   UNL A   1      37.056  27.969  30.083  1.00  0.00     0.163 HD
ATOM     35  O   UNL A   1      39.399  27.639  29.898  1.00  0.00    -0.269 OA
BRANCH  33  36
ATOM     36  C   UNL A   1      39.647  29.532  28.883  1.00  0.00     0.039 A 
ATOM     37  C   UNL A   1      39.385  29.477  27.551  1.00  0.00     0.014 A 
ATOM     38  C   UNL A   1      41.006  29.379  29.297  1.00  0.00     0.014 A 
ATOM     39  C   UNL A   1      40.379  28.722  26.830  1.00  0.00     0.010 A 
ATOM     40  C   UNL A   1      41.931  29.259  28.331  1.00  0.00     0.010 A 
ATOM     41  C   UNL A   1      41.638  28.205  27.508  1.00  0.00    -0.014 A 
BRANCH  41  42
ATOM     42  C   UNL A   1      43.194  27.552  27.024  1.00  0.00     0.031 A 
ATOM     43  C   UNL A   1      42.304  25.943  27.105  1.00  0.00     0.074 A 
ATOM     44  C   UNL A   1      44.696  28.105  26.598  1.00  0.00     0.049 A 
ATOM     45  N   UNL A   1      42.045  25.329  28.247  1.00  0.00    -0.248 NA
ATOM     46  C   UNL A   1      41.022  25.323  26.247  1.00  0.00     0.031 C 
ATOM     47  C   UNL A   1      45.715  29.504  26.303  1.00  0.00     0.029 A 
ATOM     48  N   UNL A   1      45.966  27.393  26.329  1.00  0.00    -0.354 N 
ATOM     49  C   UNL A   1      41.614  24.040  27.876  1.00  0.00     0.074 A 
ATOM     50  C   UNL A   1      40.745  24.126  26.794  1.00  0.00     0.031 C 
ATOM     51  C   UNL A   1      46.888  29.274  25.526  1.00  0.00     0.029 A 
ATOM     52  C   UNL A   1      47.076  27.865  25.423  1.00  0.00     0.049 A 
ATOM     53  H   UNL A   1      46.099  26.531  26.785  1.00  0.00     0.167 HD
ATOM     54  C   UNL A   1      42.473  23.017  28.014  1.00  0.00     0.037 A 
ATOM     55  C   UNL A   1      48.167  27.157  24.854  1.00  0.00     0.037 A 
ATOM     56  C   UNL A   1      43.530  23.500  28.842  1.00  0.00     0.049 A 
ATOM     57  C   UNL A   1      47.944  25.819  25.464  1.00  0.00     0.074 A 
ATOM     58  C   UNL A   1      43.510  24.055  30.106  1.00  0.00     0.029 A 
ATOM     59  N   UNL A   1      44.499  24.138  28.129  1.00  0.00    -0.354 N 
ATOM     60  N   UNL A   1      48.125  25.631  26.749  1.00  0.00    -0.248 NA
ATOM     61  C   UNL A   1      46.808  25.156  24.806  1.00  0.00     0.031 C 
ATOM     62  C   UNL A   1      44.461  25.103  30.107  1.00  0.00     0.029 A 
ATOM     63  C   UNL A   1      45.134  25.062  28.897  1.00  0.00     0.049 A 
ATOM     64  H   UNL A   1      44.711  23.955  27.185  1.00  0.00     0.167 HD
ATOM     65  C   UNL A   1      46.873  25.235  27.205  1.00  0.00     0.074 A 
ATOM     66  C   UNL A   1      46.096  24.899  25.920  1.00  0.00     0.031 C 
ATOM     67  C   UNL A   1      46.333  25.668  28.421  1.00  0.00     0.037 A 
BRANCH  54  68
ATOM     68  C   UNL A   1      42.630  21.880  27.061  1.00  0.00     0.057 A 
ATOM     69  C   UNL A   1      43.547  21.708  25.995  1.00  0.00     0.134 A 
ATOM     70  C   UNL A   1      41.890  20.764  27.431  1.00  0.00     0.134 A 
ATOM     71  F   UNL A   1      44.354  22.681  25.546  1.00  0.00    -0.206 F 
ATOM     72  C   UNL A   1      43.726  20.471  25.376  1.00  0.00     0.040 A 
ATOM     73  C   UNL A   1      42.153  19.509  26.911  1.00  0.00     0.040 A 
ATOM     74  F   UNL A   1      40.923  20.878  28.354  1.00  0.00    -0.206 F 
ATOM     75  C   UNL A   1      43.100  19.352  25.905  1.00  0.00     0.006 A 
ENDBRANCH  54  68
BRANCH  55  76
ATOM     76  C   UNL A   1      48.817  27.302  23.432  1.00  0.00     0.057 A 
ATOM     77  C   UNL A   1      50.198  27.057  23.399  1.00  0.00     0.134 A 
ATOM     78  C   UNL A   1      48.342  27.870  22.203  1.00  0.00     0.134 A 
ATOM     79  F   UNL A   1      50.799  26.567  24.488  1.00  0.00    -0.206 F 
ATOM     80  C   UNL A   1      51.049  27.335  22.313  1.00  0.00     0.040 A 
ATOM     81  C   UNL A   1      49.186  28.082  21.056  1.00  0.00     0.040 A 
ATOM     82  F   UNL A   1      47.067  28.262  22.046  1.00  0.00    -0.206 F 
ATOM     83  C   UNL A   1      50.546  27.800  21.112  1.00  0.00     0.006 A 
ENDBRANCH  55  76
BRANCH  67  84
ATOM     84  C   UNL A   1      47.049  26.603  29.422  1.00  0.00     0.057 A 
ATOM     85  C   UNL A   1      48.170  26.086  30.053  1.00  0.00     0.134 A 
ATOM     86  C   UNL A   1      46.656  27.861  29.942  1.00  0.00     0.134 A 
ATOM     87  F   UNL A   1      48.482  24.793  29.899  1.00  0.00    -0.206 F 
ATOM     88  C   UNL A   1      48.981  26.851  30.893  1.00  0.00     0.040 A 
ATOM     89  C   UNL A   1      47.530  28.709  30.642  1.00  0.00     0.040 A 
ATOM     90  F   UNL A   1      45.387  28.269  29.919  1.00  0.00    -0.206 F 
ATOM     91  C   UNL A   1      48.749  28.210  31.052  1.00  0.00     0.006 A 
ENDBRANCH  67  84
ENDBRANCH  41  42
ENDBRANCH  33  36
ENDBRANCH  31  32
ENDBRANCH  30  31
ENDBRANCH   1  30
TORSDOF 14
ENDMDL
MODEL 3
REMARK VINA RESULT:     -13.2      4.741      7.336
REMARK SMILES CC1(C)S[C@@H]2[C@H]([NH2+]Cn3nnc4ccccc43)C(=O)N2[C@@H]1C(=O)NCCCCNC(=O)c1ccc(-c2c3nc(c(-c4c(F)cccc4F)c4ccc([nH]4)c(-c4c(F)cccc4F)c4nc(c(-c5c(F)cccc5F)c5ccc2[nH]5)C=C4)C=C3)cc1
REMARK SMILES IDX 26 1 25 2 24 3 22 4 23 5 21 7 1 8 2 9 3 10 4 11 5 12 20 13
REMARK SMILES IDX 6 14 18 15 19 16 7 17 8 20 9 21 10 22 17 23 11 24 12 25
REMARK SMILES IDX 16 26 13 27 15 28 14 29 27 30 28 31 29 32 30 33 31 35 32 36
REMARK SMILES IDX 33 37 85 38 34 39 84 40 35 41 36 42 37 43 78 44 38 45 83 46
REMARK SMILES IDX 77 47 79 48 39 49 82 50 76 51 75 52 40 54 66 55 49 56 65 57
REMARK SMILES IDX 50 58 53 59 64 60 80 61 51 62 52 63 63 65 81 66 54 67 41 68
REMARK SMILES IDX 42 69 47 70 43 71 44 72 46 73 48 74 45 75 67 76 68 77 73 78
REMARK SMILES IDX 69 79 70 80 72 81 74 82 71 83 55 84 56 85 61 86 57 87 58 88
REMARK SMILES IDX 60 89 62 90 59 91
REMARK H PARENT 24 6 7 18 7 19 29 34 79 53 53 64
REMARK Flexibility Score: inf
ROOT
ATOM      1  C   UNL A   1      44.159  28.554  25.961  1.00  0.00     0.023 C 
ENDROOT
BRANCH   1   2
ATOM      2  C   UNL A   1      45.219  27.559  25.543  1.00  0.00     0.116 C 
BRANCH   2   3
ATOM      3  N   UNL A   1      44.734  26.347  24.986  1.00  0.00    -0.354 N 
ATOM      4  C   UNL A   1      44.201  25.288  25.684  1.00  0.00     0.244 C 
ATOM      5  O   UNL A   1      43.788  24.339  25.009  1.00  0.00    -0.273 OA
ATOM      6  H   UNL A   1      44.782  26.255  24.007  1.00  0.00     0.163 HD
BRANCH   4   7
ATOM      7  C   UNL A   1      43.980  25.306  27.270  1.00  0.00     0.191 C 
ATOM      8  C   UNL A   1      46.265  24.071  27.352  1.00  0.00     0.026 C 
ATOM      9  C   UNL A   1      44.996  24.478  28.115  1.00  0.00     0.042 C 
ATOM     10  C   UNL A   1      45.385  25.117  29.456  1.00  0.00     0.026 C 
ATOM     11  S   UNL A   1      44.088  23.057  28.851  1.00  0.00    -0.121 SA
ATOM     12  C   UNL A   1      42.436  23.877  28.761  1.00  0.00     0.213 C 
ATOM     13  N   UNL A   1      42.648  24.915  27.751  1.00  0.00    -0.306 N 
ATOM     14  C   UNL A   1      41.176  23.414  27.946  1.00  0.00     0.307 C 
ATOM     15  C   UNL A   1      41.568  24.614  27.016  1.00  0.00     0.285 C 
ATOM     16  O   UNL A   1      41.178  25.150  25.958  1.00  0.00    -0.268 OA
BRANCH  14  17
ATOM     17  N   UNL A   1      41.105  21.988  27.481  1.00  0.00    -0.315 N 
ATOM     18  H   UNL A   1      40.129  21.695  27.525  1.00  0.00     0.348 HD
ATOM     19  H   UNL A   1      41.727  21.467  28.099  1.00  0.00     0.348 HD
BRANCH  17  20
ATOM     20  C   UNL A   1      41.589  21.730  26.121  1.00  0.00     0.415 C 
BRANCH  20  21
ATOM     21  N   UNL A   1      42.365  20.538  25.807  1.00  0.00    -0.194 N 
ATOM     22  N   UNL A   1      41.780  19.356  25.649  1.00  0.00    -0.061 NA
ATOM     23  C   UNL A   1      43.736  20.500  25.543  1.00  0.00     0.095 A 
ATOM     24  N   UNL A   1      42.768  18.480  25.583  1.00  0.00    -0.130 NA
ATOM     25  C   UNL A   1      43.963  19.150  25.356  1.00  0.00     0.113 A 
ATOM     26  C   UNL A   1      44.786  21.429  25.408  1.00  0.00     0.030 A 
ATOM     27  C   UNL A   1      45.215  18.720  24.833  1.00  0.00     0.032 A 
ATOM     28  C   UNL A   1      46.054  20.949  25.011  1.00  0.00     0.002 A 
ATOM     29  C   UNL A   1      46.253  19.624  24.651  1.00  0.00     0.002 A 
ENDBRANCH  20  21
ENDBRANCH  17  20
ENDBRANCH  14  17
ENDBRANCH   4   7
ENDBRANCH   2   3
ENDBRANCH   1   2
BRANCH   1  30
ATOM     30  C   UNL A   1      42.736  28.304  25.560  1.00  0.00     0.023 C 
BRANCH  30  31
ATOM     31  C   UNL A   1      41.760  29.033  26.481  1.00  0.00     0.116 C 
BRANCH  31  32
ATOM     32  N   UNL A   1      40.583  28.216  26.751  1.00  0.00    -0.352 N 
ATOM     33  C   UNL A   1      39.840  27.834  27.824  1.00  0.00     0.251 C 
ATOM     34  H   UNL A   1      40.223  27.831  25.920  1.00  0.00     0.163 HD
ATOM     35  O   UNL A   1      38.720  27.357  27.694  1.00  0.00    -0.269 OA
BRANCH  33  36
ATOM     36  C   UNL A   1      40.284  27.609  29.167  1.00  0.00     0.039 A 
ATOM     37  C   UNL A   1      39.385  26.975  29.965  1.00  0.00     0.014 A 
ATOM     38  C   UNL A   1      40.882  28.807  29.666  1.00  0.00     0.014 A 
ATOM     39  C   UNL A   1      38.759  27.873  30.903  1.00  0.00     0.010 A 
ATOM     40  C   UNL A   1      40.561  29.178  30.916  1.00  0.00     0.010 A 
ATOM     41  C   UNL A   1      39.205  29.319  31.046  1.00  0.00    -0.014 A 
BRANCH  41  42
ATOM     42  C   UNL A   1      38.986  30.634  32.188  1.00  0.00     0.031 A 
ATOM     43  C   UNL A   1      37.691  31.171  30.995  1.00  0.00     0.074 A 
ATOM     44  C   UNL A   1      39.571  31.111  33.662  1.00  0.00     0.049 A 
ATOM     45  N   UNL A   1      37.979  31.783  29.858  1.00  0.00    -0.248 NA
ATOM     46  C   UNL A   1      36.266  30.475  30.494  1.00  0.00     0.031 C 
ATOM     47  C   UNL A   1      40.629  30.736  35.012  1.00  0.00     0.029 A 
ATOM     48  N   UNL A   1      39.362  32.348  34.449  1.00  0.00    -0.354 N 
ATOM     49  C   UNL A   1      36.742  32.259  29.380  1.00  0.00     0.074 A 
ATOM     50  C   UNL A   1      35.765  31.282  29.543  1.00  0.00     0.031 C 
ATOM     51  C   UNL A   1      40.355  31.417  36.233  1.00  0.00     0.029 A 
ATOM     52  C   UNL A   1      39.435  32.468  35.952  1.00  0.00     0.049 A 
ATOM     53  H   UNL A   1      39.157  33.168  33.946  1.00  0.00     0.167 HD
ATOM     54  C   UNL A   1      36.466  33.566  29.519  1.00  0.00     0.037 A 
ATOM     55  C   UNL A   1      38.962  33.488  36.819  1.00  0.00     0.037 A 
ATOM     56  C   UNL A   1      37.704  34.197  29.841  1.00  0.00     0.049 A 
ATOM     57  C   UNL A   1      38.431  34.447  35.815  1.00  0.00     0.074 A 
ATOM     58  C   UNL A   1      38.915  34.209  29.179  1.00  0.00     0.029 A 
ATOM     59  N   UNL A   1      37.967  34.173  31.178  1.00  0.00    -0.354 N 
ATOM     60  N   UNL A   1      39.243  35.104  35.022  1.00  0.00    -0.248 NA
ATOM     61  C   UNL A   1      37.164  33.941  35.265  1.00  0.00     0.031 C 
ATOM     62  C   UNL A   1      39.922  34.122  30.169  1.00  0.00     0.029 A 
ATOM     63  C   UNL A   1      39.306  34.207  31.407  1.00  0.00     0.049 A 
ATOM     64  H   UNL A   1      37.280  34.136  31.882  1.00  0.00     0.167 HD
ATOM     65  C   UNL A   1      38.866  34.695  33.748  1.00  0.00     0.074 A 
ATOM     66  C   UNL A   1      37.509  34.002  33.965  1.00  0.00     0.031 C 
ATOM     67  C   UNL A   1      39.787  34.432  32.729  1.00  0.00     0.037 A 
BRANCH  54  68
ATOM     68  C   UNL A   1      35.135  34.140  29.869  1.00  0.00     0.057 A 
ATOM     69  C   UNL A   1      34.518  34.295  31.135  1.00  0.00     0.134 A 
ATOM     70  C   UNL A   1      34.530  34.787  28.799  1.00  0.00     0.134 A 
ATOM     71  F   UNL A   1      35.000  33.760  32.267  1.00  0.00    -0.206 F 
ATOM     72  C   UNL A   1      33.385  35.091  31.305  1.00  0.00     0.040 A 
ATOM     73  C   UNL A   1      33.487  35.679  28.981  1.00  0.00     0.040 A 
ATOM     74  F   UNL A   1      34.990  34.594  27.554  1.00  0.00    -0.206 F 
ATOM     75  C   UNL A   1      32.933  35.861  30.243  1.00  0.00     0.006 A 
ENDBRANCH  54  68
BRANCH  55  76
ATOM     76  C   UNL A   1      38.315  33.363  38.245  1.00  0.00     0.057 A 
ATOM     77  C   UNL A   1      38.693  34.373  39.142  1.00  0.00     0.134 A 
ATOM     78  C   UNL A   1      37.608  32.299  38.898  1.00  0.00     0.134 A 
ATOM     79  F   UNL A   1      39.398  35.416  38.691  1.00  0.00    -0.206 F 
ATOM     80  C   UNL A   1      38.438  34.370  40.526  1.00  0.00     0.040 A 
ATOM     81  C   UNL A   1      37.269  32.323  40.297  1.00  0.00     0.040 A 
ATOM     82  F   UNL A   1      37.227  31.190  38.243  1.00  0.00    -0.206 F 
ATOM     83  C   UNL A   1      37.678  33.373  41.110  1.00  0.00     0.006 A 
ENDBRANCH  55  76
BRANCH  67  84
ATOM     84  C   UNL A   1      41.319  34.586  32.862  1.00  0.00     0.057 A 
ATOM     85  C   UNL A   1      42.083  33.493  32.480  1.00  0.00     0.134 A 
ATOM     86  C   UNL A   1      42.088  35.607  33.473  1.00  0.00     0.134 A 
ATOM     87  F   UNL A   1      41.482  32.336  32.176  1.00  0.00    -0.206 F 
ATOM     88  C   UNL A   1      43.478  33.528  32.438  1.00  0.00     0.040 A 
ATOM     89  C   UNL A   1      43.474  35.740  33.288  1.00  0.00     0.040 A 
ATOM     90  F   UNL A   1      41.567  36.436  34.380  1.00  0.00    -0.206 F 
ATOM     91  C   UNL A   1      44.163  34.710  32.684  1.00  0.00     0.006 A 
ENDBRANCH  67  84
ENDBRANCH  41  42
ENDBRANCH  33  36
ENDBRANCH  31  32
ENDBRANCH  30  31
ENDBRANCH   1  30
TORSDOF 14
ENDMDL
