MODEL 1
REMARK VINA RESULT:     -12.0      0.000      0.000
REMARK SMILES O=C(NCCCCNC(=O)[C@H]1C[NH2+]CCN1c1ncc(C(F)(F)F)cc1Cl)c1ccc(-c2c3nc(c(-c4c(F)cccc4F)c4ccc([nH]4)c(-c4c(F)cccc4F)c4nc(c(-c5c(F)cccc5F)c5ccc2[nH]5)C=C4)C=C3)cc1
REMARK SMILES IDX 5 1 4 2 3 3 1 4 2 5 28 7 29 8 81 9 30 10 80 11 31 12 32 13
REMARK SMILES IDX 33 14 74 15 34 16 79 17 73 18 75 19 35 20 78 21 72 22 71 23
REMARK SMILES IDX 36 25 62 26 45 27 61 28 46 29 49 30 60 31 76 32 47 33 48 34
REMARK SMILES IDX 59 36 77 37 50 38 37 39 38 40 43 41 39 42 40 43 42 44 44 45
REMARK SMILES IDX 41 46 63 47 64 48 69 49 65 50 66 51 68 52 70 53 67 54 51 55
REMARK SMILES IDX 52 56 57 57 53 58 54 59 56 60 58 61 55 62 6 63 7 64 8 65
REMARK SMILES IDX 9 66 10 68 11 69 12 70 16 71 13 72 15 73 14 74 17 77 18 78
REMARK SMILES IDX 26 79 19 80 25 81 27 82 20 83 21 84 22 85 23 86 24 87
REMARK H PARENT 3 6 75 24 49 35 8 67 13 75 13 76
REMARK Flexibility Score: inf
ROOT
ATOM      1  C   UNL A   1      37.711  20.568  24.960  1.00  0.00     0.023 C 
ENDROOT
BRANCH   1   2
ATOM      2  C   UNL A   1      38.981  20.763  25.762  1.00  0.00     0.116 C 
BRANCH   2   3
ATOM      3  N   UNL A   1      39.921  19.654  25.667  1.00  0.00    -0.352 N 
ATOM      4  O   UNL A   1      41.969  18.680  25.808  1.00  0.00    -0.269 OA
ATOM      5  C   UNL A   1      41.257  19.659  26.002  1.00  0.00     0.251 C 
ATOM      6  H   UNL A   1      39.561  18.804  25.324  1.00  0.00     0.163 HD
BRANCH   5   7
ATOM      7  C   UNL A   1      41.822  20.902  26.562  1.00  0.00     0.039 A 
ATOM      8  C   UNL A   1      41.836  21.082  27.945  1.00  0.00     0.014 A 
ATOM      9  C   UNL A   1      42.219  21.932  25.706  1.00  0.00     0.014 A 
ATOM     10  C   UNL A   1      42.057  22.348  28.460  1.00  0.00     0.010 A 
ATOM     11  C   UNL A   1      42.559  23.178  26.240  1.00  0.00     0.010 A 
ATOM     12  C   UNL A   1      42.441  23.408  27.618  1.00  0.00    -0.014 A 
BRANCH  12  13
ATOM     13  C   UNL A   1      42.771  24.712  28.244  1.00  0.00     0.031 A 
ATOM     14  C   UNL A   1      44.187  25.113  28.549  1.00  0.00     0.074 A 
ATOM     15  C   UNL A   1      41.759  25.577  28.452  1.00  0.00     0.049 A 
ATOM     16  N   UNL A   1      44.630  26.248  29.030  1.00  0.00    -0.248 NA
ATOM     17  C   UNL A   1      45.242  24.120  28.294  1.00  0.00     0.031 C 
ATOM     18  C   UNL A   1      40.342  25.285  28.209  1.00  0.00     0.029 A 
ATOM     19  N   UNL A   1      41.761  26.884  28.861  1.00  0.00    -0.354 N 
ATOM     20  C   UNL A   1      46.004  26.099  29.161  1.00  0.00     0.074 A 
ATOM     21  C   UNL A   1      46.325  24.758  28.721  1.00  0.00     0.031 C 
ATOM     22  C   UNL A   1      39.626  26.402  28.383  1.00  0.00     0.029 A 
ATOM     23  C   UNL A   1      40.516  27.466  28.827  1.00  0.00     0.049 A 
ATOM     24  H   UNL A   1      42.572  27.361  29.149  1.00  0.00     0.167 HD
ATOM     25  C   UNL A   1      46.911  27.001  29.609  1.00  0.00     0.037 A 
ATOM     26  C   UNL A   1      40.128  28.717  29.129  1.00  0.00     0.037 A 
ATOM     27  C   UNL A   1      46.584  28.342  30.026  1.00  0.00     0.049 A 
ATOM     28  C   UNL A   1      41.158  29.701  29.587  1.00  0.00     0.074 A 
ATOM     29  C   UNL A   1      47.431  29.330  30.501  1.00  0.00     0.029 A 
ATOM     30  N   UNL A   1      45.309  28.887  30.005  1.00  0.00    -0.354 N 
ATOM     31  N   UNL A   1      42.451  29.534  29.723  1.00  0.00    -0.248 NA
ATOM     32  C   UNL A   1      40.677  31.040  29.946  1.00  0.00     0.031 C 
ATOM     33  C   UNL A   1      46.663  30.464  30.791  1.00  0.00     0.029 A 
ATOM     34  C   UNL A   1      45.344  30.195  30.464  1.00  0.00     0.049 A 
ATOM     35  H   UNL A   1      44.498  28.415  29.709  1.00  0.00     0.167 HD
ATOM     36  C   UNL A   1      42.938  30.741  30.200  1.00  0.00     0.074 A 
ATOM     37  C   UNL A   1      41.807  31.644  30.284  1.00  0.00     0.031 C 
ATOM     38  C   UNL A   1      44.204  31.068  30.556  1.00  0.00     0.037 A 
BRANCH  25  39
ATOM     39  C   UNL A   1      48.346  26.569  29.690  1.00  0.00     0.057 A 
ATOM     40  C   UNL A   1      49.263  26.860  28.672  1.00  0.00     0.134 A 
ATOM     41  C   UNL A   1      48.832  25.914  30.829  1.00  0.00     0.134 A 
ATOM     42  F   UNL A   1      48.861  27.475  27.549  1.00  0.00    -0.206 F 
ATOM     43  C   UNL A   1      50.610  26.506  28.780  1.00  0.00     0.040 A 
ATOM     44  C   UNL A   1      50.180  25.573  30.956  1.00  0.00     0.040 A 
ATOM     45  F   UNL A   1      48.009  25.610  31.843  1.00  0.00    -0.206 F 
ATOM     46  C   UNL A   1      51.074  25.867  29.929  1.00  0.00     0.006 A 
ENDBRANCH  25  39
BRANCH  26  47
ATOM     47  C   UNL A   1      38.697  29.086  29.019  1.00  0.00     0.057 A 
ATOM     48  C   UNL A   1      37.840  29.016  30.122  1.00  0.00     0.134 A 
ATOM     49  C   UNL A   1      38.160  29.553  27.812  1.00  0.00     0.134 A 
ATOM     50  F   UNL A   1      38.294  28.565  31.301  1.00  0.00    -0.206 F 
ATOM     51  C   UNL A   1      36.499  29.390  30.029  1.00  0.00     0.040 A 
ATOM     52  C   UNL A   1      36.830  29.956  27.711  1.00  0.00     0.040 A 
ATOM     53  F   UNL A   1      38.935  29.655  26.721  1.00  0.00    -0.206 F 
ATOM     54  C   UNL A   1      35.993  29.870  28.821  1.00  0.00     0.006 A 
ENDBRANCH  26  47
BRANCH  38  55
ATOM     55  C   UNL A   1      44.410  32.456  31.076  1.00  0.00     0.057 A 
ATOM     56  C   UNL A   1      44.320  32.744  32.443  1.00  0.00     0.134 A 
ATOM     57  C   UNL A   1      44.690  33.515  30.204  1.00  0.00     0.134 A 
ATOM     58  F   UNL A   1      44.037  31.773  33.324  1.00  0.00    -0.206 F 
ATOM     59  C   UNL A   1      44.473  34.044  32.925  1.00  0.00     0.040 A 
ATOM     60  C   UNL A   1      44.866  34.816  30.676  1.00  0.00     0.040 A 
ATOM     61  F   UNL A   1      44.792  33.302  28.883  1.00  0.00    -0.206 F 
ATOM     62  C   UNL A   1      44.748  35.084  32.039  1.00  0.00     0.006 A 
ENDBRANCH  38  55
ENDBRANCH  12  13
ENDBRANCH   5   7
ENDBRANCH   2   3
ENDBRANCH   1   2
BRANCH   1  63
ATOM     63  C   UNL A   1      37.054  21.859  24.483  1.00  0.00     0.023 C 
BRANCH  63  64
ATOM     64  C   UNL A   1      36.681  22.845  25.589  1.00  0.00     0.116 C 
BRANCH  64  65
ATOM     65  N   UNL A   1      35.763  22.258  26.534  1.00  0.00    -0.354 N 
ATOM     66  C   UNL A   1      34.421  22.394  26.697  1.00  0.00     0.248 C 
ATOM     67  H   UNL A   1      36.186  21.647  27.180  1.00  0.00     0.163 HD
ATOM     68  O   UNL A   1      33.968  21.747  27.654  1.00  0.00    -0.272 OA
BRANCH  66  69
ATOM     69  C   UNL A   1      33.457  23.158  25.738  1.00  0.00     0.228 C 
ATOM     70  C   UNL A   1      32.725  22.092  24.855  1.00  0.00     0.296 C 
ATOM     71  N   UNL A   1      32.450  24.050  26.360  1.00  0.00    -0.333 N 
ATOM     72  N   UNL A   1      31.615  21.381  25.538  1.00  0.00    -0.343 N 
ATOM     73  C   UNL A   1      31.247  23.453  26.942  1.00  0.00     0.180 C 
ATOM     74  C   UNL A   1      30.640  22.373  26.025  1.00  0.00     0.282 C 
ATOM     75  H   UNL A   1      31.985  20.848  26.326  1.00  0.00     0.346 HD
ATOM     76  H   UNL A   1      31.161  20.741  24.887  1.00  0.00     0.346 HD
BRANCH  71  77
ATOM     77  C   UNL A   1      32.440  25.418  26.175  1.00  0.00     0.148 A 
ATOM     78  N   UNL A   1      31.502  26.091  26.896  1.00  0.00    -0.237 NA
ATOM     79  C   UNL A   1      33.311  26.133  25.337  1.00  0.00     0.084 A 
ATOM     80  C   UNL A   1      31.488  27.447  26.873  1.00  0.00     0.126 A 
ATOM     81  C   UNL A   1      33.257  27.533  25.309  1.00  0.00     0.039 A 
ATOM     82  Cl  UNL A   1      34.422  25.394  24.244  1.00  0.00    -0.080 Cl
ATOM     83  C   UNL A   1      32.342  28.216  26.107  1.00  0.00     0.075 A 
BRANCH  83  84
ATOM     84  C   UNL A   1      32.290  29.709  26.176  1.00  0.00     0.417 C 
ATOM     85  F   UNL A   1      31.635  30.267  25.122  1.00  0.00    -0.166 F 
ATOM     86  F   UNL A   1      31.646  30.149  27.292  1.00  0.00    -0.166 F 
ATOM     87  F   UNL A   1      33.521  30.290  26.201  1.00  0.00    -0.166 F 
ENDBRANCH  83  84
ENDBRANCH  71  77
ENDBRANCH  66  69
ENDBRANCH  64  65
ENDBRANCH  63  64
ENDBRANCH   1  63
TORSDOF 13
ENDMDL
MODEL 2
REMARK VINA RESULT:     -11.9      0.377      6.250
REMARK SMILES O=C(NCCCCNC(=O)[C@H]1C[NH2+]CCN1c1ncc(C(F)(F)F)cc1Cl)c1ccc(-c2c3nc(c(-c4c(F)cccc4F)c4ccc([nH]4)c(-c4c(F)cccc4F)c4nc(c(-c5c(F)cccc5F)c5ccc2[nH]5)C=C4)C=C3)cc1
REMARK SMILES IDX 5 1 4 2 3 3 1 4 2 5 28 7 29 8 81 9 30 10 80 11 31 12 32 13
REMARK SMILES IDX 33 14 74 15 34 16 79 17 73 18 75 19 35 20 78 21 72 22 71 23
REMARK SMILES IDX 36 25 62 26 45 27 61 28 46 29 49 30 60 31 76 32 47 33 48 34
REMARK SMILES IDX 59 36 77 37 50 38 37 39 38 40 43 41 39 42 40 43 42 44 44 45
REMARK SMILES IDX 41 46 63 47 64 48 69 49 65 50 66 51 68 52 70 53 67 54 51 55
REMARK SMILES IDX 52 56 57 57 53 58 54 59 56 60 58 61 55 62 6 63 7 64 8 65
REMARK SMILES IDX 9 66 10 68 11 69 12 70 16 71 13 72 15 73 14 74 17 77 18 78
REMARK SMILES IDX 26 79 19 80 25 81 27 82 20 83 21 84 22 85 23 86 24 87
REMARK H PARENT 3 6 75 24 49 35 8 67 13 75 13 76
REMARK Flexibility Score: inf
ROOT
ATOM      1  C   UNL A   1      37.816  20.288  25.034  1.00  0.00     0.023 C 
ENDROOT
BRANCH   1   2
ATOM      2  C   UNL A   1      39.090  20.582  25.798  1.00  0.00     0.116 C 
BRANCH   2   3
ATOM      3  N   UNL A   1      40.060  19.495  25.778  1.00  0.00    -0.352 N 
ATOM      4  O   UNL A   1      42.134  18.590  25.983  1.00  0.00    -0.269 OA
ATOM      5  C   UNL A   1      41.396  19.560  26.110  1.00  0.00     0.251 C 
ATOM      6  H   UNL A   1      39.723  18.614  25.496  1.00  0.00     0.163 HD
BRANCH   5   7
ATOM      7  C   UNL A   1      41.927  20.854  26.581  1.00  0.00     0.039 A 
ATOM      8  C   UNL A   1      41.880  21.156  27.942  1.00  0.00     0.014 A 
ATOM      9  C   UNL A   1      42.352  21.809  25.653  1.00  0.00     0.014 A 
ATOM     10  C   UNL A   1      42.069  22.465  28.351  1.00  0.00     0.010 A 
ATOM     11  C   UNL A   1      42.660  23.101  26.089  1.00  0.00     0.010 A 
ATOM     12  C   UNL A   1      42.481  23.450  27.435  1.00  0.00    -0.014 A 
BRANCH  12  13
ATOM     13  C   UNL A   1      42.774  24.809  27.956  1.00  0.00     0.031 A 
ATOM     14  C   UNL A   1      41.686  25.811  28.217  1.00  0.00     0.074 A 
ATOM     15  C   UNL A   1      44.051  25.090  28.279  1.00  0.00     0.049 A 
ATOM     16  N   UNL A   1      41.786  27.010  28.737  1.00  0.00    -0.248 NA
ATOM     17  C   UNL A   1      40.314  25.436  27.843  1.00  0.00     0.031 C 
ATOM     18  C   UNL A   1      45.191  24.195  28.052  1.00  0.00     0.029 A 
ATOM     19  N   UNL A   1      44.603  26.173  28.911  1.00  0.00    -0.354 N 
ATOM     20  C   UNL A   1      40.503  27.541  28.728  1.00  0.00     0.074 A 
ATOM     21  C   UNL A   1      39.639  26.540  28.139  1.00  0.00     0.031 C 
ATOM     22  C   UNL A   1      46.284  24.721  28.616  1.00  0.00     0.029 A 
ATOM     23  C   UNL A   1      45.944  26.024  29.173  1.00  0.00     0.049 A 
ATOM     24  H   UNL A   1      44.091  26.977  29.154  1.00  0.00     0.167 HD
ATOM     25  C   UNL A   1      40.089  28.754  29.171  1.00  0.00     0.037 A 
ATOM     26  C   UNL A   1      46.811  26.848  29.786  1.00  0.00     0.037 A 
ATOM     27  C   UNL A   1      40.955  29.735  29.775  1.00  0.00     0.049 A 
ATOM     28  C   UNL A   1      46.316  28.165  30.296  1.00  0.00     0.074 A 
ATOM     29  C   UNL A   1      40.632  30.995  30.251  1.00  0.00     0.029 A 
ATOM     30  N   UNL A   1      42.312  29.562  29.998  1.00  0.00    -0.354 N 
ATOM     31  N   UNL A   1      45.102  28.657  30.260  1.00  0.00    -0.248 NA
ATOM     32  C   UNL A   1      47.311  29.046  30.918  1.00  0.00     0.031 C 
ATOM     33  C   UNL A   1      41.801  31.593  30.739  1.00  0.00     0.029 A 
ATOM     34  C   UNL A   1      42.844  30.692  30.599  1.00  0.00     0.049 A 
ATOM     35  H   UNL A   1      42.825  28.754  29.763  1.00  0.00     0.167 HD
ATOM     36  C   UNL A   1      45.188  29.914  30.839  1.00  0.00     0.074 A 
ATOM     37  C   UNL A   1      46.564  30.086  31.259  1.00  0.00     0.031 C 
ATOM     38  C   UNL A   1      44.219  30.848  30.992  1.00  0.00     0.037 A 
BRANCH  25  39
ATOM     39  C   UNL A   1      38.638  29.100  29.008  1.00  0.00     0.057 A 
ATOM     40  C   UNL A   1      37.737  29.027  30.077  1.00  0.00     0.134 A 
ATOM     41  C   UNL A   1      38.151  29.576  27.783  1.00  0.00     0.134 A 
ATOM     42  F   UNL A   1      38.135  28.569  31.273  1.00  0.00    -0.206 F 
ATOM     43  C   UNL A   1      36.400  29.407  29.931  1.00  0.00     0.040 A 
ATOM     44  C   UNL A   1      36.822  29.977  27.631  1.00  0.00     0.040 A 
ATOM     45  F   UNL A   1      38.963  29.676  26.720  1.00  0.00    -0.206 F 
ATOM     46  C   UNL A   1      35.942  29.891  28.707  1.00  0.00     0.006 A 
ENDBRANCH  25  39
BRANCH  26  47
ATOM     47  C   UNL A   1      48.230  26.444  29.927  1.00  0.00     0.057 A 
ATOM     48  C   UNL A   1      48.678  25.738  31.047  1.00  0.00     0.134 A 
ATOM     49  C   UNL A   1      49.167  26.728  28.924  1.00  0.00     0.134 A 
ATOM     50  F   UNL A   1      47.830  25.450  32.047  1.00  0.00    -0.206 F 
ATOM     51  C   UNL A   1      50.008  25.333  31.171  1.00  0.00     0.040 A 
ATOM     52  C   UNL A   1      50.491  26.304  29.020  1.00  0.00     0.040 A 
ATOM     53  F   UNL A   1      48.795  27.391  27.819  1.00  0.00    -0.206 F 
ATOM     54  C   UNL A   1      50.916  25.608  30.150  1.00  0.00     0.006 A 
ENDBRANCH  26  47
BRANCH  38  55
ATOM     55  C   UNL A   1      44.636  32.137  31.630  1.00  0.00     0.057 A 
ATOM     56  C   UNL A   1      45.118  33.207  30.866  1.00  0.00     0.134 A 
ATOM     57  C   UNL A   1      44.563  32.307  33.017  1.00  0.00     0.134 A 
ATOM     58  F   UNL A   1      45.226  33.096  29.534  1.00  0.00    -0.206 F 
ATOM     59  C   UNL A   1      45.543  34.393  31.463  1.00  0.00     0.040 A 
ATOM     60  C   UNL A   1      44.966  33.497  33.624  1.00  0.00     0.040 A 
ATOM     61  F   UNL A   1      44.107  31.320  33.803  1.00  0.00    -0.206 F 
ATOM     62  C   UNL A   1      45.466  34.541  32.847  1.00  0.00     0.006 A 
ENDBRANCH  38  55
ENDBRANCH  12  13
ENDBRANCH   5   7
ENDBRANCH   2   3
ENDBRANCH   1   2
BRANCH   1  63
ATOM     63  C   UNL A   1      37.072  21.522  24.536  1.00  0.00     0.023 C 
BRANCH  63  64
ATOM     64  C   UNL A   1      36.769  22.573  25.603  1.00  0.00     0.116 C 
BRANCH  64  65
ATOM     65  N   UNL A   1      35.829  22.079  26.580  1.00  0.00    -0.354 N 
ATOM     66  C   UNL A   1      34.497  22.292  26.743  1.00  0.00     0.248 C 
ATOM     67  H   UNL A   1      36.225  21.478  27.252  1.00  0.00     0.163 HD
ATOM     68  O   UNL A   1      34.019  21.715  27.732  1.00  0.00    -0.272 OA
BRANCH  66  69
ATOM     69  C   UNL A   1      33.566  23.059  25.753  1.00  0.00     0.228 C 
ATOM     70  C   UNL A   1      32.870  21.995  24.839  1.00  0.00     0.296 C 
ATOM     71  N   UNL A   1      32.535  23.944  26.343  1.00  0.00    -0.333 N 
ATOM     72  N   UNL A   1      31.738  21.278  25.477  1.00  0.00    -0.343 N 
ATOM     73  C   UNL A   1      31.314  23.340  26.878  1.00  0.00     0.180 C 
ATOM     74  C   UNL A   1      30.744  22.264  25.933  1.00  0.00     0.282 C 
ATOM     75  H   UNL A   1      32.080  20.741  26.275  1.00  0.00     0.346 HD
ATOM     76  H   UNL A   1      31.311  20.640  24.806  1.00  0.00     0.346 HD
BRANCH  71  77
ATOM     77  C   UNL A   1      32.527  25.313  26.165  1.00  0.00     0.148 A 
ATOM     78  N   UNL A   1      31.571  25.981  26.866  1.00  0.00    -0.237 NA
ATOM     79  C   UNL A   1      33.419  26.034  25.354  1.00  0.00     0.084 A 
ATOM     80  C   UNL A   1      31.555  27.337  26.850  1.00  0.00     0.126 A 
ATOM     81  C   UNL A   1      33.364  27.434  25.332  1.00  0.00     0.039 A 
ATOM     82  Cl  UNL A   1      34.559  25.302  24.286  1.00  0.00    -0.080 Cl
ATOM     83  C   UNL A   1      32.428  28.111  26.111  1.00  0.00     0.075 A 
BRANCH  83  84
ATOM     84  C   UNL A   1      32.371  29.604  26.187  1.00  0.00     0.417 C 
ATOM     85  F   UNL A   1      31.765  30.169  25.108  1.00  0.00    -0.166 F 
ATOM     86  F   UNL A   1      31.678  30.037  27.275  1.00  0.00    -0.166 F 
ATOM     87  F   UNL A   1      33.600  30.185  26.272  1.00  0.00    -0.166 F 
ENDBRANCH  83  84
ENDBRANCH  71  77
ENDBRANCH  66  69
ENDBRANCH  64  65
ENDBRANCH  63  64
ENDBRANCH   1  63
TORSDOF 13
ENDMDL
MODEL 3
REMARK VINA RESULT:     -11.8      4.221      8.627
REMARK SMILES O=C(NCCCCNC(=O)[C@H]1C[NH2+]CCN1c1ncc(C(F)(F)F)cc1Cl)c1ccc(-c2c3nc(c(-c4c(F)cccc4F)c4ccc([nH]4)c(-c4c(F)cccc4F)c4nc(c(-c5c(F)cccc5F)c5ccc2[nH]5)C=C4)C=C3)cc1
REMARK SMILES IDX 5 1 4 2 3 3 1 4 2 5 28 7 29 8 81 9 30 10 80 11 31 12 32 13
REMARK SMILES IDX 33 14 74 15 34 16 79 17 73 18 75 19 35 20 78 21 72 22 71 23
REMARK SMILES IDX 36 25 62 26 45 27 61 28 46 29 49 30 60 31 76 32 47 33 48 34
REMARK SMILES IDX 59 36 77 37 50 38 37 39 38 40 43 41 39 42 40 43 42 44 44 45
REMARK SMILES IDX 41 46 63 47 64 48 69 49 65 50 66 51 68 52 70 53 67 54 51 55
REMARK SMILES IDX 52 56 57 57 53 58 54 59 56 60 58 61 55 62 6 63 7 64 8 65
REMARK SMILES IDX 9 66 10 68 11 69 12 70 16 71 13 72 15 73 14 74 17 77 18 78
REMARK SMILES IDX 26 79 19 80 25 81 27 82 20 83 21 84 22 85 23 86 24 87
REMARK H PARENT 3 6 75 24 49 35 8 67 13 75 13 76
REMARK Flexibility Score: inf
ROOT
ATOM      1  C   UNL A   1      31.600  29.416  26.069  1.00  0.00     0.023 C 
ENDROOT
BRANCH   1   2
ATOM      2  C   UNL A   1      32.723  30.432  26.083  1.00  0.00     0.116 C 
BRANCH   2   3
ATOM      3  N   UNL A   1      32.326  31.752  26.556  1.00  0.00    -0.352 N 
ATOM      4  O   UNL A   1      32.551  33.641  27.797  1.00  0.00    -0.269 OA
ATOM      5  C   UNL A   1      33.022  32.578  27.410  1.00  0.00     0.251 C 
ATOM      6  H   UNL A   1      31.462  32.091  26.228  1.00  0.00     0.163 HD
BRANCH   5   7
ATOM      7  C   UNL A   1      34.343  32.122  27.886  1.00  0.00     0.039 A 
ATOM      8  C   UNL A   1      34.481  30.820  28.367  1.00  0.00     0.014 A 
ATOM      9  C   UNL A   1      35.402  33.029  27.969  1.00  0.00     0.014 A 
ATOM     10  C   UNL A   1      35.606  30.488  29.103  1.00  0.00     0.010 A 
ATOM     11  C   UNL A   1      36.585  32.648  28.610  1.00  0.00     0.010 A 
ATOM     12  C   UNL A   1      36.680  31.388  29.217  1.00  0.00    -0.014 A 
BRANCH  12  13
ATOM     13  C   UNL A   1      37.902  30.931  29.926  1.00  0.00     0.031 A 
ATOM     14  C   UNL A   1      38.152  31.258  31.371  1.00  0.00     0.074 A 
ATOM     15  C   UNL A   1      38.747  30.125  29.253  1.00  0.00     0.049 A 
ATOM     16  N   UNL A   1      39.140  30.867  32.138  1.00  0.00    -0.248 NA
ATOM     17  C   UNL A   1      37.187  32.140  32.044  1.00  0.00     0.031 C 
ATOM     18  C   UNL A   1      38.610  29.757  27.841  1.00  0.00     0.029 A 
ATOM     19  N   UNL A   1      39.852  29.431  29.669  1.00  0.00    -0.354 N 
ATOM     20  C   UNL A   1      38.932  31.474  33.370  1.00  0.00     0.074 A 
ATOM     21  C   UNL A   1      37.729  32.270  33.248  1.00  0.00     0.031 C 
ATOM     22  C   UNL A   1      39.532  28.837  27.533  1.00  0.00     0.029 A 
ATOM     23  C   UNL A   1      40.376  28.611  28.699  1.00  0.00     0.049 A 
ATOM     24  H   UNL A   1      40.233  29.510  30.573  1.00  0.00     0.167 HD
ATOM     25  C   UNL A   1      39.679  31.372  34.497  1.00  0.00     0.037 A 
ATOM     26  C   UNL A   1      41.426  27.774  28.736  1.00  0.00     0.037 A 
ATOM     27  C   UNL A   1      40.863  30.559  34.614  1.00  0.00     0.049 A 
ATOM     28  C   UNL A   1      42.211  27.657  30.005  1.00  0.00     0.074 A 
ATOM     29  C   UNL A   1      41.693  30.394  35.711  1.00  0.00     0.029 A 
ATOM     30  N   UNL A   1      41.380  29.765  33.602  1.00  0.00    -0.354 N 
ATOM     31  N   UNL A   1      42.009  28.254  31.154  1.00  0.00    -0.248 NA
ATOM     32  C   UNL A   1      43.374  26.763  29.981  1.00  0.00     0.031 C 
ATOM     33  C   UNL A   1      42.725  29.519  35.353  1.00  0.00     0.029 A 
ATOM     34  C   UNL A   1      42.520  29.111  34.046  1.00  0.00     0.049 A 
ATOM     35  H   UNL A   1      40.995  29.678  32.700  1.00  0.00     0.167 HD
ATOM     36  C   UNL A   1      43.029  27.822  31.987  1.00  0.00     0.074 A 
ATOM     37  C   UNL A   1      43.819  26.877  31.224  1.00  0.00     0.031 C 
ATOM     38  C   UNL A   1      43.300  28.190  33.263  1.00  0.00     0.037 A 
BRANCH  25  39
ATOM     39  C   UNL A   1      39.251  32.170  35.694  1.00  0.00     0.057 A 
ATOM     40  C   UNL A   1      39.678  33.489  35.892  1.00  0.00     0.134 A 
ATOM     41  C   UNL A   1      38.349  31.636  36.623  1.00  0.00     0.134 A 
ATOM     42  F   UNL A   1      40.550  34.057  35.046  1.00  0.00    -0.206 F 
ATOM     43  C   UNL A   1      39.229  34.246  36.978  1.00  0.00     0.040 A 
ATOM     44  C   UNL A   1      37.879  32.388  37.701  1.00  0.00     0.040 A 
ATOM     45  F   UNL A   1      37.897  30.380  36.489  1.00  0.00    -0.206 F 
ATOM     46  C   UNL A   1      38.321  33.697  37.882  1.00  0.00     0.006 A 
ENDBRANCH  25  39
BRANCH  26  47
ATOM     47  C   UNL A   1      41.793  27.004  27.524  1.00  0.00     0.057 A 
ATOM     48  C   UNL A   1      42.611  27.554  26.532  1.00  0.00     0.134 A 
ATOM     49  C   UNL A   1      41.360  25.683  27.346  1.00  0.00     0.134 A 
ATOM     50  F   UNL A   1      43.045  28.819  26.640  1.00  0.00    -0.206 F 
ATOM     51  C   UNL A   1      42.980  26.822  25.402  1.00  0.00     0.040 A 
ATOM     52  C   UNL A   1      41.744  24.931  26.237  1.00  0.00     0.040 A 
ATOM     53  F   UNL A   1      40.584  25.096  28.269  1.00  0.00    -0.206 F 
ATOM     54  C   UNL A   1      42.554  25.503  25.258  1.00  0.00     0.006 A 
ENDBRANCH  26  47
BRANCH  38  55
ATOM     55  C   UNL A   1      44.508  27.568  33.891  1.00  0.00     0.057 A 
ATOM     56  C   UNL A   1      45.765  28.180  33.817  1.00  0.00     0.134 A 
ATOM     57  C   UNL A   1      44.417  26.344  34.564  1.00  0.00     0.134 A 
ATOM     58  F   UNL A   1      45.917  29.345  33.170  1.00  0.00    -0.206 F 
ATOM     59  C   UNL A   1      46.899  27.582  34.367  1.00  0.00     0.040 A 
ATOM     60  C   UNL A   1      45.541  25.746  35.137  1.00  0.00     0.040 A 
ATOM     61  F   UNL A   1      43.240  25.710  34.671  1.00  0.00    -0.206 F 
ATOM     62  C   UNL A   1      46.787  26.362  35.031  1.00  0.00     0.006 A 
ENDBRANCH  38  55
ENDBRANCH  12  13
ENDBRANCH   5   7
ENDBRANCH   2   3
ENDBRANCH   1   2
BRANCH   1  63
ATOM     63  C   UNL A   1      31.647  28.399  27.205  1.00  0.00     0.023 C 
BRANCH  63  64
ATOM     64  C   UNL A   1      31.024  27.041  26.888  1.00  0.00     0.116 C 
BRANCH  64  65
ATOM     65  N   UNL A   1      32.032  26.054  26.587  1.00  0.00    -0.354 N 
ATOM     66  C   UNL A   1      32.731  25.790  25.452  1.00  0.00     0.248 C 
ATOM     67  H   UNL A   1      32.254  25.463  27.343  1.00  0.00     0.163 HD
ATOM     68  O   UNL A   1      33.506  24.827  25.558  1.00  0.00    -0.272 OA
BRANCH  66  69
ATOM     69  C   UNL A   1      32.718  26.650  24.150  1.00  0.00     0.228 C 
ATOM     70  C   UNL A   1      33.995  26.276  23.325  1.00  0.00     0.296 C 
ATOM     71  N   UNL A   1      31.524  26.540  23.279  1.00  0.00    -0.333 N 
ATOM     72  N   UNL A   1      33.896  24.996  22.580  1.00  0.00    -0.343 N 
ATOM     73  C   UNL A   1      31.401  25.375  22.401  1.00  0.00     0.180 C 
ATOM     74  C   UNL A   1      32.728  25.054  21.684  1.00  0.00     0.282 C 
ATOM     75  H   UNL A   1      33.785  24.225  23.239  1.00  0.00     0.346 HD
ATOM     76  H   UNL A   1      34.744  24.848  22.033  1.00  0.00     0.346 HD
BRANCH  71  77
ATOM     77  C   UNL A   1      30.668  27.596  23.038  1.00  0.00     0.148 A 
ATOM     78  N   UNL A   1      31.241  28.679  22.446  1.00  0.00    -0.237 NA
ATOM     79  C   UNL A   1      29.296  27.616  23.335  1.00  0.00     0.084 A 
ATOM     80  C   UNL A   1      30.462  29.720  22.062  1.00  0.00     0.126 A 
ATOM     81  C   UNL A   1      28.517  28.717  22.954  1.00  0.00     0.039 A 
ATOM     82  Cl  UNL A   1      28.485  26.388  24.236  1.00  0.00    -0.080 Cl
ATOM     83  C   UNL A   1      29.100  29.790  22.283  1.00  0.00     0.075 A 
BRANCH  83  84
ATOM     84  C   UNL A   1      28.307  30.956  21.784  1.00  0.00     0.417 C 
ATOM     85  F   UNL A   1      27.700  30.714  20.591  1.00  0.00    -0.166 F 
ATOM     86  F   UNL A   1      27.313  31.307  22.646  1.00  0.00    -0.166 F 
ATOM     87  F   UNL A   1      29.056  32.078  21.602  1.00  0.00    -0.166 F 
ENDBRANCH  83  84
ENDBRANCH  71  77
ENDBRANCH  66  69
ENDBRANCH  64  65
ENDBRANCH  63  64
ENDBRANCH   1  63
TORSDOF 13
ENDMDL
