MODEL 1
REMARK VINA RESULT:     -12.2      0.000      0.000
REMARK SMILES O=C(NCCCCNC(=O)c1cccc(S(=O)(=O)Nc2ccccc2N2CCOCC2)c1)c1ccc(-c2c3nc(c(-c4c(F)cccc4F)c4ccc([nH]4)c(-c4c(F)cccc4F)c4nc(c(-c5c(F)cccc5F)c5ccc2[nH]5)C=C4)C=C3)cc1
REMARK SMILES IDX 6 1 5 2 4 3 3 4 1 5 2 6 33 8 34 9 86 10 35 11 85 12 36 13
REMARK SMILES IDX 37 14 38 15 79 16 39 17 84 18 78 19 80 20 40 21 83 22 77 23
REMARK SMILES IDX 76 24 41 26 67 27 50 28 66 29 51 30 54 31 65 32 81 33 52 34
REMARK SMILES IDX 53 35 64 37 82 38 55 39 42 40 43 41 48 42 44 43 45 44 47 45
REMARK SMILES IDX 49 46 46 47 68 48 69 49 74 50 70 51 71 52 73 53 75 54 72 55
REMARK SMILES IDX 56 56 57 57 62 58 58 59 59 60 61 61 63 62 60 63 7 64 8 65
REMARK SMILES IDX 9 66 10 68 11 69 12 70 32 71 13 72 15 73 14 74 16 75 17 76
REMARK SMILES IDX 18 77 19 78 20 80 21 81 25 82 22 83 24 84 23 85 26 86 27 87
REMARK SMILES IDX 31 88 28 89 30 90 29 91
REMARK H PARENT 3 7 80 25 54 36 8 67 19 79
REMARK Flexibility Score: inf
ROOT
ATOM      1  C   UNL A   1      36.676  19.409  24.949  1.00  0.00     0.023 C 
ENDROOT
BRANCH   1   2
ATOM      2  C   UNL A   1      37.810  20.387  24.672  1.00  0.00     0.023 C 
BRANCH   2   3
ATOM      3  C   UNL A   1      38.823  20.520  25.799  1.00  0.00     0.116 C 
BRANCH   3   4
ATOM      4  N   UNL A   1      39.848  19.482  25.774  1.00  0.00    -0.352 N 
ATOM      5  O   UNL A   1      41.946  18.631  25.843  1.00  0.00    -0.269 OA
ATOM      6  C   UNL A   1      41.192  19.573  26.056  1.00  0.00     0.251 C 
ATOM      7  H   UNL A   1      39.533  18.586  25.517  1.00  0.00     0.163 HD
BRANCH   6   8
ATOM      8  C   UNL A   1      41.718  20.839  26.601  1.00  0.00     0.039 A 
ATOM      9  C   UNL A   1      41.716  21.046  27.979  1.00  0.00     0.014 A 
ATOM     10  C   UNL A   1      42.157  21.839  25.731  1.00  0.00     0.014 A 
ATOM     11  C   UNL A   1      41.959  22.317  28.474  1.00  0.00     0.010 A 
ATOM     12  C   UNL A   1      42.516  23.088  26.245  1.00  0.00     0.010 A 
ATOM     13  C   UNL A   1      42.378  23.349  27.617  1.00  0.00    -0.014 A 
BRANCH  13  14
ATOM     14  C   UNL A   1      42.715  24.666  28.213  1.00  0.00     0.031 A 
ATOM     15  C   UNL A   1      44.132  25.045  28.538  1.00  0.00     0.074 A 
ATOM     16  C   UNL A   1      41.715  25.552  28.388  1.00  0.00     0.049 A 
ATOM     17  N   UNL A   1      44.590  26.179  29.006  1.00  0.00    -0.248 NA
ATOM     18  C   UNL A   1      45.170  24.026  28.319  1.00  0.00     0.031 C 
ATOM     19  C   UNL A   1      40.299  25.283  28.120  1.00  0.00     0.029 A 
ATOM     20  N   UNL A   1      41.733  26.859  28.793  1.00  0.00    -0.354 N 
ATOM     21  C   UNL A   1      45.961  26.008  29.150  1.00  0.00     0.074 A 
ATOM     22  C   UNL A   1      46.261  24.652  28.746  1.00  0.00     0.031 C 
ATOM     23  C   UNL A   1      39.595  26.408  28.301  1.00  0.00     0.029 A 
ATOM     24  C   UNL A   1      40.494  27.454  28.769  1.00  0.00     0.049 A 
ATOM     25  H   UNL A   1      42.552  27.328  29.073  1.00  0.00     0.167 HD
ATOM     26  C   UNL A   1      46.883  26.908  29.573  1.00  0.00     0.037 A 
ATOM     27  C   UNL A   1      40.118  28.700  29.103  1.00  0.00     0.037 A 
ATOM     28  C   UNL A   1      46.577  28.261  29.965  1.00  0.00     0.049 A 
ATOM     29  C   UNL A   1      41.161  29.669  29.571  1.00  0.00     0.074 A 
ATOM     30  C   UNL A   1      47.440  29.248  30.410  1.00  0.00     0.029 A 
ATOM     31  N   UNL A   1      45.306  28.819  29.955  1.00  0.00    -0.354 N 
ATOM     32  N   UNL A   1      42.453  29.492  29.696  1.00  0.00    -0.248 NA
ATOM     33  C   UNL A   1      40.694  31.008  29.948  1.00  0.00     0.031 C 
ATOM     34  C   UNL A   1      46.687  30.392  30.699  1.00  0.00     0.029 A 
ATOM     35  C   UNL A   1      45.362  30.132  30.393  1.00  0.00     0.049 A 
ATOM     36  H   UNL A   1      44.487  28.350  29.677  1.00  0.00     0.167 HD
ATOM     37  C   UNL A   1      42.956  30.696  30.164  1.00  0.00     0.074 A 
ATOM     38  C   UNL A   1      41.832  31.606  30.266  1.00  0.00     0.031 C 
ATOM     39  C   UNL A   1      44.231  31.018  30.492  1.00  0.00     0.037 A 
BRANCH  26  40
ATOM     40  C   UNL A   1      48.314  26.458  29.645  1.00  0.00     0.057 A 
ATOM     41  C   UNL A   1      49.215  26.695  28.598  1.00  0.00     0.134 A 
ATOM     42  C   UNL A   1      48.813  25.835  30.796  1.00  0.00     0.134 A 
ATOM     43  F   UNL A   1      48.800  27.278  27.463  1.00  0.00    -0.206 F 
ATOM     44  C   UNL A   1      50.557  26.316  28.688  1.00  0.00     0.040 A 
ATOM     45  C   UNL A   1      50.157  25.471  30.906  1.00  0.00     0.040 A 
ATOM     46  F   UNL A   1      48.007  25.584  31.838  1.00  0.00    -0.206 F 
ATOM     47  C   UNL A   1      51.033  25.709  29.850  1.00  0.00     0.006 A 
ENDBRANCH  26  40
BRANCH  27  48
ATOM     48  C   UNL A   1      38.687  29.085  29.020  1.00  0.00     0.057 A 
ATOM     49  C   UNL A   1      37.851  29.025  30.139  1.00  0.00     0.134 A 
ATOM     50  C   UNL A   1      38.129  29.538  27.818  1.00  0.00     0.134 A 
ATOM     51  F   UNL A   1      38.325  28.587  31.314  1.00  0.00    -0.206 F 
ATOM     52  C   UNL A   1      36.505  29.386  30.063  1.00  0.00     0.040 A 
ATOM     53  C   UNL A   1      36.794  29.932  27.735  1.00  0.00     0.040 A 
ATOM     54  F   UNL A   1      38.883  29.632  26.713  1.00  0.00    -0.206 F 
ATOM     55  C   UNL A   1      35.975  29.848  28.859  1.00  0.00     0.006 A 
ENDBRANCH  27  48
BRANCH  39  56
ATOM     56  C   UNL A   1      44.466  32.418  30.975  1.00  0.00     0.057 A 
ATOM     57  C   UNL A   1      44.410  32.745  32.336  1.00  0.00     0.134 A 
ATOM     58  C   UNL A   1      44.748  33.447  30.070  1.00  0.00     0.134 A 
ATOM     59  F   UNL A   1      44.127  31.804  33.250  1.00  0.00    -0.206 F 
ATOM     60  C   UNL A   1      44.598  34.055  32.777  1.00  0.00     0.040 A 
ATOM     61  C   UNL A   1      44.962  34.756  30.502  1.00  0.00     0.040 A 
ATOM     62  F   UNL A   1      44.820  33.198  28.753  1.00  0.00    -0.206 F 
ATOM     63  C   UNL A   1      44.879  35.065  31.858  1.00  0.00     0.006 A 
ENDBRANCH  39  56
ENDBRANCH  13  14
ENDBRANCH   6   8
ENDBRANCH   3   4
ENDBRANCH   2   3
ENDBRANCH   1   2
BRANCH   1  64
ATOM     64  C   UNL A   1      35.291  20.037  24.963  1.00  0.00     0.116 C 
BRANCH  64  65
ATOM     65  N   UNL A   1      34.236  19.052  25.144  1.00  0.00    -0.352 N 
ATOM     66  C   UNL A   1      32.877  19.231  25.042  1.00  0.00     0.251 C 
ATOM     67  H   UNL A   1      34.533  18.140  25.368  1.00  0.00     0.163 HD
ATOM     68  O   UNL A   1      32.104  18.337  25.376  1.00  0.00    -0.269 OA
BRANCH  66  69
ATOM     69  C   UNL A   1      32.339  20.489  24.481  1.00  0.00     0.041 A 
ATOM     70  C   UNL A   1      32.263  20.682  23.103  1.00  0.00     0.014 A 
ATOM     71  C   UNL A   1      31.979  21.521  25.344  1.00  0.00     0.036 A 
ATOM     72  C   UNL A   1      31.800  21.905  22.602  1.00  0.00     0.002 A 
ATOM     73  C   UNL A   1      31.554  22.749  24.855  1.00  0.00     0.088 A 
ATOM     74  C   UNL A   1      31.446  22.944  23.477  1.00  0.00     0.022 A 
BRANCH  73  75
ATOM     75  S   UNL A   1      30.998  23.960  26.024  1.00  0.00     0.261 S 
ATOM     76  O   UNL A   1      30.072  24.840  25.331  1.00  0.00    -0.201 OA
ATOM     77  O   UNL A   1      30.577  23.247  27.207  1.00  0.00    -0.201 OA
BRANCH  75  78
ATOM     78  N   UNL A   1      32.312  24.945  26.442  1.00  0.00    -0.278 N 
ATOM     79  H   UNL A   1      32.169  25.771  26.958  1.00  0.00     0.180 HD
BRANCH  78  80
ATOM     80  C   UNL A   1      33.643  24.565  26.036  1.00  0.00     0.072 A 
ATOM     81  C   UNL A   1      34.333  23.600  26.783  1.00  0.00     0.029 A 
ATOM     82  C   UNL A   1      34.183  25.080  24.825  1.00  0.00     0.061 A 
ATOM     83  C   UNL A   1      35.568  23.124  26.345  1.00  0.00     0.002 A 
ATOM     84  C   UNL A   1      35.429  24.573  24.414  1.00  0.00     0.028 A 
ATOM     85  C   UNL A   1      36.115  23.610  25.163  1.00  0.00     0.002 A 
BRANCH  82  86
ATOM     86  N   UNL A   1      33.483  25.986  24.039  1.00  0.00    -0.365 N 
ATOM     87  C   UNL A   1      33.472  27.413  24.402  1.00  0.00     0.145 C 
ATOM     88  C   UNL A   1      33.213  25.743  22.612  1.00  0.00     0.145 C 
ATOM     89  C   UNL A   1      32.141  28.032  23.955  1.00  0.00     0.181 C 
ATOM     90  C   UNL A   1      31.922  26.472  22.197  1.00  0.00     0.181 C 
ATOM     91  O   UNL A   1      31.950  27.869  22.539  1.00  0.00    -0.378 OA
ENDBRANCH  82  86
ENDBRANCH  78  80
ENDBRANCH  75  78
ENDBRANCH  73  75
ENDBRANCH  66  69
ENDBRANCH  64  65
ENDBRANCH   1  64
TORSDOF 15
ENDMDL
MODEL 2
REMARK VINA RESULT:     -12.2      3.676      8.857
REMARK SMILES O=C(NCCCCNC(=O)c1cccc(S(=O)(=O)Nc2ccccc2N2CCOCC2)c1)c1ccc(-c2c3nc(c(-c4c(F)cccc4F)c4ccc([nH]4)c(-c4c(F)cccc4F)c4nc(c(-c5c(F)cccc5F)c5ccc2[nH]5)C=C4)C=C3)cc1
REMARK SMILES IDX 6 1 5 2 4 3 3 4 1 5 2 6 33 8 34 9 86 10 35 11 85 12 36 13
REMARK SMILES IDX 37 14 38 15 79 16 39 17 84 18 78 19 80 20 40 21 83 22 77 23
REMARK SMILES IDX 76 24 41 26 67 27 50 28 66 29 51 30 54 31 65 32 81 33 52 34
REMARK SMILES IDX 53 35 64 37 82 38 55 39 42 40 43 41 48 42 44 43 45 44 47 45
REMARK SMILES IDX 49 46 46 47 68 48 69 49 74 50 70 51 71 52 73 53 75 54 72 55
REMARK SMILES IDX 56 56 57 57 62 58 58 59 59 60 61 61 63 62 60 63 7 64 8 65
REMARK SMILES IDX 9 66 10 68 11 69 12 70 32 71 13 72 15 73 14 74 16 75 17 76
REMARK SMILES IDX 18 77 19 78 20 80 21 81 25 82 22 83 24 84 23 85 26 86 27 87
REMARK SMILES IDX 31 88 28 89 30 90 29 91
REMARK H PARENT 3 7 80 25 54 36 8 67 19 79
REMARK Flexibility Score: inf
ROOT
ATOM      1  C   UNL A   1      31.710  30.131  26.482  1.00  0.00     0.023 C 
ENDROOT
BRANCH   1   2
ATOM      2  C   UNL A   1      31.563  31.645  26.565  1.00  0.00     0.023 C 
BRANCH   2   3
ATOM      3  C   UNL A   1      32.737  32.361  27.218  1.00  0.00     0.116 C 
BRANCH   3   4
ATOM      4  N   UNL A   1      32.432  33.739  27.591  1.00  0.00    -0.352 N 
ATOM      5  O   UNL A   1      32.594  35.648  28.797  1.00  0.00    -0.269 OA
ATOM      6  C   UNL A   1      33.070  34.562  28.490  1.00  0.00     0.251 C 
ATOM      7  H   UNL A   1      31.658  34.137  27.133  1.00  0.00     0.163 HD
BRANCH   6   8
ATOM      8  C   UNL A   1      34.331  34.103  29.103  1.00  0.00     0.039 A 
ATOM      9  C   UNL A   1      35.543  34.410  28.488  1.00  0.00     0.014 A 
ATOM     10  C   UNL A   1      34.296  33.316  30.256  1.00  0.00     0.014 A 
ATOM     11  C   UNL A   1      36.697  33.768  28.906  1.00  0.00     0.010 A 
ATOM     12  C   UNL A   1      35.482  32.763  30.746  1.00  0.00     0.010 A 
ATOM     13  C   UNL A   1      36.685  32.950  30.049  1.00  0.00    -0.014 A 
BRANCH  13  14
ATOM     14  C   UNL A   1      37.968  32.361  30.506  1.00  0.00     0.031 A 
ATOM     15  C   UNL A   1      38.728  32.932  31.670  1.00  0.00     0.074 A 
ATOM     16  C   UNL A   1      38.403  31.244  29.892  1.00  0.00     0.049 A 
ATOM     17  N   UNL A   1      39.830  32.493  32.225  1.00  0.00    -0.248 NA
ATOM     18  C   UNL A   1      38.192  34.153  32.292  1.00  0.00     0.031 C 
ATOM     19  C   UNL A   1      37.751  30.612  28.740  1.00  0.00     0.029 A 
ATOM     20  N   UNL A   1      39.462  30.421  30.165  1.00  0.00    -0.354 N 
ATOM     21  C   UNL A   1      40.127  33.386  33.246  1.00  0.00     0.074 A 
ATOM     22  C   UNL A   1      39.105  34.410  33.221  1.00  0.00     0.031 C 
ATOM     23  C   UNL A   1      38.384  29.468  28.450  1.00  0.00     0.029 A 
ATOM     24  C   UNL A   1      39.526  29.323  29.342  1.00  0.00     0.049 A 
ATOM     25  H   UNL A   1      40.115  30.599  30.880  1.00  0.00     0.167 HD
ATOM     26  C   UNL A   1      41.156  33.347  34.129  1.00  0.00     0.037 A 
ATOM     27  C   UNL A   1      40.415  28.316  29.297  1.00  0.00     0.037 A 
ATOM     28  C   UNL A   1      42.165  32.318  34.152  1.00  0.00     0.049 A 
ATOM     29  C   UNL A   1      41.543  28.304  30.283  1.00  0.00     0.074 A 
ATOM     30  C   UNL A   1      43.249  32.190  35.006  1.00  0.00     0.029 A 
ATOM     31  N   UNL A   1      42.212  31.236  33.285  1.00  0.00    -0.354 N 
ATOM     32  N   UNL A   1      41.805  29.154  31.246  1.00  0.00    -0.248 NA
ATOM     33  C   UNL A   1      42.500  27.197  30.175  1.00  0.00     0.031 C 
ATOM     34  C   UNL A   1      43.969  31.049  34.633  1.00  0.00     0.029 A 
ATOM     35  C   UNL A   1      43.310  30.443  33.576  1.00  0.00     0.049 A 
ATOM     36  H   UNL A   1      41.562  31.059  32.568  1.00  0.00     0.167 HD
ATOM     37  C   UNL A   1      42.956  28.684  31.860  1.00  0.00     0.074 A 
ATOM     38  C   UNL A   1      43.320  27.456  31.184  1.00  0.00     0.031 C 
ATOM     39  C   UNL A   1      43.657  29.227  32.886  1.00  0.00     0.037 A 
BRANCH  26  40
ATOM     40  C   UNL A   1      41.251  34.453  35.140  1.00  0.00     0.057 A 
ATOM     41  C   UNL A   1      41.929  35.648  34.866  1.00  0.00     0.134 A 
ATOM     42  C   UNL A   1      40.607  34.348  36.380  1.00  0.00     0.134 A 
ATOM     43  F   UNL A   1      42.576  35.809  33.701  1.00  0.00    -0.206 F 
ATOM     44  C   UNL A   1      41.975  36.692  35.792  1.00  0.00     0.040 A 
ATOM     45  C   UNL A   1      40.627  35.393  37.305  1.00  0.00     0.040 A 
ATOM     46  F   UNL A   1      39.934  33.234  36.705  1.00  0.00    -0.206 F 
ATOM     47  C   UNL A   1      41.315  36.570  37.013  1.00  0.00     0.006 A 
ENDBRANCH  26  40
BRANCH  27  48
ATOM     48  C   UNL A   1      40.275  27.255  28.270  1.00  0.00     0.057 A 
ATOM     49  C   UNL A   1      40.890  27.365  27.019  1.00  0.00     0.134 A 
ATOM     50  C   UNL A   1      39.534  26.094  28.526  1.00  0.00     0.134 A 
ATOM     51  F   UNL A   1      41.601  28.459  26.710  1.00  0.00    -0.206 F 
ATOM     52  C   UNL A   1      40.758  26.368  26.051  1.00  0.00     0.040 A 
ATOM     53  C   UNL A   1      39.420  25.075  27.581  1.00  0.00     0.040 A 
ATOM     54  F   UNL A   1      38.933  25.922  29.713  1.00  0.00    -0.206 F 
ATOM     55  C   UNL A   1      40.028  25.216  26.335  1.00  0.00     0.006 A 
ENDBRANCH  27  48
BRANCH  39  56
ATOM     56  C   UNL A   1      44.875  28.477  33.336  1.00  0.00     0.057 A 
ATOM     57  C   UNL A   1      46.142  28.744  32.801  1.00  0.00     0.134 A 
ATOM     58  C   UNL A   1      44.778  27.479  34.312  1.00  0.00     0.134 A 
ATOM     59  F   UNL A   1      46.295  29.678  31.849  1.00  0.00    -0.206 F 
ATOM     60  C   UNL A   1      47.266  28.022  33.200  1.00  0.00     0.040 A 
ATOM     61  C   UNL A   1      45.901  26.768  34.737  1.00  0.00     0.040 A 
ATOM     62  F   UNL A   1      43.594  27.180  34.868  1.00  0.00    -0.206 F 
ATOM     63  C   UNL A   1      47.147  27.033  34.175  1.00  0.00     0.006 A 
ENDBRANCH  39  56
ENDBRANCH  13  14
ENDBRANCH   6   8
ENDBRANCH   3   4
ENDBRANCH   2   3
ENDBRANCH   1   2
BRANCH   1  64
ATOM     64  C   UNL A   1      31.952  29.598  25.080  1.00  0.00     0.116 C 
BRANCH  64  65
ATOM     65  N   UNL A   1      30.982  30.099  24.119  1.00  0.00    -0.352 N 
ATOM     66  C   UNL A   1      30.308  29.402  23.146  1.00  0.00     0.251 C 
ATOM     67  H   UNL A   1      30.782  31.062  24.173  1.00  0.00     0.163 HD
ATOM     68  O   UNL A   1      29.634  29.994  22.307  1.00  0.00    -0.269 OA
BRANCH  66  69
ATOM     69  C   UNL A   1      30.353  27.923  23.133  1.00  0.00     0.041 A 
ATOM     70  C   UNL A   1      29.268  27.172  23.581  1.00  0.00     0.014 A 
ATOM     71  C   UNL A   1      31.524  27.280  22.742  1.00  0.00     0.036 A 
ATOM     72  C   UNL A   1      29.361  25.775  23.608  1.00  0.00     0.002 A 
ATOM     73  C   UNL A   1      31.636  25.897  22.800  1.00  0.00     0.088 A 
ATOM     74  C   UNL A   1      30.546  25.133  23.220  1.00  0.00     0.022 A 
BRANCH  73  75
ATOM     75  S   UNL A   1      33.117  25.157  22.166  1.00  0.00     0.261 S 
ATOM     76  O   UNL A   1      32.854  24.770  20.790  1.00  0.00    -0.201 OA
ATOM     77  O   UNL A   1      34.206  26.054  22.474  1.00  0.00    -0.201 OA
BRANCH  75  78
ATOM     78  N   UNL A   1      33.384  23.700  22.990  1.00  0.00    -0.278 N 
ATOM     79  H   UNL A   1      32.706  22.987  22.969  1.00  0.00     0.180 HD
BRANCH  78  80
ATOM     80  C   UNL A   1      34.612  23.512  23.722  1.00  0.00     0.072 A 
ATOM     81  C   UNL A   1      35.754  23.073  23.036  1.00  0.00     0.029 A 
ATOM     82  C   UNL A   1      34.679  23.888  25.092  1.00  0.00     0.061 A 
ATOM     83  C   UNL A   1      36.982  23.001  23.692  1.00  0.00     0.002 A 
ATOM     84  C   UNL A   1      35.935  23.806  25.717  1.00  0.00     0.028 A 
ATOM     85  C   UNL A   1      37.073  23.367  25.030  1.00  0.00     0.002 A 
BRANCH  82  86
ATOM     86  N   UNL A   1      33.573  24.388  25.768  1.00  0.00    -0.365 N 
ATOM     87  C   UNL A   1      32.751  23.487  26.592  1.00  0.00     0.145 C 
ATOM     88  C   UNL A   1      33.468  25.803  26.164  1.00  0.00     0.145 C 
ATOM     89  C   UNL A   1      31.299  23.983  26.577  1.00  0.00     0.181 C 
ATOM     90  C   UNL A   1      31.986  26.214  26.232  1.00  0.00     0.181 C 
ATOM     91  O   UNL A   1      31.213  25.333  27.066  1.00  0.00    -0.378 OA
ENDBRANCH  82  86
ENDBRANCH  78  80
ENDBRANCH  75  78
ENDBRANCH  73  75
ENDBRANCH  66  69
ENDBRANCH  64  65
ENDBRANCH   1  64
TORSDOF 15
ENDMDL
MODEL 3
REMARK VINA RESULT:     -12.1      2.346      7.403
REMARK SMILES O=C(NCCCCNC(=O)c1cccc(S(=O)(=O)Nc2ccccc2N2CCOCC2)c1)c1ccc(-c2c3nc(c(-c4c(F)cccc4F)c4ccc([nH]4)c(-c4c(F)cccc4F)c4nc(c(-c5c(F)cccc5F)c5ccc2[nH]5)C=C4)C=C3)cc1
REMARK SMILES IDX 6 1 5 2 4 3 3 4 1 5 2 6 33 8 34 9 86 10 35 11 85 12 36 13
REMARK SMILES IDX 37 14 38 15 79 16 39 17 84 18 78 19 80 20 40 21 83 22 77 23
REMARK SMILES IDX 76 24 41 26 67 27 50 28 66 29 51 30 54 31 65 32 81 33 52 34
REMARK SMILES IDX 53 35 64 37 82 38 55 39 42 40 43 41 48 42 44 43 45 44 47 45
REMARK SMILES IDX 49 46 46 47 68 48 69 49 74 50 70 51 71 52 73 53 75 54 72 55
REMARK SMILES IDX 56 56 57 57 62 58 58 59 59 60 61 61 63 62 60 63 7 64 8 65
REMARK SMILES IDX 9 66 10 68 11 69 12 70 32 71 13 72 15 73 14 74 16 75 17 76
REMARK SMILES IDX 18 77 19 78 20 80 21 81 25 82 22 83 24 84 23 85 26 86 27 87
REMARK SMILES IDX 31 88 28 89 30 90 29 91
REMARK H PARENT 3 7 80 25 54 36 8 67 19 79
REMARK Flexibility Score: inf
ROOT
ATOM      1  C   UNL A   1      32.904  29.699  25.146  1.00  0.00     0.023 C 
ENDROOT
BRANCH   1   2
ATOM      2  C   UNL A   1      33.629  28.477  25.694  1.00  0.00     0.023 C 
BRANCH   2   3
ATOM      3  C   UNL A   1      33.913  28.525  27.188  1.00  0.00     0.116 C 
BRANCH   3   4
ATOM      4  N   UNL A   1      33.861  29.875  27.739  1.00  0.00    -0.352 N 
ATOM      5  O   UNL A   1      34.577  31.660  28.934  1.00  0.00    -0.269 OA
ATOM      6  C   UNL A   1      34.833  30.586  28.403  1.00  0.00     0.251 C 
ATOM      7  H   UNL A   1      33.005  30.345  27.618  1.00  0.00     0.163 HD
BRANCH   6   8
ATOM      8  C   UNL A   1      36.193  30.021  28.489  1.00  0.00     0.039 A 
ATOM      9  C   UNL A   1      36.611  29.415  29.672  1.00  0.00     0.014 A 
ATOM     10  C   UNL A   1      37.068  30.151  27.408  1.00  0.00     0.014 A 
ATOM     11  C   UNL A   1      37.953  29.123  29.847  1.00  0.00     0.010 A 
ATOM     12  C   UNL A   1      38.398  29.745  27.548  1.00  0.00     0.010 A 
ATOM     13  C   UNL A   1      38.861  29.268  28.784  1.00  0.00    -0.014 A 
BRANCH  13  14
ATOM     14  C   UNL A   1      40.269  28.852  28.998  1.00  0.00     0.031 A 
ATOM     15  C   UNL A   1      40.768  27.504  28.562  1.00  0.00     0.074 A 
ATOM     16  C   UNL A   1      41.117  29.752  29.532  1.00  0.00     0.049 A 
ATOM     17  N   UNL A   1      41.983  27.019  28.626  1.00  0.00    -0.248 NA
ATOM     18  C   UNL A   1      39.785  26.574  27.985  1.00  0.00     0.031 C 
ATOM     19  C   UNL A   1      40.735  31.086  30.006  1.00  0.00     0.029 A 
ATOM     20  N   UNL A   1      42.470  29.704  29.734  1.00  0.00    -0.354 N 
ATOM     21  C   UNL A   1      41.910  25.730  28.114  1.00  0.00     0.074 A 
ATOM     22  C   UNL A   1      40.525  25.494  27.767  1.00  0.00     0.031 C 
ATOM     23  C   UNL A   1      41.835  31.753  30.378  1.00  0.00     0.029 A 
ATOM     24  C   UNL A   1      42.987  30.872  30.241  1.00  0.00     0.049 A 
ATOM     25  H   UNL A   1      43.019  28.911  29.535  1.00  0.00     0.167 HD
ATOM     26  C   UNL A   1      42.911  24.832  27.943  1.00  0.00     0.037 A 
ATOM     27  C   UNL A   1      44.248  31.194  30.576  1.00  0.00     0.037 A 
ATOM     28  C   UNL A   1      44.290  25.079  28.283  1.00  0.00     0.049 A 
ATOM     29  C   UNL A   1      45.331  30.178  30.379  1.00  0.00     0.074 A 
ATOM     30  C   UNL A   1      45.378  24.233  28.150  1.00  0.00     0.029 A 
ATOM     31  N   UNL A   1      44.771  26.264  28.821  1.00  0.00    -0.354 N 
ATOM     32  N   UNL A   1      45.244  28.966  29.889  1.00  0.00    -0.248 NA
ATOM     33  C   UNL A   1      46.685  30.571  30.785  1.00  0.00     0.031 C 
ATOM     34  C   UNL A   1      46.511  24.894  28.637  1.00  0.00     0.029 A 
ATOM     35  C   UNL A   1      46.137  26.168  29.033  1.00  0.00     0.049 A 
ATOM     36  H   UNL A   1      44.223  27.056  29.023  1.00  0.00     0.167 HD
ATOM     37  C   UNL A   1      46.531  28.451  29.924  1.00  0.00     0.074 A 
ATOM     38  C   UNL A   1      47.384  29.496  30.451  1.00  0.00     0.031 C 
ATOM     39  C   UNL A   1      46.966  27.219  29.565  1.00  0.00     0.037 A 
BRANCH  26  40
ATOM     40  C   UNL A   1      42.554  23.491  27.369  1.00  0.00     0.057 A 
ATOM     41  C   UNL A   1      42.667  23.220  25.999  1.00  0.00     0.134 A 
ATOM     42  C   UNL A   1      42.150  22.440  28.201  1.00  0.00     0.134 A 
ATOM     43  F   UNL A   1      43.039  24.186  25.144  1.00  0.00    -0.206 F 
ATOM     44  C   UNL A   1      42.379  21.958  25.476  1.00  0.00     0.040 A 
ATOM     45  C   UNL A   1      41.879  21.167  27.694  1.00  0.00     0.040 A 
ATOM     46  F   UNL A   1      42.027  22.627  29.524  1.00  0.00    -0.206 F 
ATOM     47  C   UNL A   1      41.991  20.924  26.327  1.00  0.00     0.006 A 
ENDBRANCH  26  40
BRANCH  27  48
ATOM     48  C   UNL A   1      44.539  32.532  31.148  1.00  0.00     0.057 A 
ATOM     49  C   UNL A   1      44.460  32.771  32.523  1.00  0.00     0.134 A 
ATOM     50  C   UNL A   1      44.920  33.601  30.326  1.00  0.00     0.134 A 
ATOM     51  F   UNL A   1      44.087  31.790  33.358  1.00  0.00    -0.206 F 
ATOM     52  C   UNL A   1      44.733  34.029  33.061  1.00  0.00     0.040 A 
ATOM     53  C   UNL A   1      45.226  34.855  30.853  1.00  0.00     0.040 A 
ATOM     54  F   UNL A   1      45.028  33.432  29.000  1.00  0.00    -0.206 F 
ATOM     55  C   UNL A   1      45.124  35.073  32.226  1.00  0.00     0.006 A 
ENDBRANCH  27  48
BRANCH  39  56
ATOM     56  C   UNL A   1      48.434  26.955  29.720  1.00  0.00     0.057 A 
ATOM     57  C   UNL A   1      49.351  27.284  28.712  1.00  0.00     0.134 A 
ATOM     58  C   UNL A   1      48.934  26.365  30.886  1.00  0.00     0.134 A 
ATOM     59  F   UNL A   1      48.929  27.836  27.564  1.00  0.00    -0.206 F 
ATOM     60  C   UNL A   1      50.710  27.006  28.847  1.00  0.00     0.040 A 
ATOM     61  C   UNL A   1      50.296  26.106  31.042  1.00  0.00     0.040 A 
ATOM     62  F   UNL A   1      48.109  26.031  31.890  1.00  0.00    -0.206 F 
ATOM     63  C   UNL A   1      51.187  26.419  30.018  1.00  0.00     0.006 A 
ENDBRANCH  39  56
ENDBRANCH  13  14
ENDBRANCH   6   8
ENDBRANCH   3   4
ENDBRANCH   2   3
ENDBRANCH   1   2
BRANCH   1  64
ATOM     64  C   UNL A   1      31.388  29.593  25.165  1.00  0.00     0.116 C 
BRANCH  64  65
ATOM     65  N   UNL A   1      30.786  29.987  23.901  1.00  0.00    -0.352 N 
ATOM     66  C   UNL A   1      30.425  29.188  22.843  1.00  0.00     0.251 C 
ATOM     67  H   UNL A   1      30.613  30.950  23.789  1.00  0.00     0.163 HD
ATOM     68  O   UNL A   1      30.070  29.686  21.778  1.00  0.00    -0.269 OA
BRANCH  66  69
ATOM     69  C   UNL A   1      30.418  27.717  22.998  1.00  0.00     0.041 A 
ATOM     70  C   UNL A   1      29.308  27.060  23.527  1.00  0.00     0.014 A 
ATOM     71  C   UNL A   1      31.565  26.993  22.685  1.00  0.00     0.036 A 
ATOM     72  C   UNL A   1      29.352  25.673  23.713  1.00  0.00     0.002 A 
ATOM     73  C   UNL A   1      31.629  25.622  22.901  1.00  0.00     0.088 A 
ATOM     74  C   UNL A   1      30.514  24.950  23.403  1.00  0.00     0.022 A 
BRANCH  73  75
ATOM     75  S   UNL A   1      33.082  24.764  22.357  1.00  0.00     0.261 S 
ATOM     76  O   UNL A   1      32.740  23.356  22.248  1.00  0.00    -0.201 OA
ATOM     77  O   UNL A   1      33.595  25.479  21.211  1.00  0.00    -0.201 OA
BRANCH  75  78
ATOM     78  N   UNL A   1      34.243  24.841  23.589  1.00  0.00    -0.278 N 
ATOM     79  H   UNL A   1      34.468  25.703  24.006  1.00  0.00     0.180 HD
BRANCH  78  80
ATOM     80  C   UNL A   1      34.900  23.633  24.024  1.00  0.00     0.072 A 
ATOM     81  C   UNL A   1      36.077  23.227  23.378  1.00  0.00     0.029 A 
ATOM     82  C   UNL A   1      34.417  22.942  25.170  1.00  0.00     0.061 A 
ATOM     83  C   UNL A   1      36.800  22.135  23.856  1.00  0.00     0.002 A 
ATOM     84  C   UNL A   1      35.175  21.848  25.624  1.00  0.00     0.028 A 
ATOM     85  C   UNL A   1      36.349  21.446  24.977  1.00  0.00     0.002 A 
BRANCH  82  86
ATOM     86  N   UNL A   1      33.291  23.370  25.860  1.00  0.00    -0.365 N 
ATOM     87  C   UNL A   1      32.380  22.380  26.460  1.00  0.00     0.145 C 
ATOM     88  C   UNL A   1      33.217  24.695  26.500  1.00  0.00     0.145 C 
ATOM     89  C   UNL A   1      30.953  22.944  26.452  1.00  0.00     0.181 C 
ATOM     90  C   UNL A   1      31.751  25.162  26.556  1.00  0.00     0.181 C 
ATOM     91  O   UNL A   1      30.890  24.188  27.171  1.00  0.00    -0.378 OA
ENDBRANCH  82  86
ENDBRANCH  78  80
ENDBRANCH  75  78
ENDBRANCH  73  75
ENDBRANCH  66  69
ENDBRANCH  64  65
ENDBRANCH   1  64
TORSDOF 15
ENDMDL
