MODEL 1
REMARK VINA RESULT:     -11.8      0.000      0.000
REMARK SMILES O=C(NCCCCNC(=O)[C@H]1CC[C@H]2CCCC[C@@H]2N1C(=O)c1ccn[nH]1)c1ccc(-c2c3nc(c(-c4c(F)cccc4F)c4ccc([nH]4)c(-c4c(F)cccc4F)c4nc(c(-c5c(F)cccc5F)c5ccc2[nH]5)C=C4)C=C3)cc1
REMARK SMILES IDX 5 1 4 2 3 3 1 4 2 5 28 7 29 8 81 9 30 10 80 11 31 12 32 13
REMARK SMILES IDX 33 14 74 15 34 16 79 17 73 18 75 19 35 20 78 21 72 22 71 23
REMARK SMILES IDX 36 25 62 26 45 27 61 28 46 29 49 30 60 31 76 32 47 33 48 34
REMARK SMILES IDX 59 36 77 37 50 38 37 39 38 40 43 41 39 42 40 43 42 44 44 45
REMARK SMILES IDX 41 46 63 47 64 48 69 49 65 50 66 51 68 52 70 53 67 54 51 55
REMARK SMILES IDX 52 56 57 57 53 58 54 59 56 60 58 61 55 62 6 63 7 64 8 65
REMARK SMILES IDX 9 66 10 68 11 69 12 70 20 71 13 72 19 73 14 74 18 75 15 76
REMARK SMILES IDX 17 77 16 78 21 79 22 80 23 81 24 82 27 83 25 84 26 85
REMARK H PARENT 3 6 75 24 49 35 8 67 27 86
REMARK Flexibility Score: inf
ROOT
ATOM      1  C   UNL A   1      37.130  20.309  24.994  1.00  0.00     0.023 C 
ENDROOT
BRANCH   1   2
ATOM      2  C   UNL A   1      38.513  20.830  25.385  1.00  0.00     0.116 C 
BRANCH   2   3
ATOM      3  N   UNL A   1      39.497  19.773  25.541  1.00  0.00    -0.352 N 
ATOM      4  O   UNL A   1      41.503  18.818  25.897  1.00  0.00    -0.269 OA
ATOM      5  C   UNL A   1      40.792  19.814  26.001  1.00  0.00     0.251 C 
ATOM      6  H   UNL A   1      39.185  18.879  25.273  1.00  0.00     0.163 HD
BRANCH   5   7
ATOM      7  C   UNL A   1      41.361  21.052  26.583  1.00  0.00     0.039 A 
ATOM      8  C   UNL A   1      41.380  21.279  27.960  1.00  0.00     0.014 A 
ATOM      9  C   UNL A   1      41.931  21.994  25.718  1.00  0.00     0.014 A 
ATOM     10  C   UNL A   1      41.818  22.507  28.457  1.00  0.00     0.010 A 
ATOM     11  C   UNL A   1      42.426  23.202  26.221  1.00  0.00     0.010 A 
ATOM     12  C   UNL A   1      42.328  23.489  27.591  1.00  0.00    -0.014 A 
BRANCH  12  13
ATOM     13  C   UNL A   1      42.703  24.820  28.130  1.00  0.00     0.031 A 
ATOM     14  C   UNL A   1      41.642  25.846  28.427  1.00  0.00     0.074 A 
ATOM     15  C   UNL A   1      43.991  25.093  28.415  1.00  0.00     0.049 A 
ATOM     16  N   UNL A   1      41.778  27.051  28.921  1.00  0.00    -0.248 NA
ATOM     17  C   UNL A   1      40.249  25.476  28.124  1.00  0.00     0.031 C 
ATOM     18  C   UNL A   1      45.123  24.200  28.165  1.00  0.00     0.029 A 
ATOM     19  N   UNL A   1      44.554  26.191  29.015  1.00  0.00    -0.354 N 
ATOM     20  C   UNL A   1      40.505  27.604  28.931  1.00  0.00     0.074 A 
ATOM     21  C   UNL A   1      39.601  26.593  28.425  1.00  0.00     0.031 C 
ATOM     22  C   UNL A   1      46.237  24.756  28.673  1.00  0.00     0.029 A 
ATOM     23  C   UNL A   1      45.895  26.045  29.268  1.00  0.00     0.049 A 
ATOM     24  H   UNL A   1      44.048  27.003  29.242  1.00  0.00     0.167 HD
ATOM     25  C   UNL A   1      40.125  28.846  29.314  1.00  0.00     0.037 A 
ATOM     26  C   UNL A   1      46.747  26.844  29.934  1.00  0.00     0.037 A 
ATOM     27  C   UNL A   1      41.003  29.841  29.870  1.00  0.00     0.049 A 
ATOM     28  C   UNL A   1      46.263  28.136  30.519  1.00  0.00     0.074 A 
ATOM     29  C   UNL A   1      40.727  31.154  30.212  1.00  0.00     0.029 A 
ATOM     30  N   UNL A   1      42.325  29.611  30.207  1.00  0.00    -0.354 N 
ATOM     31  N   UNL A   1      45.073  28.677  30.446  1.00  0.00    -0.248 NA
ATOM     32  C   UNL A   1      47.240  28.924  31.285  1.00  0.00     0.031 C 
ATOM     33  C   UNL A   1      41.879  31.709  30.788  1.00  0.00     0.029 A 
ATOM     34  C   UNL A   1      42.866  30.740  30.798  1.00  0.00     0.049 A 
ATOM     35  H   UNL A   1      42.811  28.769  30.050  1.00  0.00     0.167 HD
ATOM     36  C   UNL A   1      45.158  29.873  31.144  1.00  0.00     0.074 A 
ATOM     37  C   UNL A   1      46.511  29.971  31.653  1.00  0.00     0.031 C 
ATOM     38  C   UNL A   1      44.201  30.814  31.327  1.00  0.00     0.037 A 
BRANCH  25  39
ATOM     39  C   UNL A   1      38.687  29.202  29.119  1.00  0.00     0.057 A 
ATOM     40  C   UNL A   1      37.774  29.157  30.178  1.00  0.00     0.134 A 
ATOM     41  C   UNL A   1      38.218  29.605  27.862  1.00  0.00     0.134 A 
ATOM     42  F   UNL A   1      38.165  28.761  31.398  1.00  0.00    -0.206 F 
ATOM     43  C   UNL A   1      36.434  29.499  29.991  1.00  0.00     0.040 A 
ATOM     44  C   UNL A   1      36.883  29.954  27.664  1.00  0.00     0.040 A 
ATOM     45  F   UNL A   1      39.050  29.657  26.812  1.00  0.00    -0.206 F 
ATOM     46  C   UNL A   1      35.988  29.901  28.731  1.00  0.00     0.006 A 
ENDBRANCH  25  39
BRANCH  26  47
ATOM     47  C   UNL A   1      48.143  26.407  30.140  1.00  0.00     0.057 A 
ATOM     48  C   UNL A   1      48.506  25.709  31.297  1.00  0.00     0.134 A 
ATOM     49  C   UNL A   1      49.133  26.662  29.188  1.00  0.00     0.134 A 
ATOM     50  F   UNL A   1      47.592  25.450  32.244  1.00  0.00    -0.206 F 
ATOM     51  C   UNL A   1      49.815  25.280  31.505  1.00  0.00     0.040 A 
ATOM     52  C   UNL A   1      50.447  26.238  29.380  1.00  0.00     0.040 A 
ATOM     53  F   UNL A   1      48.834  27.333  28.066  1.00  0.00    -0.206 F 
ATOM     54  C   UNL A   1      50.790  25.544  30.541  1.00  0.00     0.006 A 
ENDBRANCH  26  47
BRANCH  38  55
ATOM     55  C   UNL A   1      44.582  32.021  32.118  1.00  0.00     0.057 A 
ATOM     56  C   UNL A   1      45.167  33.133  31.501  1.00  0.00     0.134 A 
ATOM     57  C   UNL A   1      44.347  32.083  33.496  1.00  0.00     0.134 A 
ATOM     58  F   UNL A   1      45.421  33.123  30.184  1.00  0.00    -0.206 F 
ATOM     59  C   UNL A   1      45.510  34.269  32.232  1.00  0.00     0.040 A 
ATOM     60  C   UNL A   1      44.688  33.214  34.238  1.00  0.00     0.040 A 
ATOM     61  F   UNL A   1      43.799  31.041  34.140  1.00  0.00    -0.206 F 
ATOM     62  C   UNL A   1      45.270  34.311  33.605  1.00  0.00     0.006 A 
ENDBRANCH  38  55
ENDBRANCH  12  13
ENDBRANCH   5   7
ENDBRANCH   2   3
ENDBRANCH   1   2
BRANCH   1  63
ATOM     63  C   UNL A   1      35.943  21.237  25.280  1.00  0.00     0.023 C 
BRANCH  63  64
ATOM     64  C   UNL A   1      35.749  22.397  24.304  1.00  0.00     0.116 C 
BRANCH  64  65
ATOM     65  N   UNL A   1      34.515  22.327  23.552  1.00  0.00    -0.354 N 
ATOM     66  C   UNL A   1      33.713  23.336  23.099  1.00  0.00     0.242 C 
ATOM     67  H   UNL A   1      34.207  21.417  23.335  1.00  0.00     0.163 HD
ATOM     68  O   UNL A   1      32.723  22.997  22.440  1.00  0.00    -0.273 OA
BRANCH  66  69
ATOM     69  C   UNL A   1      33.848  24.799  23.614  1.00  0.00     0.175 C 
ATOM     70  C   UNL A   1      33.570  25.654  22.347  1.00  0.00     0.036 C 
ATOM     71  N   UNL A   1      33.047  25.198  24.795  1.00  0.00    -0.322 N 
ATOM     72  C   UNL A   1      32.935  27.012  22.595  1.00  0.00     0.008 C 
ATOM     73  C   UNL A   1      32.861  26.649  25.064  1.00  0.00     0.089 C 
ATOM     74  C   UNL A   1      33.411  27.544  23.930  1.00  0.00     0.012 C 
ATOM     75  C   UNL A   1      33.508  27.147  26.379  1.00  0.00     0.025 C 
ATOM     76  C   UNL A   1      33.008  29.006  24.148  1.00  0.00     0.006 C 
ATOM     77  C   UNL A   1      33.171  28.617  26.641  1.00  0.00     0.002 C 
ATOM     78  C   UNL A   1      33.561  29.520  25.475  1.00  0.00     0.000 C 
BRANCH  71  79
ATOM     79  C   UNL A   1      32.992  24.276  25.854  1.00  0.00     0.272 C 
ATOM     80  O   UNL A   1      34.009  23.917  26.443  1.00  0.00    -0.267 OA
BRANCH  79  81
ATOM     81  C   UNL A   1      31.714  23.688  26.190  1.00  0.00     0.123 A 
ATOM     82  C   UNL A   1      31.119  22.468  25.920  1.00  0.00     0.055 A 
ATOM     83  N   UNL A   1      30.831  24.330  27.019  1.00  0.00    -0.273 N 
ATOM     84  C   UNL A   1      29.880  22.504  26.585  1.00  0.00     0.135 A 
ATOM     85  N   UNL A   1      29.695  23.648  27.243  1.00  0.00    -0.183 NA
ATOM     86  H   UNL A   1      31.013  25.212  27.416  1.00  0.00     0.190 HD
ENDBRANCH  79  81
ENDBRANCH  71  79
ENDBRANCH  66  69
ENDBRANCH  64  65
ENDBRANCH  63  64
ENDBRANCH   1  63
TORSDOF 13
ENDMDL
MODEL 2
REMARK VINA RESULT:     -11.7      0.824      6.274
REMARK SMILES O=C(NCCCCNC(=O)[C@H]1CC[C@H]2CCCC[C@@H]2N1C(=O)c1ccn[nH]1)c1ccc(-c2c3nc(c(-c4c(F)cccc4F)c4ccc([nH]4)c(-c4c(F)cccc4F)c4nc(c(-c5c(F)cccc5F)c5ccc2[nH]5)C=C4)C=C3)cc1
REMARK SMILES IDX 5 1 4 2 3 3 1 4 2 5 28 7 29 8 81 9 30 10 80 11 31 12 32 13
REMARK SMILES IDX 33 14 74 15 34 16 79 17 73 18 75 19 35 20 78 21 72 22 71 23
REMARK SMILES IDX 36 25 62 26 45 27 61 28 46 29 49 30 60 31 76 32 47 33 48 34
REMARK SMILES IDX 59 36 77 37 50 38 37 39 38 40 43 41 39 42 40 43 42 44 44 45
REMARK SMILES IDX 41 46 63 47 64 48 69 49 65 50 66 51 68 52 70 53 67 54 51 55
REMARK SMILES IDX 52 56 57 57 53 58 54 59 56 60 58 61 55 62 6 63 7 64 8 65
REMARK SMILES IDX 9 66 10 68 11 69 12 70 20 71 13 72 19 73 14 74 18 75 15 76
REMARK SMILES IDX 17 77 16 78 21 79 22 80 23 81 24 82 27 83 25 84 26 85
REMARK H PARENT 3 6 75 24 49 35 8 67 27 86
REMARK Flexibility Score: inf
ROOT
ATOM      1  C   UNL A   1      37.682  20.185  24.626  1.00  0.00     0.023 C 
ENDROOT
BRANCH   1   2
ATOM      2  C   UNL A   1      38.661  20.368  25.786  1.00  0.00     0.116 C 
BRANCH   2   3
ATOM      3  N   UNL A   1      39.768  19.428  25.752  1.00  0.00    -0.352 N 
ATOM      4  O   UNL A   1      41.895  18.697  25.802  1.00  0.00    -0.269 OA
ATOM      5  C   UNL A   1      41.097  19.595  26.058  1.00  0.00     0.251 C 
ATOM      6  H   UNL A   1      39.525  18.518  25.461  1.00  0.00     0.163 HD
BRANCH   5   7
ATOM      7  C   UNL A   1      41.594  20.858  26.652  1.00  0.00     0.039 A 
ATOM      8  C   UNL A   1      41.779  21.002  28.028  1.00  0.00     0.014 A 
ATOM      9  C   UNL A   1      41.925  21.914  25.795  1.00  0.00     0.014 A 
ATOM     10  C   UNL A   1      42.137  22.244  28.556  1.00  0.00     0.010 A 
ATOM     11  C   UNL A   1      42.342  23.142  26.320  1.00  0.00     0.010 A 
ATOM     12  C   UNL A   1      42.403  23.332  27.708  1.00  0.00    -0.014 A 
BRANCH  12  13
ATOM     13  C   UNL A   1      42.693  24.665  28.293  1.00  0.00     0.031 A 
ATOM     14  C   UNL A   1      44.115  25.100  28.525  1.00  0.00     0.074 A 
ATOM     15  C   UNL A   1      41.685  25.517  28.560  1.00  0.00     0.049 A 
ATOM     16  N   UNL A   1      44.561  26.233  29.005  1.00  0.00    -0.248 NA
ATOM     17  C   UNL A   1      45.174  24.136  28.183  1.00  0.00     0.031 C 
ATOM     18  C   UNL A   1      40.260  25.225  28.398  1.00  0.00     0.029 A 
ATOM     19  N   UNL A   1      41.713  26.820  28.989  1.00  0.00    -0.354 N 
ATOM     20  C   UNL A   1      45.941  26.098  29.080  1.00  0.00     0.074 A 
ATOM     21  C   UNL A   1      46.265  24.785  28.566  1.00  0.00     0.031 C 
ATOM     22  C   UNL A   1      39.554  26.338  28.656  1.00  0.00     0.029 A 
ATOM     23  C   UNL A   1      40.475  27.414  29.012  1.00  0.00     0.049 A 
ATOM     24  H   UNL A   1      42.539  27.285  29.254  1.00  0.00     0.167 HD
ATOM     25  C   UNL A   1      46.853  26.983  29.548  1.00  0.00     0.037 A 
ATOM     26  C   UNL A   1      40.126  28.688  29.260  1.00  0.00     0.037 A 
ATOM     27  C   UNL A   1      46.551  28.311  30.011  1.00  0.00     0.049 A 
ATOM     28  C   UNL A   1      41.176  29.703  29.594  1.00  0.00     0.074 A 
ATOM     29  C   UNL A   1      47.395  29.250  30.578  1.00  0.00     0.029 A 
ATOM     30  N   UNL A   1      45.303  28.904  29.914  1.00  0.00    -0.354 N 
ATOM     31  N   UNL A   1      42.466  29.535  29.739  1.00  0.00    -0.248 NA
ATOM     32  C   UNL A   1      40.721  31.087  29.791  1.00  0.00     0.031 C 
ATOM     33  C   UNL A   1      46.662  30.426  30.795  1.00  0.00     0.029 A 
ATOM     34  C   UNL A   1      45.364  30.211  30.365  1.00  0.00     0.049 A 
ATOM     35  H   UNL A   1      44.492  28.461  29.575  1.00  0.00     0.167 HD
ATOM     36  C   UNL A   1      42.977  30.785  30.056  1.00  0.00     0.074 A 
ATOM     37  C   UNL A   1      41.862  31.710  30.062  1.00  0.00     0.031 C 
ATOM     38  C   UNL A   1      44.257  31.128  30.336  1.00  0.00     0.037 A 
BRANCH  25  39
ATOM     39  C   UNL A   1      48.273  26.522  29.601  1.00  0.00     0.057 A 
ATOM     40  C   UNL A   1      48.767  25.800  30.692  1.00  0.00     0.134 A 
ATOM     41  C   UNL A   1      49.149  26.794  28.541  1.00  0.00     0.134 A 
ATOM     42  F   UNL A   1      47.976  25.528  31.741  1.00  0.00    -0.206 F 
ATOM     43  C   UNL A   1      50.092  25.364  30.731  1.00  0.00     0.040 A 
ATOM     44  C   UNL A   1      50.474  26.359  28.566  1.00  0.00     0.040 A 
ATOM     45  F   UNL A   1      48.730  27.490  27.475  1.00  0.00    -0.206 F 
ATOM     46  C   UNL A   1      50.947  25.643  29.663  1.00  0.00     0.006 A 
ENDBRANCH  25  39
BRANCH  26  47
ATOM     47  C   UNL A   1      38.710  29.090  29.135  1.00  0.00     0.057 A 
ATOM     48  C   UNL A   1      38.205  29.546  27.913  1.00  0.00     0.134 A 
ATOM     49  C   UNL A   1      37.835  29.015  30.222  1.00  0.00     0.134 A 
ATOM     50  F   UNL A   1      39.011  29.644  26.844  1.00  0.00    -0.206 F 
ATOM     51  C   UNL A   1      36.870  29.920  27.774  1.00  0.00     0.040 A 
ATOM     52  C   UNL A   1      36.496  29.385  30.098  1.00  0.00     0.040 A 
ATOM     53  F   UNL A   1      38.274  28.591  31.416  1.00  0.00    -0.206 F 
ATOM     54  C   UNL A   1      36.011  29.838  28.870  1.00  0.00     0.006 A 
ENDBRANCH  26  47
BRANCH  38  55
ATOM     55  C   UNL A   1      44.518  32.561  30.661  1.00  0.00     0.057 A 
ATOM     56  C   UNL A   1      44.406  33.036  31.973  1.00  0.00     0.134 A 
ATOM     57  C   UNL A   1      44.901  33.467  29.666  1.00  0.00     0.134 A 
ATOM     58  F   UNL A   1      44.035  32.212  32.964  1.00  0.00    -0.206 F 
ATOM     59  C   UNL A   1      44.663  34.370  32.285  1.00  0.00     0.040 A 
ATOM     60  C   UNL A   1      45.160  34.804  29.965  1.00  0.00     0.040 A 
ATOM     61  F   UNL A   1      45.013  33.068  28.390  1.00  0.00    -0.206 F 
ATOM     62  C   UNL A   1      45.043  35.258  31.279  1.00  0.00     0.006 A 
ENDBRANCH  38  55
ENDBRANCH  12  13
ENDBRANCH   5   7
ENDBRANCH   2   3
ENDBRANCH   1   2
BRANCH   1  63
ATOM     63  C   UNL A   1      36.202  20.038  24.997  1.00  0.00     0.023 C 
BRANCH  63  64
ATOM     64  C   UNL A   1      35.362  21.314  24.920  1.00  0.00     0.116 C 
BRANCH  64  65
ATOM     65  N   UNL A   1      34.053  21.116  24.336  1.00  0.00    -0.354 N 
ATOM     66  C   UNL A   1      33.302  21.967  23.575  1.00  0.00     0.242 C 
ATOM     67  H   UNL A   1      33.642  20.239  24.514  1.00  0.00     0.163 HD
ATOM     68  O   UNL A   1      32.220  21.529  23.168  1.00  0.00    -0.273 OA
BRANCH  66  69
ATOM     69  C   UNL A   1      33.624  23.486  23.465  1.00  0.00     0.175 C 
ATOM     70  C   UNL A   1      33.393  23.795  21.960  1.00  0.00     0.036 C 
ATOM     71  N   UNL A   1      32.922  24.415  24.382  1.00  0.00    -0.322 N 
ATOM     72  C   UNL A   1      32.927  25.206  21.641  1.00  0.00     0.008 C 
ATOM     73  C   UNL A   1      32.914  25.865  24.049  1.00  0.00     0.089 C 
ATOM     74  C   UNL A   1      33.516  26.162  22.656  1.00  0.00     0.012 C 
ATOM     75  C   UNL A   1      33.667  26.762  25.061  1.00  0.00     0.025 C 
ATOM     76  C   UNL A   1      33.292  27.627  22.269  1.00  0.00     0.006 C 
ATOM     77  C   UNL A   1      33.511  28.244  24.711  1.00  0.00     0.002 C 
ATOM     78  C   UNL A   1      33.953  28.556  23.285  1.00  0.00     0.000 C 
BRANCH  71  79
ATOM     79  C   UNL A   1      32.806  24.004  25.721  1.00  0.00     0.272 C 
ATOM     80  O   UNL A   1      33.789  23.928  26.454  1.00  0.00    -0.267 OA
BRANCH  79  81
ATOM     81  C   UNL A   1      31.508  23.587  26.204  1.00  0.00     0.123 A 
ATOM     82  C   UNL A   1      30.857  22.369  26.278  1.00  0.00     0.055 A 
ATOM     83  N   UNL A   1      30.663  24.471  26.825  1.00  0.00    -0.273 N 
ATOM     84  C   UNL A   1      29.628  22.640  26.906  1.00  0.00     0.135 A 
ATOM     85  N   UNL A   1      29.501  23.928  27.225  1.00  0.00    -0.183 NA
ATOM     86  H   UNL A   1      30.887  25.419  26.965  1.00  0.00     0.190 HD
ENDBRANCH  79  81
ENDBRANCH  71  79
ENDBRANCH  66  69
ENDBRANCH  64  65
ENDBRANCH  63  64
ENDBRANCH   1  63
TORSDOF 13
ENDMDL
MODEL 3
REMARK VINA RESULT:     -11.7      3.546      5.066
REMARK SMILES O=C(NCCCCNC(=O)[C@H]1CC[C@H]2CCCC[C@@H]2N1C(=O)c1ccn[nH]1)c1ccc(-c2c3nc(c(-c4c(F)cccc4F)c4ccc([nH]4)c(-c4c(F)cccc4F)c4nc(c(-c5c(F)cccc5F)c5ccc2[nH]5)C=C4)C=C3)cc1
REMARK SMILES IDX 5 1 4 2 3 3 1 4 2 5 28 7 29 8 81 9 30 10 80 11 31 12 32 13
REMARK SMILES IDX 33 14 74 15 34 16 79 17 73 18 75 19 35 20 78 21 72 22 71 23
REMARK SMILES IDX 36 25 62 26 45 27 61 28 46 29 49 30 60 31 76 32 47 33 48 34
REMARK SMILES IDX 59 36 77 37 50 38 37 39 38 40 43 41 39 42 40 43 42 44 44 45
REMARK SMILES IDX 41 46 63 47 64 48 69 49 65 50 66 51 68 52 70 53 67 54 51 55
REMARK SMILES IDX 52 56 57 57 53 58 54 59 56 60 58 61 55 62 6 63 7 64 8 65
REMARK SMILES IDX 9 66 10 68 11 69 12 70 20 71 13 72 19 73 14 74 18 75 15 76
REMARK SMILES IDX 17 77 16 78 21 79 22 80 23 81 24 82 27 83 25 84 26 85
REMARK H PARENT 3 6 75 24 49 35 8 67 27 86
REMARK Flexibility Score: inf
ROOT
ATOM      1  C   UNL A   1      37.127  22.601  25.839  1.00  0.00     0.023 C 
ENDROOT
BRANCH   1   2
ATOM      2  C   UNL A   1      38.028  23.756  26.274  1.00  0.00     0.116 C 
BRANCH   2   3
ATOM      3  N   UNL A   1      39.444  23.460  26.130  1.00  0.00    -0.352 N 
ATOM      4  O   UNL A   1      41.667  23.796  26.184  1.00  0.00    -0.269 OA
ATOM      5  C   UNL A   1      40.553  24.150  26.559  1.00  0.00     0.251 C 
ATOM      6  H   UNL A   1      39.641  22.626  25.644  1.00  0.00     0.163 HD
BRANCH   5   7
ATOM      7  C   UNL A   1      40.425  25.341  27.430  1.00  0.00     0.039 A 
ATOM      8  C   UNL A   1      41.121  26.523  27.169  1.00  0.00     0.014 A 
ATOM      9  C   UNL A   1      39.546  25.281  28.518  1.00  0.00     0.014 A 
ATOM     10  C   UNL A   1      41.063  27.580  28.079  1.00  0.00     0.010 A 
ATOM     11  C   UNL A   1      39.441  26.364  29.398  1.00  0.00     0.010 A 
ATOM     12  C   UNL A   1      40.237  27.503  29.213  1.00  0.00    -0.014 A 
BRANCH  12  13
ATOM     13  C   UNL A   1      40.260  28.600  30.213  1.00  0.00     0.031 A 
ATOM     14  C   UNL A   1      39.190  29.658  30.205  1.00  0.00     0.074 A 
ATOM     15  C   UNL A   1      41.205  28.617  31.173  1.00  0.00     0.049 A 
ATOM     16  N   UNL A   1      39.034  30.678  31.011  1.00  0.00    -0.248 NA
ATOM     17  C   UNL A   1      38.166  29.567  29.150  1.00  0.00     0.031 C 
ATOM     18  C   UNL A   1      42.310  27.665  31.294  1.00  0.00     0.029 A 
ATOM     19  N   UNL A   1      41.359  29.449  32.253  1.00  0.00    -0.354 N 
ATOM     20  C   UNL A   1      37.938  31.380  30.529  1.00  0.00     0.074 A 
ATOM     21  C   UNL A   1      37.444  30.655  29.378  1.00  0.00     0.031 C 
ATOM     22  C   UNL A   1      42.987  27.924  32.425  1.00  0.00     0.029 A 
ATOM     23  C   UNL A   1      42.370  29.065  33.097  1.00  0.00     0.049 A 
ATOM     24  H   UNL A   1      40.800  30.244  32.408  1.00  0.00     0.167 HD
ATOM     25  C   UNL A   1      37.400  32.533  30.995  1.00  0.00     0.037 A 
ATOM     26  C   UNL A   1      42.738  29.555  34.294  1.00  0.00     0.037 A 
ATOM     27  C   UNL A   1      37.846  33.234  32.169  1.00  0.00     0.049 A 
ATOM     28  C   UNL A   1      42.005  30.720  34.886  1.00  0.00     0.074 A 
ATOM     29  C   UNL A   1      37.418  34.450  32.674  1.00  0.00     0.029 A 
ATOM     30  N   UNL A   1      38.799  32.751  33.050  1.00  0.00    -0.354 N 
ATOM     31  N   UNL A   1      41.024  31.420  34.375  1.00  0.00    -0.248 NA
ATOM     32  C   UNL A   1      42.428  31.159  36.224  1.00  0.00     0.031 C 
ATOM     33  C   UNL A   1      38.091  34.687  33.881  1.00  0.00     0.029 A 
ATOM     34  C   UNL A   1      38.938  33.618  34.119  1.00  0.00     0.049 A 
ATOM     35  H   UNL A   1      39.304  31.913  32.932  1.00  0.00     0.167 HD
ATOM     36  C   UNL A   1      40.718  32.389  35.320  1.00  0.00     0.074 A 
ATOM     37  C   UNL A   1      41.603  32.175  36.447  1.00  0.00     0.031 C 
ATOM     38  C   UNL A   1      39.797  33.379  35.247  1.00  0.00     0.037 A 
BRANCH  25  39
ATOM     39  C   UNL A   1      36.274  33.118  30.207  1.00  0.00     0.057 A 
ATOM     40  C   UNL A   1      34.942  32.937  30.593  1.00  0.00     0.134 A 
ATOM     41  C   UNL A   1      36.529  33.881  29.061  1.00  0.00     0.134 A 
ATOM     42  F   UNL A   1      34.640  32.200  31.673  1.00  0.00    -0.206 F 
ATOM     43  C   UNL A   1      33.894  33.494  29.858  1.00  0.00     0.040 A 
ATOM     44  C   UNL A   1      35.491  34.447  28.321  1.00  0.00     0.040 A 
ATOM     45  F   UNL A   1      37.787  34.079  28.642  1.00  0.00    -0.206 F 
ATOM     46  C   UNL A   1      34.170  34.253  28.720  1.00  0.00     0.006 A 
ENDBRANCH  25  39
BRANCH  26  47
ATOM     47  C   UNL A   1      43.824  28.894  35.046  1.00  0.00     0.057 A 
ATOM     48  C   UNL A   1      43.535  27.891  35.979  1.00  0.00     0.134 A 
ATOM     49  C   UNL A   1      45.163  29.238  34.844  1.00  0.00     0.134 A 
ATOM     50  F   UNL A   1      42.264  27.535  36.215  1.00  0.00    -0.206 F 
ATOM     51  C   UNL A   1      44.547  27.250  36.691  1.00  0.00     0.040 A 
ATOM     52  C   UNL A   1      46.186  28.604  35.547  1.00  0.00     0.040 A 
ATOM     53  F   UNL A   1      45.488  30.198  33.965  1.00  0.00    -0.206 F 
ATOM     54  C   UNL A   1      45.878  27.606  36.473  1.00  0.00     0.006 A 
ENDBRANCH  26  47
BRANCH  38  55
ATOM     55  C   UNL A   1      39.694  34.295  36.421  1.00  0.00     0.057 A 
ATOM     56  C   UNL A   1      40.364  35.524  36.438  1.00  0.00     0.134 A 
ATOM     57  C   UNL A   1      38.909  33.959  37.530  1.00  0.00     0.134 A 
ATOM     58  F   UNL A   1      41.135  35.891  35.404  1.00  0.00    -0.206 F 
ATOM     59  C   UNL A   1      40.259  36.390  37.525  1.00  0.00     0.040 A 
ATOM     60  C   UNL A   1      38.798  34.817  38.624  1.00  0.00     0.040 A 
ATOM     61  F   UNL A   1      38.255  32.789  37.571  1.00  0.00    -0.206 F 
ATOM     62  C   UNL A   1      39.473  36.038  38.622  1.00  0.00     0.006 A 
ENDBRANCH  38  55
ENDBRANCH  12  13
ENDBRANCH   5   7
ENDBRANCH   2   3
ENDBRANCH   1   2
BRANCH   1  63
ATOM     63  C   UNL A   1      37.055  22.318  24.334  1.00  0.00     0.023 C 
BRANCH  63  64
ATOM     64  C   UNL A   1      36.366  23.385  23.484  1.00  0.00     0.116 C 
BRANCH  64  65
ATOM     65  N   UNL A   1      35.036  23.015  23.048  1.00  0.00    -0.354 N 
ATOM     66  C   UNL A   1      33.922  23.790  22.899  1.00  0.00     0.242 C 
ATOM     67  H   UNL A   1      34.918  22.062  22.826  1.00  0.00     0.163 HD
ATOM     68  O   UNL A   1      32.911  23.222  22.469  1.00  0.00    -0.273 OA
BRANCH  66  69
ATOM     69  C   UNL A   1      33.820  25.221  23.502  1.00  0.00     0.175 C 
ATOM     70  C   UNL A   1      33.439  26.101  22.279  1.00  0.00     0.036 C 
ATOM     71  N   UNL A   1      32.942  25.420  24.679  1.00  0.00    -0.322 N 
ATOM     72  C   UNL A   1      32.597  27.328  22.587  1.00  0.00     0.008 C 
ATOM     73  C   UNL A   1      32.529  26.806  25.028  1.00  0.00     0.089 C 
ATOM     74  C   UNL A   1      32.959  27.843  23.964  1.00  0.00     0.012 C 
ATOM     75  C   UNL A   1      33.065  27.314  26.388  1.00  0.00     0.025 C 
ATOM     76  C   UNL A   1      32.331  29.210  24.255  1.00  0.00     0.006 C 
ATOM     77  C   UNL A   1      32.501  28.697  26.724  1.00  0.00     0.002 C 
ATOM     78  C   UNL A   1      32.770  29.720  25.625  1.00  0.00     0.000 C 
BRANCH  71  79
ATOM     79  C   UNL A   1      33.008  24.437  25.682  1.00  0.00     0.272 C 
ATOM     80  O   UNL A   1      34.084  24.076  26.155  1.00  0.00    -0.267 OA
BRANCH  79  81
ATOM     81  C   UNL A   1      31.782  23.788  26.093  1.00  0.00     0.123 A 
ATOM     82  C   UNL A   1      31.247  22.530  25.887  1.00  0.00     0.055 A 
ATOM     83  N   UNL A   1      30.901  24.407  26.942  1.00  0.00    -0.273 N 
ATOM     84  C   UNL A   1      30.038  22.518  26.606  1.00  0.00     0.135 A 
ATOM     85  N   UNL A   1      29.817  23.670  27.237  1.00  0.00    -0.183 NA
ATOM     86  H   UNL A   1      31.049  25.310  27.304  1.00  0.00     0.190 HD
ENDBRANCH  79  81
ENDBRANCH  71  79
ENDBRANCH  66  69
ENDBRANCH  64  65
ENDBRANCH  63  64
ENDBRANCH   1  63
TORSDOF 13
ENDMDL
