MODEL 1
REMARK VINA RESULT:     -12.0      0.000      0.000
REMARK SMILES COC(=O)c1ccc(N2C[C@@H](C(=O)NCCCCNC(=O)c3ccc(-c4c5nc(c(-c6c(F)cccc6F)c6ccc([nH]6)c(-c6c(F)cccc6F)c6nc(c(-c7c(F)cccc7F)c7ccc4[nH]7)C=C6)C=C5)cc3)CC2=O)cc1
REMARK SMILES IDX 16 1 15 2 14 3 12 4 13 5 11 7 9 8 10 9 77 10 76 11 78 12
REMARK SMILES IDX 8 13 5 14 6 15 80 16 7 17 79 18 3 19 4 20 2 21 1 22 17 23
REMARK SMILES IDX 18 24 19 25 20 26 21 28 22 29 23 30 75 31 24 32 74 33 25 34
REMARK SMILES IDX 26 35 27 36 68 37 28 38 73 39 67 40 69 41 29 42 72 43 66 44
REMARK SMILES IDX 65 45 30 47 56 48 39 49 55 50 40 51 43 52 54 53 70 54 41 55
REMARK SMILES IDX 42 56 53 58 71 59 44 60 31 61 32 62 37 63 33 64 34 65 36 66
REMARK SMILES IDX 38 67 35 68 57 69 58 70 63 71 59 72 60 73 62 74 64 75 61 76
REMARK SMILES IDX 45 77 46 78 51 79 47 80 48 81 50 82 52 83 49 84
REMARK H PARENT 14 6 19 27 69 46 43 57
REMARK Flexibility Score: inf
ROOT
ATOM      1  C   UNL A   1      36.907  20.631  24.850  1.00  0.00     0.023 C 
ENDROOT
BRANCH   1   2
ATOM      2  C   UNL A   1      37.090  21.859  25.742  1.00  0.00     0.116 C 
BRANCH   2   3
ATOM      3  N   UNL A   1      35.882  22.174  26.480  1.00  0.00    -0.356 N 
ATOM      4  C   UNL A   1      34.986  23.186  26.354  1.00  0.00     0.225 C 
ATOM      5  O   UNL A   1      34.030  23.192  27.135  1.00  0.00    -0.275 OA
ATOM      6  H   UNL A   1      35.673  21.540  27.202  1.00  0.00     0.163 HD
BRANCH   4   7
ATOM      7  C   UNL A   1      35.089  24.255  25.285  1.00  0.00     0.107 C 
ATOM      8  N   UNL A   1      33.505  25.563  24.120  1.00  0.00    -0.312 N 
ATOM      9  C   UNL A   1      34.033  25.332  25.443  1.00  0.00     0.139 C 
ATOM     10  C   UNL A   1      33.965  24.630  23.192  1.00  0.00     0.227 C 
ATOM     11  C   UNL A   1      35.005  23.761  23.852  1.00  0.00     0.116 C 
ATOM     12  O   UNL A   1      33.653  24.512  22.016  1.00  0.00    -0.274 OA
BRANCH   8  13
ATOM     13  C   UNL A   1      32.578  26.599  23.850  1.00  0.00     0.044 A 
ATOM     14  C   UNL A   1      30.746  28.656  23.251  1.00  0.00     0.060 A 
ATOM     15  C   UNL A   1      32.090  28.787  22.898  1.00  0.00     0.018 A 
ATOM     16  C   UNL A   1      30.310  27.501  23.903  1.00  0.00     0.018 A 
ATOM     17  C   UNL A   1      33.002  27.779  23.222  1.00  0.00     0.027 A 
ATOM     18  C   UNL A   1      31.220  26.470  24.177  1.00  0.00     0.027 A 
BRANCH  14  19
ATOM     19  C   UNL A   1      29.825  29.755  22.887  1.00  0.00     0.337 C 
ATOM     20  O   UNL A   1      29.472  30.622  23.673  1.00  0.00    -0.246 OA
BRANCH  19  21
ATOM     21  O   UNL A   1      29.383  29.588  21.618  1.00  0.00    -0.465 OA
ATOM     22  C   UNL A   1      28.287  30.441  21.278  1.00  0.00     0.282 C 
ENDBRANCH  19  21
ENDBRANCH  14  19
ENDBRANCH   8  13
ENDBRANCH   4   7
ENDBRANCH   2   3
ENDBRANCH   1   2
BRANCH   1  23
ATOM     23  C   UNL A   1      38.021  19.587  24.959  1.00  0.00     0.023 C 
BRANCH  23  24
ATOM     24  C   UNL A   1      39.240  20.017  25.765  1.00  0.00     0.116 C 
BRANCH  24  25
ATOM     25  N   UNL A   1      40.264  18.988  25.842  1.00  0.00    -0.352 N 
ATOM     26  C   UNL A   1      41.613  19.123  26.075  1.00  0.00     0.251 C 
ATOM     27  H   UNL A   1      39.949  18.065  25.708  1.00  0.00     0.163 HD
ATOM     28  O   UNL A   1      42.358  18.154  25.976  1.00  0.00    -0.269 OA
BRANCH  26  29
ATOM     29  C   UNL A   1      42.167  20.450  26.412  1.00  0.00     0.039 A 
ATOM     30  C   UNL A   1      42.573  21.295  25.377  1.00  0.00     0.014 A 
ATOM     31  C   UNL A   1      42.259  20.871  27.741  1.00  0.00     0.014 A 
ATOM     32  C   UNL A   1      43.001  22.592  25.670  1.00  0.00     0.010 A 
ATOM     33  C   UNL A   1      42.607  22.187  28.026  1.00  0.00     0.010 A 
ATOM     34  C   UNL A   1      42.981  23.062  26.994  1.00  0.00    -0.014 A 
BRANCH  34  35
ATOM     35  C   UNL A   1      43.339  24.467  27.318  1.00  0.00     0.031 A 
ATOM     36  C   UNL A   1      44.776  24.908  27.282  1.00  0.00     0.074 A 
ATOM     37  C   UNL A   1      42.380  25.327  27.710  1.00  0.00     0.049 A 
ATOM     38  N   UNL A   1      45.294  26.067  27.600  1.00  0.00    -0.248 NA
ATOM     39  C   UNL A   1      45.765  23.903  26.860  1.00  0.00     0.031 C 
ATOM     40  C   UNL A   1      40.955  25.011  27.830  1.00  0.00     0.029 A 
ATOM     41  N   UNL A   1      42.459  26.643  28.090  1.00  0.00    -0.354 N 
ATOM     42  C   UNL A   1      46.664  25.929  27.426  1.00  0.00     0.074 A 
ATOM     43  C   UNL A   1      46.905  24.557  27.034  1.00  0.00     0.031 C 
ATOM     44  C   UNL A   1      40.292  26.109  28.225  1.00  0.00     0.029 A 
ATOM     45  C   UNL A   1      41.246  27.193  28.430  1.00  0.00     0.049 A 
ATOM     46  H   UNL A   1      43.305  27.146  28.116  1.00  0.00     0.167 HD
ATOM     47  C   UNL A   1      47.635  26.866  27.552  1.00  0.00     0.037 A 
ATOM     48  C   UNL A   1      40.939  28.431  28.865  1.00  0.00     0.037 A 
ATOM     49  C   UNL A   1      47.391  28.234  27.927  1.00  0.00     0.049 A 
ATOM     50  C   UNL A   1      42.038  29.446  29.024  1.00  0.00     0.074 A 
ATOM     51  C   UNL A   1      48.300  29.272  28.037  1.00  0.00     0.029 A 
ATOM     52  N   UNL A   1      46.149  28.754  28.259  1.00  0.00    -0.354 N 
ATOM     53  N   UNL A   1      43.322  29.320  28.793  1.00  0.00    -0.248 NA
ATOM     54  C   UNL A   1      41.641  30.778  29.503  1.00  0.00     0.031 C 
ATOM     55  C   UNL A   1      47.615  30.408  28.484  1.00  0.00     0.029 A 
ATOM     56  C   UNL A   1      46.270  30.092  28.596  1.00  0.00     0.049 A 
ATOM     57  H   UNL A   1      45.305  28.248  28.254  1.00  0.00     0.167 HD
ATOM     58  C   UNL A   1      43.882  30.561  29.064  1.00  0.00     0.074 A 
ATOM     59  C   UNL A   1      42.795  31.431  29.466  1.00  0.00     0.031 C 
ATOM     60  C   UNL A   1      45.179  30.948  28.985  1.00  0.00     0.037 A 
BRANCH  47  61
ATOM     61  C   UNL A   1      49.049  26.438  27.280  1.00  0.00     0.057 A 
ATOM     62  C   UNL A   1      49.886  25.965  28.300  1.00  0.00     0.134 A 
ATOM     63  C   UNL A   1      49.571  26.474  25.982  1.00  0.00     0.134 A 
ATOM     64  F   UNL A   1      49.453  25.916  29.568  1.00  0.00    -0.206 F 
ATOM     65  C   UNL A   1      51.202  25.575  28.043  1.00  0.00     0.040 A 
ATOM     66  C   UNL A   1      50.876  26.057  25.707  1.00  0.00     0.040 A 
ATOM     67  F   UNL A   1      48.823  26.909  24.957  1.00  0.00    -0.206 F 
ATOM     68  C   UNL A   1      51.698  25.614  26.741  1.00  0.00     0.006 A 
ENDBRANCH  47  61
BRANCH  48  69
ATOM     69  C   UNL A   1      39.528  28.790  29.157  1.00  0.00     0.057 A 
ATOM     70  C   UNL A   1      38.991  28.617  30.438  1.00  0.00     0.134 A 
ATOM     71  C   UNL A   1      38.680  29.300  28.166  1.00  0.00     0.134 A 
ATOM     72  F   UNL A   1      39.748  28.115  31.424  1.00  0.00    -0.206 F 
ATOM     73  C   UNL A   1      37.657  28.916  30.719  1.00  0.00     0.040 A 
ATOM     74  C   UNL A   1      37.352  29.629  28.440  1.00  0.00     0.040 A 
ATOM     75  F   UNL A   1      39.134  29.497  26.920  1.00  0.00    -0.206 F 
ATOM     76  C   UNL A   1      36.834  29.429  29.719  1.00  0.00     0.006 A 
ENDBRANCH  48  69
BRANCH  60  77
ATOM     77  C   UNL A   1      45.489  32.384  29.297  1.00  0.00     0.057 A 
ATOM     78  C   UNL A   1      45.879  32.800  30.576  1.00  0.00     0.134 A 
ATOM     79  C   UNL A   1      45.434  33.358  28.290  1.00  0.00     0.134 A 
ATOM     80  F   UNL A   1      45.940  31.920  31.588  1.00  0.00    -0.206 F 
ATOM     81  C   UNL A   1      46.179  34.135  30.849  1.00  0.00     0.040 A 
ATOM     82  C   UNL A   1      45.760  34.690  28.544  1.00  0.00     0.040 A 
ATOM     83  F   UNL A   1      45.077  33.026  27.041  1.00  0.00    -0.206 F 
ATOM     84  C   UNL A   1      46.128  35.084  29.829  1.00  0.00     0.006 A 
ENDBRANCH  60  77
ENDBRANCH  34  35
ENDBRANCH  26  29
ENDBRANCH  24  25
ENDBRANCH  23  24
ENDBRANCH   1  23
TORSDOF 14
ENDMDL
MODEL 2
REMARK VINA RESULT:     -11.9      4.757     10.120
REMARK SMILES COC(=O)c1ccc(N2C[C@@H](C(=O)NCCCCNC(=O)c3ccc(-c4c5nc(c(-c6c(F)cccc6F)c6ccc([nH]6)c(-c6c(F)cccc6F)c6nc(c(-c7c(F)cccc7F)c7ccc4[nH]7)C=C6)C=C5)cc3)CC2=O)cc1
REMARK SMILES IDX 16 1 15 2 14 3 12 4 13 5 11 7 9 8 10 9 77 10 76 11 78 12
REMARK SMILES IDX 8 13 5 14 6 15 80 16 7 17 79 18 3 19 4 20 2 21 1 22 17 23
REMARK SMILES IDX 18 24 19 25 20 26 21 28 22 29 23 30 75 31 24 32 74 33 25 34
REMARK SMILES IDX 26 35 27 36 68 37 28 38 73 39 67 40 69 41 29 42 72 43 66 44
REMARK SMILES IDX 65 45 30 47 56 48 39 49 55 50 40 51 43 52 54 53 70 54 41 55
REMARK SMILES IDX 42 56 53 58 71 59 44 60 31 61 32 62 37 63 33 64 34 65 36 66
REMARK SMILES IDX 38 67 35 68 57 69 58 70 63 71 59 72 60 73 62 74 64 75 61 76
REMARK SMILES IDX 45 77 46 78 51 79 47 80 48 81 50 82 52 83 49 84
REMARK H PARENT 14 6 19 27 69 46 43 57
REMARK Flexibility Score: inf
ROOT
ATOM      1  C   UNL A   1      31.691  30.568  26.253  1.00  0.00     0.023 C 
ENDROOT
BRANCH   1   2
ATOM      2  C   UNL A   1      33.141  30.087  26.260  1.00  0.00     0.116 C 
BRANCH   2   3
ATOM      3  N   UNL A   1      33.477  29.372  25.043  1.00  0.00    -0.356 N 
ATOM      4  C   UNL A   1      33.674  28.051  24.798  1.00  0.00     0.225 C 
ATOM      5  O   UNL A   1      33.947  27.728  23.639  1.00  0.00    -0.275 OA
ATOM      6  H   UNL A   1      33.581  29.947  24.253  1.00  0.00     0.163 HD
BRANCH   4   7
ATOM      7  C   UNL A   1      33.528  26.981  25.861  1.00  0.00     0.107 C 
ATOM      8  N   UNL A   1      32.920  24.700  25.814  1.00  0.00    -0.312 N 
ATOM      9  C   UNL A   1      33.943  25.612  25.361  1.00  0.00     0.139 C 
ATOM     10  C   UNL A   1      31.825  25.360  26.368  1.00  0.00     0.227 C 
ATOM     11  C   UNL A   1      32.139  26.832  26.456  1.00  0.00     0.116 C 
ATOM     12  O   UNL A   1      30.777  24.882  26.776  1.00  0.00    -0.274 OA
BRANCH   8  13
ATOM     13  C   UNL A   1      33.030  23.298  25.642  1.00  0.00     0.044 A 
ATOM     14  C   UNL A   1      33.292  20.518  25.252  1.00  0.00     0.060 A 
ATOM     15  C   UNL A   1      32.904  21.344  24.194  1.00  0.00     0.018 A 
ATOM     16  C   UNL A   1      33.550  21.076  26.506  1.00  0.00     0.018 A 
ATOM     17  C   UNL A   1      32.746  22.717  24.398  1.00  0.00     0.027 A 
ATOM     18  C   UNL A   1      33.443  22.462  26.689  1.00  0.00     0.027 A 
BRANCH  14  19
ATOM     19  C   UNL A   1      33.439  19.072  24.982  1.00  0.00     0.337 C 
ATOM     20  O   UNL A   1      34.337  18.605  24.297  1.00  0.00    -0.246 OA
BRANCH  19  21
ATOM     21  O   UNL A   1      32.397  18.392  25.517  1.00  0.00    -0.465 OA
ATOM     22  C   UNL A   1      32.663  17.002  25.716  1.00  0.00     0.282 C 
ENDBRANCH  19  21
ENDBRANCH  14  19
ENDBRANCH   8  13
ENDBRANCH   4   7
ENDBRANCH   2   3
ENDBRANCH   1   2
BRANCH   1  23
ATOM     23  C   UNL A   1      31.492  32.015  26.713  1.00  0.00     0.023 C 
BRANCH  23  24
ATOM     24  C   UNL A   1      32.746  32.713  27.225  1.00  0.00     0.116 C 
BRANCH  24  25
ATOM     25  N   UNL A   1      32.494  34.068  27.689  1.00  0.00    -0.352 N 
ATOM     26  C   UNL A   1      33.157  34.791  28.653  1.00  0.00     0.251 C 
ATOM     27  H   UNL A   1      31.745  34.533  27.252  1.00  0.00     0.163 HD
ATOM     28  O   UNL A   1      32.727  35.882  29.012  1.00  0.00    -0.269 OA
BRANCH  26  29
ATOM     29  C   UNL A   1      34.372  34.232  29.280  1.00  0.00     0.039 A 
ATOM     30  C   UNL A   1      34.241  33.455  30.432  1.00  0.00     0.014 A 
ATOM     31  C   UNL A   1      35.633  34.450  28.717  1.00  0.00     0.014 A 
ATOM     32  C   UNL A   1      35.365  32.833  30.978  1.00  0.00     0.010 A 
ATOM     33  C   UNL A   1      36.737  33.765  29.213  1.00  0.00     0.010 A 
ATOM     34  C   UNL A   1      36.615  32.949  30.348  1.00  0.00    -0.014 A 
BRANCH  34  35
ATOM     35  C   UNL A   1      37.805  32.218  30.855  1.00  0.00     0.031 A 
ATOM     36  C   UNL A   1      38.546  32.725  32.061  1.00  0.00     0.074 A 
ATOM     37  C   UNL A   1      38.258  31.138  30.191  1.00  0.00     0.049 A 
ATOM     38  N   UNL A   1      39.643  32.269  32.611  1.00  0.00    -0.248 NA
ATOM     39  C   UNL A   1      37.996  33.921  32.720  1.00  0.00     0.031 C 
ATOM     40  C   UNL A   1      37.655  30.571  28.983  1.00  0.00     0.029 A 
ATOM     41  N   UNL A   1      39.337  30.326  30.434  1.00  0.00    -0.354 N 
ATOM     42  C   UNL A   1      39.918  33.124  33.670  1.00  0.00     0.074 A 
ATOM     43  C   UNL A   1      38.911  34.162  33.648  1.00  0.00     0.031 C 
ATOM     44  C   UNL A   1      38.356  29.488  28.607  1.00  0.00     0.029 A 
ATOM     45  C   UNL A   1      39.480  29.310  29.520  1.00  0.00     0.049 A 
ATOM     46  H   UNL A   1      39.951  30.458  31.192  1.00  0.00     0.167 HD
ATOM     47  C   UNL A   1      40.905  33.039  34.594  1.00  0.00     0.037 A 
ATOM     48  C   UNL A   1      40.417  28.346  29.423  1.00  0.00     0.037 A 
ATOM     49  C   UNL A   1      41.897  31.997  34.622  1.00  0.00     0.049 A 
ATOM     50  C   UNL A   1      41.519  28.289  30.446  1.00  0.00     0.074 A 
ATOM     51  C   UNL A   1      42.910  31.795  35.544  1.00  0.00     0.029 A 
ATOM     52  N   UNL A   1      42.006  30.983  33.682  1.00  0.00    -0.354 N 
ATOM     53  N   UNL A   1      41.730  29.066  31.480  1.00  0.00    -0.248 NA
ATOM     54  C   UNL A   1      42.512  27.217  30.287  1.00  0.00     0.031 C 
ATOM     55  C   UNL A   1      43.661  30.689  35.134  1.00  0.00     0.029 A 
ATOM     56  C   UNL A   1      43.083  30.167  33.987  1.00  0.00     0.049 A 
ATOM     57  H   UNL A   1      41.406  30.861  32.910  1.00  0.00     0.167 HD
ATOM     58  C   UNL A   1      42.855  28.559  32.115  1.00  0.00     0.074 A 
ATOM     59  C   UNL A   1      43.276  27.399  31.356  1.00  0.00     0.031 C 
ATOM     60  C   UNL A   1      43.484  29.010  33.228  1.00  0.00     0.037 A 
BRANCH  47  61
ATOM     61  C   UNL A   1      40.954  34.105  35.652  1.00  0.00     0.057 A 
ATOM     62  C   UNL A   1      40.250  33.982  36.858  1.00  0.00     0.134 A 
ATOM     63  C   UNL A   1      41.734  35.254  35.475  1.00  0.00     0.134 A 
ATOM     64  F   UNL A   1      39.474  32.912  37.086  1.00  0.00    -0.206 F 
ATOM     65  C   UNL A   1      40.294  34.978  37.835  1.00  0.00     0.040 A 
ATOM     66  C   UNL A   1      41.811  36.243  36.458  1.00  0.00     0.040 A 
ATOM     67  F   UNL A   1      42.439  35.433  34.348  1.00  0.00    -0.206 F 
ATOM     68  C   UNL A   1      41.082  36.111  37.638  1.00  0.00     0.006 A 
ENDBRANCH  47  61
BRANCH  48  69
ATOM     69  C   UNL A   1      40.343  27.340  28.333  1.00  0.00     0.057 A 
ATOM     70  C   UNL A   1      39.651  26.136  28.511  1.00  0.00     0.134 A 
ATOM     71  C   UNL A   1      40.968  27.548  27.098  1.00  0.00     0.134 A 
ATOM     72  F   UNL A   1      39.047  25.871  29.678  1.00  0.00    -0.206 F 
ATOM     73  C   UNL A   1      39.603  25.165  27.509  1.00  0.00     0.040 A 
ATOM     74  C   UNL A   1      40.905  26.598  26.078  1.00  0.00     0.040 A 
ATOM     75  F   UNL A   1      41.641  28.683  26.861  1.00  0.00    -0.206 F 
ATOM     76  C   UNL A   1      40.227  25.397  26.285  1.00  0.00     0.006 A 
ENDBRANCH  48  69
BRANCH  60  77
ATOM     77  C   UNL A   1      44.666  28.224  33.718  1.00  0.00     0.057 A 
ATOM     78  C   UNL A   1      44.526  27.134  34.586  1.00  0.00     0.134 A 
ATOM     79  C   UNL A   1      45.960  28.540  33.282  1.00  0.00     0.134 A 
ATOM     80  F   UNL A   1      43.316  26.787  35.051  1.00  0.00    -0.206 F 
ATOM     81  C   UNL A   1      45.631  26.403  35.023  1.00  0.00     0.040 A 
ATOM     82  C   UNL A   1      47.069  27.798  33.688  1.00  0.00     0.040 A 
ATOM     83  F   UNL A   1      46.164  29.566  32.442  1.00  0.00    -0.206 F 
ATOM     84  C   UNL A   1      46.908  26.730  34.567  1.00  0.00     0.006 A 
ENDBRANCH  60  77
ENDBRANCH  34  35
ENDBRANCH  26  29
ENDBRANCH  24  25
ENDBRANCH  23  24
ENDBRANCH   1  23
TORSDOF 14
ENDMDL
MODEL 3
REMARK VINA RESULT:     -11.9      5.321     10.052
REMARK SMILES COC(=O)c1ccc(N2C[C@@H](C(=O)NCCCCNC(=O)c3ccc(-c4c5nc(c(-c6c(F)cccc6F)c6ccc([nH]6)c(-c6c(F)cccc6F)c6nc(c(-c7c(F)cccc7F)c7ccc4[nH]7)C=C6)C=C5)cc3)CC2=O)cc1
REMARK SMILES IDX 16 1 15 2 14 3 12 4 13 5 11 7 9 8 10 9 77 10 76 11 78 12
REMARK SMILES IDX 8 13 5 14 6 15 80 16 7 17 79 18 3 19 4 20 2 21 1 22 17 23
REMARK SMILES IDX 18 24 19 25 20 26 21 28 22 29 23 30 75 31 24 32 74 33 25 34
REMARK SMILES IDX 26 35 27 36 68 37 28 38 73 39 67 40 69 41 29 42 72 43 66 44
REMARK SMILES IDX 65 45 30 47 56 48 39 49 55 50 40 51 43 52 54 53 70 54 41 55
REMARK SMILES IDX 42 56 53 58 71 59 44 60 31 61 32 62 37 63 33 64 34 65 36 66
REMARK SMILES IDX 38 67 35 68 57 69 58 70 63 71 59 72 60 73 62 74 64 75 61 76
REMARK SMILES IDX 45 77 46 78 51 79 47 80 48 81 50 82 52 83 49 84
REMARK H PARENT 14 6 19 27 69 46 43 57
REMARK Flexibility Score: inf
ROOT
ATOM      1  C   UNL A   1      31.836  30.458  26.672  1.00  0.00     0.023 C 
ENDROOT
BRANCH   1   2
ATOM      2  C   UNL A   1      33.315  30.081  26.596  1.00  0.00     0.116 C 
BRANCH   2   3
ATOM      3  N   UNL A   1      33.631  29.385  25.363  1.00  0.00    -0.356 N 
ATOM      4  C   UNL A   1      33.685  28.063  25.060  1.00  0.00     0.225 C 
ATOM      5  O   UNL A   1      33.981  27.763  23.900  1.00  0.00    -0.275 OA
ATOM      6  H   UNL A   1      33.845  29.979  24.608  1.00  0.00     0.163 HD
BRANCH   4   7
ATOM      7  C   UNL A   1      33.356  26.972  26.058  1.00  0.00     0.107 C 
ATOM      8  N   UNL A   1      32.666  24.722  25.856  1.00  0.00    -0.312 N 
ATOM      9  C   UNL A   1      33.777  25.599  25.571  1.00  0.00     0.139 C 
ATOM     10  C   UNL A   1      31.536  25.415  26.284  1.00  0.00     0.227 C 
ATOM     11  C   UNL A   1      31.896  26.869  26.462  1.00  0.00     0.116 C 
ATOM     12  O   UNL A   1      30.424  24.974  26.535  1.00  0.00    -0.274 OA
BRANCH   8  13
ATOM     13  C   UNL A   1      32.741  23.322  25.652  1.00  0.00     0.044 A 
ATOM     14  C   UNL A   1      32.859  20.528  25.302  1.00  0.00     0.060 A 
ATOM     15  C   UNL A   1      33.403  21.117  26.445  1.00  0.00     0.018 A 
ATOM     16  C   UNL A   1      32.255  21.329  24.330  1.00  0.00     0.018 A 
ATOM     17  C   UNL A   1      33.369  22.505  26.602  1.00  0.00     0.027 A 
ATOM     18  C   UNL A   1      32.176  22.716  24.521  1.00  0.00     0.027 A 
BRANCH  14  19
ATOM     19  C   UNL A   1      32.925  19.055  25.184  1.00  0.00     0.337 C 
ATOM     20  O   UNL A   1      32.478  18.294  26.030  1.00  0.00    -0.246 OA
BRANCH  19  21
ATOM     21  O   UNL A   1      33.623  18.709  24.077  1.00  0.00    -0.465 OA
ATOM     22  C   UNL A   1      32.931  17.791  23.228  1.00  0.00     0.282 C 
ENDBRANCH  19  21
ENDBRANCH  14  19
ENDBRANCH   8  13
ENDBRANCH   4   7
ENDBRANCH   2   3
ENDBRANCH   1   2
BRANCH   1  23
ATOM     23  C   UNL A   1      31.563  31.954  26.843  1.00  0.00     0.023 C 
BRANCH  23  24
ATOM     24  C   UNL A   1      32.768  32.793  27.251  1.00  0.00     0.116 C 
BRANCH  24  25
ATOM     25  N   UNL A   1      32.421  34.166  27.581  1.00  0.00    -0.352 N 
ATOM     26  C   UNL A   1      32.970  34.994  28.532  1.00  0.00     0.251 C 
ATOM     27  H   UNL A   1      31.690  34.558  27.051  1.00  0.00     0.163 HD
ATOM     28  O   UNL A   1      32.466  36.087  28.766  1.00  0.00    -0.269 OA
BRANCH  26  29
ATOM     29  C   UNL A   1      34.153  34.547  29.295  1.00  0.00     0.039 A 
ATOM     30  C   UNL A   1      33.969  33.991  30.563  1.00  0.00     0.014 A 
ATOM     31  C   UNL A   1      35.437  34.648  28.751  1.00  0.00     0.014 A 
ATOM     32  C   UNL A   1      35.063  33.468  31.255  1.00  0.00     0.010 A 
ATOM     33  C   UNL A   1      36.512  34.055  29.404  1.00  0.00     0.010 A 
ATOM     34  C   UNL A   1      36.337  33.458  30.662  1.00  0.00    -0.014 A 
BRANCH  34  35
ATOM     35  C   UNL A   1      37.496  32.820  31.337  1.00  0.00     0.031 A 
ATOM     36  C   UNL A   1      38.158  31.616  30.727  1.00  0.00     0.074 A 
ATOM     37  C   UNL A   1      37.910  33.283  32.532  1.00  0.00     0.049 A 
ATOM     38  N   UNL A   1      39.132  30.879  31.198  1.00  0.00    -0.248 NA
ATOM     39  C   UNL A   1      37.636  31.162  29.428  1.00  0.00     0.031 C 
ATOM     40  C   UNL A   1      37.324  34.416  33.252  1.00  0.00     0.029 A 
ATOM     41  N   UNL A   1      38.917  32.852  33.359  1.00  0.00    -0.354 N 
ATOM     42  C   UNL A   1      39.332  29.874  30.261  1.00  0.00     0.074 A 
ATOM     43  C   UNL A   1      38.338  30.057  29.226  1.00  0.00     0.031 C 
ATOM     44  C   UNL A   1      37.999  34.608  34.397  1.00  0.00     0.029 A 
ATOM     45  C   UNL A   1      39.035  33.587  34.514  1.00  0.00     0.049 A 
ATOM     46  H   UNL A   1      39.499  32.088  33.145  1.00  0.00     0.167 HD
ATOM     47  C   UNL A   1      40.276  28.902  30.248  1.00  0.00     0.037 A 
ATOM     48  C   UNL A   1      39.879  33.450  35.555  1.00  0.00     0.037 A 
ATOM     49  C   UNL A   1      41.273  28.731  31.272  1.00  0.00     0.049 A 
ATOM     50  C   UNL A   1      40.900  32.345  35.531  1.00  0.00     0.074 A 
ATOM     51  C   UNL A   1      42.301  27.807  31.328  1.00  0.00     0.029 A 
ATOM     52  N   UNL A   1      41.363  29.499  32.424  1.00  0.00    -0.354 N 
ATOM     53  N   UNL A   1      41.120  31.441  34.607  1.00  0.00    -0.248 NA
ATOM     54  C   UNL A   1      41.792  32.245  36.694  1.00  0.00     0.031 C 
ATOM     55  C   UNL A   1      42.983  27.983  32.537  1.00  0.00     0.029 A 
ATOM     56  C   UNL A   1      42.415  29.055  33.208  1.00  0.00     0.049 A 
ATOM     57  H   UNL A   1      40.767  30.250  32.651  1.00  0.00     0.167 HD
ATOM     58  C   UNL A   1      42.195  30.688  35.060  1.00  0.00     0.074 A 
ATOM     59  C   UNL A   1      42.590  31.248  36.336  1.00  0.00     0.031 C 
ATOM     60  C   UNL A   1      42.803  29.628  34.472  1.00  0.00     0.037 A 
BRANCH  47  61
ATOM     61  C   UNL A   1      40.271  27.950  29.086  1.00  0.00     0.057 A 
ATOM     62  C   UNL A   1      41.006  28.203  27.920  1.00  0.00     0.134 A 
ATOM     63  C   UNL A   1      39.543  26.754  29.143  1.00  0.00     0.134 A 
ATOM     64  F   UNL A   1      41.714  29.335  27.796  1.00  0.00    -0.206 F 
ATOM     65  C   UNL A   1      40.993  27.318  26.841  1.00  0.00     0.040 A 
ATOM     66  C   UNL A   1      39.548  25.846  28.082  1.00  0.00     0.040 A 
ATOM     67  F   UNL A   1      38.823  26.445  30.231  1.00  0.00    -0.206 F 
ATOM     68  C   UNL A   1      40.266  26.131  26.923  1.00  0.00     0.006 A 
ENDBRANCH  47  61
BRANCH  48  69
ATOM     69  C   UNL A   1      39.815  34.396  36.698  1.00  0.00     0.057 A 
ATOM     70  C   UNL A   1      39.074  34.090  37.846  1.00  0.00     0.134 A 
ATOM     71  C   UNL A   1      40.476  35.630  36.667  1.00  0.00     0.134 A 
ATOM     72  F   UNL A   1      38.405  32.931  37.927  1.00  0.00    -0.206 F 
ATOM     73  C   UNL A   1      38.975  34.984  38.913  1.00  0.00     0.040 A 
ATOM     74  C   UNL A   1      40.407  36.522  37.739  1.00  0.00     0.040 A 
ATOM     75  F   UNL A   1      41.208  35.981  35.600  1.00  0.00    -0.206 F 
ATOM     76  C   UNL A   1      39.648  36.203  38.863  1.00  0.00     0.006 A 
ENDBRANCH  48  69
BRANCH  60  77
ATOM     77  C   UNL A   1      43.986  29.033  35.179  1.00  0.00     0.057 A 
ATOM     78  C   UNL A   1      43.846  28.039  36.156  1.00  0.00     0.134 A 
ATOM     79  C   UNL A   1      45.287  29.434  34.848  1.00  0.00     0.134 A 
ATOM     80  F   UNL A   1      42.627  27.619  36.529  1.00  0.00    -0.206 F 
ATOM     81  C   UNL A   1      44.955  27.483  36.795  1.00  0.00     0.040 A 
ATOM     82  C   UNL A   1      46.405  28.865  35.459  1.00  0.00     0.040 A 
ATOM     83  F   UNL A   1      45.493  30.375  33.914  1.00  0.00    -0.206 F 
ATOM     84  C   UNL A   1      46.240  27.891  36.441  1.00  0.00     0.006 A 
ENDBRANCH  60  77
ENDBRANCH  34  35
ENDBRANCH  26  29
ENDBRANCH  24  25
ENDBRANCH  23  24
ENDBRANCH   1  23
TORSDOF 14
ENDMDL
