MODEL 1
REMARK VINA RESULT:     -11.4      0.000      0.000
REMARK SMILES CC(C)N1C[C@@H](C(=O)NCCCCNC(=O)c2ccc(-c3c4nc(c(-c5c(F)cccc5F)c5ccc([nH]5)c(-c5c(F)cccc5F)c5nc(c(-c6c(F)cccc6F)c6ccc3[nH]6)C=C5)C=C4)cc2)CC1=O
REMARK SMILES IDX 12 1 11 2 10 3 9 4 7 5 8 6 6 8 4 9 5 10 72 11 71 12 73 13
REMARK SMILES IDX 2 14 1 15 3 16 13 17 14 18 15 19 16 21 17 22 18 23 70 24
REMARK SMILES IDX 19 25 69 26 20 27 21 28 22 29 63 30 23 31 68 32 62 33 64 34
REMARK SMILES IDX 24 35 67 36 61 37 60 38 25 40 51 41 34 42 50 43 35 44 38 45
REMARK SMILES IDX 49 46 65 47 36 48 37 49 48 51 66 52 39 53 26 54 27 55 32 56
REMARK SMILES IDX 28 57 29 58 31 59 33 60 30 61 52 62 53 63 58 64 54 65 55 66
REMARK SMILES IDX 57 67 59 68 56 69 40 70 41 71 46 72 42 73 43 74 45 75 47 76
REMARK SMILES IDX 44 77
REMARK H PARENT 9 7 14 20 64 39 38 50
REMARK Flexibility Score: inf
ROOT
ATOM      1  C   UNL A   1      38.144  19.781  24.998  1.00  0.00     0.023 C 
ENDROOT
BRANCH   1   2
ATOM      2  C   UNL A   1      36.997  20.792  25.013  1.00  0.00     0.023 C 
BRANCH   2   3
ATOM      3  C   UNL A   1      35.602  20.176  24.994  1.00  0.00     0.116 C 
BRANCH   3   4
ATOM      4  N   UNL A   1      34.617  21.058  25.593  1.00  0.00    -0.356 N 
ATOM      5  C   UNL A   1      33.263  20.973  25.664  1.00  0.00     0.225 C 
ATOM      6  O   UNL A   1      32.668  21.891  26.233  1.00  0.00    -0.275 OA
ATOM      7  H   UNL A   1      34.996  21.858  26.025  1.00  0.00     0.163 HD
BRANCH   5   8
ATOM      8  C   UNL A   1      32.487  19.802  25.102  1.00  0.00     0.107 C 
ATOM      9  N   UNL A   1      33.026  17.577  24.528  1.00  0.00    -0.339 N 
ATOM     10  C   UNL A   1      32.961  18.472  25.662  1.00  0.00     0.133 C 
ATOM     11  C   UNL A   1      32.689  18.203  23.338  1.00  0.00     0.223 C 
ATOM     12  C   UNL A   1      32.516  19.677  23.586  1.00  0.00     0.115 C 
ATOM     13  O   UNL A   1      32.578  17.677  22.240  1.00  0.00    -0.275 OA
BRANCH   9  14
ATOM     14  C   UNL A   1      33.279  16.132  24.642  1.00  0.00     0.078 C 
ATOM     15  C   UNL A   1      34.742  15.842  25.001  1.00  0.00     0.031 C 
ATOM     16  C   UNL A   1      32.376  15.425  25.659  1.00  0.00     0.031 C 
ENDBRANCH   9  14
ENDBRANCH   5   8
ENDBRANCH   3   4
ENDBRANCH   2   3
ENDBRANCH   1   2
BRANCH   1  17
ATOM     17  C   UNL A   1      39.331  20.135  25.885  1.00  0.00     0.116 C 
BRANCH  17  18
ATOM     18  N   UNL A   1      40.328  19.077  25.947  1.00  0.00    -0.352 N 
ATOM     19  C   UNL A   1      41.687  19.179  26.125  1.00  0.00     0.251 C 
ATOM     20  H   UNL A   1      39.980  18.161  25.848  1.00  0.00     0.163 HD
ATOM     21  O   UNL A   1      42.400  18.188  26.011  1.00  0.00    -0.269 OA
BRANCH  19  22
ATOM     22  C   UNL A   1      42.288  20.495  26.425  1.00  0.00     0.039 A 
ATOM     23  C   UNL A   1      42.805  21.257  25.376  1.00  0.00     0.014 A 
ATOM     24  C   UNL A   1      42.325  20.980  27.735  1.00  0.00     0.014 A 
ATOM     25  C   UNL A   1      43.305  22.535  25.633  1.00  0.00     0.010 A 
ATOM     26  C   UNL A   1      42.743  22.286  27.975  1.00  0.00     0.010 A 
ATOM     27  C   UNL A   1      43.247  23.073  26.929  1.00  0.00    -0.014 A 
BRANCH  27  28
ATOM     28  C   UNL A   1      43.727  24.449  27.216  1.00  0.00     0.031 A 
ATOM     29  C   UNL A   1      42.750  25.516  27.627  1.00  0.00     0.074 A 
ATOM     30  C   UNL A   1      45.029  24.755  27.050  1.00  0.00     0.049 A 
ATOM     31  N   UNL A   1      42.960  26.787  27.857  1.00  0.00    -0.248 NA
ATOM     32  C   UNL A   1      41.344  25.106  27.772  1.00  0.00     0.031 C 
ATOM     33  C   UNL A   1      46.069  23.822  26.610  1.00  0.00     0.029 A 
ATOM     34  N   UNL A   1      45.699  25.940  27.222  1.00  0.00    -0.354 N 
ATOM     35  C   UNL A   1      41.716  27.327  28.158  1.00  0.00     0.074 A 
ATOM     36  C   UNL A   1      40.748  26.261  28.020  1.00  0.00     0.031 C 
ATOM     37  C   UNL A   1      47.248  24.464  26.574  1.00  0.00     0.029 A 
ATOM     38  C   UNL A   1      47.043  25.860  26.946  1.00  0.00     0.049 A 
ATOM     39  H   UNL A   1      45.258  26.769  27.518  1.00  0.00     0.167 HD
ATOM     40  C   UNL A   1      41.409  28.590  28.541  1.00  0.00     0.037 A 
ATOM     41  C   UNL A   1      47.998  26.808  26.981  1.00  0.00     0.037 A 
ATOM     42  C   UNL A   1      42.377  29.643  28.697  1.00  0.00     0.049 A 
ATOM     43  C   UNL A   1      47.631  28.207  27.396  1.00  0.00     0.074 A 
ATOM     44  C   UNL A   1      42.176  30.942  29.128  1.00  0.00     0.029 A 
ATOM     45  N   UNL A   1      43.731  29.517  28.423  1.00  0.00    -0.354 N 
ATOM     46  N   UNL A   1      46.460  28.687  27.742  1.00  0.00    -0.248 NA
ATOM     47  C   UNL A   1      48.719  29.192  27.437  1.00  0.00     0.031 C 
ATOM     48  C   UNL A   1      43.398  31.618  29.067  1.00  0.00     0.029 A 
ATOM     49  C   UNL A   1      44.373  30.723  28.657  1.00  0.00     0.049 A 
ATOM     50  H   UNL A   1      44.171  28.694  28.110  1.00  0.00     0.167 HD
ATOM     51  C   UNL A   1      46.679  30.018  28.077  1.00  0.00     0.074 A 
ATOM     52  C   UNL A   1      48.095  30.264  27.903  1.00  0.00     0.031 C 
ATOM     53  C   UNL A   1      45.787  30.950  28.495  1.00  0.00     0.037 A 
BRANCH  40  54
ATOM     54  C   UNL A   1      39.966  28.898  28.818  1.00  0.00     0.057 A 
ATOM     55  C   UNL A   1      39.088  29.316  27.807  1.00  0.00     0.134 A 
ATOM     56  C   UNL A   1      39.438  28.750  30.107  1.00  0.00     0.134 A 
ATOM     57  F   UNL A   1      39.530  29.491  26.553  1.00  0.00    -0.206 F 
ATOM     58  C   UNL A   1      37.749  29.604  28.074  1.00  0.00     0.040 A 
ATOM     59  C   UNL A   1      38.092  29.004  30.380  1.00  0.00     0.040 A 
ATOM     60  F   UNL A   1      40.217  28.348  31.122  1.00  0.00    -0.206 F 
ATOM     61  C   UNL A   1      37.245  29.440  29.363  1.00  0.00     0.006 A 
ENDBRANCH  40  54
BRANCH  41  62
ATOM     62  C   UNL A   1      49.402  26.465  26.636  1.00  0.00     0.057 A 
ATOM     63  C   UNL A   1      49.899  26.668  25.342  1.00  0.00     0.134 A 
ATOM     64  C   UNL A   1      50.275  25.913  27.582  1.00  0.00     0.134 A 
ATOM     65  F   UNL A   1      49.107  27.177  24.388  1.00  0.00    -0.206 F 
ATOM     66  C   UNL A   1      51.203  26.311  24.994  1.00  0.00     0.040 A 
ATOM     67  C   UNL A   1      51.590  25.578  27.255  1.00  0.00     0.040 A 
ATOM     68  F   UNL A   1      49.865  25.702  28.841  1.00  0.00    -0.206 F 
ATOM     69  C   UNL A   1      52.054  25.767  25.955  1.00  0.00     0.006 A 
ENDBRANCH  41  62
BRANCH  53  70
ATOM     70  C   UNL A   1      46.323  32.308  28.849  1.00  0.00     0.057 A 
ATOM     71  C   UNL A   1      46.793  32.615  30.133  1.00  0.00     0.134 A 
ATOM     72  C   UNL A   1      46.404  33.313  27.876  1.00  0.00     0.134 A 
ATOM     73  F   UNL A   1      46.734  31.701  31.114  1.00  0.00    -0.206 F 
ATOM     74  C   UNL A   1      47.295  33.879  30.443  1.00  0.00     0.040 A 
ATOM     75  C   UNL A   1      46.934  34.570  28.165  1.00  0.00     0.040 A 
ATOM     76  F   UNL A   1      45.982  33.083  26.623  1.00  0.00    -0.206 F 
ATOM     77  C   UNL A   1      47.373  34.859  29.454  1.00  0.00     0.006 A 
ENDBRANCH  53  70
ENDBRANCH  27  28
ENDBRANCH  19  22
ENDBRANCH  17  18
ENDBRANCH   1  17
TORSDOF 12
ENDMDL
MODEL 2
REMARK VINA RESULT:     -11.4      1.400      6.635
REMARK SMILES CC(C)N1C[C@@H](C(=O)NCCCCNC(=O)c2ccc(-c3c4nc(c(-c5c(F)cccc5F)c5ccc([nH]5)c(-c5c(F)cccc5F)c5nc(c(-c6c(F)cccc6F)c6ccc3[nH]6)C=C5)C=C4)cc2)CC1=O
REMARK SMILES IDX 12 1 11 2 10 3 9 4 7 5 8 6 6 8 4 9 5 10 72 11 71 12 73 13
REMARK SMILES IDX 2 14 1 15 3 16 13 17 14 18 15 19 16 21 17 22 18 23 70 24
REMARK SMILES IDX 19 25 69 26 20 27 21 28 22 29 63 30 23 31 68 32 62 33 64 34
REMARK SMILES IDX 24 35 67 36 61 37 60 38 25 40 51 41 34 42 50 43 35 44 38 45
REMARK SMILES IDX 49 46 65 47 36 48 37 49 48 51 66 52 39 53 26 54 27 55 32 56
REMARK SMILES IDX 28 57 29 58 31 59 33 60 30 61 52 62 53 63 58 64 54 65 55 66
REMARK SMILES IDX 57 67 59 68 56 69 40 70 41 71 46 72 42 73 43 74 45 75 47 76
REMARK SMILES IDX 44 77
REMARK H PARENT 9 7 14 20 64 39 38 50
REMARK Flexibility Score: inf
ROOT
ATOM      1  C   UNL A   1      38.148  19.776  24.993  1.00  0.00     0.023 C 
ENDROOT
BRANCH   1   2
ATOM      2  C   UNL A   1      36.984  20.766  24.944  1.00  0.00     0.023 C 
BRANCH   2   3
ATOM      3  C   UNL A   1      35.600  20.126  24.993  1.00  0.00     0.116 C 
BRANCH   3   4
ATOM      4  N   UNL A   1      34.609  21.031  25.546  1.00  0.00    -0.356 N 
ATOM      5  C   UNL A   1      33.254  20.957  25.591  1.00  0.00     0.225 C 
ATOM      6  O   UNL A   1      32.653  21.894  26.123  1.00  0.00    -0.275 OA
ATOM      7  H   UNL A   1      34.985  21.840  25.964  1.00  0.00     0.163 HD
BRANCH   5   8
ATOM      8  C   UNL A   1      32.481  19.776  25.047  1.00  0.00     0.107 C 
ATOM      9  N   UNL A   1      33.023  17.539  24.521  1.00  0.00    -0.339 N 
ATOM     10  C   UNL A   1      32.949  18.457  25.636  1.00  0.00     0.133 C 
ATOM     11  C   UNL A   1      32.695  18.143  23.316  1.00  0.00     0.223 C 
ATOM     12  C   UNL A   1      32.522  19.620  23.534  1.00  0.00     0.115 C 
ATOM     13  O   UNL A   1      32.592  17.595  22.228  1.00  0.00    -0.275 OA
BRANCH   9  14
ATOM     14  C   UNL A   1      33.273  16.096  24.664  1.00  0.00     0.078 C 
ATOM     15  C   UNL A   1      34.734  15.812  25.039  1.00  0.00     0.031 C 
ATOM     16  C   UNL A   1      32.363  15.410  25.689  1.00  0.00     0.031 C 
ENDBRANCH   9  14
ENDBRANCH   5   8
ENDBRANCH   3   4
ENDBRANCH   2   3
ENDBRANCH   1   2
BRANCH   1  17
ATOM     17  C   UNL A   1      39.240  20.112  26.001  1.00  0.00     0.116 C 
BRANCH  17  18
ATOM     18  N   UNL A   1      40.377  19.207  25.927  1.00  0.00    -0.352 N 
ATOM     19  C   UNL A   1      41.711  19.477  26.115  1.00  0.00     0.251 C 
ATOM     20  H   UNL A   1      40.160  18.270  25.713  1.00  0.00     0.163 HD
ATOM     21  O   UNL A   1      42.555  18.619  25.876  1.00  0.00    -0.269 OA
BRANCH  19  22
ATOM     22  C   UNL A   1      42.128  20.816  26.579  1.00  0.00     0.039 A 
ATOM     23  C   UNL A   1      42.471  21.783  25.632  1.00  0.00     0.014 A 
ATOM     24  C   UNL A   1      42.161  21.121  27.942  1.00  0.00     0.014 A 
ATOM     25  C   UNL A   1      42.791  23.076  26.051  1.00  0.00     0.010 A 
ATOM     26  C   UNL A   1      42.394  22.431  28.351  1.00  0.00     0.010 A 
ATOM     27  C   UNL A   1      42.721  23.420  27.411  1.00  0.00    -0.014 A 
BRANCH  27  28
ATOM     28  C   UNL A   1      43.009  24.801  27.874  1.00  0.00     0.031 A 
ATOM     29  C   UNL A   1      44.430  25.234  28.111  1.00  0.00     0.074 A 
ATOM     30  C   UNL A   1      41.993  25.646  28.138  1.00  0.00     0.049 A 
ATOM     31  N   UNL A   1      44.883  26.371  28.576  1.00  0.00    -0.248 NA
ATOM     32  C   UNL A   1      45.481  24.249  27.812  1.00  0.00     0.031 C 
ATOM     33  C   UNL A   1      40.570  25.333  27.994  1.00  0.00     0.029 A 
ATOM     34  N   UNL A   1      42.002  26.941  28.594  1.00  0.00    -0.354 N 
ATOM     35  C   UNL A   1      46.263  26.231  28.638  1.00  0.00     0.074 A 
ATOM     36  C   UNL A   1      46.570  24.879  28.224  1.00  0.00     0.031 C 
ATOM     37  C   UNL A   1      39.846  26.413  28.328  1.00  0.00     0.029 A 
ATOM     38  C   UNL A   1      40.748  27.480  28.749  1.00  0.00     0.049 A 
ATOM     39  H   UNL A   1      42.830  27.436  28.789  1.00  0.00     0.167 HD
ATOM     40  C   UNL A   1      47.195  27.151  28.982  1.00  0.00     0.037 A 
ATOM     41  C   UNL A   1      40.369  28.695  29.189  1.00  0.00     0.037 A 
ATOM     42  C   UNL A   1      46.888  28.501  29.374  1.00  0.00     0.049 A 
ATOM     43  C   UNL A   1      41.422  29.697  29.579  1.00  0.00     0.074 A 
ATOM     44  C   UNL A   1      47.762  29.526  29.693  1.00  0.00     0.029 A 
ATOM     45  N   UNL A   1      45.606  29.014  29.502  1.00  0.00    -0.354 N 
ATOM     46  N   UNL A   1      42.728  29.571  29.570  1.00  0.00    -0.248 NA
ATOM     47  C   UNL A   1      40.950  31.012  30.029  1.00  0.00     0.031 C 
ATOM     48  C   UNL A   1      47.008  30.643  30.065  1.00  0.00     0.029 A 
ATOM     49  C   UNL A   1      45.666  30.335  29.916  1.00  0.00     0.049 A 
ATOM     50  H   UNL A   1      44.777  28.514  29.325  1.00  0.00     0.167 HD
ATOM     51  C   UNL A   1      43.231  30.801  29.976  1.00  0.00     0.074 A 
ATOM     52  C   UNL A   1      42.091  31.661  30.212  1.00  0.00     0.031 C 
ATOM     53  C   UNL A   1      44.522  31.184  30.134  1.00  0.00     0.037 A 
BRANCH  40  54
ATOM     54  C   UNL A   1      48.635  26.725  28.949  1.00  0.00     0.057 A 
ATOM     55  C   UNL A   1      49.265  26.150  30.062  1.00  0.00     0.134 A 
ATOM     56  C   UNL A   1      49.396  26.867  27.781  1.00  0.00     0.134 A 
ATOM     57  F   UNL A   1      48.600  25.996  31.216  1.00  0.00    -0.206 F 
ATOM     58  C   UNL A   1      50.605  25.760  30.024  1.00  0.00     0.040 A 
ATOM     59  C   UNL A   1      50.727  26.451  27.721  1.00  0.00     0.040 A 
ATOM     60  F   UNL A   1      48.857  27.404  26.676  1.00  0.00    -0.206 F 
ATOM     61  C   UNL A   1      51.338  25.903  28.847  1.00  0.00     0.006 A 
ENDBRANCH  40  54
BRANCH  41  62
ATOM     62  C   UNL A   1      38.927  29.046  29.263  1.00  0.00     0.057 A 
ATOM     63  C   UNL A   1      38.242  29.530  28.141  1.00  0.00     0.134 A 
ATOM     64  C   UNL A   1      38.204  28.924  30.455  1.00  0.00     0.134 A 
ATOM     65  F   UNL A   1      38.884  29.686  26.974  1.00  0.00    -0.206 F 
ATOM     66  C   UNL A   1      36.898  29.903  28.208  1.00  0.00     0.040 A 
ATOM     67  C   UNL A   1      36.852  29.267  30.530  1.00  0.00     0.040 A 
ATOM     68  F   UNL A   1      38.798  28.458  31.564  1.00  0.00    -0.206 F 
ATOM     69  C   UNL A   1      36.199  29.768  29.405  1.00  0.00     0.006 A 
ENDBRANCH  41  62
BRANCH  53  70
ATOM     70  C   UNL A   1      44.775  32.612  30.528  1.00  0.00     0.057 A 
ATOM     71  C   UNL A   1      44.926  33.003  31.865  1.00  0.00     0.134 A 
ATOM     72  C   UNL A   1      44.904  33.604  29.548  1.00  0.00     0.134 A 
ATOM     73  F   UNL A   1      44.803  32.104  32.854  1.00  0.00    -0.206 F 
ATOM     74  C   UNL A   1      45.168  34.332  32.213  1.00  0.00     0.040 A 
ATOM     75  C   UNL A   1      45.178  34.931  29.881  1.00  0.00     0.040 A 
ATOM     76  F   UNL A   1      44.781  33.297  28.247  1.00  0.00    -0.206 F 
ATOM     77  C   UNL A   1      45.302  35.300  31.218  1.00  0.00     0.006 A 
ENDBRANCH  53  70
ENDBRANCH  27  28
ENDBRANCH  19  22
ENDBRANCH  17  18
ENDBRANCH   1  17
TORSDOF 12
ENDMDL
MODEL 3
REMARK VINA RESULT:     -11.3      2.631      7.405
REMARK SMILES CC(C)N1C[C@@H](C(=O)NCCCCNC(=O)c2ccc(-c3c4nc(c(-c5c(F)cccc5F)c5ccc([nH]5)c(-c5c(F)cccc5F)c5nc(c(-c6c(F)cccc6F)c6ccc3[nH]6)C=C5)C=C4)cc2)CC1=O
REMARK SMILES IDX 12 1 11 2 10 3 9 4 7 5 8 6 6 8 4 9 5 10 72 11 71 12 73 13
REMARK SMILES IDX 2 14 1 15 3 16 13 17 14 18 15 19 16 21 17 22 18 23 70 24
REMARK SMILES IDX 19 25 69 26 20 27 21 28 22 29 63 30 23 31 68 32 62 33 64 34
REMARK SMILES IDX 24 35 67 36 61 37 60 38 25 40 51 41 34 42 50 43 35 44 38 45
REMARK SMILES IDX 49 46 65 47 36 48 37 49 48 51 66 52 39 53 26 54 27 55 32 56
REMARK SMILES IDX 28 57 29 58 31 59 33 60 30 61 52 62 53 63 58 64 54 65 55 66
REMARK SMILES IDX 57 67 59 68 56 69 40 70 41 71 46 72 42 73 43 74 45 75 47 76
REMARK SMILES IDX 44 77
REMARK H PARENT 9 7 14 20 64 39 38 50
REMARK Flexibility Score: inf
ROOT
ATOM      1  C   UNL A   1      37.806  19.646  24.970  1.00  0.00     0.023 C 
ENDROOT
BRANCH   1   2
ATOM      2  C   UNL A   1      36.574  20.551  24.990  1.00  0.00     0.023 C 
BRANCH   2   3
ATOM      3  C   UNL A   1      36.743  21.841  25.787  1.00  0.00     0.116 C 
BRANCH   3   4
ATOM      4  N   UNL A   1      35.498  22.256  26.406  1.00  0.00    -0.356 N 
ATOM      5  C   UNL A   1      34.669  23.299  26.141  1.00  0.00     0.225 C 
ATOM      6  O   UNL A   1      33.667  23.420  26.849  1.00  0.00    -0.275 OA
ATOM      7  H   UNL A   1      35.201  21.682  27.148  1.00  0.00     0.163 HD
BRANCH   5   8
ATOM      8  C   UNL A   1      34.919  24.275  25.012  1.00  0.00     0.107 C 
ATOM      9  N   UNL A   1      33.647  25.969  23.970  1.00  0.00    -0.339 N 
ATOM     10  C   UNL A   1      34.237  25.613  25.241  1.00  0.00     0.133 C 
ATOM     11  C   UNL A   1      33.850  24.998  23.002  1.00  0.00     0.223 C 
ATOM     12  C   UNL A   1      34.490  23.793  23.635  1.00  0.00     0.115 C 
ATOM     13  O   UNL A   1      33.537  25.065  21.821  1.00  0.00    -0.275 OA
BRANCH   9  14
ATOM     14  C   UNL A   1      33.029  27.275  23.693  1.00  0.00     0.078 C 
ATOM     15  C   UNL A   1      31.573  27.323  24.174  1.00  0.00     0.031 C 
ATOM     16  C   UNL A   1      33.785  28.459  24.306  1.00  0.00     0.031 C 
ENDBRANCH   9  14
ENDBRANCH   5   8
ENDBRANCH   3   4
ENDBRANCH   2   3
ENDBRANCH   1   2
BRANCH   1  17
ATOM     17  C   UNL A   1      39.027  20.199  25.695  1.00  0.00     0.116 C 
BRANCH  17  18
ATOM     18  N   UNL A   1      40.140  19.262  25.727  1.00  0.00    -0.352 N 
ATOM     19  C   UNL A   1      41.454  19.491  26.057  1.00  0.00     0.251 C 
ATOM     20  H   UNL A   1      39.921  18.335  25.477  1.00  0.00     0.163 HD
ATOM     21  O   UNL A   1      42.294  18.612  25.895  1.00  0.00    -0.269 OA
BRANCH  19  22
ATOM     22  C   UNL A   1      41.856  20.812  26.583  1.00  0.00     0.039 A 
ATOM     23  C   UNL A   1      42.302  21.788  25.689  1.00  0.00     0.014 A 
ATOM     24  C   UNL A   1      41.775  21.091  27.949  1.00  0.00     0.014 A 
ATOM     25  C   UNL A   1      42.610  23.065  26.160  1.00  0.00     0.010 A 
ATOM     26  C   UNL A   1      41.999  22.388  28.403  1.00  0.00     0.010 A 
ATOM     27  C   UNL A   1      42.429  23.386  27.516  1.00  0.00    -0.014 A 
BRANCH  27  28
ATOM     28  C   UNL A   1      42.703  24.752  28.030  1.00  0.00     0.031 A 
ATOM     29  C   UNL A   1      44.100  25.135  28.435  1.00  0.00     0.074 A 
ATOM     30  C   UNL A   1      41.690  25.626  28.188  1.00  0.00     0.049 A 
ATOM     31  N   UNL A   1      44.531  26.251  28.966  1.00  0.00    -0.248 NA
ATOM     32  C   UNL A   1      45.148  24.120  28.245  1.00  0.00     0.031 C 
ATOM     33  C   UNL A   1      40.285  25.361  27.877  1.00  0.00     0.029 A 
ATOM     34  N   UNL A   1      41.686  26.915  28.661  1.00  0.00    -0.354 N 
ATOM     35  C   UNL A   1      45.890  26.066  29.185  1.00  0.00     0.074 A 
ATOM     36  C   UNL A   1      46.201  24.710  28.788  1.00  0.00     0.031 C 
ATOM     37  C   UNL A   1      39.560  26.460  28.142  1.00  0.00     0.029 A 
ATOM     38  C   UNL A   1      40.440  27.493  28.679  1.00  0.00     0.049 A 
ATOM     39  H   UNL A   1      42.501  27.381  28.958  1.00  0.00     0.167 HD
ATOM     40  C   UNL A   1      46.804  26.951  29.648  1.00  0.00     0.037 A 
ATOM     41  C   UNL A   1      40.051  28.714  29.091  1.00  0.00     0.037 A 
ATOM     42  C   UNL A   1      46.496  28.306  30.022  1.00  0.00     0.049 A 
ATOM     43  C   UNL A   1      41.082  29.676  29.615  1.00  0.00     0.074 A 
ATOM     44  C   UNL A   1      47.358  29.298  30.456  1.00  0.00     0.029 A 
ATOM     45  N   UNL A   1      45.224  28.859  30.010  1.00  0.00    -0.354 N 
ATOM     46  N   UNL A   1      42.376  29.508  29.755  1.00  0.00    -0.248 NA
ATOM     47  C   UNL A   1      40.602  31.001  30.028  1.00  0.00     0.031 C 
ATOM     48  C   UNL A   1      46.602  30.435  30.755  1.00  0.00     0.029 A 
ATOM     49  C   UNL A   1      45.276  30.173  30.449  1.00  0.00     0.049 A 
ATOM     50  H   UNL A   1      44.405  28.389  29.731  1.00  0.00     0.167 HD
ATOM     51  C   UNL A   1      42.867  30.716  30.234  1.00  0.00     0.074 A 
ATOM     52  C   UNL A   1      41.734  31.610  30.351  1.00  0.00     0.031 C 
ATOM     53  C   UNL A   1      44.142  31.056  30.546  1.00  0.00     0.037 A 
BRANCH  40  54
ATOM     54  C   UNL A   1      48.225  26.480  29.774  1.00  0.00     0.057 A 
ATOM     55  C   UNL A   1      48.692  25.833  30.927  1.00  0.00     0.134 A 
ATOM     56  C   UNL A   1      49.130  26.649  28.719  1.00  0.00     0.134 A 
ATOM     57  F   UNL A   1      47.882  25.649  31.980  1.00  0.00    -0.206 F 
ATOM     58  C   UNL A   1      50.015  25.400  31.038  1.00  0.00     0.040 A 
ATOM     59  C   UNL A   1      50.447  26.192  28.806  1.00  0.00     0.040 A 
ATOM     60  F   UNL A   1      48.751  27.254  27.584  1.00  0.00    -0.206 F 
ATOM     61  C   UNL A   1      50.894  25.573  29.971  1.00  0.00     0.006 A 
ENDBRANCH  40  54
BRANCH  41  62
ATOM     62  C   UNL A   1      38.622  29.110  29.004  1.00  0.00     0.057 A 
ATOM     63  C   UNL A   1      38.073  29.579  27.804  1.00  0.00     0.134 A 
ATOM     64  C   UNL A   1      37.775  29.048  30.117  1.00  0.00     0.134 A 
ATOM     65  F   UNL A   1      38.837  29.679  26.706  1.00  0.00    -0.206 F 
ATOM     66  C   UNL A   1      36.743  29.995  27.719  1.00  0.00     0.040 A 
ATOM     67  C   UNL A   1      36.435  29.434  30.040  1.00  0.00     0.040 A 
ATOM     68  F   UNL A   1      38.235  28.600  31.294  1.00  0.00    -0.206 F 
ATOM     69  C   UNL A   1      35.919  29.919  28.840  1.00  0.00     0.006 A 
ENDBRANCH  41  62
BRANCH  53  70
ATOM     70  C   UNL A   1      44.391  32.470  30.989  1.00  0.00     0.057 A 
ATOM     71  C   UNL A   1      44.383  32.843  32.339  1.00  0.00     0.134 A 
ATOM     72  C   UNL A   1      44.680  33.465  30.046  1.00  0.00     0.134 A 
ATOM     73  F   UNL A   1      44.103  31.941  33.291  1.00  0.00    -0.206 F 
ATOM     74  C   UNL A   1      44.625  34.159  32.732  1.00  0.00     0.040 A 
ATOM     75  C   UNL A   1      44.955  34.778  30.429  1.00  0.00     0.040 A 
ATOM     76  F   UNL A   1      44.714  33.175  28.736  1.00  0.00    -0.206 F 
ATOM     77  C   UNL A   1      44.919  35.130  31.776  1.00  0.00     0.006 A 
ENDBRANCH  53  70
ENDBRANCH  27  28
ENDBRANCH  19  22
ENDBRANCH  17  18
ENDBRANCH   1  17
TORSDOF 12
ENDMDL
