MODEL 1
REMARK VINA RESULT:     -10.6      0.000      0.000
REMARK SMILES C=CCN(CC(=O)NCCCCNC(=O)c1ccc(-c2c3nc(c(-c4c(F)cccc4F)c4ccc([nH]4)c(-c4c(F)cccc4F)c4nc(c(-c5c(F)cccc5F)c5ccc2[nH]5)C=C4)C=C3)cc1)C(=O)c1cn(C2C[NH2+]C2)nn1
REMARK SMILES IDX 9 1 8 2 6 3 7 4 5 6 4 7 3 8 2 9 1 10 70 11 71 12 72 13 73 14
REMARK SMILES IDX 80 15 74 16 79 17 75 18 76 19 78 20 77 21 10 24 11 25 12 26
REMARK SMILES IDX 13 27 14 28 15 30 16 31 17 32 69 33 18 34 68 35 19 36 20 37
REMARK SMILES IDX 21 38 62 39 22 40 67 41 61 42 63 43 23 44 66 45 60 46 59 47
REMARK SMILES IDX 24 49 50 50 33 51 49 52 34 53 37 54 48 55 64 56 35 57 36 58
REMARK SMILES IDX 47 60 65 61 38 62 25 63 26 64 31 65 27 66 28 67 30 68 32 69
REMARK SMILES IDX 29 70 51 71 52 72 57 73 53 74 54 75 56 76 58 77 55 78 39 79
REMARK SMILES IDX 40 80 45 81 41 82 42 83 44 84 46 85 43 86
REMARK H PARENT 8 5 77 22 77 23 13 29 63 48 37 59
REMARK Flexibility Score: inf
ROOT
ATOM      1  C   UNL A   1      31.725  29.757  25.537  1.00  0.00     0.116 C 
ENDROOT
BRANCH   1   2
ATOM      2  N   UNL A   1      32.904  29.549  24.726  1.00  0.00    -0.355 N 
ATOM      3  C   UNL A   1      33.326  28.430  24.070  1.00  0.00     0.239 C 
ATOM      4  O   UNL A   1      34.168  28.591  23.179  1.00  0.00    -0.273 OA
ATOM      5  H   UNL A   1      33.493  30.333  24.634  1.00  0.00     0.163 HD
BRANCH   3   6
ATOM      6  C   UNL A   1      32.712  27.037  24.309  1.00  0.00     0.220 C 
BRANCH   6   7
ATOM      7  N   UNL A   1      31.768  26.571  23.287  1.00  0.00    -0.324 N 
BRANCH   7   8
ATOM      8  C   UNL A   1      32.253  25.654  22.264  1.00  0.00     0.147 C 
BRANCH   8   9
ATOM      9  C   UNL A   1      32.435  24.283  22.837  1.00  0.00    -0.014 C 
ATOM     10  C   UNL A   1      33.385  23.435  22.418  1.00  0.00     0.006 C 
ENDBRANCH   8   9
ENDBRANCH   7   8
BRANCH   7  11
ATOM     11  C   UNL A   1      30.396  26.861  23.318  1.00  0.00     0.276 C 
ATOM     12  O   UNL A   1      29.571  26.079  23.792  1.00  0.00    -0.267 OA
BRANCH  11  13
ATOM     13  C   UNL A   1      29.963  28.122  22.737  1.00  0.00     0.170 A 
ATOM     14  C   UNL A   1      28.813  28.838  23.006  1.00  0.00     0.145 A 
ATOM     15  N   UNL A   1      30.698  28.798  21.796  1.00  0.00    -0.125 NA
ATOM     16  N   UNL A   1      28.880  29.907  22.156  1.00  0.00    -0.237 N 
ATOM     17  N   UNL A   1      30.027  29.890  21.452  1.00  0.00    -0.066 NA
BRANCH  16  18
ATOM     18  C   UNL A   1      27.902  30.935  21.944  1.00  0.00     0.218 C 
ATOM     19  C   UNL A   1      28.394  32.334  22.382  1.00  0.00     0.294 C 
ATOM     20  C   UNL A   1      27.895  31.561  20.533  1.00  0.00     0.294 C 
ATOM     21  N   UNL A   1      27.774  32.897  21.160  1.00  0.00    -0.342 N 
ATOM     22  H   UNL A   1      28.321  33.628  20.706  1.00  0.00     0.346 HD
ATOM     23  H   UNL A   1      26.878  33.385  21.197  1.00  0.00     0.346 HD
ENDBRANCH  16  18
ENDBRANCH  11  13
ENDBRANCH   7  11
ENDBRANCH   6   7
ENDBRANCH   3   6
ENDBRANCH   1   2
BRANCH   1  24
ATOM     24  C   UNL A   1      31.994  30.514  26.837  1.00  0.00     0.023 C 
BRANCH  24  25
ATOM     25  C   UNL A   1      31.505  31.960  26.881  1.00  0.00     0.023 C 
BRANCH  25  26
ATOM     26  C   UNL A   1      32.578  33.032  26.733  1.00  0.00     0.116 C 
BRANCH  26  27
ATOM     27  N   UNL A   1      32.362  34.198  27.574  1.00  0.00    -0.352 N 
ATOM     28  C   UNL A   1      33.077  34.622  28.670  1.00  0.00     0.251 C 
ATOM     29  H   UNL A   1      31.597  34.765  27.325  1.00  0.00     0.163 HD
ATOM     30  O   UNL A   1      32.704  35.607  29.300  1.00  0.00    -0.269 OA
BRANCH  28  31
ATOM     31  C   UNL A   1      34.266  33.865  29.119  1.00  0.00     0.039 A 
ATOM     32  C   UNL A   1      35.533  34.388  28.842  1.00  0.00     0.014 A 
ATOM     33  C   UNL A   1      34.142  32.664  29.822  1.00  0.00     0.014 A 
ATOM     34  C   UNL A   1      36.672  33.750  29.338  1.00  0.00     0.010 A 
ATOM     35  C   UNL A   1      35.272  32.062  30.368  1.00  0.00     0.010 A 
ATOM     36  C   UNL A   1      36.546  32.605  30.140  1.00  0.00    -0.014 A 
BRANCH  36  37
ATOM     37  C   UNL A   1      37.729  31.974  30.773  1.00  0.00     0.031 A 
ATOM     38  C   UNL A   1      38.492  30.899  30.057  1.00  0.00     0.074 A 
ATOM     39  C   UNL A   1      38.058  32.305  32.037  1.00  0.00     0.049 A 
ATOM     40  N   UNL A   1      39.490  30.168  30.485  1.00  0.00    -0.248 NA
ATOM     41  C   UNL A   1      38.055  30.579  28.690  1.00  0.00     0.031 C 
ATOM     42  C   UNL A   1      37.354  33.286  32.865  1.00  0.00     0.029 A 
ATOM     43  N   UNL A   1      39.053  31.832  32.854  1.00  0.00    -0.354 N 
ATOM     44  C   UNL A   1      39.781  29.286  29.455  1.00  0.00     0.074 A 
ATOM     45  C   UNL A   1      38.834  29.549  28.392  1.00  0.00     0.031 C 
ATOM     46  C   UNL A   1      37.943  33.347  34.070  1.00  0.00     0.029 A 
ATOM     47  C   UNL A   1      39.046  32.391  34.107  1.00  0.00     0.049 A 
ATOM     48  H   UNL A   1      39.709  31.156  32.568  1.00  0.00     0.167 HD
ATOM     49  C   UNL A   1      40.759  28.351  29.393  1.00  0.00     0.037 A 
ATOM     50  C   UNL A   1      39.834  32.155  35.173  1.00  0.00     0.037 A 
ATOM     51  C   UNL A   1      41.728  28.119  30.431  1.00  0.00     0.049 A 
ATOM     52  C   UNL A   1      40.939  31.145  35.066  1.00  0.00     0.074 A 
ATOM     53  C   UNL A   1      42.820  27.268  30.418  1.00  0.00     0.029 A 
ATOM     54  N   UNL A   1      41.719  28.740  31.671  1.00  0.00    -0.354 N 
ATOM     55  N   UNL A   1      41.259  30.377  34.054  1.00  0.00    -0.248 NA
ATOM     56  C   UNL A   1      41.797  30.974  36.247  1.00  0.00     0.031 C 
ATOM     57  C   UNL A   1      43.451  27.349  31.664  1.00  0.00     0.029 A 
ATOM     58  C   UNL A   1      42.773  28.274  32.440  1.00  0.00     0.049 A 
ATOM     59  H   UNL A   1      41.061  29.412  31.962  1.00  0.00     0.167 HD
ATOM     60  C   UNL A   1      42.361  29.642  34.467  1.00  0.00     0.074 A 
ATOM     61  C   UNL A   1      42.664  30.066  35.819  1.00  0.00     0.031 C 
ATOM     62  C   UNL A   1      43.059  28.700  33.786  1.00  0.00     0.037 A 
BRANCH  49  63
ATOM     63  C   UNL A   1      40.826  27.510  28.154  1.00  0.00     0.057 A 
ATOM     64  C   UNL A   1      40.141  26.292  28.049  1.00  0.00     0.134 A 
ATOM     65  C   UNL A   1      41.575  27.930  27.047  1.00  0.00     0.134 A 
ATOM     66  F   UNL A   1      39.419  25.828  29.079  1.00  0.00    -0.206 F 
ATOM     67  C   UNL A   1      40.221  25.509  26.897  1.00  0.00     0.040 A 
ATOM     68  C   UNL A   1      41.644  27.166  25.882  1.00  0.00     0.040 A 
ATOM     69  F   UNL A   1      42.251  29.088  27.081  1.00  0.00    -0.206 F 
ATOM     70  C   UNL A   1      40.971  25.947  25.808  1.00  0.00     0.006 A 
ENDBRANCH  49  63
BRANCH  50  71
ATOM     71  C   UNL A   1      39.611  32.911  36.428  1.00  0.00     0.057 A 
ATOM     72  C   UNL A   1      40.303  34.098  36.685  1.00  0.00     0.134 A 
ATOM     73  C   UNL A   1      38.685  32.479  37.384  1.00  0.00     0.134 A 
ATOM     74  F   UNL A   1      41.213  34.551  35.810  1.00  0.00    -0.206 F 
ATOM     75  C   UNL A   1      40.086  34.830  37.853  1.00  0.00     0.040 A 
ATOM     76  C   UNL A   1      38.446  33.210  38.549  1.00  0.00     0.040 A 
ATOM     77  F   UNL A   1      37.986  31.351  37.190  1.00  0.00    -0.206 F 
ATOM     78  C   UNL A   1      39.151  34.389  38.787  1.00  0.00     0.006 A 
ENDBRANCH  50  71
BRANCH  62  79
ATOM     79  C   UNL A   1      44.224  28.074  34.488  1.00  0.00     0.057 A 
ATOM     80  C   UNL A   1      45.498  28.653  34.455  1.00  0.00     0.134 A 
ATOM     81  C   UNL A   1      44.061  26.901  35.236  1.00  0.00     0.134 A 
ATOM     82  F   UNL A   1      45.720  29.769  33.743  1.00  0.00    -0.206 F 
ATOM     83  C   UNL A   1      46.576  28.080  35.132  1.00  0.00     0.040 A 
ATOM     84  C   UNL A   1      45.127  26.330  35.933  1.00  0.00     0.040 A 
ATOM     85  F   UNL A   1      42.864  26.302  35.312  1.00  0.00    -0.206 F 
ATOM     86  C   UNL A   1      46.389  26.918  35.879  1.00  0.00     0.006 A 
ENDBRANCH  62  79
ENDBRANCH  36  37
ENDBRANCH  28  31
ENDBRANCH  26  27
ENDBRANCH  25  26
ENDBRANCH  24  25
ENDBRANCH   1  24
TORSDOF 17
ENDMDL
MODEL 2
REMARK VINA RESULT:     -10.6      1.694      3.919
REMARK SMILES C=CCN(CC(=O)NCCCCNC(=O)c1ccc(-c2c3nc(c(-c4c(F)cccc4F)c4ccc([nH]4)c(-c4c(F)cccc4F)c4nc(c(-c5c(F)cccc5F)c5ccc2[nH]5)C=C4)C=C3)cc1)C(=O)c1cn(C2C[NH2+]C2)nn1
REMARK SMILES IDX 9 1 8 2 6 3 7 4 5 6 4 7 3 8 2 9 1 10 70 11 71 12 72 13 73 14
REMARK SMILES IDX 80 15 74 16 79 17 75 18 76 19 78 20 77 21 10 24 11 25 12 26
REMARK SMILES IDX 13 27 14 28 15 30 16 31 17 32 69 33 18 34 68 35 19 36 20 37
REMARK SMILES IDX 21 38 62 39 22 40 67 41 61 42 63 43 23 44 66 45 60 46 59 47
REMARK SMILES IDX 24 49 50 50 33 51 49 52 34 53 37 54 48 55 64 56 35 57 36 58
REMARK SMILES IDX 47 60 65 61 38 62 25 63 26 64 31 65 27 66 28 67 30 68 32 69
REMARK SMILES IDX 29 70 51 71 52 72 57 73 53 74 54 75 56 76 58 77 55 78 39 79
REMARK SMILES IDX 40 80 45 81 41 82 42 83 44 84 46 85 43 86
REMARK H PARENT 8 5 77 22 77 23 13 29 63 48 37 59
REMARK Flexibility Score: inf
ROOT
ATOM      1  C   UNL A   1      32.417  29.756  25.559  1.00  0.00     0.116 C 
ENDROOT
BRANCH   1   2
ATOM      2  N   UNL A   1      33.295  29.694  24.412  1.00  0.00    -0.355 N 
ATOM      3  C   UNL A   1      33.572  28.649  23.579  1.00  0.00     0.239 C 
ATOM      4  O   UNL A   1      34.078  28.927  22.487  1.00  0.00    -0.273 OA
ATOM      5  H   UNL A   1      33.767  30.532  24.200  1.00  0.00     0.163 HD
BRANCH   3   6
ATOM      6  C   UNL A   1      33.167  27.196  23.896  1.00  0.00     0.220 C 
BRANCH   6   7
ATOM      7  N   UNL A   1      32.440  26.490  22.835  1.00  0.00    -0.324 N 
BRANCH   7   8
ATOM      8  C   UNL A   1      31.109  26.959  22.477  1.00  0.00     0.147 C 
BRANCH   8   9
ATOM      9  C   UNL A   1      30.287  27.181  23.709  1.00  0.00    -0.014 C 
ATOM     10  C   UNL A   1      29.065  26.656  23.877  1.00  0.00     0.006 C 
ENDBRANCH   8   9
ENDBRANCH   7   8
BRANCH   7  11
ATOM     11  C   UNL A   1      33.011  25.467  22.062  1.00  0.00     0.276 C 
ATOM     12  O   UNL A   1      33.187  25.585  20.848  1.00  0.00    -0.267 OA
BRANCH  11  13
ATOM     13  C   UNL A   1      33.368  24.232  22.740  1.00  0.00     0.170 A 
ATOM     14  C   UNL A   1      32.564  23.417  23.513  1.00  0.00     0.145 A 
ATOM     15  N   UNL A   1      34.627  23.690  22.683  1.00  0.00    -0.125 NA
ATOM     16  N   UNL A   1      33.407  22.429  23.944  1.00  0.00    -0.237 N 
ATOM     17  N   UNL A   1      34.637  22.585  23.419  1.00  0.00    -0.066 NA
BRANCH  16  18
ATOM     18  C   UNL A   1      33.126  21.357  24.853  1.00  0.00     0.218 C 
ATOM     19  C   UNL A   1      32.884  20.008  24.137  1.00  0.00     0.294 C 
ATOM     20  C   UNL A   1      34.364  20.639  25.432  1.00  0.00     0.294 C 
ATOM     21  N   UNL A   1      33.688  19.344  25.190  1.00  0.00    -0.342 N 
ATOM     22  H   UNL A   1      34.302  18.603  24.850  1.00  0.00     0.346 HD
ATOM     23  H   UNL A   1      33.243  18.829  25.950  1.00  0.00     0.346 HD
ENDBRANCH  16  18
ENDBRANCH  11  13
ENDBRANCH   7  11
ENDBRANCH   6   7
ENDBRANCH   3   6
ENDBRANCH   1   2
BRANCH   1  24
ATOM     24  C   UNL A   1      31.116  30.516  25.301  1.00  0.00     0.023 C 
BRANCH  24  25
ATOM     25  C   UNL A   1      30.980  31.864  26.005  1.00  0.00     0.023 C 
BRANCH  25  26
ATOM     26  C   UNL A   1      32.068  32.201  27.019  1.00  0.00     0.116 C 
BRANCH  26  27
ATOM     27  N   UNL A   1      32.098  33.603  27.403  1.00  0.00    -0.352 N 
ATOM     28  C   UNL A   1      33.039  34.281  28.141  1.00  0.00     0.251 C 
ATOM     29  H   UNL A   1      31.337  34.144  27.092  1.00  0.00     0.163 HD
ATOM     30  O   UNL A   1      32.862  35.462  28.422  1.00  0.00    -0.269 OA
BRANCH  28  31
ATOM     31  C   UNL A   1      34.242  33.578  28.637  1.00  0.00     0.039 A 
ATOM     32  C   UNL A   1      35.464  34.257  28.626  1.00  0.00     0.014 A 
ATOM     33  C   UNL A   1      34.170  32.271  29.127  1.00  0.00     0.014 A 
ATOM     34  C   UNL A   1      36.598  33.657  29.178  1.00  0.00     0.010 A 
ATOM     35  C   UNL A   1      35.285  31.697  29.733  1.00  0.00     0.010 A 
ATOM     36  C   UNL A   1      36.506  32.389  29.773  1.00  0.00    -0.014 A 
BRANCH  36  37
ATOM     37  C   UNL A   1      37.665  31.778  30.468  1.00  0.00     0.031 A 
ATOM     38  C   UNL A   1      38.504  30.742  29.779  1.00  0.00     0.074 A 
ATOM     39  C   UNL A   1      37.903  32.089  31.757  1.00  0.00     0.049 A 
ATOM     40  N   UNL A   1      39.494  30.030  30.255  1.00  0.00    -0.248 NA
ATOM     41  C   UNL A   1      38.164  30.440  28.381  1.00  0.00     0.031 C 
ATOM     42  C   UNL A   1      37.119  33.031  32.558  1.00  0.00     0.029 A 
ATOM     43  N   UNL A   1      38.857  31.626  32.625  1.00  0.00    -0.354 N 
ATOM     44  C   UNL A   1      39.876  29.180  29.227  1.00  0.00     0.074 A 
ATOM     45  C   UNL A   1      38.990  29.440  28.112  1.00  0.00     0.031 C 
ATOM     46  C   UNL A   1      37.628  33.081  33.799  1.00  0.00     0.029 A 
ATOM     47  C   UNL A   1      38.754  32.156  33.887  1.00  0.00     0.049 A 
ATOM     48  H   UNL A   1      39.551  30.976  32.368  1.00  0.00     0.167 HD
ATOM     49  C   UNL A   1      40.883  28.276  29.209  1.00  0.00     0.037 A 
ATOM     50  C   UNL A   1      39.480  31.918  34.996  1.00  0.00     0.037 A 
ATOM     51  C   UNL A   1      41.791  28.048  30.302  1.00  0.00     0.049 A 
ATOM     52  C   UNL A   1      40.620  30.944  34.939  1.00  0.00     0.074 A 
ATOM     53  C   UNL A   1      42.906  27.228  30.341  1.00  0.00     0.029 A 
ATOM     54  N   UNL A   1      41.685  28.639  31.552  1.00  0.00    -0.354 N 
ATOM     55  N   UNL A   1      41.025  30.208  33.934  1.00  0.00    -0.248 NA
ATOM     56  C   UNL A   1      41.406  30.770  36.169  1.00  0.00     0.031 C 
ATOM     57  C   UNL A   1      43.455  27.299  31.627  1.00  0.00     0.029 A 
ATOM     58  C   UNL A   1      42.701  28.186  32.377  1.00  0.00     0.049 A 
ATOM     59  H   UNL A   1      40.990  29.285  31.814  1.00  0.00     0.167 HD
ATOM     60  C   UNL A   1      42.121  29.495  34.401  1.00  0.00     0.074 A 
ATOM     61  C   UNL A   1      42.325  29.897  35.778  1.00  0.00     0.031 C 
ATOM     62  C   UNL A   1      42.888  28.590  33.746  1.00  0.00     0.037 A 
BRANCH  49  63
ATOM     63  C   UNL A   1      41.054  27.465  27.960  1.00  0.00     0.057 A 
ATOM     64  C   UNL A   1      40.438  26.217  27.797  1.00  0.00     0.134 A 
ATOM     65  C   UNL A   1      41.835  27.945  26.900  1.00  0.00     0.134 A 
ATOM     66  F   UNL A   1      39.689  25.696  28.781  1.00  0.00    -0.206 F 
ATOM     67  C   UNL A   1      40.614  25.463  26.636  1.00  0.00     0.040 A 
ATOM     68  C   UNL A   1      42.000  27.209  25.726  1.00  0.00     0.040 A 
ATOM     69  F   UNL A   1      42.449  29.134  26.990  1.00  0.00    -0.206 F 
ATOM     70  C   UNL A   1      41.394  25.961  25.595  1.00  0.00     0.006 A 
ENDBRANCH  49  63
BRANCH  50  71
ATOM     71  C   UNL A   1      39.155  32.639  36.250  1.00  0.00     0.057 A 
ATOM     72  C   UNL A   1      38.310  32.069  37.208  1.00  0.00     0.134 A 
ATOM     73  C   UNL A   1      39.702  33.895  36.532  1.00  0.00     0.134 A 
ATOM     74  F   UNL A   1      37.746  30.873  36.984  1.00  0.00    -0.206 F 
ATOM     75  C   UNL A   1      38.013  32.728  38.402  1.00  0.00     0.040 A 
ATOM     76  C   UNL A   1      39.427  34.558  37.728  1.00  0.00     0.040 A 
ATOM     77  F   UNL A   1      40.525  34.488  35.654  1.00  0.00    -0.206 F 
ATOM     78  C   UNL A   1      38.577  33.974  38.667  1.00  0.00     0.006 A 
ENDBRANCH  50  71
BRANCH  62  79
ATOM     79  C   UNL A   1      44.025  27.981  34.509  1.00  0.00     0.057 A 
ATOM     80  C   UNL A   1      43.885  26.760  35.181  1.00  0.00     0.134 A 
ATOM     81  C   UNL A   1      45.279  28.601  34.539  1.00  0.00     0.134 A 
ATOM     82  F   UNL A   1      42.704  26.125  35.201  1.00  0.00    -0.206 F 
ATOM     83  C   UNL A   1      44.954  26.183  35.869  1.00  0.00     0.040 A 
ATOM     84  C   UNL A   1      46.360  28.024  35.207  1.00  0.00     0.040 A 
ATOM     85  F   UNL A   1      45.477  29.768  33.910  1.00  0.00    -0.206 F 
ATOM     86  C   UNL A   1      46.198  26.813  35.878  1.00  0.00     0.006 A 
ENDBRANCH  62  79
ENDBRANCH  36  37
ENDBRANCH  28  31
ENDBRANCH  26  27
ENDBRANCH  25  26
ENDBRANCH  24  25
ENDBRANCH   1  24
TORSDOF 17
ENDMDL
MODEL 3
REMARK VINA RESULT:     -10.5      5.289     10.023
REMARK SMILES C=CCN(CC(=O)NCCCCNC(=O)c1ccc(-c2c3nc(c(-c4c(F)cccc4F)c4ccc([nH]4)c(-c4c(F)cccc4F)c4nc(c(-c5c(F)cccc5F)c5ccc2[nH]5)C=C4)C=C3)cc1)C(=O)c1cn(C2C[NH2+]C2)nn1
REMARK SMILES IDX 9 1 8 2 6 3 7 4 5 6 4 7 3 8 2 9 1 10 70 11 71 12 72 13 73 14
REMARK SMILES IDX 80 15 74 16 79 17 75 18 76 19 78 20 77 21 10 24 11 25 12 26
REMARK SMILES IDX 13 27 14 28 15 30 16 31 17 32 69 33 18 34 68 35 19 36 20 37
REMARK SMILES IDX 21 38 62 39 22 40 67 41 61 42 63 43 23 44 66 45 60 46 59 47
REMARK SMILES IDX 24 49 50 50 33 51 49 52 34 53 37 54 48 55 64 56 35 57 36 58
REMARK SMILES IDX 47 60 65 61 38 62 25 63 26 64 31 65 27 66 28 67 30 68 32 69
REMARK SMILES IDX 29 70 51 71 52 72 57 73 53 74 54 75 56 76 58 77 55 78 39 79
REMARK SMILES IDX 40 80 45 81 41 82 42 83 44 84 46 85 43 86
REMARK H PARENT 8 5 77 22 77 23 13 29 63 48 37 59
REMARK Flexibility Score: inf
ROOT
ATOM      1  C   UNL A   1      35.684  21.231  24.899  1.00  0.00     0.116 C 
ENDROOT
BRANCH   1   2
ATOM      2  N   UNL A   1      35.291  21.371  26.283  1.00  0.00    -0.355 N 
ATOM      3  C   UNL A   1      34.600  22.374  26.898  1.00  0.00     0.239 C 
ATOM      4  O   UNL A   1      34.096  22.111  27.995  1.00  0.00    -0.273 OA
ATOM      5  H   UNL A   1      35.565  20.631  26.873  1.00  0.00     0.163 HD
BRANCH   3   6
ATOM      6  C   UNL A   1      34.328  23.736  26.229  1.00  0.00     0.220 C 
BRANCH   6   7
ATOM      7  N   UNL A   1      33.030  23.871  25.560  1.00  0.00    -0.324 N 
BRANCH   7   8
ATOM      8  C   UNL A   1      32.821  23.163  24.304  1.00  0.00     0.147 C 
BRANCH   8   9
ATOM      9  C   UNL A   1      31.967  21.954  24.524  1.00  0.00    -0.014 C 
ATOM     10  C   UNL A   1      32.278  20.742  24.042  1.00  0.00     0.006 C 
ENDBRANCH   8   9
ENDBRANCH   7   8
BRANCH   7  11
ATOM     11  C   UNL A   1      31.937  24.542  26.130  1.00  0.00     0.276 C 
ATOM     12  O   UNL A   1      31.459  24.212  27.216  1.00  0.00    -0.267 OA
BRANCH  11  13
ATOM     13  C   UNL A   1      31.356  25.641  25.374  1.00  0.00     0.170 A 
ATOM     14  C   UNL A   1      31.979  26.779  24.903  1.00  0.00     0.145 A 
ATOM     15  N   UNL A   1      30.033  25.675  25.012  1.00  0.00    -0.125 NA
ATOM     16  N   UNL A   1      30.971  27.491  24.313  1.00  0.00    -0.237 N 
ATOM     17  N   UNL A   1      29.811  26.809  24.359  1.00  0.00    -0.066 NA
BRANCH  16  18
ATOM     18  C   UNL A   1      31.032  28.801  23.733  1.00  0.00     0.218 C 
ATOM     19  C   UNL A   1      32.161  28.944  22.686  1.00  0.00     0.294 C 
ATOM     20  C   UNL A   1      30.105  29.031  22.520  1.00  0.00     0.294 C 
ATOM     21  N   UNL A   1      31.225  29.711  21.831  1.00  0.00    -0.342 N 
ATOM     22  H   UNL A   1      31.297  29.504  20.835  1.00  0.00     0.346 HD
ATOM     23  H   UNL A   1      31.272  30.728  21.774  1.00  0.00     0.346 HD
ENDBRANCH  16  18
ENDBRANCH  11  13
ENDBRANCH   7  11
ENDBRANCH   6   7
ENDBRANCH   3   6
ENDBRANCH   1   2
BRANCH   1  24
ATOM     24  C   UNL A   1      37.189  21.358  24.667  1.00  0.00     0.023 C 
BRANCH  24  25
ATOM     25  C   UNL A   1      38.015  20.104  24.944  1.00  0.00     0.023 C 
BRANCH  25  26
ATOM     26  C   UNL A   1      39.171  20.269  25.924  1.00  0.00     0.116 C 
BRANCH  26  27
ATOM     27  N   UNL A   1      40.145  19.191  25.870  1.00  0.00    -0.352 N 
ATOM     28  C   UNL A   1      41.503  19.235  26.081  1.00  0.00     0.251 C 
ATOM     29  H   UNL A   1      39.782  18.303  25.651  1.00  0.00     0.163 HD
ATOM     30  O   UNL A   1      42.180  18.224  25.928  1.00  0.00    -0.269 OA
BRANCH  28  31
ATOM     31  C   UNL A   1      42.156  20.512  26.446  1.00  0.00     0.039 A 
ATOM     32  C   UNL A   1      42.537  21.383  25.421  1.00  0.00     0.014 A 
ATOM     33  C   UNL A   1      42.377  20.861  27.781  1.00  0.00     0.014 A 
ATOM     34  C   UNL A   1      43.065  22.637  25.735  1.00  0.00     0.010 A 
ATOM     35  C   UNL A   1      42.845  22.134  28.095  1.00  0.00     0.010 A 
ATOM     36  C   UNL A   1      43.184  23.037  27.075  1.00  0.00    -0.014 A 
BRANCH  36  37
ATOM     37  C   UNL A   1      43.633  24.404  27.434  1.00  0.00     0.031 A 
ATOM     38  C   UNL A   1      42.638  25.443  27.858  1.00  0.00     0.074 A 
ATOM     39  C   UNL A   1      44.930  24.735  27.284  1.00  0.00     0.049 A 
ATOM     40  N   UNL A   1      42.828  26.712  28.118  1.00  0.00    -0.248 NA
ATOM     41  C   UNL A   1      41.238  25.008  27.973  1.00  0.00     0.031 C 
ATOM     42  C   UNL A   1      45.985  23.834  26.816  1.00  0.00     0.029 A 
ATOM     43  N   UNL A   1      45.576  25.927  27.487  1.00  0.00    -0.354 N 
ATOM     44  C   UNL A   1      41.572  27.232  28.399  1.00  0.00     0.074 A 
ATOM     45  C   UNL A   1      40.623  26.150  28.245  1.00  0.00     0.031 C 
ATOM     46  C   UNL A   1      47.147  24.503  26.773  1.00  0.00     0.029 A 
ATOM     47  C   UNL A   1      46.915  25.884  27.184  1.00  0.00     0.049 A 
ATOM     48  H   UNL A   1      45.124  26.736  27.819  1.00  0.00     0.167 HD
ATOM     49  C   UNL A   1      41.242  28.493  28.766  1.00  0.00     0.037 A 
ATOM     50  C   UNL A   1      47.850  26.852  27.224  1.00  0.00     0.037 A 
ATOM     51  C   UNL A   1      42.191  29.557  28.960  1.00  0.00     0.049 A 
ATOM     52  C   UNL A   1      47.469  28.231  27.676  1.00  0.00     0.074 A 
ATOM     53  C   UNL A   1      41.965  30.839  29.432  1.00  0.00     0.029 A 
ATOM     54  N   UNL A   1      43.547  29.464  28.688  1.00  0.00    -0.354 N 
ATOM     55  N   UNL A   1      46.291  28.689  28.022  1.00  0.00    -0.248 NA
ATOM     56  C   UNL A   1      48.547  29.227  27.749  1.00  0.00     0.031 C 
ATOM     57  C   UNL A   1      43.181  31.531  29.414  1.00  0.00     0.029 A 
ATOM     58  C   UNL A   1      44.168  30.672  28.962  1.00  0.00     0.049 A 
ATOM     59  H   UNL A   1      44.002  28.658  28.352  1.00  0.00     0.167 HD
ATOM     60  C   UNL A   1      46.485  30.019  28.368  1.00  0.00     0.074 A 
ATOM     61  C   UNL A   1      47.898  30.292  28.203  1.00  0.00     0.031 C 
ATOM     62  C   UNL A   1      45.574  30.931  28.786  1.00  0.00     0.037 A 
BRANCH  49  63
ATOM     63  C   UNL A   1      39.788  28.785  28.983  1.00  0.00     0.057 A 
ATOM     64  C   UNL A   1      39.177  28.610  30.231  1.00  0.00     0.134 A 
ATOM     65  C   UNL A   1      38.993  29.262  27.933  1.00  0.00     0.134 A 
ATOM     66  F   UNL A   1      39.881  28.143  31.273  1.00  0.00    -0.206 F 
ATOM     67  C   UNL A   1      37.819  28.872  30.421  1.00  0.00     0.040 A 
ATOM     68  C   UNL A   1      37.640  29.548  28.117  1.00  0.00     0.040 A 
ATOM     69  F   UNL A   1      39.518  29.455  26.714  1.00  0.00    -0.206 F 
ATOM     70  C   UNL A   1      37.048  29.346  29.362  1.00  0.00     0.006 A 
ENDBRANCH  49  63
BRANCH  50  71
ATOM     71  C   UNL A   1      49.246  26.535  26.840  1.00  0.00     0.057 A 
ATOM     72  C   UNL A   1      49.704  26.767  25.539  1.00  0.00     0.134 A 
ATOM     73  C   UNL A   1      50.158  26.019  27.767  1.00  0.00     0.134 A 
ATOM     74  F   UNL A   1      48.870  27.246  24.605  1.00  0.00    -0.206 F 
ATOM     75  C   UNL A   1      51.022  26.493  25.171  1.00  0.00     0.040 A 
ATOM     76  C   UNL A   1      51.482  25.756  27.417  1.00  0.00     0.040 A 
ATOM     77  F   UNL A   1      49.778  25.783  29.032  1.00  0.00    -0.206 F 
ATOM     78  C   UNL A   1      51.917  25.990  26.113  1.00  0.00     0.006 A 
ENDBRANCH  50  71
BRANCH  62  79
ATOM     79  C   UNL A   1      46.079  32.305  29.103  1.00  0.00     0.057 A 
ATOM     80  C   UNL A   1      46.550  32.636  30.379  1.00  0.00     0.134 A 
ATOM     81  C   UNL A   1      46.132  33.293  28.112  1.00  0.00     0.134 A 
ATOM     82  F   UNL A   1      46.512  31.737  31.374  1.00  0.00    -0.206 F 
ATOM     83  C   UNL A   1      47.045  33.911  30.663  1.00  0.00     0.040 A 
ATOM     84  C   UNL A   1      46.642  34.564  28.380  1.00  0.00     0.040 A 
ATOM     85  F   UNL A   1      45.701  33.035  26.869  1.00  0.00    -0.206 F 
ATOM     86  C   UNL A   1      47.096  34.877  29.660  1.00  0.00     0.006 A 
ENDBRANCH  62  79
ENDBRANCH  36  37
ENDBRANCH  28  31
ENDBRANCH  26  27
ENDBRANCH  25  26
ENDBRANCH  24  25
ENDBRANCH   1  24
TORSDOF 17
ENDMDL
