MODEL 1
REMARK VINA RESULT:     -13.2      0.000      0.000
REMARK SMILES CC(C)(C)c1cc(Nc2ccccc2C(=O)NCCCCNC(=O)c2ccc(-c3c4nc(c(-c5c(F)cccc5F)c5ccc([nH]5)c(-c5c(F)cccc5F)c5nc(c(-c6c(F)cccc6F)c6ccc3[nH]6)C=C5)C=C4)cc2)cc2c1OCC2(C)C
REMARK SMILES IDX 19 1 18 2 17 3 15 4 16 5 14 7 9 8 10 9 11 10 13 11 12 12
REMARK SMILES IDX 8 13 7 15 5 16 6 17 81 18 80 19 82 20 79 21 84 22 83 23
REMARK SMILES IDX 85 24 86 25 2 26 1 27 3 28 4 29 20 30 21 31 22 32 23 33
REMARK SMILES IDX 24 35 25 36 26 37 78 38 27 39 77 40 28 41 29 42 30 43 71 44
REMARK SMILES IDX 31 45 76 46 70 47 72 48 32 49 75 50 69 51 68 52 33 54 59 55
REMARK SMILES IDX 42 56 58 57 43 58 46 59 57 60 73 61 44 62 45 63 56 65 74 66
REMARK SMILES IDX 47 67 34 68 35 69 40 70 36 71 37 72 39 73 41 74 38 75 60 76
REMARK SMILES IDX 61 77 66 78 62 79 63 80 65 81 67 82 64 83 48 84 49 85 54 86
REMARK SMILES IDX 50 87 51 88 53 89 55 90 52 91
REMARK H PARENT 17 6 8 14 22 34 72 53 46 64
REMARK Flexibility Score: inf
ROOT
ATOM      1  C   UNL A   1      33.932  28.668  23.064  1.00  0.00     0.023 C 
ENDROOT
BRANCH   1   2
ATOM      2  C   UNL A   1      33.986  27.189  22.730  1.00  0.00     0.116 C 
BRANCH   2   3
ATOM      3  N   UNL A   1      33.184  26.733  21.633  1.00  0.00    -0.352 N 
ATOM      4  C   UNL A   1      31.938  26.158  21.666  1.00  0.00     0.253 C 
ATOM      5  O   UNL A   1      31.404  25.958  20.570  1.00  0.00    -0.269 OA
ATOM      6  H   UNL A   1      33.580  26.847  20.739  1.00  0.00     0.163 HD
BRANCH   4   7
ATOM      7  C   UNL A   1      31.223  25.685  22.899  1.00  0.00     0.063 A 
ATOM      8  C   UNL A   1      31.144  24.391  23.466  1.00  0.00     0.051 A 
ATOM      9  C   UNL A   1      30.525  24.251  24.733  1.00  0.00     0.027 A 
ATOM     10  C   UNL A   1      29.905  25.316  25.383  1.00  0.00     0.002 A 
ATOM     11  C   UNL A   1      30.585  26.751  23.583  1.00  0.00     0.016 A 
ATOM     12  C   UNL A   1      29.916  26.568  24.794  1.00  0.00     0.001 A 
BRANCH   8  13
ATOM     13  N   UNL A   1      31.583  23.190  22.860  1.00  0.00    -0.355 N 
ATOM     14  H   UNL A   1      31.095  22.885  22.061  1.00  0.00     0.167 HD
BRANCH  13  15
ATOM     15  C   UNL A   1      32.670  22.384  23.302  1.00  0.00     0.039 A 
ATOM     16  C   UNL A   1      33.500  20.166  24.112  1.00  0.00     0.002 A 
ATOM     17  C   UNL A   1      32.536  20.978  23.437  1.00  0.00     0.034 A 
ATOM     18  C   UNL A   1      34.642  20.831  24.552  1.00  0.00     0.127 A 
ATOM     19  C   UNL A   1      34.813  22.193  24.381  1.00  0.00     0.006 A 
ATOM     20  O   UNL A   1      35.695  20.254  25.206  1.00  0.00    -0.492 OA
ATOM     21  C   UNL A   1      33.838  22.974  23.788  1.00  0.00     0.034 A 
ATOM     22  C   UNL A   1      36.117  22.647  24.940  1.00  0.00     0.028 C 
ATOM     23  C   UNL A   1      36.690  21.288  25.375  1.00  0.00     0.240 C 
ATOM     24  C   UNL A   1      36.980  23.303  23.858  1.00  0.00     0.020 C 
ATOM     25  C   UNL A   1      35.931  23.594  26.130  1.00  0.00     0.020 C 
BRANCH  16  26
ATOM     26  C   UNL A   1      33.250  18.659  24.337  1.00  0.00    -0.009 C 
ATOM     27  C   UNL A   1      32.698  18.417  25.753  1.00  0.00     0.016 C 
ATOM     28  C   UNL A   1      34.492  17.743  24.234  1.00  0.00     0.016 C 
ATOM     29  C   UNL A   1      32.216  18.162  23.310  1.00  0.00     0.016 C 
ENDBRANCH  16  26
ENDBRANCH  13  15
ENDBRANCH   8  13
ENDBRANCH   4   7
ENDBRANCH   2   3
ENDBRANCH   1   2
BRANCH   1  30
ATOM     30  C   UNL A   1      32.870  29.136  24.060  1.00  0.00     0.023 C 
BRANCH  30  31
ATOM     31  C   UNL A   1      33.269  29.301  25.525  1.00  0.00     0.116 C 
BRANCH  31  32
ATOM     32  N   UNL A   1      32.712  30.463  26.208  1.00  0.00    -0.352 N 
ATOM     33  C   UNL A   1      33.252  31.308  27.156  1.00  0.00     0.251 C 
ATOM     34  H   UNL A   1      31.789  30.685  25.946  1.00  0.00     0.163 HD
ATOM     35  O   UNL A   1      32.596  32.233  27.626  1.00  0.00    -0.269 OA
BRANCH  33  36
ATOM     36  C   UNL A   1      34.623  31.080  27.636  1.00  0.00     0.039 A 
ATOM     37  C   UNL A   1      35.003  29.792  27.989  1.00  0.00     0.014 A 
ATOM     38  C   UNL A   1      35.520  32.145  27.765  1.00  0.00     0.014 A 
ATOM     39  C   UNL A   1      36.169  29.608  28.705  1.00  0.00     0.010 A 
ATOM     40  C   UNL A   1      36.767  31.928  28.362  1.00  0.00     0.010 A 
ATOM     41  C   UNL A   1      37.073  30.668  28.896  1.00  0.00    -0.014 A 
BRANCH  41  42
ATOM     42  C   UNL A   1      38.314  30.375  29.657  1.00  0.00     0.031 A 
ATOM     43  C   UNL A   1      38.462  30.775  31.098  1.00  0.00     0.074 A 
ATOM     44  C   UNL A   1      39.241  29.592  29.068  1.00  0.00     0.049 A 
ATOM     45  N   UNL A   1      39.388  30.425  31.956  1.00  0.00    -0.248 NA
ATOM     46  C   UNL A   1      37.451  31.689  31.653  1.00  0.00     0.031 C 
ATOM     47  C   UNL A   1      39.196  29.150  27.670  1.00  0.00     0.029 A 
ATOM     48  N   UNL A   1      40.343  28.961  29.580  1.00  0.00    -0.354 N 
ATOM     49  C   UNL A   1      39.085  31.088  33.139  1.00  0.00     0.074 A 
ATOM     50  C   UNL A   1      37.903  31.882  32.885  1.00  0.00     0.031 C 
ATOM     51  C   UNL A   1      40.150  28.231  27.469  1.00  0.00     0.029 A 
ATOM     52  C   UNL A   1      40.923  28.081  28.696  1.00  0.00     0.049 A 
ATOM     53  H   UNL A   1      40.686  29.120  30.489  1.00  0.00     0.167 HD
ATOM     54  C   UNL A   1      39.730  31.031  34.330  1.00  0.00     0.037 A 
ATOM     55  C   UNL A   1      41.960  27.241  28.855  1.00  0.00     0.037 A 
ATOM     56  C   UNL A   1      40.896  30.221  34.578  1.00  0.00     0.049 A 
ATOM     57  C   UNL A   1      42.653  27.198  30.184  1.00  0.00     0.074 A 
ATOM     58  C   UNL A   1      41.623  30.088  35.749  1.00  0.00     0.029 A 
ATOM     59  N   UNL A   1      41.504  29.404  33.637  1.00  0.00    -0.354 N 
ATOM     60  N   UNL A   1      42.350  27.827  31.294  1.00  0.00    -0.248 NA
ATOM     61  C   UNL A   1      43.841  26.342  30.278  1.00  0.00     0.031 C 
ATOM     62  C   UNL A   1      42.692  29.219  35.503  1.00  0.00     0.029 A 
ATOM     63  C   UNL A   1      42.607  28.776  34.193  1.00  0.00     0.049 A 
ATOM     64  H   UNL A   1      41.197  29.286  32.709  1.00  0.00     0.167 HD
ATOM     65  C   UNL A   1      43.308  27.444  32.219  1.00  0.00     0.074 A 
ATOM     66  C   UNL A   1      44.180  26.499  31.549  1.00  0.00     0.031 C 
ATOM     67  C   UNL A   1      43.465  27.848  33.503  1.00  0.00     0.037 A 
BRANCH  54  68
ATOM     68  C   UNL A   1      39.203  31.889  35.444  1.00  0.00     0.057 A 
ATOM     69  C   UNL A   1      38.304  31.366  36.382  1.00  0.00     0.134 A 
ATOM     70  C   UNL A   1      39.565  33.236  35.581  1.00  0.00     0.134 A 
ATOM     71  F   UNL A   1      37.910  30.085  36.308  1.00  0.00    -0.206 F 
ATOM     72  C   UNL A   1      37.783  32.150  37.415  1.00  0.00     0.040 A 
ATOM     73  C   UNL A   1      39.069  34.024  36.623  1.00  0.00     0.040 A 
ATOM     74  F   UNL A   1      40.433  33.797  34.726  1.00  0.00    -0.206 F 
ATOM     75  C   UNL A   1      38.172  33.481  37.541  1.00  0.00     0.006 A 
ENDBRANCH  54  68
BRANCH  55  76
ATOM     76  C   UNL A   1      42.407  26.388  27.726  1.00  0.00     0.057 A 
ATOM     77  C   UNL A   1      43.356  26.846  26.803  1.00  0.00     0.134 A 
ATOM     78  C   UNL A   1      41.897  25.099  27.537  1.00  0.00     0.134 A 
ATOM     79  F   UNL A   1      43.878  28.076  26.923  1.00  0.00    -0.206 F 
ATOM     80  C   UNL A   1      43.769  26.063  25.725  1.00  0.00     0.040 A 
ATOM     81  C   UNL A   1      42.324  24.292  26.481  1.00  0.00     0.040 A 
ATOM     82  F   UNL A   1      40.997  24.596  28.396  1.00  0.00    -0.206 F 
ATOM     83  C   UNL A   1      43.259  24.777  25.568  1.00  0.00     0.006 A 
ENDBRANCH  55  76
BRANCH  67  84
ATOM     84  C   UNL A   1      44.617  27.253  34.253  1.00  0.00     0.057 A 
ATOM     85  C   UNL A   1      45.862  27.892  34.278  1.00  0.00     0.134 A 
ATOM     86  C   UNL A   1      44.491  26.049  34.960  1.00  0.00     0.134 A 
ATOM     87  F   UNL A   1      46.049  29.044  33.616  1.00  0.00    -0.206 F 
ATOM     88  C   UNL A   1      46.940  27.360  34.985  1.00  0.00     0.040 A 
ATOM     89  C   UNL A   1      45.554  25.521  35.694  1.00  0.00     0.040 A 
ATOM     90  F   UNL A   1      43.319  25.399  34.991  1.00  0.00    -0.206 F 
ATOM     91  C   UNL A   1      46.784  26.176  35.704  1.00  0.00     0.006 A 
ENDBRANCH  67  84
ENDBRANCH  41  42
ENDBRANCH  33  36
ENDBRANCH  31  32
ENDBRANCH  30  31
ENDBRANCH   1  30
TORSDOF 14
ENDMDL
MODEL 2
REMARK VINA RESULT:     -13.1      2.275      3.711
REMARK SMILES CC(C)(C)c1cc(Nc2ccccc2C(=O)NCCCCNC(=O)c2ccc(-c3c4nc(c(-c5c(F)cccc5F)c5ccc([nH]5)c(-c5c(F)cccc5F)c5nc(c(-c6c(F)cccc6F)c6ccc3[nH]6)C=C5)C=C4)cc2)cc2c1OCC2(C)C
REMARK SMILES IDX 19 1 18 2 17 3 15 4 16 5 14 7 9 8 10 9 11 10 13 11 12 12
REMARK SMILES IDX 8 13 7 15 5 16 6 17 81 18 80 19 82 20 79 21 84 22 83 23
REMARK SMILES IDX 85 24 86 25 2 26 1 27 3 28 4 29 20 30 21 31 22 32 23 33
REMARK SMILES IDX 24 35 25 36 26 37 78 38 27 39 77 40 28 41 29 42 30 43 71 44
REMARK SMILES IDX 31 45 76 46 70 47 72 48 32 49 75 50 69 51 68 52 33 54 59 55
REMARK SMILES IDX 42 56 58 57 43 58 46 59 57 60 73 61 44 62 45 63 56 65 74 66
REMARK SMILES IDX 47 67 34 68 35 69 40 70 36 71 37 72 39 73 41 74 38 75 60 76
REMARK SMILES IDX 61 77 66 78 62 79 63 80 65 81 67 82 64 83 48 84 49 85 54 86
REMARK SMILES IDX 50 87 51 88 53 89 55 90 52 91
REMARK H PARENT 17 6 8 14 22 34 72 53 46 64
REMARK Flexibility Score: inf
ROOT
ATOM      1  C   UNL A   1      31.809  29.028  27.565  1.00  0.00     0.023 C 
ENDROOT
BRANCH   1   2
ATOM      2  C   UNL A   1      31.873  27.689  26.854  1.00  0.00     0.116 C 
BRANCH   2   3
ATOM      3  N   UNL A   1      30.739  26.822  26.983  1.00  0.00    -0.352 N 
ATOM      4  C   UNL A   1      30.329  25.819  26.139  1.00  0.00     0.253 C 
ATOM      5  O   UNL A   1      29.380  25.133  26.532  1.00  0.00    -0.269 OA
ATOM      6  H   UNL A   1      30.180  26.964  27.781  1.00  0.00     0.163 HD
BRANCH   4   7
ATOM      7  C   UNL A   1      30.876  25.550  24.766  1.00  0.00     0.063 A 
ATOM      8  C   UNL A   1      31.161  24.323  24.124  1.00  0.00     0.051 A 
ATOM      9  C   UNL A   1      31.527  24.352  22.755  1.00  0.00     0.027 A 
ATOM     10  C   UNL A   1      31.715  25.543  22.057  1.00  0.00     0.002 A 
ATOM     11  C   UNL A   1      31.074  26.747  24.032  1.00  0.00     0.016 A 
ATOM     12  C   UNL A   1      31.509  26.748  22.705  1.00  0.00     0.001 A 
BRANCH   8  13
ATOM     13  N   UNL A   1      31.169  23.046  24.736  1.00  0.00    -0.355 N 
ATOM     14  H   UNL A   1      30.315  22.715  25.094  1.00  0.00     0.167 HD
BRANCH  13  15
ATOM     15  C   UNL A   1      32.304  22.199  24.879  1.00  0.00     0.039 A 
ATOM     16  C   UNL A   1      34.792  21.934  24.877  1.00  0.00     0.002 A 
ATOM     17  C   UNL A   1      33.612  22.734  24.990  1.00  0.00     0.034 A 
ATOM     18  C   UNL A   1      34.578  20.564  24.748  1.00  0.00     0.127 A 
ATOM     19  C   UNL A   1      33.308  20.019  24.692  1.00  0.00     0.006 A 
ATOM     20  O   UNL A   1      35.555  19.613  24.640  1.00  0.00    -0.492 OA
ATOM     21  C   UNL A   1      32.178  20.816  24.732  1.00  0.00     0.034 A 
ATOM     22  C   UNL A   1      33.362  18.538  24.553  1.00  0.00     0.028 C 
ATOM     23  C   UNL A   1      34.884  18.334  24.631  1.00  0.00     0.240 C 
ATOM     24  C   UNL A   1      32.640  17.850  25.716  1.00  0.00     0.020 C 
ATOM     25  C   UNL A   1      32.793  18.067  23.211  1.00  0.00     0.020 C 
BRANCH  16  26
ATOM     26  C   UNL A   1      36.195  22.581  24.885  1.00  0.00    -0.009 C 
ATOM     27  C   UNL A   1      36.708  22.754  23.445  1.00  0.00     0.016 C 
ATOM     28  C   UNL A   1      37.304  21.786  25.609  1.00  0.00     0.016 C 
ATOM     29  C   UNL A   1      36.104  23.968  25.549  1.00  0.00     0.016 C 
ENDBRANCH  16  26
ENDBRANCH  13  15
ENDBRANCH   8  13
ENDBRANCH   4   7
ENDBRANCH   2   3
ENDBRANCH   1   2
BRANCH   1  30
ATOM     30  C   UNL A   1      31.763  30.291  26.705  1.00  0.00     0.023 C 
BRANCH  30  31
ATOM     31  C   UNL A   1      32.859  31.339  26.894  1.00  0.00     0.116 C 
BRANCH  31  32
ATOM     32  N   UNL A   1      32.409  32.653  27.340  1.00  0.00    -0.352 N 
ATOM     33  C   UNL A   1      33.017  33.601  28.137  1.00  0.00     0.251 C 
ATOM     34  H   UNL A   1      31.515  32.910  27.016  1.00  0.00     0.163 HD
ATOM     35  O   UNL A   1      32.448  34.654  28.415  1.00  0.00    -0.269 OA
BRANCH  33  36
ATOM     36  C   UNL A   1      34.354  33.337  28.691  1.00  0.00     0.039 A 
ATOM     37  C   UNL A   1      35.466  33.809  28.007  1.00  0.00     0.014 A 
ATOM     38  C   UNL A   1      34.505  32.596  29.867  1.00  0.00     0.014 A 
ATOM     39  C   UNL A   1      36.716  33.330  28.346  1.00  0.00     0.010 A 
ATOM     40  C   UNL A   1      35.787  32.232  30.292  1.00  0.00     0.010 A 
ATOM     41  C   UNL A   1      36.899  32.541  29.496  1.00  0.00    -0.014 A 
BRANCH  41  42
ATOM     42  C   UNL A   1      38.281  32.090  29.798  1.00  0.00     0.031 A 
ATOM     43  C   UNL A   1      39.120  32.782  30.837  1.00  0.00     0.074 A 
ATOM     44  C   UNL A   1      38.704  30.941  29.234  1.00  0.00     0.049 A 
ATOM     45  N   UNL A   1      40.259  32.399  31.359  1.00  0.00    -0.248 NA
ATOM     46  C   UNL A   1      38.629  34.068  31.356  1.00  0.00     0.031 C 
ATOM     47  C   UNL A   1      37.969  30.192  28.210  1.00  0.00     0.029 A 
ATOM     48  N   UNL A   1      39.797  30.159  29.496  1.00  0.00    -0.354 N 
ATOM     49  C   UNL A   1      40.629  33.401  32.248  1.00  0.00     0.074 A 
ATOM     50  C   UNL A   1      39.608  34.423  32.178  1.00  0.00     0.031 C 
ATOM     51  C   UNL A   1      38.566  29.009  28.017  1.00  0.00     0.029 A 
ATOM     52  C   UNL A   1      39.768  28.950  28.840  1.00  0.00     0.049 A 
ATOM     53  H   UNL A   1      40.531  30.434  30.092  1.00  0.00     0.167 HD
ATOM     54  C   UNL A   1      41.718  33.458  33.053  1.00  0.00     0.037 A 
ATOM     55  C   UNL A   1      40.612  27.905  28.898  1.00  0.00     0.037 A 
ATOM     56  C   UNL A   1      42.720  32.425  33.129  1.00  0.00     0.049 A 
ATOM     57  C   UNL A   1      41.806  27.996  29.799  1.00  0.00     0.074 A 
ATOM     58  C   UNL A   1      43.859  32.381  33.914  1.00  0.00     0.029 A 
ATOM     59  N   UNL A   1      42.700  31.250  32.391  1.00  0.00    -0.354 N 
ATOM     60  N   UNL A   1      42.138  28.948  30.637  1.00  0.00    -0.248 NA
ATOM     61  C   UNL A   1      42.752  26.874  29.751  1.00  0.00     0.031 C 
ATOM     62  C   UNL A   1      44.547  31.198  33.623  1.00  0.00     0.029 A 
ATOM     63  C   UNL A   1      43.814  30.482  32.689  1.00  0.00     0.049 A 
ATOM     64  H   UNL A   1      41.997  30.998  31.750  1.00  0.00     0.167 HD
ATOM     65  C   UNL A   1      43.331  28.543  31.216  1.00  0.00     0.074 A 
ATOM     66  C   UNL A   1      43.642  27.241  30.661  1.00  0.00     0.031 C 
ATOM     67  C   UNL A   1      44.108  29.194  32.115  1.00  0.00     0.037 A 
BRANCH  54  68
ATOM     68  C   UNL A   1      41.893  34.690  33.894  1.00  0.00     0.057 A 
ATOM     69  C   UNL A   1      42.584  35.801  33.393  1.00  0.00     0.134 A 
ATOM     70  C   UNL A   1      41.401  34.774  35.203  1.00  0.00     0.134 A 
ATOM     71  F   UNL A   1      43.086  35.787  32.149  1.00  0.00    -0.206 F 
ATOM     72  C   UNL A   1      42.779  36.950  34.163  1.00  0.00     0.040 A 
ATOM     73  C   UNL A   1      41.570  35.926  35.974  1.00  0.00     0.040 A 
ATOM     74  F   UNL A   1      40.718  33.752  35.740  1.00  0.00    -0.206 F 
ATOM     75  C   UNL A   1      42.264  37.018  35.455  1.00  0.00     0.006 A 
ENDBRANCH  54  68
BRANCH  55  76
ATOM     76  C   UNL A   1      40.360  26.699  28.071  1.00  0.00     0.057 A 
ATOM     77  C   UNL A   1      39.507  25.681  28.515  1.00  0.00     0.134 A 
ATOM     78  C   UNL A   1      40.967  26.530  26.822  1.00  0.00     0.134 A 
ATOM     79  F   UNL A   1      38.900  25.779  29.708  1.00  0.00    -0.206 F 
ATOM     80  C   UNL A   1      39.278  24.533  27.758  1.00  0.00     0.040 A 
ATOM     81  C   UNL A   1      40.723  25.400  26.038  1.00  0.00     0.040 A 
ATOM     82  F   UNL A   1      41.782  27.476  26.332  1.00  0.00    -0.206 F 
ATOM     83  C   UNL A   1      39.880  24.394  26.510  1.00  0.00     0.006 A 
ENDBRANCH  55  76
BRANCH  67  84
ATOM     84  C   UNL A   1      45.357  28.491  32.551  1.00  0.00     0.057 A 
ATOM     85  C   UNL A   1      45.340  27.608  33.636  1.00  0.00     0.134 A 
ATOM     86  C   UNL A   1      46.577  28.681  31.888  1.00  0.00     0.134 A 
ATOM     87  F   UNL A   1      44.204  27.387  34.316  1.00  0.00    -0.206 F 
ATOM     88  C   UNL A   1      46.489  26.932  34.044  1.00  0.00     0.040 A 
ATOM     89  C   UNL A   1      47.728  27.991  32.269  1.00  0.00     0.040 A 
ATOM     90  F   UNL A   1      46.655  29.501  30.829  1.00  0.00    -0.206 F 
ATOM     91  C   UNL A   1      47.686  27.115  33.353  1.00  0.00     0.006 A 
ENDBRANCH  67  84
ENDBRANCH  41  42
ENDBRANCH  33  36
ENDBRANCH  31  32
ENDBRANCH  30  31
ENDBRANCH   1  30
TORSDOF 14
ENDMDL
MODEL 3
REMARK VINA RESULT:     -12.9      2.626      7.509
REMARK SMILES CC(C)(C)c1cc(Nc2ccccc2C(=O)NCCCCNC(=O)c2ccc(-c3c4nc(c(-c5c(F)cccc5F)c5ccc([nH]5)c(-c5c(F)cccc5F)c5nc(c(-c6c(F)cccc6F)c6ccc3[nH]6)C=C5)C=C4)cc2)cc2c1OCC2(C)C
REMARK SMILES IDX 19 1 18 2 17 3 15 4 16 5 14 7 9 8 10 9 11 10 13 11 12 12
REMARK SMILES IDX 8 13 7 15 5 16 6 17 81 18 80 19 82 20 79 21 84 22 83 23
REMARK SMILES IDX 85 24 86 25 2 26 1 27 3 28 4 29 20 30 21 31 22 32 23 33
REMARK SMILES IDX 24 35 25 36 26 37 78 38 27 39 77 40 28 41 29 42 30 43 71 44
REMARK SMILES IDX 31 45 76 46 70 47 72 48 32 49 75 50 69 51 68 52 33 54 59 55
REMARK SMILES IDX 42 56 58 57 43 58 46 59 57 60 73 61 44 62 45 63 56 65 74 66
REMARK SMILES IDX 47 67 34 68 35 69 40 70 36 71 37 72 39 73 41 74 38 75 60 76
REMARK SMILES IDX 61 77 66 78 62 79 63 80 65 81 67 82 64 83 48 84 49 85 54 86
REMARK SMILES IDX 50 87 51 88 53 89 55 90 52 91
REMARK H PARENT 17 6 8 14 22 34 72 53 46 64
REMARK Flexibility Score: inf
ROOT
ATOM      1  C   UNL A   1      35.006  23.439  26.641  1.00  0.00     0.023 C 
ENDROOT
BRANCH   1   2
ATOM      2  C   UNL A   1      34.032  22.449  27.253  1.00  0.00     0.116 C 
BRANCH   2   3
ATOM      3  N   UNL A   1      32.724  22.934  27.582  1.00  0.00    -0.352 N 
ATOM      4  C   UNL A   1      31.633  23.076  26.761  1.00  0.00     0.253 C 
ATOM      5  O   UNL A   1      30.578  23.407  27.311  1.00  0.00    -0.269 OA
ATOM      6  H   UNL A   1      32.590  23.199  28.521  1.00  0.00     0.163 HD
BRANCH   4   7
ATOM      7  C   UNL A   1      31.640  22.948  25.264  1.00  0.00     0.063 A 
ATOM      8  C   UNL A   1      30.998  23.735  24.279  1.00  0.00     0.051 A 
ATOM      9  C   UNL A   1      31.303  23.485  22.918  1.00  0.00     0.027 A 
ATOM     10  C   UNL A   1      32.123  22.432  22.517  1.00  0.00     0.002 A 
ATOM     11  C   UNL A   1      32.471  21.884  24.828  1.00  0.00     0.016 A 
ATOM     12  C   UNL A   1      32.692  21.613  23.477  1.00  0.00     0.001 A 
BRANCH   8  13
ATOM     13  N   UNL A   1      30.024  24.733  24.518  1.00  0.00    -0.355 N 
ATOM     14  H   UNL A   1      29.085  24.442  24.569  1.00  0.00     0.167 HD
BRANCH  13  15
ATOM     15  C   UNL A   1      30.281  26.122  24.692  1.00  0.00     0.039 A 
ATOM     16  C   UNL A   1      29.929  28.478  23.924  1.00  0.00     0.002 A 
ATOM     17  C   UNL A   1      29.544  27.102  23.980  1.00  0.00     0.034 A 
ATOM     18  C   UNL A   1      31.032  28.824  24.701  1.00  0.00     0.127 A 
ATOM     19  C   UNL A   1      31.731  27.890  25.445  1.00  0.00     0.006 A 
ATOM     20  O   UNL A   1      31.565  30.078  24.811  1.00  0.00    -0.492 OA
ATOM     21  C   UNL A   1      31.386  26.551  25.431  1.00  0.00     0.034 A 
ATOM     22  C   UNL A   1      32.861  28.523  26.180  1.00  0.00     0.028 C 
ATOM     23  C   UNL A   1      32.622  29.991  25.791  1.00  0.00     0.240 C 
ATOM     24  C   UNL A   1      32.722  28.309  27.690  1.00  0.00     0.020 C 
ATOM     25  C   UNL A   1      34.220  28.018  25.686  1.00  0.00     0.020 C 
BRANCH  16  26
ATOM     26  C   UNL A   1      29.162  29.483  23.037  1.00  0.00    -0.009 C 
ATOM     27  C   UNL A   1      29.916  29.710  21.715  1.00  0.00     0.016 C 
ATOM     28  C   UNL A   1      28.964  30.897  23.629  1.00  0.00     0.016 C 
ATOM     29  C   UNL A   1      27.767  28.910  22.720  1.00  0.00     0.016 C 
ENDBRANCH  16  26
ENDBRANCH  13  15
ENDBRANCH   8  13
ENDBRANCH   4   7
ENDBRANCH   2   3
ENDBRANCH   1   2
BRANCH   1  30
ATOM     30  C   UNL A   1      36.322  22.893  26.085  1.00  0.00     0.023 C 
BRANCH  30  31
ATOM     31  C   UNL A   1      37.407  23.887  25.675  1.00  0.00     0.116 C 
BRANCH  31  32
ATOM     32  N   UNL A   1      38.780  23.406  25.777  1.00  0.00    -0.352 N 
ATOM     33  C   UNL A   1      39.869  23.900  26.467  1.00  0.00     0.251 C 
ATOM     34  H   UNL A   1      38.964  22.585  25.266  1.00  0.00     0.163 HD
ATOM     35  O   UNL A   1      40.963  23.346  26.403  1.00  0.00    -0.269 OA
BRANCH  33  36
ATOM     36  C   UNL A   1      39.727  25.127  27.266  1.00  0.00     0.039 A 
ATOM     37  C   UNL A   1      40.325  26.294  26.809  1.00  0.00     0.014 A 
ATOM     38  C   UNL A   1      39.031  25.113  28.478  1.00  0.00     0.014 A 
ATOM     39  C   UNL A   1      40.451  27.366  27.671  1.00  0.00     0.010 A 
ATOM     40  C   UNL A   1      39.038  26.252  29.290  1.00  0.00     0.010 A 
ATOM     41  C   UNL A   1      39.804  27.366  28.921  1.00  0.00    -0.014 A 
BRANCH  41  42
ATOM     42  C   UNL A   1      39.974  28.570  29.773  1.00  0.00     0.031 A 
ATOM     43  C   UNL A   1      38.956  29.676  29.776  1.00  0.00     0.074 A 
ATOM     44  C   UNL A   1      40.982  28.568  30.669  1.00  0.00     0.049 A 
ATOM     45  N   UNL A   1      38.850  30.692  30.597  1.00  0.00    -0.248 NA
ATOM     46  C   UNL A   1      37.927  29.650  28.725  1.00  0.00     0.031 C 
ATOM     47  C   UNL A   1      42.028  27.544  30.748  1.00  0.00     0.029 A 
ATOM     48  N   UNL A   1      41.246  29.394  31.729  1.00  0.00    -0.354 N 
ATOM     49  C   UNL A   1      37.762  31.433  30.152  1.00  0.00     0.074 A 
ATOM     50  C   UNL A   1      37.254  30.766  28.974  1.00  0.00     0.031 C 
ATOM     51  C   UNL A   1      42.746  27.734  31.863  1.00  0.00     0.029 A 
ATOM     52  C   UNL A   1      42.264  28.936  32.532  1.00  0.00     0.049 A 
ATOM     53  H   UNL A   1      40.756  30.231  31.900  1.00  0.00     0.167 HD
ATOM     54  C   UNL A   1      37.233  32.561  30.684  1.00  0.00     0.037 A 
ATOM     55  C   UNL A   1      42.755  29.427  33.683  1.00  0.00     0.037 A 
ATOM     56  C   UNL A   1      37.735  33.207  31.871  1.00  0.00     0.049 A 
ATOM     57  C   UNL A   1      42.148  30.675  34.249  1.00  0.00     0.074 A 
ATOM     58  C   UNL A   1      37.270  34.351  32.496  1.00  0.00     0.029 A 
ATOM     59  N   UNL A   1      38.819  32.761  32.613  1.00  0.00    -0.354 N 
ATOM     60  N   UNL A   1      41.116  31.360  33.819  1.00  0.00    -0.248 NA
ATOM     61  C   UNL A   1      42.783  31.228  35.451  1.00  0.00     0.031 C 
ATOM     62  C   UNL A   1      38.096  34.616  33.594  1.00  0.00     0.029 A 
ATOM     63  C   UNL A   1      39.049  33.614  33.680  1.00  0.00     0.049 A 
ATOM     64  H   UNL A   1      39.348  31.955  32.412  1.00  0.00     0.167 HD
ATOM     65  C   UNL A   1      40.977  32.425  34.695  1.00  0.00     0.074 A 
ATOM     66  C   UNL A   1      42.009  32.272  35.703  1.00  0.00     0.031 C 
ATOM     67  C   UNL A   1      40.088  33.447  34.663  1.00  0.00     0.037 A 
BRANCH  54  68
ATOM     68  C   UNL A   1      36.067  33.183  29.970  1.00  0.00     0.057 A 
ATOM     69  C   UNL A   1      36.264  33.932  28.802  1.00  0.00     0.134 A 
ATOM     70  C   UNL A   1      34.754  33.061  30.442  1.00  0.00     0.134 A 
ATOM     71  F   UNL A   1      37.497  34.093  28.297  1.00  0.00    -0.206 F 
ATOM     72  C   UNL A   1      35.200  34.537  28.131  1.00  0.00     0.040 A 
ATOM     73  C   UNL A   1      33.677  33.643  29.768  1.00  0.00     0.040 A 
ATOM     74  F   UNL A   1      34.491  32.346  31.546  1.00  0.00    -0.206 F 
ATOM     75  C   UNL A   1      33.900  34.387  28.610  1.00  0.00     0.006 A 
ENDBRANCH  54  68
BRANCH  55  76
ATOM     76  C   UNL A   1      43.883  28.742  34.363  1.00  0.00     0.057 A 
ATOM     77  C   UNL A   1      45.212  29.091  34.090  1.00  0.00     0.134 A 
ATOM     78  C   UNL A   1      43.664  27.723  35.296  1.00  0.00     0.134 A 
ATOM     79  F   UNL A   1      45.490  30.055  33.199  1.00  0.00    -0.206 F 
ATOM     80  C   UNL A   1      46.282  28.442  34.706  1.00  0.00     0.040 A 
ATOM     81  C   UNL A   1      44.724  27.086  35.943  1.00  0.00     0.040 A 
ATOM     82  F   UNL A   1      42.414  27.354  35.612  1.00  0.00    -0.206 F 
ATOM     83  C   UNL A   1      46.038  27.441  35.643  1.00  0.00     0.006 A 
ENDBRANCH  55  76
BRANCH  67  84
ATOM     84  C   UNL A   1      40.198  34.462  35.760  1.00  0.00     0.057 A 
ATOM     85  C   UNL A   1      41.010  35.592  35.611  1.00  0.00     0.134 A 
ATOM     86  C   UNL A   1      39.491  34.324  36.963  1.00  0.00     0.134 A 
ATOM     87  F   UNL A   1      41.717  35.778  34.486  1.00  0.00    -0.206 F 
ATOM     88  C   UNL A   1      41.110  36.554  36.615  1.00  0.00     0.040 A 
ATOM     89  C   UNL A   1      39.562  35.293  37.964  1.00  0.00     0.040 A 
ATOM     90  F   UNL A   1      38.682  33.272  37.159  1.00  0.00    -0.206 F 
ATOM     91  C   UNL A   1      40.377  36.411  37.792  1.00  0.00     0.006 A 
ENDBRANCH  67  84
ENDBRANCH  41  42
ENDBRANCH  33  36
ENDBRANCH  31  32
ENDBRANCH  30  31
ENDBRANCH   1  30
TORSDOF 14
ENDMDL
