MODEL 1
REMARK VINA RESULT:     -12.7      0.000      0.000
REMARK SMILES COc1ccc(-c2cc(F)cc(C(=O)NCCCCNC(=O)c3ccc(-c4c5nc(c(-c6c(F)cccc6F)c6ccc([nH]6)c(-c6c(F)cccc6F)c6nc(c(-c7c(F)cccc7F)c7ccc4[nH]7)C=C6)C=C5)cc3)c2)cc1C
REMARK SMILES IDX 17 1 16 2 15 3 13 4 14 5 12 7 7 8 8 9 77 10 9 11 10 12 11 13
REMARK SMILES IDX 6 14 3 15 4 16 79 17 5 18 78 19 80 20 2 21 1 22 18 23 19 24
REMARK SMILES IDX 20 25 21 26 22 28 23 29 24 30 76 31 25 32 75 33 26 34 27 35
REMARK SMILES IDX 28 36 69 37 29 38 74 39 68 40 70 41 30 42 73 43 67 44 66 45
REMARK SMILES IDX 31 47 57 48 40 49 56 50 41 51 44 52 55 53 71 54 42 55 43 56
REMARK SMILES IDX 54 58 72 59 45 60 32 61 33 62 38 63 34 64 35 65 37 66 39 67
REMARK SMILES IDX 36 68 58 69 59 70 64 71 60 72 61 73 63 74 65 75 62 76 46 77
REMARK SMILES IDX 47 78 52 79 48 80 49 81 51 82 53 83 50 84
REMARK H PARENT 15 6 20 27 70 46 44 57
REMARK Flexibility Score: inf
ROOT
ATOM      1  C   UNL A   1      31.782  28.822  27.254  1.00  0.00     0.023 C 
ENDROOT
BRANCH   1   2
ATOM      2  C   UNL A   1      31.635  27.737  26.178  1.00  0.00     0.116 C 
BRANCH   2   3
ATOM      3  N   UNL A   1      31.401  26.423  26.753  1.00  0.00    -0.352 N 
ATOM      4  C   UNL A   1      31.820  25.149  26.465  1.00  0.00     0.251 C 
ATOM      5  O   UNL A   1      31.414  24.265  27.224  1.00  0.00    -0.269 OA
ATOM      6  H   UNL A   1      30.800  26.454  27.532  1.00  0.00     0.163 HD
BRANCH   4   7
ATOM      7  C   UNL A   1      32.726  24.757  25.339  1.00  0.00     0.043 A 
ATOM      8  C   UNL A   1      34.921  23.812  24.718  1.00  0.00    -0.015 A 
ATOM      9  C   UNL A   1      34.592  23.999  23.371  1.00  0.00     0.048 A 
ATOM     10  C   UNL A   1      33.977  24.194  25.690  1.00  0.00     0.022 A 
ATOM     11  C   UNL A   1      33.362  24.531  23.022  1.00  0.00     0.124 A 
ATOM     12  F   UNL A   1      33.064  24.700  21.728  1.00  0.00    -0.207 F 
ATOM     13  C   UNL A   1      32.426  24.895  23.985  1.00  0.00     0.053 A 
BRANCH   8  14
ATOM     14  C   UNL A   1      36.233  23.249  25.064  1.00  0.00    -0.018 A 
ATOM     15  C   UNL A   1      38.601  21.999  25.955  1.00  0.00     0.121 A 
ATOM     16  C   UNL A   1      38.326  23.329  26.290  1.00  0.00     0.047 A 
ATOM     17  C   UNL A   1      37.699  21.274  25.168  1.00  0.00    -0.008 A 
ATOM     18  C   UNL A   1      37.157  23.954  25.843  1.00  0.00     0.012 A 
ATOM     19  C   UNL A   1      36.538  21.922  24.711  1.00  0.00     0.016 A 
ATOM     20  C   UNL A   1      37.889  19.827  24.818  1.00  0.00     0.048 C 
BRANCH  15  21
ATOM     21  O   UNL A   1      39.708  21.461  26.558  1.00  0.00    -0.496 OA
ATOM     22  C   UNL A   1      40.944  21.993  26.092  1.00  0.00     0.278 C 
ENDBRANCH  15  21
ENDBRANCH   8  14
ENDBRANCH   4   7
ENDBRANCH   2   3
ENDBRANCH   1   2
BRANCH   1  23
ATOM     23  C   UNL A   1      33.234  29.150  27.627  1.00  0.00     0.023 C 
BRANCH  23  24
ATOM     24  C   UNL A   1      33.734  30.485  27.084  1.00  0.00     0.116 C 
BRANCH  24  25
ATOM     25  N   UNL A   1      34.231  31.414  28.091  1.00  0.00    -0.352 N 
ATOM     26  C   UNL A   1      35.330  31.302  28.933  1.00  0.00     0.251 C 
ATOM     27  H   UNL A   1      33.712  32.245  28.188  1.00  0.00     0.163 HD
ATOM     28  O   UNL A   1      35.564  32.170  29.753  1.00  0.00    -0.269 OA
BRANCH  26  29
ATOM     29  C   UNL A   1      36.300  30.192  28.729  1.00  0.00     0.039 A 
ATOM     30  C   UNL A   1      36.486  29.293  29.788  1.00  0.00     0.014 A 
ATOM     31  C   UNL A   1      37.165  30.173  27.639  1.00  0.00     0.014 A 
ATOM     32  C   UNL A   1      37.686  28.597  29.887  1.00  0.00     0.010 A 
ATOM     33  C   UNL A   1      38.396  29.564  27.782  1.00  0.00     0.010 A 
ATOM     34  C   UNL A   1      38.684  28.849  28.949  1.00  0.00    -0.014 A 
BRANCH  34  35
ATOM     35  C   UNL A   1      40.088  28.538  29.184  1.00  0.00     0.031 A 
ATOM     36  C   UNL A   1      40.666  27.264  28.714  1.00  0.00     0.074 A 
ATOM     37  C   UNL A   1      40.877  29.461  29.783  1.00  0.00     0.049 A 
ATOM     38  N   UNL A   1      41.763  26.766  29.176  1.00  0.00    -0.248 NA
ATOM     39  C   UNL A   1      40.011  26.396  27.738  1.00  0.00     0.031 C 
ATOM     40  C   UNL A   1      42.336  29.474  29.848  1.00  0.00     0.029 A 
ATOM     41  N   UNL A   1      40.482  30.486  30.659  1.00  0.00    -0.354 N 
ATOM     42  C   UNL A   1      42.114  25.717  28.364  1.00  0.00     0.074 A 
ATOM     43  C   UNL A   1      40.929  25.431  27.598  1.00  0.00     0.031 C 
ATOM     44  C   UNL A   1      42.718  30.225  30.892  1.00  0.00     0.029 A 
ATOM     45  C   UNL A   1      41.516  30.601  31.614  1.00  0.00     0.049 A 
ATOM     46  H   UNL A   1      39.654  31.016  30.616  1.00  0.00     0.167 HD
ATOM     47  C   UNL A   1      43.417  25.322  28.335  1.00  0.00     0.037 A 
ATOM     48  C   UNL A   1      41.300  30.358  32.938  1.00  0.00     0.037 A 
ATOM     49  C   UNL A   1      44.163  25.900  29.456  1.00  0.00     0.049 A 
ATOM     50  C   UNL A   1      42.142  29.242  33.509  1.00  0.00     0.074 A 
ATOM     51  C   UNL A   1      45.123  26.890  29.552  1.00  0.00     0.029 A 
ATOM     52  N   UNL A   1      43.763  25.608  30.758  1.00  0.00    -0.354 N 
ATOM     53  N   UNL A   1      42.771  28.362  32.781  1.00  0.00    -0.248 NA
ATOM     54  C   UNL A   1      42.322  29.009  34.940  1.00  0.00     0.031 C 
ATOM     55  C   UNL A   1      45.224  27.263  30.921  1.00  0.00     0.029 A 
ATOM     56  C   UNL A   1      44.365  26.463  31.656  1.00  0.00     0.049 A 
ATOM     57  H   UNL A   1      43.137  24.889  31.003  1.00  0.00     0.167 HD
ATOM     58  C   UNL A   1      43.390  27.447  33.593  1.00  0.00     0.074 A 
ATOM     59  C   UNL A   1      43.102  27.913  34.938  1.00  0.00     0.031 C 
ATOM     60  C   UNL A   1      44.068  26.377  33.083  1.00  0.00     0.037 A 
BRANCH  47  61
ATOM     61  C   UNL A   1      44.086  24.583  27.191  1.00  0.00     0.057 A 
ATOM     62  C   UNL A   1      44.932  23.486  27.456  1.00  0.00     0.134 A 
ATOM     63  C   UNL A   1      44.064  24.972  25.835  1.00  0.00     0.134 A 
ATOM     64  F   UNL A   1      45.073  22.997  28.698  1.00  0.00    -0.206 F 
ATOM     65  C   UNL A   1      45.696  22.849  26.466  1.00  0.00     0.040 A 
ATOM     66  C   UNL A   1      44.783  24.309  24.828  1.00  0.00     0.040 A 
ATOM     67  F   UNL A   1      43.402  26.049  25.402  1.00  0.00    -0.206 F 
ATOM     68  C   UNL A   1      45.618  23.253  25.144  1.00  0.00     0.006 A 
ENDBRANCH  47  61
BRANCH  48  69
ATOM     69  C   UNL A   1      39.937  30.730  33.392  1.00  0.00     0.057 A 
ATOM     70  C   UNL A   1      39.663  32.086  33.633  1.00  0.00     0.134 A 
ATOM     71  C   UNL A   1      38.844  29.880  33.206  1.00  0.00     0.134 A 
ATOM     72  F   UNL A   1      40.670  32.953  33.821  1.00  0.00    -0.206 F 
ATOM     73  C   UNL A   1      38.363  32.597  33.579  1.00  0.00     0.040 A 
ATOM     74  C   UNL A   1      37.537  30.380  33.153  1.00  0.00     0.040 A 
ATOM     75  F   UNL A   1      39.028  28.577  32.949  1.00  0.00    -0.206 F 
ATOM     76  C   UNL A   1      37.298  31.747  33.300  1.00  0.00     0.006 A 
ENDBRANCH  48  69
BRANCH  60  77
ATOM     77  C   UNL A   1      44.579  25.189  33.867  1.00  0.00     0.057 A 
ATOM     78  C   UNL A   1      43.760  24.242  34.504  1.00  0.00     0.134 A 
ATOM     79  C   UNL A   1      45.959  24.881  33.879  1.00  0.00     0.134 A 
ATOM     80  F   UNL A   1      42.424  24.333  34.474  1.00  0.00    -0.206 F 
ATOM     81  C   UNL A   1      44.278  23.113  35.157  1.00  0.00     0.040 A 
ATOM     82  C   UNL A   1      46.481  23.730  34.479  1.00  0.00     0.040 A 
ATOM     83  F   UNL A   1      46.864  25.674  33.286  1.00  0.00    -0.206 F 
ATOM     84  C   UNL A   1      45.641  22.847  35.136  1.00  0.00     0.006 A 
ENDBRANCH  60  77
ENDBRANCH  34  35
ENDBRANCH  26  29
ENDBRANCH  24  25
ENDBRANCH  23  24
ENDBRANCH   1  23
TORSDOF 13
ENDMDL
MODEL 2
REMARK VINA RESULT:     -12.3      1.551      2.355
REMARK SMILES COc1ccc(-c2cc(F)cc(C(=O)NCCCCNC(=O)c3ccc(-c4c5nc(c(-c6c(F)cccc6F)c6ccc([nH]6)c(-c6c(F)cccc6F)c6nc(c(-c7c(F)cccc7F)c7ccc4[nH]7)C=C6)C=C5)cc3)c2)cc1C
REMARK SMILES IDX 17 1 16 2 15 3 13 4 14 5 12 7 7 8 8 9 77 10 9 11 10 12 11 13
REMARK SMILES IDX 6 14 3 15 4 16 79 17 5 18 78 19 80 20 2 21 1 22 18 23 19 24
REMARK SMILES IDX 20 25 21 26 22 28 23 29 24 30 76 31 25 32 75 33 26 34 27 35
REMARK SMILES IDX 28 36 69 37 29 38 74 39 68 40 70 41 30 42 73 43 67 44 66 45
REMARK SMILES IDX 31 47 57 48 40 49 56 50 41 51 44 52 55 53 71 54 42 55 43 56
REMARK SMILES IDX 54 58 72 59 45 60 32 61 33 62 38 63 34 64 35 65 37 66 39 67
REMARK SMILES IDX 36 68 58 69 59 70 64 71 60 72 61 73 63 74 65 75 62 76 46 77
REMARK SMILES IDX 47 78 52 79 48 80 49 81 51 82 53 83 50 84
REMARK H PARENT 15 6 20 27 70 46 44 57
REMARK Flexibility Score: inf
ROOT
ATOM      1  C   UNL A   1      33.631  28.885  27.271  1.00  0.00     0.023 C 
ENDROOT
BRANCH   1   2
ATOM      2  C   UNL A   1      32.336  28.083  27.462  1.00  0.00     0.116 C 
BRANCH   2   3
ATOM      3  N   UNL A   1      31.592  27.940  26.221  1.00  0.00    -0.352 N 
ATOM      4  C   UNL A   1      31.088  26.881  25.510  1.00  0.00     0.251 C 
ATOM      5  O   UNL A   1      30.472  27.170  24.481  1.00  0.00    -0.269 OA
ATOM      6  H   UNL A   1      31.409  28.805  25.790  1.00  0.00     0.163 HD
BRANCH   4   7
ATOM      7  C   UNL A   1      31.207  25.436  25.884  1.00  0.00     0.043 A 
ATOM      8  C   UNL A   1      32.696  23.469  25.987  1.00  0.00    -0.015 A 
ATOM      9  C   UNL A   1      31.625  22.715  26.478  1.00  0.00     0.048 A 
ATOM     10  C   UNL A   1      32.472  24.828  25.697  1.00  0.00     0.022 A 
ATOM     11  C   UNL A   1      30.390  23.310  26.681  1.00  0.00     0.124 A 
ATOM     12  F   UNL A   1      29.377  22.573  27.154  1.00  0.00    -0.207 F 
ATOM     13  C   UNL A   1      30.177  24.656  26.405  1.00  0.00     0.053 A 
BRANCH   8  14
ATOM     14  C   UNL A   1      33.996  22.816  25.778  1.00  0.00    -0.018 A 
ATOM     15  C   UNL A   1      36.520  21.744  25.115  1.00  0.00     0.121 A 
ATOM     16  C   UNL A   1      35.350  21.016  24.875  1.00  0.00     0.047 A 
ATOM     17  C   UNL A   1      36.448  23.017  25.692  1.00  0.00    -0.008 A 
ATOM     18  C   UNL A   1      34.098  21.542  25.211  1.00  0.00     0.012 A 
ATOM     19  C   UNL A   1      35.183  23.523  26.040  1.00  0.00     0.016 A 
ATOM     20  C   UNL A   1      37.649  23.887  25.922  1.00  0.00     0.048 C 
BRANCH  15  21
ATOM     21  O   UNL A   1      37.670  21.181  24.626  1.00  0.00    -0.496 OA
ATOM     22  C   UNL A   1      37.802  19.790  24.901  1.00  0.00     0.278 C 
ENDBRANCH  15  21
ENDBRANCH   8  14
ENDBRANCH   4   7
ENDBRANCH   2   3
ENDBRANCH   1   2
BRANCH   1  23
ATOM     23  C   UNL A   1      33.492  30.388  27.544  1.00  0.00     0.023 C 
BRANCH  23  24
ATOM     24  C   UNL A   1      34.804  31.163  27.474  1.00  0.00     0.116 C 
BRANCH  24  25
ATOM     25  N   UNL A   1      35.261  31.721  28.740  1.00  0.00    -0.352 N 
ATOM     26  C   UNL A   1      36.181  31.217  29.649  1.00  0.00     0.251 C 
ATOM     27  H   UNL A   1      34.857  32.584  28.987  1.00  0.00     0.163 HD
ATOM     28  O   UNL A   1      36.402  31.809  30.689  1.00  0.00    -0.269 OA
BRANCH  26  29
ATOM     29  C   UNL A   1      37.003  30.032  29.281  1.00  0.00     0.039 A 
ATOM     30  C   UNL A   1      37.177  29.038  30.254  1.00  0.00     0.014 A 
ATOM     31  C   UNL A   1      37.764  30.008  28.116  1.00  0.00     0.014 A 
ATOM     32  C   UNL A   1      38.298  28.216  30.193  1.00  0.00     0.010 A 
ATOM     33  C   UNL A   1      38.929  29.266  28.102  1.00  0.00     0.010 A 
ATOM     34  C   UNL A   1      39.234  28.436  29.185  1.00  0.00    -0.014 A 
BRANCH  34  35
ATOM     35  C   UNL A   1      40.610  27.964  29.268  1.00  0.00     0.031 A 
ATOM     36  C   UNL A   1      40.983  26.636  28.742  1.00  0.00     0.074 A 
ATOM     37  C   UNL A   1      41.560  28.785  29.774  1.00  0.00     0.049 A 
ATOM     38  N   UNL A   1      42.059  26.011  29.084  1.00  0.00    -0.248 NA
ATOM     39  C   UNL A   1      40.131  25.857  27.846  1.00  0.00     0.031 C 
ATOM     40  C   UNL A   1      43.010  28.629  29.679  1.00  0.00     0.029 A 
ATOM     41  N   UNL A   1      41.384  29.840  30.684  1.00  0.00    -0.354 N 
ATOM     42  C   UNL A   1      42.197  24.936  28.242  1.00  0.00     0.074 A 
ATOM     43  C   UNL A   1      40.911  24.795  27.610  1.00  0.00     0.031 C 
ATOM     44  C   UNL A   1      43.586  29.322  30.673  1.00  0.00     0.029 A 
ATOM     45  C   UNL A   1      42.522  29.827  31.520  1.00  0.00     0.049 A 
ATOM     46  H   UNL A   1      40.622  30.462  30.729  1.00  0.00     0.167 HD
ATOM     47  C   UNL A   1      43.435  24.395  28.073  1.00  0.00     0.037 A 
ATOM     48  C   UNL A   1      42.424  29.598  32.861  1.00  0.00     0.037 A 
ATOM     49  C   UNL A   1      44.360  24.873  29.104  1.00  0.00     0.049 A 
ATOM     50  C   UNL A   1      43.189  28.388  33.341  1.00  0.00     0.074 A 
ATOM     51  C   UNL A   1      45.432  25.745  29.091  1.00  0.00     0.029 A 
ATOM     52  N   UNL A   1      44.072  24.617  30.443  1.00  0.00    -0.354 N 
ATOM     53  N   UNL A   1      43.630  27.448  32.552  1.00  0.00    -0.248 NA
ATOM     54  C   UNL A   1      43.495  28.123  34.745  1.00  0.00     0.031 C 
ATOM     55  C   UNL A   1      45.723  26.092  30.439  1.00  0.00     0.029 A 
ATOM     56  C   UNL A   1      44.863  25.390  31.267  1.00  0.00     0.049 A 
ATOM     57  H   UNL A   1      43.398  23.973  30.757  1.00  0.00     0.167 HD
ATOM     58  C   UNL A   1      44.223  26.461  33.295  1.00  0.00     0.074 A 
ATOM     59  C   UNL A   1      44.139  26.945  34.661  1.00  0.00     0.031 C 
ATOM     60  C   UNL A   1      44.715  25.325  32.718  1.00  0.00     0.037 A 
BRANCH  47  61
ATOM     61  C   UNL A   1      43.886  23.594  26.865  1.00  0.00     0.057 A 
ATOM     62  C   UNL A   1      44.571  24.232  25.810  1.00  0.00     0.134 A 
ATOM     63  C   UNL A   1      43.563  22.246  26.603  1.00  0.00     0.134 A 
ATOM     64  F   UNL A   1      44.944  25.518  25.896  1.00  0.00    -0.206 F 
ATOM     65  C   UNL A   1      44.888  23.592  24.602  1.00  0.00     0.040 A 
ATOM     66  C   UNL A   1      43.921  21.580  25.421  1.00  0.00     0.040 A 
ATOM     67  F   UNL A   1      42.829  21.504  27.436  1.00  0.00    -0.206 F 
ATOM     68  C   UNL A   1      44.571  22.258  24.406  1.00  0.00     0.006 A 
ENDBRANCH  47  61
BRANCH  48  69
ATOM     69  C   UNL A   1      41.170  30.120  33.459  1.00  0.00     0.057 A 
ATOM     70  C   UNL A   1      41.087  31.494  33.738  1.00  0.00     0.134 A 
ATOM     71  C   UNL A   1      39.970  29.410  33.384  1.00  0.00     0.134 A 
ATOM     72  F   UNL A   1      42.205  32.232  33.824  1.00  0.00    -0.206 F 
ATOM     73  C   UNL A   1      39.860  32.157  33.825  1.00  0.00     0.040 A 
ATOM     74  C   UNL A   1      38.734  30.063  33.473  1.00  0.00     0.040 A 
ATOM     75  F   UNL A   1      39.968  28.100  33.100  1.00  0.00    -0.206 F 
ATOM     76  C   UNL A   1      38.678  31.444  33.654  1.00  0.00     0.006 A 
ENDBRANCH  48  69
BRANCH  60  77
ATOM     77  C   UNL A   1      45.167  24.079  33.446  1.00  0.00     0.057 A 
ATOM     78  C   UNL A   1      46.434  23.912  34.028  1.00  0.00     0.134 A 
ATOM     79  C   UNL A   1      44.253  23.033  33.708  1.00  0.00     0.134 A 
ATOM     80  F   UNL A   1      47.368  24.870  33.969  1.00  0.00    -0.206 F 
ATOM     81  C   UNL A   1      46.784  22.766  34.760  1.00  0.00     0.040 A 
ATOM     82  C   UNL A   1      44.573  21.912  34.482  1.00  0.00     0.040 A 
ATOM     83  F   UNL A   1      42.994  23.063  33.243  1.00  0.00    -0.206 F 
ATOM     84  C   UNL A   1      45.849  21.767  34.998  1.00  0.00     0.006 A 
ENDBRANCH  60  77
ENDBRANCH  34  35
ENDBRANCH  26  29
ENDBRANCH  24  25
ENDBRANCH  23  24
ENDBRANCH   1  23
TORSDOF 13
ENDMDL
MODEL 3
REMARK VINA RESULT:     -12.0      1.392      2.197
REMARK SMILES COc1ccc(-c2cc(F)cc(C(=O)NCCCCNC(=O)c3ccc(-c4c5nc(c(-c6c(F)cccc6F)c6ccc([nH]6)c(-c6c(F)cccc6F)c6nc(c(-c7c(F)cccc7F)c7ccc4[nH]7)C=C6)C=C5)cc3)c2)cc1C
REMARK SMILES IDX 17 1 16 2 15 3 13 4 14 5 12 7 7 8 8 9 77 10 9 11 10 12 11 13
REMARK SMILES IDX 6 14 3 15 4 16 79 17 5 18 78 19 80 20 2 21 1 22 18 23 19 24
REMARK SMILES IDX 20 25 21 26 22 28 23 29 24 30 76 31 25 32 75 33 26 34 27 35
REMARK SMILES IDX 28 36 69 37 29 38 74 39 68 40 70 41 30 42 73 43 67 44 66 45
REMARK SMILES IDX 31 47 57 48 40 49 56 50 41 51 44 52 55 53 71 54 42 55 43 56
REMARK SMILES IDX 54 58 72 59 45 60 32 61 33 62 38 63 34 64 35 65 37 66 39 67
REMARK SMILES IDX 36 68 58 69 59 70 64 71 60 72 61 73 63 74 65 75 62 76 46 77
REMARK SMILES IDX 47 78 52 79 48 80 49 81 51 82 53 83 50 84
REMARK H PARENT 15 6 20 27 70 46 44 57
REMARK Flexibility Score: inf
ROOT
ATOM      1  C   UNL A   1      32.074  29.558  25.215  1.00  0.00     0.023 C 
ENDROOT
BRANCH   1   2
ATOM      2  C   UNL A   1      33.197  28.513  25.168  1.00  0.00     0.116 C 
BRANCH   2   3
ATOM      3  N   UNL A   1      33.099  27.657  23.997  1.00  0.00    -0.352 N 
ATOM      4  C   UNL A   1      33.222  26.310  23.768  1.00  0.00     0.251 C 
ATOM      5  O   UNL A   1      33.038  25.945  22.604  1.00  0.00    -0.269 OA
ATOM      6  H   UNL A   1      32.899  28.162  23.177  1.00  0.00     0.163 HD
BRANCH   4   7
ATOM      7  C   UNL A   1      33.537  25.270  24.798  1.00  0.00     0.043 A 
ATOM      8  C   UNL A   1      35.246  23.722  25.681  1.00  0.00    -0.015 A 
ATOM      9  C   UNL A   1      34.312  23.266  26.618  1.00  0.00     0.048 A 
ATOM     10  C   UNL A   1      34.843  24.725  24.779  1.00  0.00     0.022 A 
ATOM     11  C   UNL A   1      33.039  23.808  26.652  1.00  0.00     0.124 A 
ATOM     12  F   UNL A   1      32.160  23.361  27.558  1.00  0.00    -0.207 F 
ATOM     13  C   UNL A   1      32.650  24.809  25.769  1.00  0.00     0.053 A 
BRANCH   8  14
ATOM     14  C   UNL A   1      36.590  23.129  25.661  1.00  0.00    -0.018 A 
ATOM     15  C   UNL A   1      39.080  21.818  25.877  1.00  0.00     0.121 A 
ATOM     16  C   UNL A   1      38.928  23.138  26.316  1.00  0.00     0.047 A 
ATOM     17  C   UNL A   1      37.992  21.134  25.322  1.00  0.00    -0.008 A 
ATOM     18  C   UNL A   1      37.697  23.793  26.202  1.00  0.00     0.012 A 
ATOM     19  C   UNL A   1      36.766  21.813  25.199  1.00  0.00     0.016 A 
ATOM     20  C   UNL A   1      38.055  19.698  24.888  1.00  0.00     0.048 C 
BRANCH  15  21
ATOM     21  O   UNL A   1      40.291  21.243  26.160  1.00  0.00    -0.496 OA
ATOM     22  C   UNL A   1      40.634  21.253  27.542  1.00  0.00     0.278 C 
ENDBRANCH  15  21
ENDBRANCH   8  14
ENDBRANCH   4   7
ENDBRANCH   2   3
ENDBRANCH   1   2
BRANCH   1  23
ATOM     23  C   UNL A   1      32.136  30.501  26.425  1.00  0.00     0.023 C 
BRANCH  23  24
ATOM     24  C   UNL A   1      33.265  30.191  27.403  1.00  0.00     0.116 C 
BRANCH  24  25
ATOM     25  N   UNL A   1      33.844  31.352  28.065  1.00  0.00    -0.352 N 
ATOM     26  C   UNL A   1      35.060  31.481  28.725  1.00  0.00     0.251 C 
ATOM     27  H   UNL A   1      33.293  32.168  28.041  1.00  0.00     0.163 HD
ATOM     28  O   UNL A   1      35.356  32.531  29.264  1.00  0.00    -0.269 OA
BRANCH  26  29
ATOM     29  C   UNL A   1      36.059  30.381  28.643  1.00  0.00     0.039 A 
ATOM     30  C   UNL A   1      36.338  29.673  29.820  1.00  0.00     0.014 A 
ATOM     31  C   UNL A   1      36.860  30.209  27.519  1.00  0.00     0.014 A 
ATOM     32  C   UNL A   1      37.569  29.037  29.955  1.00  0.00     0.010 A 
ATOM     33  C   UNL A   1      38.120  29.667  27.681  1.00  0.00     0.010 A 
ATOM     34  C   UNL A   1      38.501  29.160  28.928  1.00  0.00    -0.014 A 
BRANCH  34  35
ATOM     35  C   UNL A   1      39.927  28.932  29.123  1.00  0.00     0.031 A 
ATOM     36  C   UNL A   1      40.529  27.622  28.808  1.00  0.00     0.074 A 
ATOM     37  C   UNL A   1      40.709  29.958  29.533  1.00  0.00     0.049 A 
ATOM     38  N   UNL A   1      41.669  27.232  29.272  1.00  0.00    -0.248 NA
ATOM     39  C   UNL A   1      39.859  26.599  28.009  1.00  0.00     0.031 C 
ATOM     40  C   UNL A   1      42.168  30.026  29.509  1.00  0.00     0.029 A 
ATOM     41  N   UNL A   1      40.321  31.087  30.273  1.00  0.00    -0.354 N 
ATOM     42  C   UNL A   1      42.018  26.087  28.601  1.00  0.00     0.074 A 
ATOM     43  C   UNL A   1      40.805  25.655  27.956  1.00  0.00     0.031 C 
ATOM     44  C   UNL A   1      42.575  30.935  30.409  1.00  0.00     0.029 A 
ATOM     45  C   UNL A   1      41.400  31.374  31.139  1.00  0.00     0.049 A 
ATOM     46  H   UNL A   1      39.471  31.578  30.203  1.00  0.00     0.167 HD
ATOM     47  C   UNL A   1      43.332  25.735  28.553  1.00  0.00     0.037 A 
ATOM     48  C   UNL A   1      41.265  31.321  32.495  1.00  0.00     0.037 A 
ATOM     49  C   UNL A   1      44.113  26.494  29.532  1.00  0.00     0.049 A 
ATOM     50  C   UNL A   1      42.181  30.329  33.171  1.00  0.00     0.074 A 
ATOM     51  C   UNL A   1      45.037  27.517  29.427  1.00  0.00     0.029 A 
ATOM     52  N   UNL A   1      43.796  26.383  30.884  1.00  0.00    -0.354 N 
ATOM     53  N   UNL A   1      42.805  29.372  32.542  1.00  0.00    -0.248 NA
ATOM     54  C   UNL A   1      42.446  30.314  34.607  1.00  0.00     0.031 C 
ATOM     55  C   UNL A   1      45.196  28.090  30.719  1.00  0.00     0.029 A 
ATOM     56  C   UNL A   1      44.411  27.381  31.612  1.00  0.00     0.049 A 
ATOM     57  H   UNL A   1      43.213  25.689  31.267  1.00  0.00     0.167 HD
ATOM     58  C   UNL A   1      43.502  28.607  33.440  1.00  0.00     0.074 A 
ATOM     59  C   UNL A   1      43.269  29.256  34.717  1.00  0.00     0.031 C 
ATOM     60  C   UNL A   1      44.194  27.495  33.051  1.00  0.00     0.037 A 
BRANCH  47  61
ATOM     61  C   UNL A   1      43.967  24.857  27.490  1.00  0.00     0.057 A 
ATOM     62  C   UNL A   1      44.401  25.423  26.273  1.00  0.00     0.134 A 
ATOM     63  C   UNL A   1      44.054  23.449  27.527  1.00  0.00     0.134 A 
ATOM     64  F   UNL A   1      44.374  26.749  26.070  1.00  0.00    -0.206 F 
ATOM     65  C   UNL A   1      44.861  24.657  25.190  1.00  0.00     0.040 A 
ATOM     66  C   UNL A   1      44.561  22.677  26.472  1.00  0.00     0.040 A 
ATOM     67  F   UNL A   1      43.599  22.725  28.553  1.00  0.00    -0.206 F 
ATOM     68  C   UNL A   1      44.951  23.278  25.289  1.00  0.00     0.006 A 
ENDBRANCH  47  61
BRANCH  48  69
ATOM     69  C   UNL A   1      39.915  31.712  32.970  1.00  0.00     0.057 A 
ATOM     70  C   UNL A   1      38.994  30.695  33.270  1.00  0.00     0.134 A 
ATOM     71  C   UNL A   1      39.661  32.979  33.500  1.00  0.00     0.134 A 
ATOM     72  F   UNL A   1      39.181  29.455  32.790  1.00  0.00    -0.206 F 
ATOM     73  C   UNL A   1      37.930  30.898  34.152  1.00  0.00     0.040 A 
ATOM     74  C   UNL A   1      38.596  33.197  34.382  1.00  0.00     0.040 A 
ATOM     75  F   UNL A   1      40.507  33.995  33.276  1.00  0.00    -0.206 F 
ATOM     76  C   UNL A   1      37.751  32.146  34.741  1.00  0.00     0.006 A 
ENDBRANCH  48  69
BRANCH  60  77
ATOM     77  C   UNL A   1      44.794  26.452  33.967  1.00  0.00     0.057 A 
ATOM     78  C   UNL A   1      46.159  26.359  34.285  1.00  0.00     0.134 A 
ATOM     79  C   UNL A   1      43.957  25.569  34.689  1.00  0.00     0.134 A 
ATOM     80  F   UNL A   1      47.060  27.208  33.773  1.00  0.00    -0.206 F 
ATOM     81  C   UNL A   1      46.659  25.420  35.200  1.00  0.00     0.040 A 
ATOM     82  C   UNL A   1      44.439  24.667  35.644  1.00  0.00     0.040 A 
ATOM     83  F   UNL A   1      42.627  25.560  34.517  1.00  0.00    -0.206 F 
ATOM     84  C   UNL A   1      45.798  24.578  35.891  1.00  0.00     0.006 A 
ENDBRANCH  60  77
ENDBRANCH  34  35
ENDBRANCH  26  29
ENDBRANCH  24  25
ENDBRANCH  23  24
ENDBRANCH   1  23
TORSDOF 13
ENDMDL
