MODEL 1
REMARK VINA RESULT:     -13.8      0.000      0.000
REMARK SMILES Cc1ccc(NC(=O)c2ccccc2NC(=O)[C@H]2CCCC[C@H]2C(=O)NCCCCNC(=O)c2ccc(-c3c4nc(c(-c5c(F)cccc5F)c5ccc([nH]5)c(-c5c(F)cccc5F)c5nc(c(-c6c(F)cccc6F)c6ccc3[nH]6)C=C5)C=C4)cc2)cc1
REMARK SMILES IDX 27 1 26 2 24 3 25 4 23 6 18 7 19 8 20 9 22 10 21 11 16 12
REMARK SMILES IDX 15 13 17 15 14 16 9 17 10 18 11 19 13 20 12 21 7 22 6 23
REMARK SMILES IDX 8 25 5 26 1 27 2 28 3 29 89 30 4 31 88 32 28 33 29 34 30 35
REMARK SMILES IDX 31 36 32 37 33 39 34 40 35 41 87 42 36 43 86 44 37 45 38 46
REMARK SMILES IDX 39 47 80 48 40 49 85 50 79 51 81 52 41 53 84 54 78 55 77 56
REMARK SMILES IDX 42 58 68 59 51 60 67 61 52 62 55 63 66 64 82 65 53 66 54 67
REMARK SMILES IDX 65 69 83 70 56 71 43 72 44 73 49 74 45 75 46 76 48 77 50 78
REMARK SMILES IDX 47 79 69 80 70 81 75 82 71 83 72 84 74 85 76 86 73 87 57 88
REMARK SMILES IDX 58 89 63 90 59 91 60 92 62 93 64 94 61 95
REMARK H PARENT 26 5 15 14 6 24 31 38 81 57 55 68
REMARK Flexibility Score: inf
ROOT
ATOM      1  C   UNL A   1      35.362  29.455  27.453  1.00  0.00     0.116 C 
ENDROOT
BRANCH   1   2
ATOM      2  N   UNL A   1      34.022  29.012  27.810  1.00  0.00    -0.356 N 
ATOM      3  C   UNL A   1      32.911  28.718  27.093  1.00  0.00     0.223 C 
ATOM      4  O   UNL A   1      31.878  28.555  27.756  1.00  0.00    -0.275 OA
ATOM      5  H   UNL A   1      33.896  28.902  28.780  1.00  0.00     0.163 HD
BRANCH   3   6
ATOM      6  C   UNL A   1      32.822  28.603  25.567  1.00  0.00     0.091 C 
ATOM      7  C   UNL A   1      33.520  27.356  24.980  1.00  0.00     0.091 C 
ATOM      8  C   UNL A   1      33.574  27.427  23.441  1.00  0.00     0.014 C 
ATOM      9  C   UNL A   1      32.237  27.810  22.795  1.00  0.00     0.001 C 
ATOM     10  C   UNL A   1      31.495  28.986  24.911  1.00  0.00     0.014 C 
ATOM     11  C   UNL A   1      31.650  29.086  23.392  1.00  0.00     0.001 C 
BRANCH   7  12
ATOM     12  C   UNL A   1      32.838  26.062  25.351  1.00  0.00     0.228 C 
ATOM     13  N   UNL A   1      33.417  24.837  25.307  1.00  0.00    -0.325 N 
ATOM     14  H   UNL A   1      32.828  24.166  25.720  1.00  0.00     0.169 HD
ATOM     15  O   UNL A   1      31.676  26.085  25.778  1.00  0.00    -0.274 OA
BRANCH  13  16
ATOM     16  C   UNL A   1      34.602  24.233  24.852  1.00  0.00     0.054 A 
ATOM     17  C   UNL A   1      34.661  23.679  23.542  1.00  0.00     0.063 A 
ATOM     18  C   UNL A   1      35.829  22.993  23.139  1.00  0.00     0.016 A 
ATOM     19  C   UNL A   1      36.931  22.879  23.978  1.00  0.00     0.001 A 
ATOM     20  C   UNL A   1      35.751  24.167  25.649  1.00  0.00     0.027 A 
ATOM     21  C   UNL A   1      36.895  23.479  25.227  1.00  0.00     0.002 A 
BRANCH  17  22
ATOM     22  C   UNL A   1      33.548  23.546  22.548  1.00  0.00     0.257 C 
ATOM     23  N   UNL A   1      32.657  22.506  22.429  1.00  0.00    -0.322 N 
ATOM     24  H   UNL A   1      32.081  22.591  21.635  1.00  0.00     0.170 HD
ATOM     25  O   UNL A   1      33.443  24.440  21.698  1.00  0.00    -0.269 OA
BRANCH  23  26
ATOM     26  C   UNL A   1      32.377  21.355  23.172  1.00  0.00     0.041 A 
ATOM     27  C   UNL A   1      32.814  17.533  25.052  1.00  0.00     0.044 C 
ATOM     28  C   UNL A   1      32.506  18.856  24.415  1.00  0.00    -0.051 A 
ATOM     29  C   UNL A   1      32.548  20.031  25.177  1.00  0.00     0.005 A 
ATOM     30  C   UNL A   1      32.252  18.942  23.045  1.00  0.00     0.005 A 
ATOM     31  C   UNL A   1      32.469  21.282  24.558  1.00  0.00     0.026 A 
ATOM     32  C   UNL A   1      32.156  20.188  22.431  1.00  0.00     0.026 A 
ENDBRANCH  23  26
ENDBRANCH  17  22
ENDBRANCH  13  16
ENDBRANCH   7  12
ENDBRANCH   3   6
ENDBRANCH   1   2
BRANCH   1  33
ATOM     33  C   UNL A   1      35.544  30.943  27.760  1.00  0.00     0.023 C 
BRANCH  33  34
ATOM     34  C   UNL A   1      34.488  31.626  28.606  1.00  0.00     0.023 C 
BRANCH  34  35
ATOM     35  C   UNL A   1      35.046  32.399  29.780  1.00  0.00     0.116 C 
BRANCH  35  36
ATOM     36  N   UNL A   1      34.136  33.360  30.396  1.00  0.00    -0.352 N 
ATOM     37  C   UNL A   1      34.187  33.947  31.658  1.00  0.00     0.251 C 
ATOM     38  H   UNL A   1      33.373  33.633  29.837  1.00  0.00     0.163 HD
ATOM     39  O   UNL A   1      33.321  34.732  32.000  1.00  0.00    -0.269 OA
BRANCH  37  40
ATOM     40  C   UNL A   1      35.399  33.745  32.507  1.00  0.00     0.039 A 
ATOM     41  C   UNL A   1      36.493  34.582  32.263  1.00  0.00     0.014 A 
ATOM     42  C   UNL A   1      35.585  32.546  33.173  1.00  0.00     0.014 A 
ATOM     43  C   UNL A   1      37.775  34.049  32.347  1.00  0.00     0.010 A 
ATOM     44  C   UNL A   1      36.822  31.952  33.059  1.00  0.00     0.010 A 
ATOM     45  C   UNL A   1      37.912  32.684  32.581  1.00  0.00    -0.014 A 
BRANCH  45  46
ATOM     46  C   UNL A   1      39.105  31.919  32.226  1.00  0.00     0.031 A 
ATOM     47  C   UNL A   1      38.986  30.720  31.366  1.00  0.00     0.074 A 
ATOM     48  C   UNL A   1      40.329  32.362  32.597  1.00  0.00     0.049 A 
ATOM     49  N   UNL A   1      39.858  29.773  31.314  1.00  0.00    -0.248 NA
ATOM     50  C   UNL A   1      37.832  30.472  30.510  1.00  0.00     0.031 C 
ATOM     51  C   UNL A   1      41.624  31.901  32.100  1.00  0.00     0.029 A 
ATOM     52  N   UNL A   1      40.655  33.211  33.666  1.00  0.00    -0.354 N 
ATOM     53  C   UNL A   1      39.533  28.948  30.259  1.00  0.00     0.074 A 
ATOM     54  C   UNL A   1      38.238  29.404  29.821  1.00  0.00     0.031 C 
ATOM     55  C   UNL A   1      42.573  32.215  32.994  1.00  0.00     0.029 A 
ATOM     56  C   UNL A   1      41.907  32.773  34.156  1.00  0.00     0.049 A 
ATOM     57  H   UNL A   1      40.119  33.963  34.007  1.00  0.00     0.167 HD
ATOM     58  C   UNL A   1      40.457  28.052  29.808  1.00  0.00     0.037 A 
ATOM     59  C   UNL A   1      42.052  32.312  35.431  1.00  0.00     0.037 A 
ATOM     60  C   UNL A   1      41.651  28.069  30.651  1.00  0.00     0.049 A 
ATOM     61  C   UNL A   1      42.500  30.870  35.516  1.00  0.00     0.074 A 
ATOM     62  C   UNL A   1      42.883  28.689  30.519  1.00  0.00     0.029 A 
ATOM     63  N   UNL A   1      41.567  27.639  31.971  1.00  0.00    -0.354 N 
ATOM     64  N   UNL A   1      42.459  30.038  34.513  1.00  0.00    -0.248 NA
ATOM     65  C   UNL A   1      42.993  30.241  36.738  1.00  0.00     0.031 C 
ATOM     66  C   UNL A   1      43.519  28.678  31.786  1.00  0.00     0.029 A 
ATOM     67  C   UNL A   1      42.684  28.034  32.682  1.00  0.00     0.049 A 
ATOM     68  H   UNL A   1      40.816  27.125  32.347  1.00  0.00     0.167 HD
ATOM     69  C   UNL A   1      42.849  28.793  34.932  1.00  0.00     0.074 A 
ATOM     70  C   UNL A   1      43.203  28.978  36.326  1.00  0.00     0.031 C 
ATOM     71  C   UNL A   1      42.823  27.713  34.095  1.00  0.00     0.037 A 
BRANCH  58  72
ATOM     72  C   UNL A   1      40.405  27.373  28.452  1.00  0.00     0.057 A 
ATOM     73  C   UNL A   1      39.763  26.126  28.297  1.00  0.00     0.134 A 
ATOM     74  C   UNL A   1      41.009  27.848  27.275  1.00  0.00     0.134 A 
ATOM     75  F   UNL A   1      39.030  25.583  29.277  1.00  0.00    -0.206 F 
ATOM     76  C   UNL A   1      39.834  25.366  27.121  1.00  0.00     0.040 A 
ATOM     77  C   UNL A   1      41.136  27.077  26.108  1.00  0.00     0.040 A 
ATOM     78  F   UNL A   1      41.444  29.106  27.162  1.00  0.00    -0.206 F 
ATOM     79  C   UNL A   1      40.560  25.820  26.033  1.00  0.00     0.006 A 
ENDBRANCH  58  72
BRANCH  59  80
ATOM     80  C   UNL A   1      41.166  32.998  36.405  1.00  0.00     0.057 A 
ATOM     81  C   UNL A   1      41.571  34.246  36.908  1.00  0.00     0.134 A 
ATOM     82  C   UNL A   1      39.812  32.673  36.524  1.00  0.00     0.134 A 
ATOM     83  F   UNL A   1      42.862  34.615  36.832  1.00  0.00    -0.206 F 
ATOM     84  C   UNL A   1      40.654  35.182  37.392  1.00  0.00     0.040 A 
ATOM     85  C   UNL A   1      38.884  33.601  37.013  1.00  0.00     0.040 A 
ATOM     86  F   UNL A   1      39.346  31.511  36.045  1.00  0.00    -0.206 F 
ATOM     87  C   UNL A   1      39.298  34.872  37.409  1.00  0.00     0.006 A 
ENDBRANCH  59  80
BRANCH  71  88
ATOM     88  C   UNL A   1      42.994  26.268  34.498  1.00  0.00     0.057 A 
ATOM     89  C   UNL A   1      42.041  25.529  35.214  1.00  0.00     0.134 A 
ATOM     90  C   UNL A   1      44.095  25.520  34.021  1.00  0.00     0.134 A 
ATOM     91  F   UNL A   1      40.896  26.081  35.638  1.00  0.00    -0.206 F 
ATOM     92  C   UNL A   1      42.196  24.161  35.480  1.00  0.00     0.040 A 
ATOM     93  C   UNL A   1      44.232  24.145  34.233  1.00  0.00     0.040 A 
ATOM     94  F   UNL A   1      45.075  26.089  33.305  1.00  0.00    -0.206 F 
ATOM     95  C   UNL A   1      43.285  23.460  34.977  1.00  0.00     0.006 A 
ENDBRANCH  71  88
ENDBRANCH  45  46
ENDBRANCH  37  40
ENDBRANCH  35  36
ENDBRANCH  34  35
ENDBRANCH  33  34
ENDBRANCH   1  33
TORSDOF 15
ENDMDL
MODEL 2
REMARK VINA RESULT:     -13.8      4.529      9.755
REMARK SMILES Cc1ccc(NC(=O)c2ccccc2NC(=O)[C@H]2CCCC[C@H]2C(=O)NCCCCNC(=O)c2ccc(-c3c4nc(c(-c5c(F)cccc5F)c5ccc([nH]5)c(-c5c(F)cccc5F)c5nc(c(-c6c(F)cccc6F)c6ccc3[nH]6)C=C5)C=C4)cc2)cc1
REMARK SMILES IDX 27 1 26 2 24 3 25 4 23 6 18 7 19 8 20 9 22 10 21 11 16 12
REMARK SMILES IDX 15 13 17 15 14 16 9 17 10 18 11 19 13 20 12 21 7 22 6 23
REMARK SMILES IDX 8 25 5 26 1 27 2 28 3 29 89 30 4 31 88 32 28 33 29 34 30 35
REMARK SMILES IDX 31 36 32 37 33 39 34 40 35 41 87 42 36 43 86 44 37 45 38 46
REMARK SMILES IDX 39 47 80 48 40 49 85 50 79 51 81 52 41 53 84 54 78 55 77 56
REMARK SMILES IDX 42 58 68 59 51 60 67 61 52 62 55 63 66 64 82 65 53 66 54 67
REMARK SMILES IDX 65 69 83 70 56 71 43 72 44 73 49 74 45 75 46 76 48 77 50 78
REMARK SMILES IDX 47 79 69 80 70 81 75 82 71 83 72 84 74 85 76 86 73 87 57 88
REMARK SMILES IDX 58 89 63 90 59 91 60 92 62 93 64 94 61 95
REMARK H PARENT 26 5 15 14 6 24 31 38 81 57 55 68
REMARK Flexibility Score: inf
ROOT
ATOM      1  C   UNL A   1      38.391  24.045  26.593  1.00  0.00     0.116 C 
ENDROOT
BRANCH   1   2
ATOM      2  N   UNL A   1      38.005  23.607  25.261  1.00  0.00    -0.356 N 
ATOM      3  C   UNL A   1      36.954  22.904  24.773  1.00  0.00     0.223 C 
ATOM      4  O   UNL A   1      37.055  22.548  23.591  1.00  0.00    -0.275 OA
ATOM      5  H   UNL A   1      38.645  23.879  24.564  1.00  0.00     0.163 HD
BRANCH   3   6
ATOM      6  C   UNL A   1      35.697  22.499  25.551  1.00  0.00     0.091 C 
ATOM      7  C   UNL A   1      34.779  23.679  25.938  1.00  0.00     0.091 C 
ATOM      8  C   UNL A   1      33.662  23.218  26.896  1.00  0.00     0.014 C 
ATOM      9  C   UNL A   1      32.950  21.938  26.440  1.00  0.00     0.001 C 
ATOM     10  C   UNL A   1      34.981  21.222  25.109  1.00  0.00     0.014 C 
ATOM     11  C   UNL A   1      33.928  20.807  26.139  1.00  0.00     0.001 C 
BRANCH   7  12
ATOM     12  C   UNL A   1      34.117  24.332  24.749  1.00  0.00     0.228 C 
ATOM     13  N   UNL A   1      33.503  25.541  24.769  1.00  0.00    -0.325 N 
ATOM     14  H   UNL A   1      33.267  25.818  23.855  1.00  0.00     0.169 HD
ATOM     15  O   UNL A   1      34.157  23.774  23.645  1.00  0.00    -0.274 OA
BRANCH  13  16
ATOM     16  C   UNL A   1      33.101  26.519  25.695  1.00  0.00     0.054 A 
ATOM     17  C   UNL A   1      31.784  26.489  26.236  1.00  0.00     0.063 A 
ATOM     18  C   UNL A   1      31.370  27.534  27.092  1.00  0.00     0.016 A 
ATOM     19  C   UNL A   1      32.229  28.569  27.443  1.00  0.00     0.001 A 
ATOM     20  C   UNL A   1      33.967  27.532  26.123  1.00  0.00     0.027 A 
ATOM     21  C   UNL A   1      33.531  28.557  26.970  1.00  0.00     0.002 A 
BRANCH  17  22
ATOM     22  C   UNL A   1      30.659  25.571  25.867  1.00  0.00     0.257 C 
ATOM     23  N   UNL A   1      29.703  25.772  24.899  1.00  0.00    -0.322 N 
ATOM     24  H   UNL A   1      29.003  25.079  24.910  1.00  0.00     0.170 HD
ATOM     25  O   UNL A   1      30.531  24.539  26.539  1.00  0.00    -0.269 OA
BRANCH  23  26
ATOM     26  C   UNL A   1      29.492  26.730  23.903  1.00  0.00     0.041 A 
ATOM     27  C   UNL A   1      28.714  30.470  21.970  1.00  0.00     0.044 C 
ATOM     28  C   UNL A   1      28.952  29.091  22.510  1.00  0.00    -0.051 A 
ATOM     29  C   UNL A   1      30.244  28.551  22.518  1.00  0.00     0.005 A 
ATOM     30  C   UNL A   1      27.906  28.362  23.080  1.00  0.00     0.005 A 
ATOM     31  C   UNL A   1      30.514  27.361  23.202  1.00  0.00     0.026 A 
ATOM     32  C   UNL A   1      28.172  27.168  23.748  1.00  0.00     0.026 A 
ENDBRANCH  23  26
ENDBRANCH  17  22
ENDBRANCH  13  16
ENDBRANCH   7  12
ENDBRANCH   3   6
ENDBRANCH   1   2
BRANCH   1  33
ATOM     33  C   UNL A   1      39.579  23.232  27.113  1.00  0.00     0.023 C 
BRANCH  33  34
ATOM     34  C   UNL A   1      40.305  22.333  26.132  1.00  0.00     0.023 C 
BRANCH  34  35
ATOM     35  C   UNL A   1      41.807  22.513  26.128  1.00  0.00     0.116 C 
BRANCH  35  36
ATOM     36  N   UNL A   1      42.564  21.504  25.394  1.00  0.00    -0.352 N 
ATOM     37  C   UNL A   1      43.877  21.541  24.933  1.00  0.00     0.251 C 
ATOM     38  H   UNL A   1      42.073  20.673  25.195  1.00  0.00     0.163 HD
ATOM     39  O   UNL A   1      44.337  20.590  24.326  1.00  0.00    -0.269 OA
BRANCH  37  40
ATOM     40  C   UNL A   1      44.762  22.671  25.344  1.00  0.00     0.039 A 
ATOM     41  C   UNL A   1      45.332  22.601  26.619  1.00  0.00     0.014 A 
ATOM     42  C   UNL A   1      44.670  23.892  24.697  1.00  0.00     0.014 A 
ATOM     43  C   UNL A   1      45.450  23.770  27.364  1.00  0.00     0.010 A 
ATOM     44  C   UNL A   1      44.586  25.015  25.489  1.00  0.00     0.010 A 
ATOM     45  C   UNL A   1      44.913  24.945  26.846  1.00  0.00    -0.014 A 
BRANCH  45  46
ATOM     46  C   UNL A   1      44.534  26.091  27.668  1.00  0.00     0.031 A 
ATOM     47  C   UNL A   1      43.150  26.615  27.613  1.00  0.00     0.074 A 
ATOM     48  C   UNL A   1      45.415  26.611  28.554  1.00  0.00     0.049 A 
ATOM     49  N   UNL A   1      42.810  27.809  27.961  1.00  0.00    -0.248 NA
ATOM     50  C   UNL A   1      42.028  25.831  27.113  1.00  0.00     0.031 C 
ATOM     51  C   UNL A   1      45.128  27.546  29.640  1.00  0.00     0.029 A 
ATOM     52  N   UNL A   1      46.816  26.536  28.527  1.00  0.00    -0.354 N 
ATOM     53  C   UNL A   1      41.434  27.870  27.991  1.00  0.00     0.074 A 
ATOM     54  C   UNL A   1      40.997  26.625  27.411  1.00  0.00     0.031 C 
ATOM     55  C   UNL A   1      46.262  28.173  29.988  1.00  0.00     0.029 A 
ATOM     56  C   UNL A   1      47.291  27.760  29.052  1.00  0.00     0.049 A 
ATOM     57  H   UNL A   1      47.361  25.782  28.206  1.00  0.00     0.167 HD
ATOM     58  C   UNL A   1      40.830  28.923  28.614  1.00  0.00     0.037 A 
ATOM     59  C   UNL A   1      48.049  28.611  28.304  1.00  0.00     0.037 A 
ATOM     60  C   UNL A   1      41.822  29.896  29.067  1.00  0.00     0.049 A 
ATOM     61  C   UNL A   1      47.412  29.964  28.078  1.00  0.00     0.074 A 
ATOM     62  C   UNL A   1      42.420  30.122  30.297  1.00  0.00     0.029 A 
ATOM     63  N   UNL A   1      42.568  30.604  28.131  1.00  0.00    -0.354 N 
ATOM     64  N   UNL A   1      46.150  30.216  28.292  1.00  0.00    -0.248 NA
ATOM     65  C   UNL A   1      48.130  31.127  27.562  1.00  0.00     0.031 C 
ATOM     66  C   UNL A   1      43.566  30.928  30.087  1.00  0.00     0.029 A 
ATOM     67  C   UNL A   1      43.654  31.210  28.735  1.00  0.00     0.049 A 
ATOM     68  H   UNL A   1      42.353  30.666  27.173  1.00  0.00     0.167 HD
ATOM     69  C   UNL A   1      45.867  31.501  27.912  1.00  0.00     0.074 A 
ATOM     70  C   UNL A   1      47.146  32.040  27.489  1.00  0.00     0.031 C 
ATOM     71  C   UNL A   1      44.596  32.001  27.957  1.00  0.00     0.037 A 
BRANCH  58  72
ATOM     72  C   UNL A   1      39.382  28.938  29.065  1.00  0.00     0.057 A 
ATOM     73  C   UNL A   1      38.368  29.427  28.215  1.00  0.00     0.134 A 
ATOM     74  C   UNL A   1      38.915  28.548  30.333  1.00  0.00     0.134 A 
ATOM     75  F   UNL A   1      38.607  29.725  26.931  1.00  0.00    -0.206 F 
ATOM     76  C   UNL A   1      37.047  29.634  28.633  1.00  0.00     0.040 A 
ATOM     77  C   UNL A   1      37.611  28.799  30.786  1.00  0.00     0.040 A 
ATOM     78  F   UNL A   1      39.672  27.838  31.176  1.00  0.00    -0.206 F 
ATOM     79  C   UNL A   1      36.671  29.361  29.938  1.00  0.00     0.006 A 
ENDBRANCH  58  72
BRANCH  59  80
ATOM     80  C   UNL A   1      48.946  27.911  27.350  1.00  0.00     0.057 A 
ATOM     81  C   UNL A   1      50.159  27.393  27.836  1.00  0.00     0.134 A 
ATOM     82  C   UNL A   1      48.475  27.398  26.139  1.00  0.00     0.134 A 
ATOM     83  F   UNL A   1      50.670  27.850  28.992  1.00  0.00    -0.206 F 
ATOM     84  C   UNL A   1      50.810  26.326  27.213  1.00  0.00     0.040 A 
ATOM     85  C   UNL A   1      49.123  26.333  25.501  1.00  0.00     0.040 A 
ATOM     86  F   UNL A   1      47.312  27.825  25.624  1.00  0.00    -0.206 F 
ATOM     87  C   UNL A   1      50.269  25.768  26.060  1.00  0.00     0.006 A 
ENDBRANCH  59  80
BRANCH  71  88
ATOM     88  C   UNL A   1      44.125  33.299  27.347  1.00  0.00     0.057 A 
ATOM     89  C   UNL A   1      43.913  33.497  25.975  1.00  0.00     0.134 A 
ATOM     90  C   UNL A   1      43.713  34.368  28.175  1.00  0.00     0.134 A 
ATOM     91  F   UNL A   1      44.159  32.531  25.079  1.00  0.00    -0.206 F 
ATOM     92  C   UNL A   1      43.378  34.687  25.461  1.00  0.00     0.040 A 
ATOM     93  C   UNL A   1      43.128  35.536  27.679  1.00  0.00     0.040 A 
ATOM     94  F   UNL A   1      43.836  34.313  29.510  1.00  0.00    -0.206 F 
ATOM     95  C   UNL A   1      42.969  35.706  26.312  1.00  0.00     0.006 A 
ENDBRANCH  71  88
ENDBRANCH  45  46
ENDBRANCH  37  40
ENDBRANCH  35  36
ENDBRANCH  34  35
ENDBRANCH  33  34
ENDBRANCH   1  33
TORSDOF 15
ENDMDL
MODEL 3
REMARK VINA RESULT:     -13.4      3.676      8.797
REMARK SMILES Cc1ccc(NC(=O)c2ccccc2NC(=O)[C@H]2CCCC[C@H]2C(=O)NCCCCNC(=O)c2ccc(-c3c4nc(c(-c5c(F)cccc5F)c5ccc([nH]5)c(-c5c(F)cccc5F)c5nc(c(-c6c(F)cccc6F)c6ccc3[nH]6)C=C5)C=C4)cc2)cc1
REMARK SMILES IDX 27 1 26 2 24 3 25 4 23 6 18 7 19 8 20 9 22 10 21 11 16 12
REMARK SMILES IDX 15 13 17 15 14 16 9 17 10 18 11 19 13 20 12 21 7 22 6 23
REMARK SMILES IDX 8 25 5 26 1 27 2 28 3 29 89 30 4 31 88 32 28 33 29 34 30 35
REMARK SMILES IDX 31 36 32 37 33 39 34 40 35 41 87 42 36 43 86 44 37 45 38 46
REMARK SMILES IDX 39 47 80 48 40 49 85 50 79 51 81 52 41 53 84 54 78 55 77 56
REMARK SMILES IDX 42 58 68 59 51 60 67 61 52 62 55 63 66 64 82 65 53 66 54 67
REMARK SMILES IDX 65 69 83 70 56 71 43 72 44 73 49 74 45 75 46 76 48 77 50 78
REMARK SMILES IDX 47 79 69 80 70 81 75 82 71 83 72 84 74 85 76 86 73 87 57 88
REMARK SMILES IDX 58 89 63 90 59 91 60 92 62 93 64 94 61 95
REMARK H PARENT 26 5 15 14 6 24 31 38 81 57 55 68
REMARK Flexibility Score: inf
ROOT
ATOM      1  C   UNL A   1      36.457  22.225  25.510  1.00  0.00     0.116 C 
ENDROOT
BRANCH   1   2
ATOM      2  N   UNL A   1      35.508  22.418  26.596  1.00  0.00    -0.356 N 
ATOM      3  C   UNL A   1      34.189  22.728  26.644  1.00  0.00     0.223 C 
ATOM      4  O   UNL A   1      33.748  23.003  27.768  1.00  0.00    -0.275 OA
ATOM      5  H   UNL A   1      35.909  22.299  27.487  1.00  0.00     0.163 HD
BRANCH   3   6
ATOM      6  C   UNL A   1      33.231  22.793  25.449  1.00  0.00     0.091 C 
ATOM      7  C   UNL A   1      32.774  24.220  25.076  1.00  0.00     0.091 C 
ATOM      8  C   UNL A   1      31.654  24.181  24.016  1.00  0.00     0.014 C 
ATOM      9  C   UNL A   1      31.954  23.246  22.838  1.00  0.00     0.001 C 
ATOM     10  C   UNL A   1      33.518  21.861  24.270  1.00  0.00     0.014 C 
ATOM     11  C   UNL A   1      32.337  21.842  23.296  1.00  0.00     0.001 C 
BRANCH   7  12
ATOM     12  C   UNL A   1      33.887  25.078  24.528  1.00  0.00     0.228 C 
ATOM     13  N   UNL A   1      34.072  26.390  24.817  1.00  0.00    -0.325 N 
ATOM     14  H   UNL A   1      34.932  26.701  24.456  1.00  0.00     0.169 HD
ATOM     15  O   UNL A   1      34.744  24.570  23.794  1.00  0.00    -0.274 OA
BRANCH  13  16
ATOM     16  C   UNL A   1      33.411  27.441  25.476  1.00  0.00     0.054 A 
ATOM     17  C   UNL A   1      32.949  28.566  24.735  1.00  0.00     0.063 A 
ATOM     18  C   UNL A   1      32.371  29.654  25.428  1.00  0.00     0.016 A 
ATOM     19  C   UNL A   1      32.213  29.634  26.808  1.00  0.00     0.001 A 
ATOM     20  C   UNL A   1      33.173  27.416  26.855  1.00  0.00     0.027 A 
ATOM     21  C   UNL A   1      32.601  28.508  27.518  1.00  0.00     0.002 A 
BRANCH  17  22
ATOM     22  C   UNL A   1      33.164  28.862  23.282  1.00  0.00     0.257 C 
ATOM     23  N   UNL A   1      32.213  28.894  22.289  1.00  0.00    -0.322 N 
ATOM     24  H   UNL A   1      32.607  29.008  21.393  1.00  0.00     0.170 HD
ATOM     25  O   UNL A   1      34.330  29.047  22.912  1.00  0.00    -0.269 OA
BRANCH  23  26
ATOM     26  C   UNL A   1      30.818  28.803  22.252  1.00  0.00     0.041 A 
ATOM     27  C   UNL A   1      26.722  28.746  23.496  1.00  0.00     0.044 C 
ATOM     28  C   UNL A   1      28.109  28.698  22.928  1.00  0.00    -0.051 A 
ATOM     29  C   UNL A   1      28.627  29.802  22.240  1.00  0.00     0.005 A 
ATOM     30  C   UNL A   1      28.926  27.585  23.142  1.00  0.00     0.005 A 
ATOM     31  C   UNL A   1      29.980  29.851  21.888  1.00  0.00     0.026 A 
ATOM     32  C   UNL A   1      30.269  27.627  22.777  1.00  0.00     0.026 A 
ENDBRANCH  23  26
ENDBRANCH  17  22
ENDBRANCH  13  16
ENDBRANCH   7  12
ENDBRANCH   3   6
ENDBRANCH   1   2
BRANCH   1  33
ATOM     33  C   UNL A   1      37.725  23.051  25.740  1.00  0.00     0.023 C 
BRANCH  33  34
ATOM     34  C   UNL A   1      39.044  22.312  25.840  1.00  0.00     0.023 C 
BRANCH  34  35
ATOM     35  C   UNL A   1      39.781  22.543  27.141  1.00  0.00     0.116 C 
BRANCH  35  36
ATOM     36  N   UNL A   1      41.142  23.055  27.015  1.00  0.00    -0.352 N 
ATOM     37  C   UNL A   1      41.583  24.356  26.783  1.00  0.00     0.251 C 
ATOM     38  H   UNL A   1      41.854  22.381  27.107  1.00  0.00     0.163 HD
ATOM     39  O   UNL A   1      42.775  24.590  26.703  1.00  0.00    -0.269 OA
BRANCH  37  40
ATOM     40  C   UNL A   1      40.596  25.477  26.817  1.00  0.00     0.039 A 
ATOM     41  C   UNL A   1      40.938  26.645  26.128  1.00  0.00     0.014 A 
ATOM     42  C   UNL A   1      39.632  25.520  27.809  1.00  0.00     0.014 A 
ATOM     43  C   UNL A   1      40.597  27.873  26.683  1.00  0.00     0.010 A 
ATOM     44  C   UNL A   1      39.470  26.715  28.472  1.00  0.00     0.010 A 
ATOM     45  C   UNL A   1      40.010  27.891  27.945  1.00  0.00    -0.014 A 
BRANCH  45  46
ATOM     46  C   UNL A   1      40.040  29.050  28.834  1.00  0.00     0.031 A 
ATOM     47  C   UNL A   1      38.958  30.058  28.771  1.00  0.00     0.074 A 
ATOM     48  C   UNL A   1      41.000  29.152  29.784  1.00  0.00     0.049 A 
ATOM     49  N   UNL A   1      39.069  31.271  29.192  1.00  0.00    -0.248 NA
ATOM     50  C   UNL A   1      37.654  29.782  28.180  1.00  0.00     0.031 C 
ATOM     51  C   UNL A   1      41.021  30.066  30.924  1.00  0.00     0.029 A 
ATOM     52  N   UNL A   1      42.271  28.557  29.797  1.00  0.00    -0.354 N 
ATOM     53  C   UNL A   1      37.815  31.844  29.181  1.00  0.00     0.074 A 
ATOM     54  C   UNL A   1      36.979  30.888  28.500  1.00  0.00     0.031 C 
ATOM     55  C   UNL A   1      42.285  30.201  31.352  1.00  0.00     0.029 A 
ATOM     56  C   UNL A   1      43.137  29.481  30.424  1.00  0.00     0.049 A 
ATOM     57  H   UNL A   1      42.512  27.671  29.441  1.00  0.00     0.167 HD
ATOM     58  C   UNL A   1      37.613  33.011  29.858  1.00  0.00     0.037 A 
ATOM     59  C   UNL A   1      44.200  30.025  29.763  1.00  0.00     0.037 A 
ATOM     60  C   UNL A   1      38.869  33.514  30.412  1.00  0.00     0.049 A 
ATOM     61  C   UNL A   1      44.128  31.527  29.614  1.00  0.00     0.074 A 
ATOM     62  C   UNL A   1      39.437  33.432  31.673  1.00  0.00     0.029 A 
ATOM     63  N   UNL A   1      39.878  33.939  29.554  1.00  0.00    -0.354 N 
ATOM     64  N   UNL A   1      43.041  32.224  29.803  1.00  0.00    -0.248 NA
ATOM     65  C   UNL A   1      45.256  32.361  29.206  1.00  0.00     0.031 C 
ATOM     66  C   UNL A   1      40.811  33.758  31.560  1.00  0.00     0.029 A 
ATOM     67  C   UNL A   1      41.075  34.058  30.234  1.00  0.00     0.049 A 
ATOM     68  H   UNL A   1      39.757  34.128  28.596  1.00  0.00     0.167 HD
ATOM     69  C   UNL A   1      43.280  33.540  29.507  1.00  0.00     0.074 A 
ATOM     70  C   UNL A   1      44.690  33.580  29.167  1.00  0.00     0.031 C 
ATOM     71  C   UNL A   1      42.287  34.477  29.546  1.00  0.00     0.037 A 
BRANCH  58  72
ATOM     72  C   UNL A   1      36.252  33.545  30.262  1.00  0.00     0.057 A 
ATOM     73  C   UNL A   1      35.385  34.107  29.300  1.00  0.00     0.134 A 
ATOM     74  C   UNL A   1      35.750  33.599  31.574  1.00  0.00     0.134 A 
ATOM     75  F   UNL A   1      35.643  34.030  27.988  1.00  0.00    -0.206 F 
ATOM     76  C   UNL A   1      34.199  34.776  29.631  1.00  0.00     0.040 A 
ATOM     77  C   UNL A   1      34.594  34.311  31.929  1.00  0.00     0.040 A 
ATOM     78  F   UNL A   1      36.306  32.905  32.572  1.00  0.00    -0.206 F 
ATOM     79  C   UNL A   1      33.819  34.919  30.955  1.00  0.00     0.006 A 
ENDBRANCH  58  72
BRANCH  59  80
ATOM     80  C   UNL A   1      44.823  29.091  28.792  1.00  0.00     0.057 A 
ATOM     81  C   UNL A   1      45.706  28.113  29.283  1.00  0.00     0.134 A 
ATOM     82  C   UNL A   1      44.278  28.877  27.523  1.00  0.00     0.134 A 
ATOM     83  F   UNL A   1      46.270  28.263  30.493  1.00  0.00    -0.206 F 
ATOM     84  C   UNL A   1      45.939  26.917  28.599  1.00  0.00     0.040 A 
ATOM     85  C   UNL A   1      44.510  27.685  26.825  1.00  0.00     0.040 A 
ATOM     86  F   UNL A   1      43.409  29.753  26.999  1.00  0.00    -0.206 F 
ATOM     87  C   UNL A   1      45.308  26.686  27.381  1.00  0.00     0.006 A 
ENDBRANCH  59  80
BRANCH  71  88
ATOM     88  C   UNL A   1      42.370  35.888  29.016  1.00  0.00     0.057 A 
ATOM     89  C   UNL A   1      43.124  36.912  29.607  1.00  0.00     0.134 A 
ATOM     90  C   UNL A   1      41.795  36.215  27.766  1.00  0.00     0.134 A 
ATOM     91  F   UNL A   1      43.812  36.714  30.740  1.00  0.00    -0.206 F 
ATOM     92  C   UNL A   1      43.254  38.181  29.025  1.00  0.00     0.040 A 
ATOM     93  C   UNL A   1      41.964  37.459  27.151  1.00  0.00     0.040 A 
ATOM     94  F   UNL A   1      41.062  35.330  27.075  1.00  0.00    -0.206 F 
ATOM     95  C   UNL A   1      42.687  38.455  27.787  1.00  0.00     0.006 A 
ENDBRANCH  71  88
ENDBRANCH  45  46
ENDBRANCH  37  40
ENDBRANCH  35  36
ENDBRANCH  34  35
ENDBRANCH  33  34
ENDBRANCH   1  33
TORSDOF 15
ENDMDL
