MODEL 1
REMARK VINA RESULT:     -12.8      0.000      0.000
REMARK SMILES C[C@@H](C(=O)NCCCCNC(=O)c1ccc(-c2c3nc(c(-c4c(F)cccc4F)c4ccc([nH]4)c(-c4c(F)cccc4F)c4nc(c(-c5c(F)cccc5F)c5ccc2[nH]5)C=C4)C=C3)cc1)c1ccc(C[C@H]2CCC[C@@H]2O)cc1-c1ccc(O)cc1
REMARK SMILES IDX 6 1 5 2 3 3 4 4 2 6 1 7 67 8 68 9 79 10 69 11 78 12 70 13
REMARK SMILES IDX 80 14 81 15 86 16 82 17 85 18 83 19 84 20 71 22 72 23 73 24
REMARK SMILES IDX 76 25 74 26 75 27 77 28 7 30 8 31 9 32 10 33 11 34 12 36
REMARK SMILES IDX 13 37 14 38 66 39 15 40 65 41 16 42 17 43 18 44 59 45 19 46
REMARK SMILES IDX 64 47 58 48 60 49 20 50 63 51 57 52 56 53 21 55 47 56 30 57
REMARK SMILES IDX 46 58 31 59 34 60 45 61 61 62 32 63 33 64 44 66 62 67 35 68
REMARK SMILES IDX 22 69 23 70 28 71 24 72 25 73 27 74 29 75 26 76 48 77 49 78
REMARK SMILES IDX 54 79 50 80 51 81 53 82 55 83 52 84 36 85 37 86 42 87 38 88
REMARK SMILES IDX 39 89 41 90 43 91 40 92
REMARK H PARENT 5 5 84 21 77 29 10 35 60 54 34 65
REMARK Flexibility Score: inf
ROOT
ATOM      1  C   UNL A   1      34.711  25.058  25.170  1.00  0.00     0.116 C 
ENDROOT
BRANCH   1   2
ATOM      2  N   UNL A   1      33.839  26.069  25.734  1.00  0.00    -0.356 N 
ATOM      3  C   UNL A   1      33.605  27.269  25.107  1.00  0.00     0.227 C 
ATOM      4  O   UNL A   1      33.858  28.308  25.716  1.00  0.00    -0.274 OA
ATOM      5  H   UNL A   1      33.397  25.889  26.596  1.00  0.00     0.163 HD
BRANCH   3   6
ATOM      6  C   UNL A   1      33.143  27.220  23.656  1.00  0.00     0.106 C 
ATOM      7  C   UNL A   1      34.029  28.273  22.948  1.00  0.00     0.023 C 
BRANCH   6   8
ATOM      8  C   UNL A   1      31.639  27.453  23.425  1.00  0.00    -0.028 A 
ATOM      9  C   UNL A   1      31.292  28.535  22.588  1.00  0.00     0.005 A 
ATOM     10  C   UNL A   1      30.577  26.646  23.917  1.00  0.00    -0.014 A 
ATOM     11  C   UNL A   1      29.977  28.939  22.397  1.00  0.00     0.004 A 
ATOM     12  C   UNL A   1      29.251  27.127  23.779  1.00  0.00     0.012 A 
ATOM     13  C   UNL A   1      28.951  28.303  23.079  1.00  0.00    -0.047 A 
BRANCH  10  14
ATOM     14  C   UNL A   1      30.729  25.278  24.456  1.00  0.00    -0.018 A 
ATOM     15  C   UNL A   1      31.105  24.232  23.594  1.00  0.00     0.012 A 
ATOM     16  C   UNL A   1      30.445  24.947  25.790  1.00  0.00     0.012 A 
ATOM     17  C   UNL A   1      31.275  22.927  24.067  1.00  0.00     0.047 A 
ATOM     18  C   UNL A   1      30.668  23.656  26.283  1.00  0.00     0.047 A 
ATOM     19  C   UNL A   1      31.093  22.658  25.416  1.00  0.00     0.115 A 
BRANCH  19  20
ATOM     20  O   UNL A   1      31.344  21.392  25.853  1.00  0.00    -0.508 OA
ATOM     21  H   UNL A   1      30.641  20.856  26.166  1.00  0.00     0.293 HD
ENDBRANCH  19  20
ENDBRANCH  10  14
BRANCH  13  22
ATOM     22  C   UNL A   1      27.564  28.894  23.069  1.00  0.00     0.041 C 
BRANCH  22  23
ATOM     23  C   UNL A   1      27.494  30.389  22.689  1.00  0.00     0.022 C 
ATOM     24  C   UNL A   1      28.032  31.368  23.745  1.00  0.00     0.007 C 
ATOM     25  C   UNL A   1      28.217  30.800  21.399  1.00  0.00     0.117 C 
ATOM     26  C   UNL A   1      28.686  32.517  22.970  1.00  0.00     0.003 C 
ATOM     27  C   UNL A   1      28.287  32.316  21.518  1.00  0.00     0.032 C 
BRANCH  25  28
ATOM     28  O   UNL A   1      27.522  30.384  20.239  1.00  0.00    -0.393 OA
ATOM     29  H   UNL A   1      26.705  29.929  20.497  1.00  0.00     0.210 HD
ENDBRANCH  25  28
ENDBRANCH  22  23
ENDBRANCH  13  22
ENDBRANCH   6   8
ENDBRANCH   3   6
ENDBRANCH   1   2
BRANCH   1  30
ATOM     30  C   UNL A   1      34.568  23.754  25.966  1.00  0.00     0.023 C 
BRANCH  30  31
ATOM     31  C   UNL A   1      35.882  22.989  26.154  1.00  0.00     0.023 C 
BRANCH  31  32
ATOM     32  C   UNL A   1      37.094  23.649  25.507  1.00  0.00     0.116 C 
BRANCH  32  33
ATOM     33  N   UNL A   1      38.285  22.823  25.603  1.00  0.00    -0.352 N 
ATOM     34  C   UNL A   1      39.519  23.125  26.121  1.00  0.00     0.251 C 
ATOM     35  H   UNL A   1      38.195  21.911  25.242  1.00  0.00     0.163 HD
ATOM     36  O   UNL A   1      40.455  22.351  25.958  1.00  0.00    -0.269 OA
BRANCH  34  37
ATOM     37  C   UNL A   1      39.724  24.393  26.851  1.00  0.00     0.039 A 
ATOM     38  C   UNL A   1      39.224  24.497  28.151  1.00  0.00     0.014 A 
ATOM     39  C   UNL A   1      40.394  25.472  26.266  1.00  0.00     0.014 A 
ATOM     40  C   UNL A   1      39.441  25.664  28.881  1.00  0.00     0.010 A 
ATOM     41  C   UNL A   1      40.675  26.607  27.022  1.00  0.00     0.010 A 
ATOM     42  C   UNL A   1      40.199  26.716  28.336  1.00  0.00    -0.014 A 
BRANCH  42  43
ATOM     43  C   UNL A   1      40.514  27.915  29.152  1.00  0.00     0.031 A 
ATOM     44  C   UNL A   1      41.842  28.047  29.843  1.00  0.00     0.074 A 
ATOM     45  C   UNL A   1      39.580  28.877  29.289  1.00  0.00     0.049 A 
ATOM     46  N   UNL A   1      42.288  29.025  30.591  1.00  0.00    -0.248 NA
ATOM     47  C   UNL A   1      42.786  26.929  29.693  1.00  0.00     0.031 C 
ATOM     48  C   UNL A   1      38.232  28.836  28.716  1.00  0.00     0.029 A 
ATOM     49  N   UNL A   1      39.621  30.077  29.952  1.00  0.00    -0.354 N 
ATOM     50  C   UNL A   1      43.561  28.644  30.994  1.00  0.00     0.074 A 
ATOM     51  C   UNL A   1      43.793  27.319  30.463  1.00  0.00     0.031 C 
ATOM     52  C   UNL A   1      37.588  29.972  29.025  1.00  0.00     0.029 A 
ATOM     53  C   UNL A   1      38.459  30.805  29.846  1.00  0.00     0.049 A 
ATOM     54  H   UNL A   1      40.407  30.388  30.456  1.00  0.00     0.167 HD
ATOM     55  C   UNL A   1      44.465  29.346  31.717  1.00  0.00     0.037 A 
ATOM     56  C   UNL A   1      38.134  32.007  30.356  1.00  0.00     0.037 A 
ATOM     57  C   UNL A   1      44.235  30.670  32.238  1.00  0.00     0.049 A 
ATOM     58  C   UNL A   1      39.156  32.759  31.162  1.00  0.00     0.074 A 
ATOM     59  C   UNL A   1      45.104  31.479  32.951  1.00  0.00     0.029 A 
ATOM     60  N   UNL A   1      43.050  31.378  32.104  1.00  0.00    -0.354 N 
ATOM     61  N   UNL A   1      40.381  32.414  31.476  1.00  0.00    -0.248 NA
ATOM     62  C   UNL A   1      38.752  34.075  31.678  1.00  0.00     0.031 C 
ATOM     63  C   UNL A   1      44.429  32.659  33.285  1.00  0.00     0.029 A 
ATOM     64  C   UNL A   1      43.159  32.606  32.735  1.00  0.00     0.049 A 
ATOM     65  H   UNL A   1      42.250  31.055  31.629  1.00  0.00     0.167 HD
ATOM     66  C   UNL A   1      40.901  33.478  32.203  1.00  0.00     0.074 A 
ATOM     67  C   UNL A   1      39.868  34.490  32.258  1.00  0.00     0.031 C 
ATOM     68  C   UNL A   1      42.120  33.603  32.781  1.00  0.00     0.037 A 
BRANCH  55  69
ATOM     69  C   UNL A   1      45.798  28.706  31.977  1.00  0.00     0.057 A 
ATOM     70  C   UNL A   1      46.877  28.874  31.099  1.00  0.00     0.134 A 
ATOM     71  C   UNL A   1      46.026  27.966  33.145  1.00  0.00     0.134 A 
ATOM     72  F   UNL A   1      46.723  29.561  29.957  1.00  0.00    -0.206 F 
ATOM     73  C   UNL A   1      48.129  28.317  31.364  1.00  0.00     0.040 A 
ATOM     74  C   UNL A   1      47.281  27.427  33.433  1.00  0.00     0.040 A 
ATOM     75  F   UNL A   1      45.039  27.770  34.032  1.00  0.00    -0.206 F 
ATOM     76  C   UNL A   1      48.336  27.599  32.540  1.00  0.00     0.006 A 
ENDBRANCH  55  69
BRANCH  56  77
ATOM     77  C   UNL A   1      36.787  32.585  30.114  1.00  0.00     0.057 A 
ATOM     78  C   UNL A   1      36.551  33.454  29.042  1.00  0.00     0.134 A 
ATOM     79  C   UNL A   1      35.713  32.311  30.969  1.00  0.00     0.134 A 
ATOM     80  F   UNL A   1      37.544  33.770  28.197  1.00  0.00    -0.206 F 
ATOM     81  C   UNL A   1      35.306  34.057  28.849  1.00  0.00     0.040 A 
ATOM     82  C   UNL A   1      34.455  32.882  30.770  1.00  0.00     0.040 A 
ATOM     83  F   UNL A   1      35.870  31.479  32.009  1.00  0.00    -0.206 F 
ATOM     84  C   UNL A   1      34.253  33.768  29.714  1.00  0.00     0.006 A 
ENDBRANCH  56  77
BRANCH  68  85
ATOM     85  C   UNL A   1      42.405  34.893  33.495  1.00  0.00     0.057 A 
ATOM     86  C   UNL A   1      42.081  35.079  34.846  1.00  0.00     0.134 A 
ATOM     87  C   UNL A   1      43.014  35.962  32.824  1.00  0.00     0.134 A 
ATOM     88  F   UNL A   1      41.485  34.099  35.543  1.00  0.00    -0.206 F 
ATOM     89  C   UNL A   1      42.317  36.293  35.493  1.00  0.00     0.040 A 
ATOM     90  C   UNL A   1      43.284  37.169  33.469  1.00  0.00     0.040 A 
ATOM     91  F   UNL A   1      43.360  35.848  31.534  1.00  0.00    -0.206 F 
ATOM     92  C   UNL A   1      42.924  37.341  34.805  1.00  0.00     0.006 A 
ENDBRANCH  68  85
ENDBRANCH  42  43
ENDBRANCH  34  37
ENDBRANCH  32  33
ENDBRANCH  31  32
ENDBRANCH  30  31
ENDBRANCH   1  30
TORSDOF 17
ENDMDL
MODEL 2
REMARK VINA RESULT:     -12.8      1.688      2.490
REMARK SMILES C[C@@H](C(=O)NCCCCNC(=O)c1ccc(-c2c3nc(c(-c4c(F)cccc4F)c4ccc([nH]4)c(-c4c(F)cccc4F)c4nc(c(-c5c(F)cccc5F)c5ccc2[nH]5)C=C4)C=C3)cc1)c1ccc(C[C@H]2CCC[C@@H]2O)cc1-c1ccc(O)cc1
REMARK SMILES IDX 6 1 5 2 3 3 4 4 2 6 1 7 67 8 68 9 79 10 69 11 78 12 70 13
REMARK SMILES IDX 80 14 81 15 86 16 82 17 85 18 83 19 84 20 71 22 72 23 73 24
REMARK SMILES IDX 76 25 74 26 75 27 77 28 7 30 8 31 9 32 10 33 11 34 12 36
REMARK SMILES IDX 13 37 14 38 66 39 15 40 65 41 16 42 17 43 18 44 59 45 19 46
REMARK SMILES IDX 64 47 58 48 60 49 20 50 63 51 57 52 56 53 21 55 47 56 30 57
REMARK SMILES IDX 46 58 31 59 34 60 45 61 61 62 32 63 33 64 44 66 62 67 35 68
REMARK SMILES IDX 22 69 23 70 28 71 24 72 25 73 27 74 29 75 26 76 48 77 49 78
REMARK SMILES IDX 54 79 50 80 51 81 53 82 55 83 52 84 36 85 37 86 42 87 38 88
REMARK SMILES IDX 39 89 41 90 43 91 40 92
REMARK H PARENT 5 5 84 21 77 29 10 35 60 54 34 65
REMARK Flexibility Score: inf
ROOT
ATOM      1  C   UNL A   1      34.581  25.048  25.316  1.00  0.00     0.116 C 
ENDROOT
BRANCH   1   2
ATOM      2  N   UNL A   1      33.783  26.153  25.806  1.00  0.00    -0.356 N 
ATOM      3  C   UNL A   1      33.618  27.314  25.089  1.00  0.00     0.227 C 
ATOM      4  O   UNL A   1      33.946  28.379  25.612  1.00  0.00    -0.274 OA
ATOM      5  H   UNL A   1      33.343  26.070  26.683  1.00  0.00     0.163 HD
BRANCH   3   6
ATOM      6  C   UNL A   1      33.134  27.182  23.650  1.00  0.00     0.106 C 
ATOM      7  C   UNL A   1      34.027  28.173  22.865  1.00  0.00     0.023 C 
BRANCH   6   8
ATOM      8  C   UNL A   1      31.631  27.425  23.426  1.00  0.00    -0.028 A 
ATOM      9  C   UNL A   1      31.288  28.513  22.592  1.00  0.00     0.005 A 
ATOM     10  C   UNL A   1      30.565  26.625  23.920  1.00  0.00    -0.014 A 
ATOM     11  C   UNL A   1      29.976  28.926  22.408  1.00  0.00     0.004 A 
ATOM     12  C   UNL A   1      29.242  27.115  23.788  1.00  0.00     0.012 A 
ATOM     13  C   UNL A   1      28.948  28.295  23.093  1.00  0.00    -0.047 A 
BRANCH  10  14
ATOM     14  C   UNL A   1      30.710  25.255  24.455  1.00  0.00    -0.018 A 
ATOM     15  C   UNL A   1      31.084  24.209  23.590  1.00  0.00     0.012 A 
ATOM     16  C   UNL A   1      30.420  24.920  25.786  1.00  0.00     0.012 A 
ATOM     17  C   UNL A   1      31.248  22.903  24.059  1.00  0.00     0.047 A 
ATOM     18  C   UNL A   1      30.636  23.626  26.276  1.00  0.00     0.047 A 
ATOM     19  C   UNL A   1      31.060  22.630  25.407  1.00  0.00     0.115 A 
BRANCH  19  20
ATOM     20  O   UNL A   1      31.304  21.361  25.841  1.00  0.00    -0.508 OA
ATOM     21  H   UNL A   1      31.725  21.221  26.667  1.00  0.00     0.293 HD
ENDBRANCH  19  20
ENDBRANCH  10  14
BRANCH  13  22
ATOM     22  C   UNL A   1      27.565  28.896  23.089  1.00  0.00     0.041 C 
BRANCH  22  23
ATOM     23  C   UNL A   1      27.502  30.387  22.695  1.00  0.00     0.022 C 
ATOM     24  C   UNL A   1      28.036  31.375  23.747  1.00  0.00     0.007 C 
ATOM     25  C   UNL A   1      28.233  30.785  21.406  1.00  0.00     0.117 C 
ATOM     26  C   UNL A   1      28.698  32.515  22.966  1.00  0.00     0.003 C 
ATOM     27  C   UNL A   1      28.307  32.302  21.512  1.00  0.00     0.032 C 
BRANCH  25  28
ATOM     28  O   UNL A   1      27.544  30.362  20.246  1.00  0.00    -0.393 OA
ATOM     29  H   UNL A   1      26.625  30.151  20.474  1.00  0.00     0.210 HD
ENDBRANCH  25  28
ENDBRANCH  22  23
ENDBRANCH  13  22
ENDBRANCH   6   8
ENDBRANCH   3   6
ENDBRANCH   1   2
BRANCH   1  30
ATOM     30  C   UNL A   1      34.301  23.798  26.160  1.00  0.00     0.023 C 
BRANCH  30  31
ATOM     31  C   UNL A   1      35.451  22.785  26.180  1.00  0.00     0.023 C 
BRANCH  31  32
ATOM     32  C   UNL A   1      36.792  23.345  25.722  1.00  0.00     0.116 C 
BRANCH  32  33
ATOM     33  N   UNL A   1      37.891  22.438  26.002  1.00  0.00    -0.352 N 
ATOM     34  C   UNL A   1      39.160  22.712  26.445  1.00  0.00     0.251 C 
ATOM     35  H   UNL A   1      37.697  21.484  25.851  1.00  0.00     0.163 HD
ATOM     36  O   UNL A   1      40.005  21.825  26.460  1.00  0.00    -0.269 OA
BRANCH  34  37
ATOM     37  C   UNL A   1      39.513  24.080  26.878  1.00  0.00     0.039 A 
ATOM     38  C   UNL A   1      39.329  24.418  28.220  1.00  0.00     0.014 A 
ATOM     39  C   UNL A   1      40.012  25.024  25.976  1.00  0.00     0.014 A 
ATOM     40  C   UNL A   1      39.694  25.686  28.667  1.00  0.00     0.010 A 
ATOM     41  C   UNL A   1      40.446  26.264  26.439  1.00  0.00     0.010 A 
ATOM     42  C   UNL A   1      40.290  26.608  27.788  1.00  0.00    -0.014 A 
BRANCH  42  43
ATOM     43  C   UNL A   1      40.770  27.920  28.289  1.00  0.00     0.031 A 
ATOM     44  C   UNL A   1      42.238  28.242  28.314  1.00  0.00     0.074 A 
ATOM     45  C   UNL A   1      39.872  28.814  28.750  1.00  0.00     0.049 A 
ATOM     46  N   UNL A   1      42.834  29.338  28.713  1.00  0.00    -0.248 NA
ATOM     47  C   UNL A   1      43.159  27.193  27.850  1.00  0.00     0.031 C 
ATOM     48  C   UNL A   1      38.425  28.594  28.833  1.00  0.00     0.029 A 
ATOM     49  N   UNL A   1      40.041  30.085  29.234  1.00  0.00    -0.354 N 
ATOM     50  C   UNL A   1      44.194  29.112  28.544  1.00  0.00     0.074 A 
ATOM     51  C   UNL A   1      44.341  27.755  28.066  1.00  0.00     0.031 C 
ATOM     52  C   UNL A   1      37.839  29.704  29.307  1.00  0.00     0.029 A 
ATOM     53  C   UNL A   1      38.866  30.699  29.595  1.00  0.00     0.049 A 
ATOM     54  H   UNL A   1      40.922  30.518  29.316  1.00  0.00     0.167 HD
ATOM     55  C   UNL A   1      45.224  29.969  28.740  1.00  0.00     0.037 A 
ATOM     56  C   UNL A   1      38.642  31.925  30.103  1.00  0.00     0.037 A 
ATOM     57  C   UNL A   1      45.075  31.323  29.208  1.00  0.00     0.049 A 
ATOM     58  C   UNL A   1      39.807  32.850  30.319  1.00  0.00     0.074 A 
ATOM     59  C   UNL A   1      46.056  32.281  29.402  1.00  0.00     0.029 A 
ATOM     60  N   UNL A   1      43.869  31.912  29.554  1.00  0.00    -0.354 N 
ATOM     61  N   UNL A   1      41.081  32.646  30.087  1.00  0.00    -0.248 NA
ATOM     62  C   UNL A   1      39.501  34.183  30.858  1.00  0.00     0.031 C 
ATOM     63  C   UNL A   1      45.448  33.435  29.908  1.00  0.00     0.029 A 
ATOM     64  C   UNL A   1      44.082  33.213  29.979  1.00  0.00     0.049 A 
ATOM     65  H   UNL A   1      42.990  31.470  29.505  1.00  0.00     0.167 HD
ATOM     66  C   UNL A   1      41.724  33.829  30.429  1.00  0.00     0.074 A 
ATOM     67  C   UNL A   1      40.696  34.754  30.855  1.00  0.00     0.031 C 
ATOM     68  C   UNL A   1      43.047  34.122  30.400  1.00  0.00     0.037 A 
BRANCH  55  69
ATOM     69  C   UNL A   1      46.609  29.474  28.436  1.00  0.00     0.057 A 
ATOM     70  C   UNL A   1      47.393  28.841  29.409  1.00  0.00     0.134 A 
ATOM     71  C   UNL A   1      47.141  29.572  27.143  1.00  0.00     0.134 A 
ATOM     72  F   UNL A   1      46.949  28.724  30.670  1.00  0.00    -0.206 F 
ATOM     73  C   UNL A   1      48.662  28.340  29.114  1.00  0.00     0.040 A 
ATOM     74  C   UNL A   1      48.397  29.051  26.830  1.00  0.00     0.040 A 
ATOM     75  F   UNL A   1      46.441  30.161  26.161  1.00  0.00    -0.206 F 
ATOM     76  C   UNL A   1      49.163  28.435  27.817  1.00  0.00     0.006 A 
ENDBRANCH  55  69
BRANCH  56  77
ATOM     77  C   UNL A   1      37.260  32.359  30.435  1.00  0.00     0.057 A 
ATOM     78  C   UNL A   1      36.683  32.060  31.675  1.00  0.00     0.134 A 
ATOM     79  C   UNL A   1      36.472  33.052  29.509  1.00  0.00     0.134 A 
ATOM     80  F   UNL A   1      37.380  31.383  32.599  1.00  0.00    -0.206 F 
ATOM     81  C   UNL A   1      35.362  32.403  31.969  1.00  0.00     0.040 A 
ATOM     82  C   UNL A   1      35.160  33.428  29.800  1.00  0.00     0.040 A 
ATOM     83  F   UNL A   1      36.969  33.377  28.305  1.00  0.00    -0.206 F 
ATOM     84  C   UNL A   1      34.598  33.092  31.029  1.00  0.00     0.006 A 
ENDBRANCH  56  77
BRANCH  68  85
ATOM     85  C   UNL A   1      43.445  35.509  30.817  1.00  0.00     0.057 A 
ATOM     86  C   UNL A   1      43.571  36.553  29.891  1.00  0.00     0.134 A 
ATOM     87  C   UNL A   1      43.703  35.805  32.162  1.00  0.00     0.134 A 
ATOM     88  F   UNL A   1      43.351  36.333  28.585  1.00  0.00    -0.206 F 
ATOM     89  C   UNL A   1      43.975  37.830  30.281  1.00  0.00     0.040 A 
ATOM     90  C   UNL A   1      44.077  37.086  32.568  1.00  0.00     0.040 A 
ATOM     91  F   UNL A   1      43.591  34.855  33.102  1.00  0.00    -0.206 F 
ATOM     92  C   UNL A   1      44.225  38.100  31.625  1.00  0.00     0.006 A 
ENDBRANCH  68  85
ENDBRANCH  42  43
ENDBRANCH  34  37
ENDBRANCH  32  33
ENDBRANCH  31  32
ENDBRANCH  30  31
ENDBRANCH   1  30
TORSDOF 17
ENDMDL
MODEL 3
REMARK VINA RESULT:     -12.8      3.765      6.880
REMARK SMILES C[C@@H](C(=O)NCCCCNC(=O)c1ccc(-c2c3nc(c(-c4c(F)cccc4F)c4ccc([nH]4)c(-c4c(F)cccc4F)c4nc(c(-c5c(F)cccc5F)c5ccc2[nH]5)C=C4)C=C3)cc1)c1ccc(C[C@H]2CCC[C@@H]2O)cc1-c1ccc(O)cc1
REMARK SMILES IDX 6 1 5 2 3 3 4 4 2 6 1 7 67 8 68 9 79 10 69 11 78 12 70 13
REMARK SMILES IDX 80 14 81 15 86 16 82 17 85 18 83 19 84 20 71 22 72 23 73 24
REMARK SMILES IDX 76 25 74 26 75 27 77 28 7 30 8 31 9 32 10 33 11 34 12 36
REMARK SMILES IDX 13 37 14 38 66 39 15 40 65 41 16 42 17 43 18 44 59 45 19 46
REMARK SMILES IDX 64 47 58 48 60 49 20 50 63 51 57 52 56 53 21 55 47 56 30 57
REMARK SMILES IDX 46 58 31 59 34 60 45 61 61 62 32 63 33 64 44 66 62 67 35 68
REMARK SMILES IDX 22 69 23 70 28 71 24 72 25 73 27 74 29 75 26 76 48 77 49 78
REMARK SMILES IDX 54 79 50 80 51 81 53 82 55 83 52 84 36 85 37 86 42 87 38 88
REMARK SMILES IDX 39 89 41 90 43 91 40 92
REMARK H PARENT 5 5 84 21 77 29 10 35 60 54 34 65
REMARK Flexibility Score: inf
ROOT
ATOM      1  C   UNL A   1      36.407  21.440  25.989  1.00  0.00     0.116 C 
ENDROOT
BRANCH   1   2
ATOM      2  N   UNL A   1      36.342  22.879  26.145  1.00  0.00    -0.356 N 
ATOM      3  C   UNL A   1      35.273  23.618  25.699  1.00  0.00     0.227 C 
ATOM      4  O   UNL A   1      35.482  24.529  24.899  1.00  0.00    -0.274 OA
ATOM      5  H   UNL A   1      37.089  23.344  26.588  1.00  0.00     0.163 HD
BRANCH   3   6
ATOM      6  C   UNL A   1      33.885  23.183  26.155  1.00  0.00     0.106 C 
ATOM      7  C   UNL A   1      34.062  22.902  27.667  1.00  0.00     0.023 C 
BRANCH   6   8
ATOM      8  C   UNL A   1      33.274  21.993  25.394  1.00  0.00    -0.028 A 
ATOM      9  C   UNL A   1      33.154  20.783  26.113  1.00  0.00     0.005 A 
ATOM     10  C   UNL A   1      32.762  22.014  24.068  1.00  0.00    -0.014 A 
ATOM     11  C   UNL A   1      32.742  19.599  25.515  1.00  0.00     0.004 A 
ATOM     12  C   UNL A   1      32.428  20.779  23.458  1.00  0.00     0.012 A 
ATOM     13  C   UNL A   1      32.479  19.564  24.154  1.00  0.00    -0.047 A 
BRANCH  10  14
ATOM     14  C   UNL A   1      32.429  23.236  23.307  1.00  0.00    -0.018 A 
ATOM     15  C   UNL A   1      31.252  23.945  23.615  1.00  0.00     0.012 A 
ATOM     16  C   UNL A   1      33.197  23.697  22.227  1.00  0.00     0.012 A 
ATOM     17  C   UNL A   1      30.908  25.114  22.929  1.00  0.00     0.047 A 
ATOM     18  C   UNL A   1      32.890  24.897  21.575  1.00  0.00     0.047 A 
ATOM     19  C   UNL A   1      31.752  25.602  21.941  1.00  0.00     0.115 A 
BRANCH  19  20
ATOM     20  O   UNL A   1      31.423  26.785  21.349  1.00  0.00    -0.508 OA
ATOM     21  H   UNL A   1      31.929  27.105  20.628  1.00  0.00     0.293 HD
ENDBRANCH  19  20
ENDBRANCH  10  14
BRANCH  13  22
ATOM     22  C   UNL A   1      32.278  18.239  23.462  1.00  0.00     0.041 C 
BRANCH  22  23
ATOM     23  C   UNL A   1      33.300  17.145  23.838  1.00  0.00     0.022 C 
ATOM     24  C   UNL A   1      34.762  17.610  23.944  1.00  0.00     0.007 C 
ATOM     25  C   UNL A   1      33.050  16.401  25.158  1.00  0.00     0.117 C 
ATOM     26  C   UNL A   1      35.391  16.790  25.076  1.00  0.00     0.003 C 
ATOM     27  C   UNL A   1      34.380  15.706  25.412  1.00  0.00     0.032 C 
BRANCH  25  28
ATOM     28  O   UNL A   1      31.976  15.486  25.062  1.00  0.00    -0.393 OA
ATOM     29  H   UNL A   1      32.072  14.803  25.744  1.00  0.00     0.210 HD
ENDBRANCH  25  28
ENDBRANCH  22  23
ENDBRANCH  13  22
ENDBRANCH   6   8
ENDBRANCH   3   6
ENDBRANCH   1   2
BRANCH   1  30
ATOM     30  C   UNL A   1      37.046  21.099  24.636  1.00  0.00     0.023 C 
BRANCH  30  31
ATOM     31  C   UNL A   1      38.112  20.001  24.708  1.00  0.00     0.023 C 
BRANCH  31  32
ATOM     32  C   UNL A   1      38.992  20.055  25.951  1.00  0.00     0.116 C 
BRANCH  32  33
ATOM     33  N   UNL A   1      40.075  19.089  25.900  1.00  0.00    -0.352 N 
ATOM     34  C   UNL A   1      41.424  19.279  26.052  1.00  0.00     0.251 C 
ATOM     35  H   UNL A   1      39.800  18.158  25.732  1.00  0.00     0.163 HD
ATOM     36  O   UNL A   1      42.201  18.363  25.806  1.00  0.00    -0.269 OA
BRANCH  34  37
ATOM     37  C   UNL A   1      41.942  20.594  26.485  1.00  0.00     0.039 A 
ATOM     38  C   UNL A   1      42.288  21.524  25.504  1.00  0.00     0.014 A 
ATOM     39  C   UNL A   1      42.095  20.907  27.839  1.00  0.00     0.014 A 
ATOM     40  C   UNL A   1      42.738  22.788  25.881  1.00  0.00     0.010 A 
ATOM     41  C   UNL A   1      42.472  22.195  28.214  1.00  0.00     0.010 A 
ATOM     42  C   UNL A   1      42.799  23.147  27.239  1.00  0.00    -0.014 A 
BRANCH  42  43
ATOM     43  C   UNL A   1      43.181  24.525  27.635  1.00  0.00     0.031 A 
ATOM     44  C   UNL A   1      44.623  24.953  27.631  1.00  0.00     0.074 A 
ATOM     45  C   UNL A   1      42.220  25.386  28.026  1.00  0.00     0.049 A 
ATOM     46  N   UNL A   1      45.137  26.117  27.943  1.00  0.00    -0.248 NA
ATOM     47  C   UNL A   1      45.619  23.940  27.249  1.00  0.00     0.031 C 
ATOM     48  C   UNL A   1      40.793  25.070  28.129  1.00  0.00     0.029 A 
ATOM     49  N   UNL A   1      42.296  26.700  28.409  1.00  0.00    -0.354 N 
ATOM     50  C   UNL A   1      46.510  25.977  27.788  1.00  0.00     0.074 A 
ATOM     51  C   UNL A   1      46.756  24.601  27.418  1.00  0.00     0.031 C 
ATOM     52  C   UNL A   1      40.126  26.169  28.515  1.00  0.00     0.029 A 
ATOM     53  C   UNL A   1      41.078  27.254  28.723  1.00  0.00     0.049 A 
ATOM     54  H   UNL A   1      43.143  27.201  28.455  1.00  0.00     0.167 HD
ATOM     55  C   UNL A   1      47.475  26.918  27.915  1.00  0.00     0.037 A 
ATOM     56  C   UNL A   1      40.765  28.497  29.134  1.00  0.00     0.037 A 
ATOM     57  C   UNL A   1      47.228  28.291  28.275  1.00  0.00     0.049 A 
ATOM     58  C   UNL A   1      41.860  29.518  29.274  1.00  0.00     0.074 A 
ATOM     59  C   UNL A   1      48.137  29.329  28.392  1.00  0.00     0.029 A 
ATOM     60  N   UNL A   1      45.981  28.816  28.577  1.00  0.00    -0.354 N 
ATOM     61  N   UNL A   1      43.146  29.388  29.057  1.00  0.00    -0.248 NA
ATOM     62  C   UNL A   1      41.457  30.863  29.709  1.00  0.00     0.031 C 
ATOM     63  C   UNL A   1      47.445  30.472  28.808  1.00  0.00     0.029 A 
ATOM     64  C   UNL A   1      46.099  30.159  28.898  1.00  0.00     0.049 A 
ATOM     65  H   UNL A   1      45.137  28.310  28.565  1.00  0.00     0.167 HD
ATOM     66  C   UNL A   1      43.701  30.637  29.303  1.00  0.00     0.074 A 
ATOM     67  C   UNL A   1      42.607  31.516  29.658  1.00  0.00     0.031 C 
ATOM     68  C   UNL A   1      45.000  31.021  29.250  1.00  0.00     0.037 A 
BRANCH  55  69
ATOM     69  C   UNL A   1      48.893  26.502  27.647  1.00  0.00     0.057 A 
ATOM     70  C   UNL A   1      49.449  26.574  26.363  1.00  0.00     0.134 A 
ATOM     71  C   UNL A   1      49.731  26.084  28.689  1.00  0.00     0.134 A 
ATOM     72  F   UNL A   1      48.699  26.955  25.318  1.00  0.00    -0.206 F 
ATOM     73  C   UNL A   1      50.781  26.231  26.122  1.00  0.00     0.040 A 
ATOM     74  C   UNL A   1      51.071  25.764  28.465  1.00  0.00     0.040 A 
ATOM     75  F   UNL A   1      49.265  25.997  29.945  1.00  0.00    -0.206 F 
ATOM     76  C   UNL A   1      51.598  25.834  27.178  1.00  0.00     0.006 A 
ENDBRANCH  55  69
BRANCH  56  77
ATOM     77  C   UNL A   1      39.354  28.855  29.434  1.00  0.00     0.057 A 
ATOM     78  C   UNL A   1      38.811  28.661  30.710  1.00  0.00     0.134 A 
ATOM     79  C   UNL A   1      38.507  29.366  28.444  1.00  0.00     0.134 A 
ATOM     80  F   UNL A   1      39.567  28.158  31.697  1.00  0.00    -0.206 F 
ATOM     81  C   UNL A   1      37.468  28.929  30.981  1.00  0.00     0.040 A 
ATOM     82  C   UNL A   1      37.170  29.668  28.709  1.00  0.00     0.040 A 
ATOM     83  F   UNL A   1      38.968  29.584  27.203  1.00  0.00    -0.206 F 
ATOM     84  C   UNL A   1      36.645  29.437  29.979  1.00  0.00     0.006 A 
ENDBRANCH  56  77
BRANCH  68  85
ATOM     85  C   UNL A   1      45.296  32.461  29.555  1.00  0.00     0.057 A 
ATOM     86  C   UNL A   1      45.292  33.446  28.559  1.00  0.00     0.134 A 
ATOM     87  C   UNL A   1      45.585  32.869  30.864  1.00  0.00     0.134 A 
ATOM     88  F   UNL A   1      45.035  33.120  27.282  1.00  0.00    -0.206 F 
ATOM     89  C   UNL A   1      45.602  34.777  28.845  1.00  0.00     0.040 A 
ATOM     90  C   UNL A   1      45.865  34.201  31.168  1.00  0.00     0.040 A 
ATOM     91  F   UNL A   1      45.595  31.980  31.869  1.00  0.00    -0.206 F 
ATOM     92  C   UNL A   1      45.886  35.157  30.155  1.00  0.00     0.006 A 
ENDBRANCH  68  85
ENDBRANCH  42  43
ENDBRANCH  34  37
ENDBRANCH  32  33
ENDBRANCH  31  32
ENDBRANCH  30  31
ENDBRANCH   1  30
TORSDOF 17
ENDMDL
