MODEL 1
REMARK VINA RESULT:     -12.3      0.000      0.000
REMARK SMILES O=C(NCCCCNC(=O)[C@@H]1CC2(CC[NH2+]CC2)C[N@@H+]1Cc1cccc2nonc12)c1ccc(-c2c3nc(c(-c4c(F)cccc4F)c4ccc([nH]4)c(-c4c(F)cccc4F)c4nc(c(-c5c(F)cccc5F)c5ccc2[nH]5)C=C4)C=C3)cc1
REMARK SMILES IDX 5 1 4 2 3 3 1 4 2 5 31 7 32 8 84 9 33 10 83 11 34 12 35 13
REMARK SMILES IDX 36 14 77 15 37 16 82 17 76 18 78 19 38 20 81 21 75 22 74 23
REMARK SMILES IDX 39 25 65 26 48 27 64 28 49 29 52 30 63 31 79 32 50 33 51 34
REMARK SMILES IDX 62 36 80 37 53 38 40 39 41 40 46 41 42 42 43 43 45 44 47 45
REMARK SMILES IDX 44 46 66 47 67 48 72 49 68 50 69 51 71 52 73 53 70 54 54 55
REMARK SMILES IDX 55 56 60 57 56 58 57 59 59 60 61 61 58 62 6 63 7 64 8 65
REMARK SMILES IDX 9 66 10 68 11 69 12 70 20 71 13 72 19 73 14 75 18 76 15 77
REMARK SMILES IDX 17 78 16 79 21 82 22 83 23 84 30 85 24 86 26 87 29 88 25 89
REMARK SMILES IDX 27 90 28 91
REMARK H PARENT 3 6 78 24 52 35 8 67 20 74 16 80 16 81
REMARK Flexibility Score: inf
ROOT
ATOM      1  C   UNL A   1      34.706  29.909  27.184  1.00  0.00     0.023 C 
ENDROOT
BRANCH   1   2
ATOM      2  C   UNL A   1      33.541  30.717  27.764  1.00  0.00     0.116 C 
BRANCH   2   3
ATOM      3  N   UNL A   1      33.713  32.132  27.488  1.00  0.00    -0.352 N 
ATOM      4  O   UNL A   1      34.165  34.278  27.897  1.00  0.00    -0.269 OA
ATOM      5  C   UNL A   1      34.414  33.094  28.151  1.00  0.00     0.251 C 
ATOM      6  H   UNL A   1      33.242  32.451  26.683  1.00  0.00     0.163 HD
BRANCH   5   7
ATOM      7  C   UNL A   1      35.478  32.782  29.127  1.00  0.00     0.039 A 
ATOM      8  C   UNL A   1      36.783  32.618  28.643  1.00  0.00     0.014 A 
ATOM      9  C   UNL A   1      35.187  32.460  30.455  1.00  0.00     0.014 A 
ATOM     10  C   UNL A   1      37.792  32.122  29.470  1.00  0.00     0.010 A 
ATOM     11  C   UNL A   1      36.200  31.964  31.284  1.00  0.00     0.010 A 
ATOM     12  C   UNL A   1      37.504  31.774  30.795  1.00  0.00    -0.014 A 
BRANCH  12  13
ATOM     13  C   UNL A   1      38.561  31.163  31.632  1.00  0.00     0.031 A 
ATOM     14  C   UNL A   1      39.061  29.830  31.221  1.00  0.00     0.074 A 
ATOM     15  C   UNL A   1      39.495  31.912  32.262  1.00  0.00     0.049 A 
ATOM     16  N   UNL A   1      39.954  29.726  30.285  1.00  0.00    -0.248 NA
ATOM     17  C   UNL A   1      38.529  28.554  31.683  1.00  0.00     0.031 C 
ATOM     18  C   UNL A   1      39.747  33.330  31.976  1.00  0.00     0.029 A 
ATOM     19  N   UNL A   1      40.540  31.541  33.085  1.00  0.00    -0.354 N 
ATOM     20  C   UNL A   1      40.073  28.392  29.975  1.00  0.00     0.074 A 
ATOM     21  C   UNL A   1      39.190  27.694  30.888  1.00  0.00     0.031 C 
ATOM     22  C   UNL A   1      40.947  33.668  32.487  1.00  0.00     0.029 A 
ATOM     23  C   UNL A   1      41.465  32.555  33.269  1.00  0.00     0.049 A 
ATOM     24  H   UNL A   1      40.619  30.651  33.498  1.00  0.00     0.167 HD
ATOM     25  C   UNL A   1      40.891  27.959  28.982  1.00  0.00     0.037 A 
ATOM     26  C   UNL A   1      42.753  32.452  33.680  1.00  0.00     0.037 A 
ATOM     27  C   UNL A   1      41.714  28.919  28.271  1.00  0.00     0.049 A 
ATOM     28  C   UNL A   1      43.452  31.809  32.523  1.00  0.00     0.074 A 
ATOM     29  C   UNL A   1      42.365  28.985  27.051  1.00  0.00     0.029 A 
ATOM     30  N   UNL A   1      42.038  30.093  28.899  1.00  0.00    -0.354 N 
ATOM     31  N   UNL A   1      43.863  32.438  31.452  1.00  0.00    -0.248 NA
ATOM     32  C   UNL A   1      43.491  30.341  32.428  1.00  0.00     0.031 C 
ATOM     33  C   UNL A   1      43.270  30.097  27.101  1.00  0.00     0.029 A 
ATOM     34  C   UNL A   1      43.174  30.646  28.364  1.00  0.00     0.049 A 
ATOM     35  H   UNL A   1      41.522  30.488  29.638  1.00  0.00     0.167 HD
ATOM     36  C   UNL A   1      43.952  31.452  30.482  1.00  0.00     0.074 A 
ATOM     37  C   UNL A   1      43.848  30.175  31.159  1.00  0.00     0.031 C 
ATOM     38  C   UNL A   1      43.798  31.674  29.149  1.00  0.00     0.037 A 
BRANCH  25  39
ATOM     39  C   UNL A   1      41.100  26.522  28.716  1.00  0.00     0.057 A 
ATOM     40  C   UNL A   1      40.204  25.757  27.971  1.00  0.00     0.134 A 
ATOM     41  C   UNL A   1      42.325  25.942  29.072  1.00  0.00     0.134 A 
ATOM     42  F   UNL A   1      39.019  26.264  27.599  1.00  0.00    -0.206 F 
ATOM     43  C   UNL A   1      40.533  24.462  27.561  1.00  0.00     0.040 A 
ATOM     44  C   UNL A   1      42.667  24.654  28.665  1.00  0.00     0.040 A 
ATOM     45  F   UNL A   1      43.218  26.635  29.796  1.00  0.00    -0.206 F 
ATOM     46  C   UNL A   1      41.773  23.914  27.895  1.00  0.00     0.006 A 
ENDBRANCH  25  39
BRANCH  26  47
ATOM     47  C   UNL A   1      42.972  32.091  35.110  1.00  0.00     0.057 A 
ATOM     48  C   UNL A   1      42.593  30.890  35.722  1.00  0.00     0.134 A 
ATOM     49  C   UNL A   1      43.691  32.987  35.928  1.00  0.00     0.134 A 
ATOM     50  F   UNL A   1      42.014  29.903  35.026  1.00  0.00    -0.206 F 
ATOM     51  C   UNL A   1      42.807  30.645  37.084  1.00  0.00     0.040 A 
ATOM     52  C   UNL A   1      43.930  32.749  37.284  1.00  0.00     0.040 A 
ATOM     53  F   UNL A   1      44.204  34.117  35.415  1.00  0.00    -0.206 F 
ATOM     54  C   UNL A   1      43.465  31.581  37.874  1.00  0.00     0.006 A 
ENDBRANCH  26  47
BRANCH  38  55
ATOM     55  C   UNL A   1      44.039  33.041  28.640  1.00  0.00     0.057 A 
ATOM     56  C   UNL A   1      45.252  33.413  28.055  1.00  0.00     0.134 A 
ATOM     57  C   UNL A   1      43.044  34.020  28.754  1.00  0.00     0.134 A 
ATOM     58  F   UNL A   1      46.247  32.523  27.911  1.00  0.00    -0.206 F 
ATOM     59  C   UNL A   1      45.467  34.713  27.596  1.00  0.00     0.040 A 
ATOM     60  C   UNL A   1      43.243  35.320  28.290  1.00  0.00     0.040 A 
ATOM     61  F   UNL A   1      41.870  33.736  29.340  1.00  0.00    -0.206 F 
ATOM     62  C   UNL A   1      44.460  35.670  27.711  1.00  0.00     0.006 A 
ENDBRANCH  38  55
ENDBRANCH  12  13
ENDBRANCH   5   7
ENDBRANCH   2   3
ENDBRANCH   1   2
BRANCH   1  63
ATOM     63  C   UNL A   1      34.308  28.672  26.353  1.00  0.00     0.023 C 
BRANCH  63  64
ATOM     64  C   UNL A   1      33.207  28.922  25.317  1.00  0.00     0.116 C 
BRANCH  64  65
ATOM     65  N   UNL A   1      33.325  27.959  24.248  1.00  0.00    -0.351 N 
ATOM     66  C   UNL A   1      33.250  26.602  24.402  1.00  0.00     0.278 C 
ATOM     67  H   UNL A   1      33.473  28.305  23.338  1.00  0.00     0.163 HD
ATOM     68  O   UNL A   1      34.116  25.934  23.840  1.00  0.00    -0.268 OA
BRANCH  66  69
ATOM     69  C   UNL A   1      32.070  26.022  25.208  1.00  0.00     0.275 C 
ATOM     70  C   UNL A   1      32.551  25.179  26.388  1.00  0.00     0.089 C 
ATOM     71  N   UNL A   1      31.246  25.090  24.443  1.00  0.00    -0.320 N 
ATOM     72  C   UNL A   1      32.466  23.702  25.930  1.00  0.00     0.036 C 
ATOM     73  C   UNL A   1      31.309  23.727  24.915  1.00  0.00     0.270 C 
ATOM     74  H   UNL A   1      30.302  25.465  24.528  1.00  0.00     0.349 HD
ATOM     75  C   UNL A   1      32.168  22.753  27.107  1.00  0.00     0.074 C 
ATOM     76  C   UNL A   1      33.768  23.196  25.264  1.00  0.00     0.074 C 
ATOM     77  C   UNL A   1      33.361  22.635  28.058  1.00  0.00     0.261 C 
ATOM     78  C   UNL A   1      34.921  23.073  26.260  1.00  0.00     0.261 C 
ATOM     79  N   UNL A   1      34.573  22.186  27.373  1.00  0.00    -0.346 N 
ATOM     80  H   UNL A   1      34.421  21.245  27.010  1.00  0.00     0.346 HD
ATOM     81  H   UNL A   1      35.342  22.197  28.043  1.00  0.00     0.346 HD
BRANCH  71  82
ATOM     82  C   UNL A   1      30.608  25.437  23.192  1.00  0.00     0.302 C 
BRANCH  82  83
ATOM     83  C   UNL A   1      29.640  26.579  23.304  1.00  0.00     0.038 A 
ATOM     84  C   UNL A   1      28.360  26.430  23.901  1.00  0.00     0.012 A 
ATOM     85  C   UNL A   1      29.829  27.849  22.705  1.00  0.00     0.144 A 
ATOM     86  C   UNL A   1      27.339  27.415  23.850  1.00  0.00     0.003 A 
ATOM     87  C   UNL A   1      28.775  28.855  22.645  1.00  0.00     0.135 A 
ATOM     88  N   UNL A   1      30.904  28.341  22.070  1.00  0.00    -0.049 NA
ATOM     89  C   UNL A   1      27.502  28.655  23.208  1.00  0.00     0.034 A 
ATOM     90  N   UNL A   1      29.239  29.914  21.970  1.00  0.00    -0.050 NA
ATOM     91  O   UNL A   1      30.543  29.600  21.628  1.00  0.00    -0.243 OA
ENDBRANCH  82  83
ENDBRANCH  71  82
ENDBRANCH  66  69
ENDBRANCH  64  65
ENDBRANCH  63  64
ENDBRANCH   1  63
TORSDOF 13
ENDMDL
MODEL 2
REMARK VINA RESULT:     -12.3      3.107      7.991
REMARK SMILES O=C(NCCCCNC(=O)[C@@H]1CC2(CC[NH2+]CC2)C[N@@H+]1Cc1cccc2nonc12)c1ccc(-c2c3nc(c(-c4c(F)cccc4F)c4ccc([nH]4)c(-c4c(F)cccc4F)c4nc(c(-c5c(F)cccc5F)c5ccc2[nH]5)C=C4)C=C3)cc1
REMARK SMILES IDX 5 1 4 2 3 3 1 4 2 5 31 7 32 8 84 9 33 10 83 11 34 12 35 13
REMARK SMILES IDX 36 14 77 15 37 16 82 17 76 18 78 19 38 20 81 21 75 22 74 23
REMARK SMILES IDX 39 25 65 26 48 27 64 28 49 29 52 30 63 31 79 32 50 33 51 34
REMARK SMILES IDX 62 36 80 37 53 38 40 39 41 40 46 41 42 42 43 43 45 44 47 45
REMARK SMILES IDX 44 46 66 47 67 48 72 49 68 50 69 51 71 52 73 53 70 54 54 55
REMARK SMILES IDX 55 56 60 57 56 58 57 59 59 60 61 61 58 62 6 63 7 64 8 65
REMARK SMILES IDX 9 66 10 68 11 69 12 70 20 71 13 72 19 73 14 75 18 76 15 77
REMARK SMILES IDX 17 78 16 79 21 82 22 83 23 84 30 85 24 86 26 87 29 88 25 89
REMARK SMILES IDX 27 90 28 91
REMARK H PARENT 3 6 78 24 52 35 8 67 20 74 16 80 16 81
REMARK Flexibility Score: inf
ROOT
ATOM      1  C   UNL A   1      37.259  21.625  24.757  1.00  0.00     0.023 C 
ENDROOT
BRANCH   1   2
ATOM      2  C   UNL A   1      38.370  22.249  25.610  1.00  0.00     0.116 C 
BRANCH   2   3
ATOM      3  N   UNL A   1      39.192  21.215  26.213  1.00  0.00    -0.352 N 
ATOM      4  O   UNL A   1      41.053  20.126  26.784  1.00  0.00    -0.269 OA
ATOM      5  C   UNL A   1      40.507  21.214  26.571  1.00  0.00     0.251 C 
ATOM      6  H   UNL A   1      38.719  20.372  26.395  1.00  0.00     0.163 HD
BRANCH   5   7
ATOM      7  C   UNL A   1      41.292  22.454  26.748  1.00  0.00     0.039 A 
ATOM      8  C   UNL A   1      41.034  23.235  27.883  1.00  0.00     0.014 A 
ATOM      9  C   UNL A   1      42.118  22.952  25.738  1.00  0.00     0.014 A 
ATOM     10  C   UNL A   1      41.583  24.512  28.008  1.00  0.00     0.010 A 
ATOM     11  C   UNL A   1      42.670  24.232  25.865  1.00  0.00     0.010 A 
ATOM     12  C   UNL A   1      42.394  25.028  26.990  1.00  0.00    -0.014 A 
BRANCH  12  13
ATOM     13  C   UNL A   1      42.894  26.418  27.094  1.00  0.00     0.031 A 
ATOM     14  C   UNL A   1      41.883  27.487  27.273  1.00  0.00     0.074 A 
ATOM     15  C   UNL A   1      44.084  26.707  27.668  1.00  0.00     0.049 A 
ATOM     16  N   UNL A   1      41.395  27.736  28.449  1.00  0.00    -0.248 NA
ATOM     17  C   UNL A   1      41.248  28.231  26.192  1.00  0.00     0.031 C 
ATOM     18  C   UNL A   1      44.859  25.764  28.483  1.00  0.00     0.029 A 
ATOM     19  N   UNL A   1      44.725  27.917  27.849  1.00  0.00    -0.354 N 
ATOM     20  C   UNL A   1      40.351  28.615  28.284  1.00  0.00     0.074 A 
ATOM     21  C   UNL A   1      40.311  28.919  26.868  1.00  0.00     0.031 C 
ATOM     22  C   UNL A   1      45.774  26.453  29.193  1.00  0.00     0.029 A 
ATOM     23  C   UNL A   1      45.763  27.844  28.763  1.00  0.00     0.049 A 
ATOM     24  H   UNL A   1      44.470  28.744  27.379  1.00  0.00     0.167 HD
ATOM     25  C   UNL A   1      39.590  29.024  29.331  1.00  0.00     0.037 A 
ATOM     26  C   UNL A   1      46.348  28.854  29.452  1.00  0.00     0.037 A 
ATOM     27  C   UNL A   1      39.925  28.579  30.670  1.00  0.00     0.049 A 
ATOM     28  C   UNL A   1      45.302  29.275  30.436  1.00  0.00     0.074 A 
ATOM     29  C   UNL A   1      39.275  28.453  31.886  1.00  0.00     0.029 A 
ATOM     30  N   UNL A   1      41.217  28.204  30.928  1.00  0.00    -0.354 N 
ATOM     31  N   UNL A   1      45.053  28.670  31.569  1.00  0.00    -0.248 NA
ATOM     32  C   UNL A   1      44.303  30.282  30.044  1.00  0.00     0.031 C 
ATOM     33  C   UNL A   1      40.275  28.248  32.894  1.00  0.00     0.029 A 
ATOM     34  C   UNL A   1      41.504  28.299  32.267  1.00  0.00     0.049 A 
ATOM     35  H   UNL A   1      41.856  27.904  30.242  1.00  0.00     0.167 HD
ATOM     36  C   UNL A   1      43.752  29.033  31.879  1.00  0.00     0.074 A 
ATOM     37  C   UNL A   1      43.388  30.120  30.993  1.00  0.00     0.031 C 
ATOM     38  C   UNL A   1      42.898  28.267  32.610  1.00  0.00     0.037 A 
BRANCH  25  39
ATOM     39  C   UNL A   1      38.535  30.046  29.174  1.00  0.00     0.057 A 
ATOM     40  C   UNL A   1      38.721  31.380  29.534  1.00  0.00     0.134 A 
ATOM     41  C   UNL A   1      37.366  29.707  28.479  1.00  0.00     0.134 A 
ATOM     42  F   UNL A   1      39.823  31.761  30.196  1.00  0.00    -0.206 F 
ATOM     43  C   UNL A   1      37.786  32.357  29.179  1.00  0.00     0.040 A 
ATOM     44  C   UNL A   1      36.430  30.672  28.114  1.00  0.00     0.040 A 
ATOM     45  F   UNL A   1      37.138  28.435  28.118  1.00  0.00    -0.206 F 
ATOM     46  C   UNL A   1      36.646  32.005  28.455  1.00  0.00     0.006 A 
ENDBRANCH  25  39
BRANCH  26  47
ATOM     47  C   UNL A   1      47.200  29.794  28.667  1.00  0.00     0.057 A 
ATOM     48  C   UNL A   1      46.759  30.649  27.650  1.00  0.00     0.134 A 
ATOM     49  C   UNL A   1      48.564  29.910  29.007  1.00  0.00     0.134 A 
ATOM     50  F   UNL A   1      45.465  30.727  27.314  1.00  0.00    -0.206 F 
ATOM     51  C   UNL A   1      47.636  31.477  26.937  1.00  0.00     0.040 A 
ATOM     52  C   UNL A   1      49.447  30.746  28.319  1.00  0.00     0.040 A 
ATOM     53  F   UNL A   1      49.068  29.223  30.045  1.00  0.00    -0.206 F 
ATOM     54  C   UNL A   1      48.987  31.519  27.261  1.00  0.00     0.006 A 
ENDBRANCH  26  47
BRANCH  38  55
ATOM     55  C   UNL A   1      43.478  27.266  33.530  1.00  0.00     0.057 A 
ATOM     56  C   UNL A   1      43.919  26.017  33.086  1.00  0.00     0.134 A 
ATOM     57  C   UNL A   1      43.583  27.544  34.899  1.00  0.00     0.134 A 
ATOM     58  F   UNL A   1      43.851  25.685  31.787  1.00  0.00    -0.206 F 
ATOM     59  C   UNL A   1      44.449  25.077  33.972  1.00  0.00     0.040 A 
ATOM     60  C   UNL A   1      44.119  26.618  35.793  1.00  0.00     0.040 A 
ATOM     61  F   UNL A   1      43.143  28.712  35.394  1.00  0.00    -0.206 F 
ATOM     62  C   UNL A   1      44.552  25.378  35.330  1.00  0.00     0.006 A 
ENDBRANCH  38  55
ENDBRANCH  12  13
ENDBRANCH   5   7
ENDBRANCH   2   3
ENDBRANCH   1   2
BRANCH   1  63
ATOM     63  C   UNL A   1      35.874  22.295  24.877  1.00  0.00     0.023 C 
BRANCH  63  64
ATOM     64  C   UNL A   1      35.861  23.798  24.582  1.00  0.00     0.116 C 
BRANCH  64  65
ATOM     65  N   UNL A   1      34.979  24.463  25.513  1.00  0.00    -0.351 N 
ATOM     66  C   UNL A   1      34.070  25.428  25.180  1.00  0.00     0.278 C 
ATOM     67  H   UNL A   1      35.038  24.202  26.460  1.00  0.00     0.163 HD
ATOM     68  O   UNL A   1      34.047  26.433  25.888  1.00  0.00    -0.268 OA
BRANCH  66  69
ATOM     69  C   UNL A   1      33.120  25.160  23.995  1.00  0.00     0.275 C 
ATOM     70  C   UNL A   1      32.637  26.459  23.352  1.00  0.00     0.089 C 
ATOM     71  N   UNL A   1      31.878  24.496  24.383  1.00  0.00    -0.320 N 
ATOM     72  C   UNL A   1      31.224  26.729  23.927  1.00  0.00     0.036 C 
ATOM     73  C   UNL A   1      30.699  25.311  24.219  1.00  0.00     0.270 C 
ATOM     74  H   UNL A   1      31.841  23.670  23.786  1.00  0.00     0.349 HD
ATOM     75  C   UNL A   1      30.326  27.470  22.917  1.00  0.00     0.074 C 
ATOM     76  C   UNL A   1      31.246  27.582  25.219  1.00  0.00     0.074 C 
ATOM     77  C   UNL A   1      30.775  28.919  22.713  1.00  0.00     0.261 C 
ATOM     78  C   UNL A   1      31.678  29.024  24.956  1.00  0.00     0.261 C 
ATOM     79  N   UNL A   1      30.811  29.670  23.968  1.00  0.00    -0.346 N 
ATOM     80  H   UNL A   1      29.866  29.730  24.346  1.00  0.00     0.346 HD
ATOM     81  H   UNL A   1      31.185  30.599  23.774  1.00  0.00     0.346 HD
BRANCH  71  82
ATOM     82  C   UNL A   1      31.842  23.231  25.085  1.00  0.00     0.302 C 
BRANCH  82  83
ATOM     83  C   UNL A   1      32.080  22.042  24.200  1.00  0.00     0.038 A 
ATOM     84  C   UNL A   1      31.993  22.122  22.784  1.00  0.00     0.012 A 
ATOM     85  C   UNL A   1      32.259  20.718  24.671  1.00  0.00     0.144 A 
ATOM     86  C   UNL A   1      32.008  20.994  21.921  1.00  0.00     0.003 A 
ATOM     87  C   UNL A   1      32.265  19.561  23.783  1.00  0.00     0.135 A 
ATOM     88  N   UNL A   1      32.395  20.271  25.929  1.00  0.00    -0.049 NA
ATOM     89  C   UNL A   1      32.128  19.674  22.388  1.00  0.00     0.034 A 
ATOM     90  N   UNL A   1      32.392  18.456  24.528  1.00  0.00    -0.050 NA
ATOM     91  O   UNL A   1      32.481  18.894  25.838  1.00  0.00    -0.243 OA
ENDBRANCH  82  83
ENDBRANCH  71  82
ENDBRANCH  66  69
ENDBRANCH  64  65
ENDBRANCH  63  64
ENDBRANCH   1  63
TORSDOF 13
ENDMDL
MODEL 3
REMARK VINA RESULT:     -12.3      5.216     10.442
REMARK SMILES O=C(NCCCCNC(=O)[C@@H]1CC2(CC[NH2+]CC2)C[N@@H+]1Cc1cccc2nonc12)c1ccc(-c2c3nc(c(-c4c(F)cccc4F)c4ccc([nH]4)c(-c4c(F)cccc4F)c4nc(c(-c5c(F)cccc5F)c5ccc2[nH]5)C=C4)C=C3)cc1
REMARK SMILES IDX 5 1 4 2 3 3 1 4 2 5 31 7 32 8 84 9 33 10 83 11 34 12 35 13
REMARK SMILES IDX 36 14 77 15 37 16 82 17 76 18 78 19 38 20 81 21 75 22 74 23
REMARK SMILES IDX 39 25 65 26 48 27 64 28 49 29 52 30 63 31 79 32 50 33 51 34
REMARK SMILES IDX 62 36 80 37 53 38 40 39 41 40 46 41 42 42 43 43 45 44 47 45
REMARK SMILES IDX 44 46 66 47 67 48 72 49 68 50 69 51 71 52 73 53 70 54 54 55
REMARK SMILES IDX 55 56 60 57 56 58 57 59 59 60 61 61 58 62 6 63 7 64 8 65
REMARK SMILES IDX 9 66 10 68 11 69 12 70 20 71 13 72 19 73 14 75 18 76 15 77
REMARK SMILES IDX 17 78 16 79 21 82 22 83 23 84 30 85 24 86 26 87 29 88 25 89
REMARK SMILES IDX 27 90 28 91
REMARK H PARENT 3 6 78 24 52 35 8 67 20 74 16 80 16 81
REMARK Flexibility Score: inf
ROOT
ATOM      1  C   UNL A   1      42.052  27.263  36.576  1.00  0.00     0.023 C 
ENDROOT
BRANCH   1   2
ATOM      2  C   UNL A   1      41.780  25.764  36.404  1.00  0.00     0.116 C 
BRANCH   2   3
ATOM      3  N   UNL A   1      42.917  24.983  36.856  1.00  0.00    -0.352 N 
ATOM      4  O   UNL A   1      44.668  23.607  36.714  1.00  0.00    -0.269 OA
ATOM      5  C   UNL A   1      43.992  24.493  36.177  1.00  0.00     0.251 C 
ATOM      6  H   UNL A   1      42.911  24.772  37.818  1.00  0.00     0.163 HD
BRANCH   5   7
ATOM      7  C   UNL A   1      44.401  24.998  34.850  1.00  0.00     0.039 A 
ATOM      8  C   UNL A   1      45.093  26.216  34.799  1.00  0.00     0.014 A 
ATOM      9  C   UNL A   1      43.953  24.407  33.667  1.00  0.00     0.014 A 
ATOM     10  C   UNL A   1      45.325  26.852  33.578  1.00  0.00     0.010 A 
ATOM     11  C   UNL A   1      44.188  25.044  32.443  1.00  0.00     0.010 A 
ATOM     12  C   UNL A   1      44.860  26.277  32.390  1.00  0.00    -0.014 A 
BRANCH  12  13
ATOM     13  C   UNL A   1      45.033  27.008  31.113  1.00  0.00     0.031 A 
ATOM     14  C   UNL A   1      44.980  26.210  29.866  1.00  0.00     0.074 A 
ATOM     15  C   UNL A   1      44.595  28.278  30.954  1.00  0.00     0.049 A 
ATOM     16  N   UNL A   1      43.836  25.882  29.347  1.00  0.00    -0.248 NA
ATOM     17  C   UNL A   1      46.131  25.609  29.204  1.00  0.00     0.031 C 
ATOM     18  C   UNL A   1      43.679  28.959  31.877  1.00  0.00     0.029 A 
ATOM     19  N   UNL A   1      44.670  29.124  29.865  1.00  0.00    -0.354 N 
ATOM     20  C   UNL A   1      44.085  24.987  28.334  1.00  0.00     0.074 A 
ATOM     21  C   UNL A   1      45.527  24.866  28.260  1.00  0.00     0.031 C 
ATOM     22  C   UNL A   1      43.161  30.037  31.258  1.00  0.00     0.029 A 
ATOM     23  C   UNL A   1      43.825  30.217  29.975  1.00  0.00     0.049 A 
ATOM     24  H   UNL A   1      45.260  28.968  29.093  1.00  0.00     0.167 HD
ATOM     25  C   UNL A   1      43.079  24.405  27.632  1.00  0.00     0.037 A 
ATOM     26  C   UNL A   1      43.363  31.023  28.989  1.00  0.00     0.037 A 
ATOM     27  C   UNL A   1      41.707  24.785  27.909  1.00  0.00     0.049 A 
ATOM     28  C   UNL A   1      42.402  30.158  28.235  1.00  0.00     0.074 A 
ATOM     29  C   UNL A   1      40.449  24.240  27.719  1.00  0.00     0.029 A 
ATOM     30  N   UNL A   1      41.470  26.015  28.463  1.00  0.00    -0.354 N 
ATOM     31  N   UNL A   1      41.167  29.919  28.595  1.00  0.00    -0.248 NA
ATOM     32  C   UNL A   1      42.900  29.307  27.142  1.00  0.00     0.031 C 
ATOM     33  C   UNL A   1      39.487  25.282  27.935  1.00  0.00     0.029 A 
ATOM     34  C   UNL A   1      40.190  26.438  28.207  1.00  0.00     0.049 A 
ATOM     35  H   UNL A   1      42.133  26.530  28.979  1.00  0.00     0.167 HD
ATOM     36  C   UNL A   1      40.843  28.730  27.959  1.00  0.00     0.074 A 
ATOM     37  C   UNL A   1      41.880  28.470  26.982  1.00  0.00     0.031 C 
ATOM     38  C   UNL A   1      39.936  27.833  28.432  1.00  0.00     0.037 A 
BRANCH  25  39
ATOM     39  C   UNL A   1      43.344  23.525  26.476  1.00  0.00     0.057 A 
ATOM     40  C   UNL A   1      43.803  24.008  25.252  1.00  0.00     0.134 A 
ATOM     41  C   UNL A   1      43.303  22.136  26.663  1.00  0.00     0.134 A 
ATOM     42  F   UNL A   1      43.868  25.327  25.021  1.00  0.00    -0.206 F 
ATOM     43  C   UNL A   1      44.244  23.134  24.254  1.00  0.00     0.040 A 
ATOM     44  C   UNL A   1      43.745  21.255  25.679  1.00  0.00     0.040 A 
ATOM     45  F   UNL A   1      42.861  21.622  27.821  1.00  0.00    -0.206 F 
ATOM     46  C   UNL A   1      44.229  21.756  24.473  1.00  0.00     0.006 A 
ENDBRANCH  25  39
BRANCH  26  47
ATOM     47  C   UNL A   1      44.352  31.942  28.356  1.00  0.00     0.057 A 
ATOM     48  C   UNL A   1      45.490  31.556  27.636  1.00  0.00     0.134 A 
ATOM     49  C   UNL A   1      44.108  33.330  28.403  1.00  0.00     0.134 A 
ATOM     50  F   UNL A   1      45.770  30.266  27.410  1.00  0.00    -0.206 F 
ATOM     51  C   UNL A   1      46.389  32.488  27.103  1.00  0.00     0.040 A 
ATOM     52  C   UNL A   1      44.985  34.272  27.859  1.00  0.00     0.040 A 
ATOM     53  F   UNL A   1      42.986  33.806  28.966  1.00  0.00    -0.206 F 
ATOM     54  C   UNL A   1      46.146  33.852  27.224  1.00  0.00     0.006 A 
ENDBRANCH  26  47
BRANCH  38  55
ATOM     55  C   UNL A   1      38.895  28.323  29.360  1.00  0.00     0.057 A 
ATOM     56  C   UNL A   1      38.969  28.110  30.738  1.00  0.00     0.134 A 
ATOM     57  C   UNL A   1      37.777  29.007  28.866  1.00  0.00     0.134 A 
ATOM     58  F   UNL A   1      40.015  27.465  31.280  1.00  0.00    -0.206 F 
ATOM     59  C   UNL A   1      37.967  28.565  31.598  1.00  0.00     0.040 A 
ATOM     60  C   UNL A   1      36.774  29.474  29.715  1.00  0.00     0.040 A 
ATOM     61  F   UNL A   1      37.628  29.211  27.547  1.00  0.00    -0.206 F 
ATOM     62  C   UNL A   1      36.867  29.252  31.086  1.00  0.00     0.006 A 
ENDBRANCH  38  55
ENDBRANCH  12  13
ENDBRANCH   5   7
ENDBRANCH   2   3
ENDBRANCH   1   2
BRANCH   1  63
ATOM     63  C   UNL A   1      41.650  28.152  35.381  1.00  0.00     0.023 C 
BRANCH  63  64
ATOM     64  C   UNL A   1      41.288  29.595  35.748  1.00  0.00     0.116 C 
BRANCH  64  65
ATOM     65  N   UNL A   1      39.854  29.714  35.868  1.00  0.00    -0.351 N 
ATOM     66  C   UNL A   1      39.176  30.891  36.030  1.00  0.00     0.278 C 
ATOM     67  H   UNL A   1      39.324  28.886  35.832  1.00  0.00     0.163 HD
ATOM     68  O   UNL A   1      38.312  30.914  36.906  1.00  0.00    -0.268 OA
BRANCH  66  69
ATOM     69  C   UNL A   1      39.503  32.060  35.080  1.00  0.00     0.275 C 
ATOM     70  C   UNL A   1      40.237  33.189  35.803  1.00  0.00     0.089 C 
ATOM     71  N   UNL A   1      38.317  32.722  34.542  1.00  0.00    -0.320 N 
ATOM     72  C   UNL A   1      39.167  34.259  36.134  1.00  0.00     0.036 C 
ATOM     73  C   UNL A   1      38.142  34.080  35.000  1.00  0.00     0.270 C 
ATOM     74  H   UNL A   1      38.450  32.688  33.532  1.00  0.00     0.349 HD
ATOM     75  C   UNL A   1      39.763  35.681  36.141  1.00  0.00     0.074 C 
ATOM     76  C   UNL A   1      38.501  34.046  37.514  1.00  0.00     0.074 C 
ATOM     77  C   UNL A   1      40.693  35.902  37.336  1.00  0.00     0.261 C 
ATOM     78  C   UNL A   1      39.464  34.302  38.672  1.00  0.00     0.261 C 
ATOM     79  N   UNL A   1      40.024  35.655  38.613  1.00  0.00    -0.346 N 
ATOM     80  H   UNL A   1      39.268  36.331  38.728  1.00  0.00     0.346 HD
ATOM     81  H   UNL A   1      40.713  35.749  39.359  1.00  0.00     0.346 HD
BRANCH  71  82
ATOM     82  C   UNL A   1      37.284  32.023  33.809  1.00  0.00     0.302 C 
BRANCH  82  83
ATOM     83  C   UNL A   1      37.282  32.320  32.337  1.00  0.00     0.038 A 
ATOM     84  C   UNL A   1      38.477  32.354  31.570  1.00  0.00     0.012 A 
ATOM     85  C   UNL A   1      36.141  32.738  31.607  1.00  0.00     0.144 A 
ATOM     86  C   UNL A   1      38.550  32.825  30.232  1.00  0.00     0.003 A 
ATOM     87  C   UNL A   1      36.221  33.230  30.237  1.00  0.00     0.135 A 
ATOM     88  N   UNL A   1      34.860  32.818  31.999  1.00  0.00    -0.049 NA
ATOM     89  C   UNL A   1      37.431  33.294  29.523  1.00  0.00     0.034 A 
ATOM     90  N   UNL A   1      34.995  33.600  29.848  1.00  0.00    -0.050 NA
ATOM     91  O   UNL A   1      34.164  33.339  30.924  1.00  0.00    -0.243 OA
ENDBRANCH  82  83
ENDBRANCH  71  82
ENDBRANCH  66  69
ENDBRANCH  64  65
ENDBRANCH  63  64
ENDBRANCH   1  63
TORSDOF 13
ENDMDL
