MODEL 1
REMARK VINA RESULT:     -12.2      0.000      0.000
REMARK SMILES CC1CCN(S(=O)(=O)c2ccc3c(ccn3CC(=O)NCCCCNC(=O)c3ccc(-c4c5nc(c(-c6c(F)cccc6F)c6ccc([nH]6)c(-c6c(F)cccc6F)c6nc(c(-c7c(F)cccc7F)c7ccc4[nH]7)C=C6)C=C5)cc3)c2)CC1
REMARK SMILES IDX 22 1 21 2 20 3 18 4 19 5 17 7 16 8 9 9 10 10 82 11 11 12
REMARK SMILES IDX 13 13 12 14 14 15 15 16 6 17 7 18 8 19 5 20 1 21 2 22 3 23
REMARK SMILES IDX 84 24 4 25 83 26 23 27 24 28 25 29 26 30 27 32 28 33 29 34
REMARK SMILES IDX 81 35 30 36 80 37 31 38 32 39 33 40 74 41 34 42 79 43 73 44
REMARK SMILES IDX 75 45 35 46 78 47 72 48 71 49 36 51 62 52 45 53 61 54 46 55
REMARK SMILES IDX 49 56 60 57 76 58 47 59 48 60 59 62 77 63 50 64 37 65 38 66
REMARK SMILES IDX 43 67 39 68 40 69 42 70 44 71 41 72 63 73 64 74 69 75 65 76
REMARK SMILES IDX 66 77 68 78 70 79 67 80 51 81 52 82 57 83 53 84 54 85 56 86
REMARK SMILES IDX 58 87 55 88
REMARK H PARENT 20 6 25 31 75 50 49 61
REMARK Flexibility Score: inf
ROOT
ATOM      1  C   UNL A   1      40.984  21.067  27.155  1.00  0.00     0.023 C 
ENDROOT
BRANCH   1   2
ATOM      2  C   UNL A   1      39.856  22.043  26.820  1.00  0.00     0.116 C 
BRANCH   2   3
ATOM      3  N   UNL A   1      39.063  21.603  25.689  1.00  0.00    -0.355 N 
ATOM      4  C   UNL A   1      37.842  22.046  25.265  1.00  0.00     0.239 C 
ATOM      5  O   UNL A   1      37.351  21.516  24.265  1.00  0.00    -0.273 OA
ATOM      6  H   UNL A   1      39.462  20.882  25.149  1.00  0.00     0.163 HD
BRANCH   4   7
ATOM      7  C   UNL A   1      37.146  23.200  25.959  1.00  0.00     0.222 C 
BRANCH   7   8
ATOM      8  N   UNL A   1      35.716  22.993  26.138  1.00  0.00    -0.338 N 
ATOM      9  C   UNL A   1      32.373  25.328  25.460  1.00  0.00     0.083 A 
ATOM     10  C   UNL A   1      33.601  25.907  25.143  1.00  0.00     0.024 A 
ATOM     11  C   UNL A   1      32.307  24.028  25.979  1.00  0.00     0.032 A 
ATOM     12  C   UNL A   1      34.783  25.174  25.236  1.00  0.00     0.028 A 
ATOM     13  C   UNL A   1      33.503  23.310  26.176  1.00  0.00     0.001 A 
ATOM     14  C   UNL A   1      34.718  23.889  25.796  1.00  0.00     0.049 A 
ATOM     15  C   UNL A   1      33.800  22.038  26.736  1.00  0.00     0.028 A 
ATOM     16  C   UNL A   1      35.164  21.864  26.689  1.00  0.00     0.087 A 
BRANCH   9  17
ATOM     17  S   UNL A   1      30.902  26.322  25.385  1.00  0.00     0.243 S 
ATOM     18  O   UNL A   1      31.323  27.695  25.537  1.00  0.00    -0.207 OA
ATOM     19  O   UNL A   1      29.942  25.747  26.314  1.00  0.00    -0.207 OA
BRANCH  17  20
ATOM     20  N   UNL A   1      30.253  26.100  23.809  1.00  0.00    -0.198 NA
ATOM     21  C   UNL A   1      29.307  30.168  22.921  1.00  0.00     0.008 C 
ATOM     22  C   UNL A   1      29.369  28.662  22.666  1.00  0.00    -0.012 C 
ATOM     23  C   UNL A   1      28.545  27.908  23.724  1.00  0.00     0.020 C 
ATOM     24  C   UNL A   1      30.832  28.197  22.604  1.00  0.00     0.020 C 
ATOM     25  C   UNL A   1      28.794  26.399  23.714  1.00  0.00     0.103 C 
ATOM     26  C   UNL A   1      30.947  26.678  22.632  1.00  0.00     0.103 C 
ENDBRANCH  17  20
ENDBRANCH   9  17
ENDBRANCH   7   8
ENDBRANCH   4   7
ENDBRANCH   2   3
ENDBRANCH   1   2
BRANCH   1  27
ATOM     27  C   UNL A   1      41.191  19.950  26.123  1.00  0.00     0.023 C 
BRANCH  27  28
ATOM     28  C   UNL A   1      42.498  19.166  26.267  1.00  0.00     0.116 C 
BRANCH  28  29
ATOM     29  N   UNL A   1      43.445  19.401  25.196  1.00  0.00    -0.352 N 
ATOM     30  C   UNL A   1      44.292  20.423  24.864  1.00  0.00     0.251 C 
ATOM     31  H   UNL A   1      43.491  18.652  24.559  1.00  0.00     0.163 HD
ATOM     32  O   UNL A   1      45.139  20.161  24.006  1.00  0.00    -0.269 OA
BRANCH  30  33
ATOM     33  C   UNL A   1      44.226  21.813  25.397  1.00  0.00     0.039 A 
ATOM     34  C   UNL A   1      44.900  22.281  26.521  1.00  0.00     0.014 A 
ATOM     35  C   UNL A   1      43.327  22.685  24.744  1.00  0.00     0.014 A 
ATOM     36  C   UNL A   1      44.613  23.545  27.031  1.00  0.00     0.010 A 
ATOM     37  C   UNL A   1      43.039  23.952  25.249  1.00  0.00     0.010 A 
ATOM     38  C   UNL A   1      43.652  24.366  26.421  1.00  0.00    -0.014 A 
BRANCH  38  39
ATOM     39  C   UNL A   1      43.430  25.687  27.006  1.00  0.00     0.031 A 
ATOM     40  C   UNL A   1      44.518  26.660  26.715  1.00  0.00     0.074 A 
ATOM     41  C   UNL A   1      42.361  26.058  27.742  1.00  0.00     0.049 A 
ATOM     42  N   UNL A   1      45.412  27.098  27.539  1.00  0.00    -0.248 NA
ATOM     43  C   UNL A   1      44.731  27.074  25.322  1.00  0.00     0.031 C 
ATOM     44  C   UNL A   1      41.091  25.360  27.939  1.00  0.00     0.029 A 
ATOM     45  N   UNL A   1      42.189  27.211  28.457  1.00  0.00    -0.354 N 
ATOM     46  C   UNL A   1      46.208  27.983  26.817  1.00  0.00     0.074 A 
ATOM     47  C   UNL A   1      45.827  27.828  25.435  1.00  0.00     0.031 C 
ATOM     48  C   UNL A   1      40.212  26.189  28.553  1.00  0.00     0.029 A 
ATOM     49  C   UNL A   1      40.897  27.415  28.929  1.00  0.00     0.049 A 
ATOM     50  H   UNL A   1      42.922  27.846  28.623  1.00  0.00     0.167 HD
ATOM     51  C   UNL A   1      46.978  28.909  27.452  1.00  0.00     0.037 A 
ATOM     52  C   UNL A   1      40.429  28.517  29.572  1.00  0.00     0.037 A 
ATOM     53  C   UNL A   1      47.166  28.561  28.838  1.00  0.00     0.049 A 
ATOM     54  C   UNL A   1      41.593  29.233  30.144  1.00  0.00     0.074 A 
ATOM     55  C   UNL A   1      47.756  27.512  29.516  1.00  0.00     0.029 A 
ATOM     56  N   UNL A   1      46.390  29.212  29.764  1.00  0.00    -0.354 N 
ATOM     57  N   UNL A   1      42.290  28.795  31.151  1.00  0.00    -0.248 NA
ATOM     58  C   UNL A   1      42.242  30.241  29.323  1.00  0.00     0.031 C 
ATOM     59  C   UNL A   1      46.935  27.307  30.666  1.00  0.00     0.029 A 
ATOM     60  C   UNL A   1      45.933  28.276  30.650  1.00  0.00     0.049 A 
ATOM     61  H   UNL A   1      46.198  30.178  29.785  1.00  0.00     0.167 HD
ATOM     62  C   UNL A   1      43.601  29.113  30.829  1.00  0.00     0.074 A 
ATOM     63  C   UNL A   1      43.500  30.091  29.748  1.00  0.00     0.031 C 
ATOM     64  C   UNL A   1      44.635  28.345  31.280  1.00  0.00     0.037 A 
BRANCH  51  65
ATOM     65  C   UNL A   1      47.222  30.313  26.948  1.00  0.00     0.057 A 
ATOM     66  C   UNL A   1      46.205  31.258  26.708  1.00  0.00     0.134 A 
ATOM     67  C   UNL A   1      48.523  30.849  27.036  1.00  0.00     0.134 A 
ATOM     68  F   UNL A   1      44.914  30.922  26.624  1.00  0.00    -0.206 F 
ATOM     69  C   UNL A   1      46.451  32.632  26.637  1.00  0.00     0.040 A 
ATOM     70  C   UNL A   1      48.774  32.226  27.014  1.00  0.00     0.040 A 
ATOM     71  F   UNL A   1      49.585  30.055  27.244  1.00  0.00    -0.206 F 
ATOM     72  C   UNL A   1      47.731  33.124  26.834  1.00  0.00     0.006 A 
ENDBRANCH  51  65
BRANCH  52  73
ATOM     73  C   UNL A   1      39.087  29.142  29.540  1.00  0.00     0.057 A 
ATOM     74  C   UNL A   1      38.222  29.051  30.643  1.00  0.00     0.134 A 
ATOM     75  C   UNL A   1      38.504  29.568  28.336  1.00  0.00     0.134 A 
ATOM     76  F   UNL A   1      38.658  28.585  31.822  1.00  0.00    -0.206 F 
ATOM     77  C   UNL A   1      36.855  29.337  30.548  1.00  0.00     0.040 A 
ATOM     78  C   UNL A   1      37.135  29.856  28.226  1.00  0.00     0.040 A 
ATOM     79  F   UNL A   1      39.234  29.648  27.214  1.00  0.00    -0.206 F 
ATOM     80  C   UNL A   1      36.303  29.726  29.333  1.00  0.00     0.006 A 
ENDBRANCH  52  73
BRANCH  64  81
ATOM     81  C   UNL A   1      44.340  27.334  32.353  1.00  0.00     0.057 A 
ATOM     82  C   UNL A   1      44.413  27.741  33.689  1.00  0.00     0.134 A 
ATOM     83  C   UNL A   1      44.105  25.971  32.115  1.00  0.00     0.134 A 
ATOM     84  F   UNL A   1      44.687  29.019  33.994  1.00  0.00    -0.206 F 
ATOM     85  C   UNL A   1      44.246  26.841  34.744  1.00  0.00     0.040 A 
ATOM     86  C   UNL A   1      43.900  25.067  33.163  1.00  0.00     0.040 A 
ATOM     87  F   UNL A   1      44.116  25.469  30.873  1.00  0.00    -0.206 F 
ATOM     88  C   UNL A   1      43.976  25.502  34.483  1.00  0.00     0.006 A 
ENDBRANCH  64  81
ENDBRANCH  38  39
ENDBRANCH  30  33
ENDBRANCH  28  29
ENDBRANCH  27  28
ENDBRANCH   1  27
TORSDOF 14
ENDMDL
MODEL 2
REMARK VINA RESULT:     -11.8      2.590      3.852
REMARK SMILES CC1CCN(S(=O)(=O)c2ccc3c(ccn3CC(=O)NCCCCNC(=O)c3ccc(-c4c5nc(c(-c6c(F)cccc6F)c6ccc([nH]6)c(-c6c(F)cccc6F)c6nc(c(-c7c(F)cccc7F)c7ccc4[nH]7)C=C6)C=C5)cc3)c2)CC1
REMARK SMILES IDX 22 1 21 2 20 3 18 4 19 5 17 7 16 8 9 9 10 10 82 11 11 12
REMARK SMILES IDX 13 13 12 14 14 15 15 16 6 17 7 18 8 19 5 20 1 21 2 22 3 23
REMARK SMILES IDX 84 24 4 25 83 26 23 27 24 28 25 29 26 30 27 32 28 33 29 34
REMARK SMILES IDX 81 35 30 36 80 37 31 38 32 39 33 40 74 41 34 42 79 43 73 44
REMARK SMILES IDX 75 45 35 46 78 47 72 48 71 49 36 51 62 52 45 53 61 54 46 55
REMARK SMILES IDX 49 56 60 57 76 58 47 59 48 60 59 62 77 63 50 64 37 65 38 66
REMARK SMILES IDX 43 67 39 68 40 69 42 70 44 71 41 72 63 73 64 74 69 75 65 76
REMARK SMILES IDX 66 77 68 78 70 79 67 80 51 81 52 82 57 83 53 84 54 85 56 86
REMARK SMILES IDX 58 87 55 88
REMARK H PARENT 20 6 25 31 75 50 49 61
REMARK Flexibility Score: inf
ROOT
ATOM      1  C   UNL A   1      35.964  21.903  24.334  1.00  0.00     0.023 C 
ENDROOT
BRANCH   1   2
ATOM      2  C   UNL A   1      35.594  20.924  25.447  1.00  0.00     0.116 C 
BRANCH   2   3
ATOM      3  N   UNL A   1      35.332  19.589  24.944  1.00  0.00    -0.355 N 
ATOM      4  C   UNL A   1      34.146  18.917  24.853  1.00  0.00     0.239 C 
ATOM      5  O   UNL A   1      34.164  17.775  24.387  1.00  0.00    -0.273 OA
ATOM      6  H   UNL A   1      36.122  19.097  24.622  1.00  0.00     0.163 HD
BRANCH   4   7
ATOM      7  C   UNL A   1      32.840  19.581  25.245  1.00  0.00     0.222 C 
BRANCH   7   8
ATOM      8  N   UNL A   1      32.481  20.704  24.391  1.00  0.00    -0.338 N 
ATOM      9  C   UNL A   1      31.583  24.676  25.103  1.00  0.00     0.083 A 
ATOM     10  C   UNL A   1      31.889  23.905  26.224  1.00  0.00     0.024 A 
ATOM     11  C   UNL A   1      31.585  24.109  23.821  1.00  0.00     0.032 A 
ATOM     12  C   UNL A   1      32.305  22.581  26.089  1.00  0.00     0.028 A 
ATOM     13  C   UNL A   1      31.904  22.743  23.679  1.00  0.00     0.001 A 
ATOM     14  C   UNL A   1      32.265  22.005  24.811  1.00  0.00     0.049 A 
ATOM     15  C   UNL A   1      31.929  21.854  22.571  1.00  0.00     0.028 A 
ATOM     16  C   UNL A   1      32.298  20.613  23.034  1.00  0.00     0.087 A 
BRANCH   9  17
ATOM     17  S   UNL A   1      30.997  26.338  25.329  1.00  0.00     0.243 S 
ATOM     18  O   UNL A   1      31.194  26.660  26.722  1.00  0.00    -0.207 OA
ATOM     19  O   UNL A   1      29.667  26.412  24.746  1.00  0.00    -0.207 OA
BRANCH  17  20
ATOM     20  N   UNL A   1      32.011  27.338  24.367  1.00  0.00    -0.198 NA
ATOM     21  C   UNL A   1      32.845  30.375  27.251  1.00  0.00     0.008 C 
ATOM     22  C   UNL A   1      32.899  29.698  25.882  1.00  0.00    -0.012 C 
ATOM     23  C   UNL A   1      31.485  29.592  25.283  1.00  0.00     0.020 C 
ATOM     24  C   UNL A   1      33.607  28.339  25.991  1.00  0.00     0.020 C 
ATOM     25  C   UNL A   1      31.420  28.674  24.062  1.00  0.00     0.103 C 
ATOM     26  C   UNL A   1      33.440  27.509  24.725  1.00  0.00     0.103 C 
ENDBRANCH  17  20
ENDBRANCH   9  17
ENDBRANCH   7   8
ENDBRANCH   4   7
ENDBRANCH   2   3
ENDBRANCH   1   2
BRANCH   1  27
ATOM     27  C   UNL A   1      37.306  22.622  24.535  1.00  0.00     0.023 C 
BRANCH  27  28
ATOM     28  C   UNL A   1      37.878  22.547  25.953  1.00  0.00     0.116 C 
BRANCH  28  29
ATOM     29  N   UNL A   1      39.248  22.080  26.011  1.00  0.00    -0.352 N 
ATOM     30  C   UNL A   1      40.401  22.541  26.584  1.00  0.00     0.251 C 
ATOM     31  H   UNL A   1      39.380  21.234  25.524  1.00  0.00     0.163 HD
ATOM     32  O   UNL A   1      41.336  21.738  26.629  1.00  0.00    -0.269 OA
BRANCH  30  33
ATOM     33  C   UNL A   1      40.630  23.926  27.083  1.00  0.00     0.039 A 
ATOM     34  C   UNL A   1      41.582  24.299  28.028  1.00  0.00     0.014 A 
ATOM     35  C   UNL A   1      39.733  24.910  26.612  1.00  0.00     0.014 A 
ATOM     36  C   UNL A   1      41.575  25.588  28.553  1.00  0.00     0.010 A 
ATOM     37  C   UNL A   1      39.726  26.203  27.132  1.00  0.00     0.010 A 
ATOM     38  C   UNL A   1      40.621  26.530  28.139  1.00  0.00    -0.014 A 
BRANCH  38  39
ATOM     39  C   UNL A   1      40.701  27.868  28.723  1.00  0.00     0.031 A 
ATOM     40  C   UNL A   1      41.890  28.644  28.277  1.00  0.00     0.074 A 
ATOM     41  C   UNL A   1      39.813  28.410  29.582  1.00  0.00     0.049 A 
ATOM     42  N   UNL A   1      42.943  28.923  28.972  1.00  0.00    -0.248 NA
ATOM     43  C   UNL A   1      41.987  29.021  26.861  1.00  0.00     0.031 C 
ATOM     44  C   UNL A   1      38.480  27.936  29.953  1.00  0.00     0.029 A 
ATOM     45  N   UNL A   1      39.930  29.574  30.292  1.00  0.00    -0.354 N 
ATOM     46  C   UNL A   1      43.776  29.663  28.138  1.00  0.00     0.074 A 
ATOM     47  C   UNL A   1      43.199  29.580  26.820  1.00  0.00     0.031 C 
ATOM     48  C   UNL A   1      37.839  28.900  30.659  1.00  0.00     0.029 A 
ATOM     49  C   UNL A   1      38.763  29.991  30.922  1.00  0.00     0.049 A 
ATOM     50  H   UNL A   1      40.775  30.076  30.352  1.00  0.00     0.167 HD
ATOM     51  C   UNL A   1      44.766  30.444  28.652  1.00  0.00     0.037 A 
ATOM     52  C   UNL A   1      38.573  31.154  31.599  1.00  0.00     0.037 A 
ATOM     53  C   UNL A   1      45.071  30.064  30.009  1.00  0.00     0.049 A 
ATOM     54  C   UNL A   1      39.904  31.662  32.004  1.00  0.00     0.074 A 
ATOM     55  C   UNL A   1      45.559  28.929  30.626  1.00  0.00     0.029 A 
ATOM     56  N   UNL A   1      44.541  30.834  31.014  1.00  0.00    -0.354 N 
ATOM     57  N   UNL A   1      40.643  31.109  32.922  1.00  0.00    -0.248 NA
ATOM     58  C   UNL A   1      40.602  32.549  31.088  1.00  0.00     0.031 C 
ATOM     59  C   UNL A   1      44.871  28.862  31.874  1.00  0.00     0.029 A 
ATOM     60  C   UNL A   1      44.051  29.985  31.969  1.00  0.00     0.049 A 
ATOM     61  H   UNL A   1      44.518  31.818  31.042  1.00  0.00     0.167 HD
ATOM     62  C   UNL A   1      41.935  31.202  32.429  1.00  0.00     0.074 A 
ATOM     63  C   UNL A   1      41.860  32.187  31.352  1.00  0.00     0.031 C 
ATOM     64  C   UNL A   1      42.876  30.270  32.758  1.00  0.00     0.037 A 
BRANCH  51  65
ATOM     65  C   UNL A   1      45.175  31.789  28.096  1.00  0.00     0.057 A 
ATOM     66  C   UNL A   1      46.334  32.011  27.327  1.00  0.00     0.134 A 
ATOM     67  C   UNL A   1      44.213  32.818  28.033  1.00  0.00     0.134 A 
ATOM     68  F   UNL A   1      47.331  31.124  27.253  1.00  0.00    -0.206 F 
ATOM     69  C   UNL A   1      46.491  33.128  26.502  1.00  0.00     0.040 A 
ATOM     70  C   UNL A   1      44.341  33.916  27.174  1.00  0.00     0.040 A 
ATOM     71  F   UNL A   1      43.071  32.740  28.733  1.00  0.00    -0.206 F 
ATOM     72  C   UNL A   1      45.475  34.063  26.389  1.00  0.00     0.006 A 
ENDBRANCH  51  65
BRANCH  52  73
ATOM     73  C   UNL A   1      37.362  31.996  31.727  1.00  0.00     0.057 A 
ATOM     74  C   UNL A   1      36.636  32.037  32.929  1.00  0.00     0.134 A 
ATOM     75  C   UNL A   1      36.715  32.530  30.600  1.00  0.00     0.134 A 
ATOM     76  F   UNL A   1      37.128  31.490  34.049  1.00  0.00    -0.206 F 
ATOM     77  C   UNL A   1      35.335  32.551  33.001  1.00  0.00     0.040 A 
ATOM     78  C   UNL A   1      35.412  33.044  30.658  1.00  0.00     0.040 A 
ATOM     79  F   UNL A   1      37.306  32.499  29.397  1.00  0.00    -0.206 F 
ATOM     80  C   UNL A   1      34.712  33.042  31.860  1.00  0.00     0.006 A 
ENDBRANCH  52  73
BRANCH  64  81
ATOM     81  C   UNL A   1      42.556  29.320  33.878  1.00  0.00     0.057 A 
ATOM     82  C   UNL A   1      43.096  29.575  35.143  1.00  0.00     0.134 A 
ATOM     83  C   UNL A   1      41.842  28.121  33.722  1.00  0.00     0.134 A 
ATOM     84  F   UNL A   1      43.836  30.675  35.354  1.00  0.00    -0.206 F 
ATOM     85  C   UNL A   1      42.925  28.692  36.211  1.00  0.00     0.040 A 
ATOM     86  C   UNL A   1      41.633  27.246  34.793  1.00  0.00     0.040 A 
ATOM     87  F   UNL A   1      41.373  27.741  32.526  1.00  0.00    -0.206 F 
ATOM     88  C   UNL A   1      42.180  27.528  36.041  1.00  0.00     0.006 A 
ENDBRANCH  64  81
ENDBRANCH  38  39
ENDBRANCH  30  33
ENDBRANCH  28  29
ENDBRANCH  27  28
ENDBRANCH   1  27
TORSDOF 14
ENDMDL
MODEL 3
REMARK VINA RESULT:     -11.7      2.763      8.583
REMARK SMILES CC1CCN(S(=O)(=O)c2ccc3c(ccn3CC(=O)NCCCCNC(=O)c3ccc(-c4c5nc(c(-c6c(F)cccc6F)c6ccc([nH]6)c(-c6c(F)cccc6F)c6nc(c(-c7c(F)cccc7F)c7ccc4[nH]7)C=C6)C=C5)cc3)c2)CC1
REMARK SMILES IDX 22 1 21 2 20 3 18 4 19 5 17 7 16 8 9 9 10 10 82 11 11 12
REMARK SMILES IDX 13 13 12 14 14 15 15 16 6 17 7 18 8 19 5 20 1 21 2 22 3 23
REMARK SMILES IDX 84 24 4 25 83 26 23 27 24 28 25 29 26 30 27 32 28 33 29 34
REMARK SMILES IDX 81 35 30 36 80 37 31 38 32 39 33 40 74 41 34 42 79 43 73 44
REMARK SMILES IDX 75 45 35 46 78 47 72 48 71 49 36 51 62 52 45 53 61 54 46 55
REMARK SMILES IDX 49 56 60 57 76 58 47 59 48 60 59 62 77 63 50 64 37 65 38 66
REMARK SMILES IDX 43 67 39 68 40 69 42 70 44 71 41 72 63 73 64 74 69 75 65 76
REMARK SMILES IDX 66 77 68 78 70 79 67 80 51 81 52 82 57 83 53 84 54 85 56 86
REMARK SMILES IDX 58 87 55 88
REMARK H PARENT 20 6 25 31 75 50 49 61
REMARK Flexibility Score: inf
ROOT
ATOM      1  C   UNL A   1      32.375  30.288  26.895  1.00  0.00     0.023 C 
ENDROOT
BRANCH   1   2
ATOM      2  C   UNL A   1      32.121  29.976  25.421  1.00  0.00     0.116 C 
BRANCH   2   3
ATOM      3  N   UNL A   1      30.857  30.510  24.953  1.00  0.00    -0.355 N 
ATOM      4  C   UNL A   1      30.180  30.240  23.797  1.00  0.00     0.239 C 
ATOM      5  O   UNL A   1      29.108  30.822  23.608  1.00  0.00    -0.273 OA
ATOM      6  H   UNL A   1      30.424  31.160  25.555  1.00  0.00     0.163 HD
BRANCH   4   7
ATOM      7  C   UNL A   1      30.693  29.206  22.815  1.00  0.00     0.222 C 
BRANCH   7   8
ATOM      8  N   UNL A   1      30.364  27.838  23.188  1.00  0.00    -0.338 N 
ATOM      9  C   UNL A   1      32.520  24.315  23.357  1.00  0.00     0.083 A 
ATOM     10  C   UNL A   1      33.223  25.446  22.941  1.00  0.00     0.024 A 
ATOM     11  C   UNL A   1      31.162  24.398  23.689  1.00  0.00     0.032 A 
ATOM     12  C   UNL A   1      32.621  26.703  22.945  1.00  0.00     0.028 A 
ATOM     13  C   UNL A   1      30.512  25.645  23.600  1.00  0.00     0.001 A 
ATOM     14  C   UNL A   1      31.251  26.776  23.238  1.00  0.00     0.049 A 
ATOM     15  C   UNL A   1      29.165  26.063  23.783  1.00  0.00     0.028 A 
ATOM     16  C   UNL A   1      29.106  27.415  23.536  1.00  0.00     0.087 A 
BRANCH   9  17
ATOM     17  S   UNL A   1      33.311  22.725  23.274  1.00  0.00     0.243 S 
ATOM     18  O   UNL A   1      34.663  22.960  22.827  1.00  0.00    -0.207 OA
ATOM     19  O   UNL A   1      32.436  21.845  22.517  1.00  0.00    -0.207 OA
BRANCH  17  20
ATOM     20  N   UNL A   1      33.342  22.122  24.883  1.00  0.00    -0.198 NA
ATOM     21  C   UNL A   1      34.119  18.013  24.015  1.00  0.00     0.008 C 
ATOM     22  C   UNL A   1      33.826  19.220  24.906  1.00  0.00    -0.012 C 
ATOM     23  C   UNL A   1      32.453  19.820  24.558  1.00  0.00     0.020 C 
ATOM     24  C   UNL A   1      34.969  20.242  24.803  1.00  0.00     0.020 C 
ATOM     25  C   UNL A   1      32.218  21.190  25.195  1.00  0.00     0.103 C 
ATOM     26  C   UNL A   1      34.600  21.573  25.446  1.00  0.00     0.103 C 
ENDBRANCH  17  20
ENDBRANCH   9  17
ENDBRANCH   7   8
ENDBRANCH   4   7
ENDBRANCH   2   3
ENDBRANCH   1   2
BRANCH   1  27
ATOM     27  C   UNL A   1      33.851  30.242  27.315  1.00  0.00     0.023 C 
BRANCH  27  28
ATOM     28  C   UNL A   1      34.485  31.604  27.611  1.00  0.00     0.116 C 
BRANCH  28  29
ATOM     29  N   UNL A   1      34.363  32.021  28.993  1.00  0.00    -0.352 N 
ATOM     30  C   UNL A   1      35.198  32.024  30.077  1.00  0.00     0.251 C 
ATOM     31  H   UNL A   1      33.474  32.388  29.201  1.00  0.00     0.163 HD
ATOM     32  O   UNL A   1      34.822  32.694  31.042  1.00  0.00    -0.269 OA
BRANCH  30  33
ATOM     33  C   UNL A   1      36.461  31.244  30.203  1.00  0.00     0.039 A 
ATOM     34  C   UNL A   1      37.747  31.766  30.106  1.00  0.00     0.014 A 
ATOM     35  C   UNL A   1      36.314  29.846  30.338  1.00  0.00     0.014 A 
ATOM     36  C   UNL A   1      38.845  30.911  30.051  1.00  0.00     0.010 A 
ATOM     37  C   UNL A   1      37.411  28.986  30.287  1.00  0.00     0.010 A 
ATOM     38  C   UNL A   1      38.677  29.519  30.099  1.00  0.00    -0.014 A 
BRANCH  38  39
ATOM     39  C   UNL A   1      39.884  28.696  30.060  1.00  0.00     0.031 A 
ATOM     40  C   UNL A   1      40.553  28.554  31.382  1.00  0.00     0.074 A 
ATOM     41  C   UNL A   1      40.393  28.088  28.969  1.00  0.00     0.049 A 
ATOM     42  N   UNL A   1      41.657  29.108  31.760  1.00  0.00    -0.248 NA
ATOM     43  C   UNL A   1      39.841  27.843  32.453  1.00  0.00     0.031 C 
ATOM     44  C   UNL A   1      39.783  27.891  27.654  1.00  0.00     0.029 A 
ATOM     45  N   UNL A   1      41.603  27.462  28.839  1.00  0.00    -0.354 N 
ATOM     46  C   UNL A   1      41.881  28.683  33.066  1.00  0.00     0.074 A 
ATOM     47  C   UNL A   1      40.672  28.018  33.483  1.00  0.00     0.031 C 
ATOM     48  C   UNL A   1      40.539  27.029  26.931  1.00  0.00     0.029 A 
ATOM     49  C   UNL A   1      41.758  26.733  27.666  1.00  0.00     0.049 A 
ATOM     50  H   UNL A   1      42.308  27.524  29.523  1.00  0.00     0.167 HD
ATOM     51  C   UNL A   1      43.122  28.749  33.621  1.00  0.00     0.037 A 
ATOM     52  C   UNL A   1      42.809  25.938  27.332  1.00  0.00     0.037 A 
ATOM     53  C   UNL A   1      43.970  29.651  32.882  1.00  0.00     0.049 A 
ATOM     54  C   UNL A   1      43.970  26.361  28.150  1.00  0.00     0.074 A 
ATOM     55  C   UNL A   1      43.956  31.002  32.599  1.00  0.00     0.029 A 
ATOM     56  N   UNL A   1      44.870  29.097  32.005  1.00  0.00    -0.354 N 
ATOM     57  N   UNL A   1      44.609  27.481  27.977  1.00  0.00    -0.248 NA
ATOM     58  C   UNL A   1      44.162  25.723  29.441  1.00  0.00     0.031 C 
ATOM     59  C   UNL A   1      44.469  31.107  31.271  1.00  0.00     0.029 A 
ATOM     60  C   UNL A   1      44.818  29.826  30.848  1.00  0.00     0.049 A 
ATOM     61  H   UNL A   1      45.445  28.317  32.178  1.00  0.00     0.167 HD
ATOM     62  C   UNL A   1      44.897  27.917  29.260  1.00  0.00     0.074 A 
ATOM     63  C   UNL A   1      44.692  26.748  30.113  1.00  0.00     0.031 C 
ATOM     64  C   UNL A   1      45.003  29.249  29.537  1.00  0.00     0.037 A 
BRANCH  51  65
ATOM     65  C   UNL A   1      43.697  27.717  34.565  1.00  0.00     0.057 A 
ATOM     66  C   UNL A   1      43.859  27.912  35.951  1.00  0.00     0.134 A 
ATOM     67  C   UNL A   1      43.769  26.374  34.141  1.00  0.00     0.134 A 
ATOM     68  F   UNL A   1      43.792  29.118  36.522  1.00  0.00    -0.206 F 
ATOM     69  C   UNL A   1      44.004  26.853  36.851  1.00  0.00     0.040 A 
ATOM     70  C   UNL A   1      43.866  25.305  35.039  1.00  0.00     0.040 A 
ATOM     71  F   UNL A   1      43.649  26.053  32.843  1.00  0.00    -0.206 F 
ATOM     72  C   UNL A   1      43.963  25.543  36.402  1.00  0.00     0.006 A 
ENDBRANCH  51  65
BRANCH  52  73
ATOM     73  C   UNL A   1      42.845  24.686  26.542  1.00  0.00     0.057 A 
ATOM     74  C   UNL A   1      42.390  23.475  27.089  1.00  0.00     0.134 A 
ATOM     75  C   UNL A   1      43.603  24.582  25.365  1.00  0.00     0.134 A 
ATOM     76  F   UNL A   1      41.720  23.452  28.250  1.00  0.00    -0.206 F 
ATOM     77  C   UNL A   1      42.694  22.234  26.517  1.00  0.00     0.040 A 
ATOM     78  C   UNL A   1      43.917  23.346  24.783  1.00  0.00     0.040 A 
ATOM     79  F   UNL A   1      44.120  25.676  24.787  1.00  0.00    -0.206 F 
ATOM     80  C   UNL A   1      43.474  22.164  25.368  1.00  0.00     0.006 A 
ENDBRANCH  52  73
BRANCH  64  81
ATOM     81  C   UNL A   1      45.083  30.200  28.375  1.00  0.00     0.057 A 
ATOM     82  C   UNL A   1      46.340  30.675  27.989  1.00  0.00     0.134 A 
ATOM     83  C   UNL A   1      43.968  30.741  27.715  1.00  0.00     0.134 A 
ATOM     84  F   UNL A   1      47.448  30.243  28.612  1.00  0.00    -0.206 F 
ATOM     85  C   UNL A   1      46.490  31.632  26.983  1.00  0.00     0.040 A 
ATOM     86  C   UNL A   1      44.108  31.673  26.681  1.00  0.00     0.040 A 
ATOM     87  F   UNL A   1      42.720  30.423  28.083  1.00  0.00    -0.206 F 
ATOM     88  C   UNL A   1      45.372  32.125  26.317  1.00  0.00     0.006 A 
ENDBRANCH  64  81
ENDBRANCH  38  39
ENDBRANCH  30  33
ENDBRANCH  28  29
ENDBRANCH  27  28
ENDBRANCH   1  27
TORSDOF 14
ENDMDL
