MODEL 1
REMARK VINA RESULT:     -11.9      0.000      0.000
REMARK SMILES O=C(CS[C@H](C(=O)Nc1ccc(C(F)(F)F)cc1)c1ccccc1)NCCCCNC(=O)c1ccc(-c2c3nc(c(-c4c(F)cccc4F)c4ccc([nH]4)c(-c4c(F)cccc4F)c4nc(c(-c5c(F)cccc5F)c5ccc2[nH]5)C=C4)C=C3)cc1
REMARK SMILES IDX 26 1 25 2 1 3 2 4 3 6 4 7 5 8 19 9 20 10 24 11 21 12 23 13
REMARK SMILES IDX 22 14 6 15 7 16 8 17 9 19 10 20 18 21 11 22 17 23 12 24
REMARK SMILES IDX 13 25 14 26 15 27 16 28 27 29 28 30 29 31 30 32 31 33 32 35
REMARK SMILES IDX 33 36 34 37 86 38 35 39 85 40 36 41 37 42 38 43 79 44 39 45
REMARK SMILES IDX 84 46 78 47 80 48 40 49 83 50 77 51 76 52 41 54 67 55 50 56
REMARK SMILES IDX 66 57 51 58 54 59 65 60 81 61 52 62 53 63 64 65 82 66 55 67
REMARK SMILES IDX 42 68 43 69 48 70 44 71 45 72 47 73 49 74 46 75 68 76 69 77
REMARK SMILES IDX 74 78 70 79 71 80 73 81 75 82 72 83 56 84 57 85 62 86 58 87
REMARK SMILES IDX 59 88 61 89 63 90 60 91
REMARK H PARENT 25 5 8 18 30 34 80 53 54 64
REMARK Flexibility Score: inf
ROOT
ATOM      1  C   UNL A   1      31.026  29.257  24.531  1.00  0.00     0.116 C 
ENDROOT
BRANCH   1   2
ATOM      2  N   UNL A   1      31.514  28.043  23.899  1.00  0.00    -0.355 N 
ATOM      3  O   UNL A   1      30.223  28.358  22.024  1.00  0.00    -0.274 OA
ATOM      4  C   UNL A   1      31.088  27.713  22.613  1.00  0.00     0.230 C 
ATOM      5  H   UNL A   1      32.142  27.455  24.376  1.00  0.00     0.163 HD
BRANCH   4   6
ATOM      6  C   UNL A   1      31.759  26.496  21.997  1.00  0.00     0.170 C 
BRANCH   6   7
ATOM      7  S   UNL A   1      33.434  26.135  22.648  1.00  0.00    -0.134 SA
BRANCH   7   8
ATOM      8  C   UNL A   1      33.320  24.455  23.430  1.00  0.00     0.166 C 
BRANCH   8   9
ATOM      9  C   UNL A   1      34.680  23.963  23.896  1.00  0.00    -0.026 A 
ATOM     10  C   UNL A   1      35.449  23.093  23.105  1.00  0.00     0.005 A 
ATOM     11  C   UNL A   1      35.187  24.296  25.149  1.00  0.00     0.005 A 
ATOM     12  C   UNL A   1      36.657  22.564  23.581  1.00  0.00     0.000 A 
ATOM     13  C   UNL A   1      36.405  23.797  25.617  1.00  0.00     0.000 A 
ATOM     14  C   UNL A   1      37.137  22.918  24.838  1.00  0.00     0.000 A 
ENDBRANCH   8   9
BRANCH   8  15
ATOM     15  C   UNL A   1      32.100  24.306  24.396  1.00  0.00     0.242 C 
ATOM     16  O   UNL A   1      31.599  25.250  25.016  1.00  0.00    -0.273 OA
ATOM     17  N   UNL A   1      31.443  23.085  24.459  1.00  0.00    -0.325 N 
ATOM     18  H   UNL A   1      30.462  23.118  24.525  1.00  0.00     0.169 HD
BRANCH  17  19
ATOM     19  C   UNL A   1      32.026  21.810  24.438  1.00  0.00     0.041 A 
ATOM     20  C   UNL A   1      31.958  20.998  23.312  1.00  0.00     0.027 A 
ATOM     21  C   UNL A   1      32.620  21.300  25.581  1.00  0.00     0.027 A 
ATOM     22  C   UNL A   1      32.659  19.780  23.291  1.00  0.00     0.015 A 
ATOM     23  C   UNL A   1      33.368  20.132  25.557  1.00  0.00     0.015 A 
ATOM     24  C   UNL A   1      33.424  19.368  24.396  1.00  0.00     0.056 A 
BRANCH  24  25
ATOM     25  C   UNL A   1      34.263  18.116  24.376  1.00  0.00     0.416 C 
ATOM     26  F   UNL A   1      35.578  18.369  24.602  1.00  0.00    -0.166 F 
ATOM     27  F   UNL A   1      33.879  17.205  25.309  1.00  0.00    -0.166 F 
ATOM     28  F   UNL A   1      34.215  17.465  23.178  1.00  0.00    -0.166 F 
ENDBRANCH  24  25
ENDBRANCH  17  19
ENDBRANCH   8  15
ENDBRANCH   7   8
ENDBRANCH   6   7
ENDBRANCH   4   6
ENDBRANCH   1   2
BRANCH   1  29
ATOM     29  C   UNL A   1      31.846  29.826  25.704  1.00  0.00     0.023 C 
BRANCH  29  30
ATOM     30  C   UNL A   1      31.587  31.237  26.264  1.00  0.00     0.023 C 
BRANCH  30  31
ATOM     31  C   UNL A   1      32.660  32.015  27.048  1.00  0.00     0.116 C 
BRANCH  31  32
ATOM     32  N   UNL A   1      32.321  33.351  27.500  1.00  0.00    -0.352 N 
ATOM     33  C   UNL A   1      33.058  34.200  28.302  1.00  0.00     0.251 C 
ATOM     34  H   UNL A   1      31.450  33.697  27.196  1.00  0.00     0.163 HD
ATOM     35  O   UNL A   1      32.611  35.309  28.594  1.00  0.00    -0.269 OA
BRANCH  33  36
ATOM     36  C   UNL A   1      34.374  33.786  28.853  1.00  0.00     0.039 A 
ATOM     37  C   UNL A   1      34.426  33.127  30.085  1.00  0.00     0.014 A 
ATOM     38  C   UNL A   1      35.565  34.075  28.186  1.00  0.00     0.014 A 
ATOM     39  C   UNL A   1      35.654  32.679  30.597  1.00  0.00     0.010 A 
ATOM     40  C   UNL A   1      36.787  33.593  28.678  1.00  0.00     0.010 A 
ATOM     41  C   UNL A   1      36.846  32.870  29.878  1.00  0.00    -0.014 A 
BRANCH  41  42
ATOM     42  C   UNL A   1      38.127  32.234  30.309  1.00  0.00     0.031 A 
ATOM     43  C   UNL A   1      39.058  32.894  31.292  1.00  0.00     0.074 A 
ATOM     44  C   UNL A   1      38.500  31.068  29.740  1.00  0.00     0.049 A 
ATOM     45  N   UNL A   1      40.220  32.479  31.739  1.00  0.00    -0.248 NA
ATOM     46  C   UNL A   1      38.643  34.196  31.828  1.00  0.00     0.031 C 
ATOM     47  C   UNL A   1      37.732  30.344  28.726  1.00  0.00     0.029 A 
ATOM     48  N   UNL A   1      39.618  30.291  29.927  1.00  0.00    -0.354 N 
ATOM     49  C   UNL A   1      40.681  33.471  32.596  1.00  0.00     0.074 A 
ATOM     50  C   UNL A   1      39.689  34.527  32.574  1.00  0.00     0.031 C 
ATOM     51  C   UNL A   1      38.386  29.216  28.403  1.00  0.00     0.029 A 
ATOM     52  C   UNL A   1      39.634  29.153  29.158  1.00  0.00     0.049 A 
ATOM     53  H   UNL A   1      40.340  30.529  30.553  1.00  0.00     0.167 HD
ATOM     54  C   UNL A   1      41.814  33.500  33.343  1.00  0.00     0.037 A 
ATOM     55  C   UNL A   1      40.545  28.165  29.063  1.00  0.00     0.037 A 
ATOM     56  C   UNL A   1      42.796  32.442  33.384  1.00  0.00     0.049 A 
ATOM     57  C   UNL A   1      41.788  28.212  29.909  1.00  0.00     0.074 A 
ATOM     58  C   UNL A   1      43.932  32.351  34.173  1.00  0.00     0.029 A 
ATOM     59  N   UNL A   1      42.765  31.298  32.603  1.00  0.00    -0.354 N 
ATOM     60  N   UNL A   1      42.162  29.117  30.779  1.00  0.00    -0.248 NA
ATOM     61  C   UNL A   1      42.731  27.094  29.764  1.00  0.00     0.031 C 
ATOM     62  C   UNL A   1      44.614  31.178  33.831  1.00  0.00     0.029 A 
ATOM     63  C   UNL A   1      43.875  30.511  32.870  1.00  0.00     0.049 A 
ATOM     64  H   UNL A   1      42.059  31.077  31.952  1.00  0.00     0.167 HD
ATOM     65  C   UNL A   1      43.364  28.662  31.308  1.00  0.00     0.074 A 
ATOM     66  C   UNL A   1      43.650  27.395  30.671  1.00  0.00     0.031 C 
ATOM     67  C   UNL A   1      44.157  29.245  32.239  1.00  0.00     0.037 A 
BRANCH  54  68
ATOM     68  C   UNL A   1      42.064  34.715  34.193  1.00  0.00     0.057 A 
ATOM     69  C   UNL A   1      41.670  34.773  35.536  1.00  0.00     0.134 A 
ATOM     70  C   UNL A   1      42.769  35.816  33.684  1.00  0.00     0.134 A 
ATOM     71  F   UNL A   1      40.994  33.754  36.090  1.00  0.00    -0.206 F 
ATOM     72  C   UNL A   1      41.939  35.889  36.332  1.00  0.00     0.040 A 
ATOM     73  C   UNL A   1      43.071  36.924  34.478  1.00  0.00     0.040 A 
ATOM     74  F   UNL A   1      43.195  35.823  32.411  1.00  0.00    -0.206 F 
ATOM     75  C   UNL A   1      42.648  36.966  35.805  1.00  0.00     0.006 A 
ENDBRANCH  54  68
BRANCH  55  76
ATOM     76  C   UNL A   1      40.304  27.018  28.150  1.00  0.00     0.057 A 
ATOM     77  C   UNL A   1      39.511  25.935  28.547  1.00  0.00     0.134 A 
ATOM     78  C   UNL A   1      40.868  26.969  26.869  1.00  0.00     0.134 A 
ATOM     79  F   UNL A   1      38.960  25.915  29.770  1.00  0.00    -0.206 F 
ATOM     80  C   UNL A   1      39.306  24.834  27.715  1.00  0.00     0.040 A 
ATOM     81  C   UNL A   1      40.648  25.888  26.015  1.00  0.00     0.040 A 
ATOM     82  F   UNL A   1      41.631  27.980  26.425  1.00  0.00    -0.206 F 
ATOM     83  C   UNL A   1      39.873  24.811  26.442  1.00  0.00     0.006 A 
ENDBRANCH  55  76
BRANCH  67  84
ATOM     84  C   UNL A   1      45.394  28.503  32.660  1.00  0.00     0.057 A 
ATOM     85  C   UNL A   1      45.381  27.569  33.705  1.00  0.00     0.134 A 
ATOM     86  C   UNL A   1      46.607  28.701  31.989  1.00  0.00     0.134 A 
ATOM     87  F   UNL A   1      44.256  27.340  34.399  1.00  0.00    -0.206 F 
ATOM     88  C   UNL A   1      46.535  26.879  34.083  1.00  0.00     0.040 A 
ATOM     89  C   UNL A   1      47.761  27.996  32.339  1.00  0.00     0.040 A 
ATOM     90  F   UNL A   1      46.690  29.574  30.974  1.00  0.00    -0.206 F 
ATOM     91  C   UNL A   1      47.728  27.088  33.394  1.00  0.00     0.006 A 
ENDBRANCH  67  84
ENDBRANCH  41  42
ENDBRANCH  33  36
ENDBRANCH  31  32
ENDBRANCH  30  31
ENDBRANCH  29  30
ENDBRANCH   1  29
TORSDOF 17
ENDMDL
MODEL 2
REMARK VINA RESULT:     -11.6      0.574      6.078
REMARK SMILES O=C(CS[C@H](C(=O)Nc1ccc(C(F)(F)F)cc1)c1ccccc1)NCCCCNC(=O)c1ccc(-c2c3nc(c(-c4c(F)cccc4F)c4ccc([nH]4)c(-c4c(F)cccc4F)c4nc(c(-c5c(F)cccc5F)c5ccc2[nH]5)C=C4)C=C3)cc1
REMARK SMILES IDX 26 1 25 2 1 3 2 4 3 6 4 7 5 8 19 9 20 10 24 11 21 12 23 13
REMARK SMILES IDX 22 14 6 15 7 16 8 17 9 19 10 20 18 21 11 22 17 23 12 24
REMARK SMILES IDX 13 25 14 26 15 27 16 28 27 29 28 30 29 31 30 32 31 33 32 35
REMARK SMILES IDX 33 36 34 37 86 38 35 39 85 40 36 41 37 42 38 43 79 44 39 45
REMARK SMILES IDX 84 46 78 47 80 48 40 49 83 50 77 51 76 52 41 54 67 55 50 56
REMARK SMILES IDX 66 57 51 58 54 59 65 60 81 61 52 62 53 63 64 65 82 66 55 67
REMARK SMILES IDX 42 68 43 69 48 70 44 71 45 72 47 73 49 74 46 75 68 76 69 77
REMARK SMILES IDX 74 78 70 79 71 80 73 81 75 82 72 83 56 84 57 85 62 86 58 87
REMARK SMILES IDX 59 88 61 89 63 90 60 91
REMARK H PARENT 25 5 8 18 30 34 80 53 54 64
REMARK Flexibility Score: inf
ROOT
ATOM      1  C   UNL A   1      31.087  29.514  24.747  1.00  0.00     0.116 C 
ENDROOT
BRANCH   1   2
ATOM      2  N   UNL A   1      31.629  28.318  24.125  1.00  0.00    -0.355 N 
ATOM      3  O   UNL A   1      30.245  28.495  22.299  1.00  0.00    -0.274 OA
ATOM      4  C   UNL A   1      31.175  27.925  22.867  1.00  0.00     0.230 C 
ATOM      5  H   UNL A   1      32.315  27.787  24.590  1.00  0.00     0.163 HD
BRANCH   4   6
ATOM      6  C   UNL A   1      31.903  26.739  22.254  1.00  0.00     0.170 C 
BRANCH   6   7
ATOM      7  S   UNL A   1      33.523  26.357  23.019  1.00  0.00    -0.134 SA
BRANCH   7   8
ATOM      8  C   UNL A   1      33.397  24.604  23.619  1.00  0.00     0.166 C 
BRANCH   8   9
ATOM      9  C   UNL A   1      34.753  24.055  24.026  1.00  0.00    -0.026 A 
ATOM     10  C   UNL A   1      35.456  23.163  23.198  1.00  0.00     0.005 A 
ATOM     11  C   UNL A   1      35.323  24.355  25.260  1.00  0.00     0.005 A 
ATOM     12  C   UNL A   1      36.659  22.581  23.620  1.00  0.00     0.000 A 
ATOM     13  C   UNL A   1      36.538  23.804  25.674  1.00  0.00     0.000 A 
ATOM     14  C   UNL A   1      37.202  22.904  24.859  1.00  0.00     0.000 A 
ENDBRANCH   8   9
BRANCH   8  15
ATOM     15  C   UNL A   1      32.177  24.364  24.567  1.00  0.00     0.242 C 
ATOM     16  O   UNL A   1      31.663  25.249  25.258  1.00  0.00    -0.273 OA
ATOM     17  N   UNL A   1      31.537  23.133  24.533  1.00  0.00    -0.325 N 
ATOM     18  H   UNL A   1      30.556  23.147  24.598  1.00  0.00     0.169 HD
BRANCH  17  19
ATOM     19  C   UNL A   1      32.138  21.871  24.413  1.00  0.00     0.041 A 
ATOM     20  C   UNL A   1      32.913  21.336  25.435  1.00  0.00     0.027 A 
ATOM     21  C   UNL A   1      32.030  21.161  23.228  1.00  0.00     0.027 A 
ATOM     22  C   UNL A   1      33.394  20.019  25.324  1.00  0.00     0.015 A 
ATOM     23  C   UNL A   1      32.444  19.841  23.128  1.00  0.00     0.015 A 
ATOM     24  C   UNL A   1      33.107  19.238  24.191  1.00  0.00     0.056 A 
BRANCH  24  25
ATOM     25  C   UNL A   1      33.525  17.795  24.078  1.00  0.00     0.416 C 
ATOM     26  F   UNL A   1      33.967  17.479  22.834  1.00  0.00    -0.166 F 
ATOM     27  F   UNL A   1      34.523  17.463  24.938  1.00  0.00    -0.166 F 
ATOM     28  F   UNL A   1      32.506  16.926  24.337  1.00  0.00    -0.166 F 
ENDBRANCH  24  25
ENDBRANCH  17  19
ENDBRANCH   8  15
ENDBRANCH   7   8
ENDBRANCH   6   7
ENDBRANCH   4   6
ENDBRANCH   1   2
BRANCH   1  29
ATOM     29  C   UNL A   1      31.821  30.069  25.982  1.00  0.00     0.023 C 
BRANCH  29  30
ATOM     30  C   UNL A   1      31.582  31.503  26.490  1.00  0.00     0.023 C 
BRANCH  30  31
ATOM     31  C   UNL A   1      32.700  32.335  27.145  1.00  0.00     0.116 C 
BRANCH  31  32
ATOM     32  N   UNL A   1      32.356  33.663  27.615  1.00  0.00    -0.352 N 
ATOM     33  C   UNL A   1      33.082  34.495  28.446  1.00  0.00     0.251 C 
ATOM     34  H   UNL A   1      31.493  34.019  27.302  1.00  0.00     0.163 HD
ATOM     35  O   UNL A   1      32.633  35.601  28.750  1.00  0.00    -0.269 OA
BRANCH  33  36
ATOM     36  C   UNL A   1      34.386  34.067  29.013  1.00  0.00     0.039 A 
ATOM     37  C   UNL A   1      34.422  33.468  30.276  1.00  0.00     0.014 A 
ATOM     38  C   UNL A   1      35.583  34.284  28.329  1.00  0.00     0.014 A 
ATOM     39  C   UNL A   1      35.637  33.007  30.807  1.00  0.00     0.010 A 
ATOM     40  C   UNL A   1      36.790  33.787  28.842  1.00  0.00     0.010 A 
ATOM     41  C   UNL A   1      36.831  33.123  30.076  1.00  0.00    -0.014 A 
BRANCH  41  42
ATOM     42  C   UNL A   1      38.093  32.467  30.534  1.00  0.00     0.031 A 
ATOM     43  C   UNL A   1      38.584  31.172  29.941  1.00  0.00     0.074 A 
ATOM     44  C   UNL A   1      38.773  33.010  31.566  1.00  0.00     0.049 A 
ATOM     45  N   UNL A   1      39.645  30.467  30.257  1.00  0.00    -0.248 NA
ATOM     46  C   UNL A   1      37.771  30.582  28.871  1.00  0.00     0.031 C 
ATOM     47  C   UNL A   1      38.384  34.226  32.282  1.00  0.00     0.029 A 
ATOM     48  N   UNL A   1      39.927  32.610  32.195  1.00  0.00    -0.354 N 
ATOM     49  C   UNL A   1      39.620  29.346  29.435  1.00  0.00     0.074 A 
ATOM     50  C   UNL A   1      38.417  29.447  28.636  1.00  0.00     0.031 C 
ATOM     51  C   UNL A   1      39.297  34.488  33.230  1.00  0.00     0.029 A 
ATOM     52  C   UNL A   1      40.317  33.444  33.216  1.00  0.00     0.049 A 
ATOM     53  H   UNL A   1      40.427  31.801  31.939  1.00  0.00     0.167 HD
ATOM     54  C   UNL A   1      40.519  28.333  29.342  1.00  0.00     0.037 A 
ATOM     55  C   UNL A   1      41.373  33.382  34.049  1.00  0.00     0.037 A 
ATOM     56  C   UNL A   1      41.731  28.236  30.122  1.00  0.00     0.049 A 
ATOM     57  C   UNL A   1      42.362  32.256  33.920  1.00  0.00     0.074 A 
ATOM     58  C   UNL A   1      42.737  27.288  30.036  1.00  0.00     0.029 A 
ATOM     59  N   UNL A   1      42.097  29.111  31.133  1.00  0.00    -0.354 N 
ATOM     60  N   UNL A   1      42.367  31.253  33.078  1.00  0.00    -0.248 NA
ATOM     61  C   UNL A   1      43.496  32.260  34.855  1.00  0.00     0.031 C 
ATOM     62  C   UNL A   1      43.686  27.560  31.029  1.00  0.00     0.029 A 
ATOM     63  C   UNL A   1      43.298  28.709  31.696  1.00  0.00     0.049 A 
ATOM     64  H   UNL A   1      41.579  29.902  31.410  1.00  0.00     0.167 HD
ATOM     65  C   UNL A   1      43.519  30.527  33.359  1.00  0.00     0.074 A 
ATOM     66  C   UNL A   1      44.194  31.212  34.440  1.00  0.00     0.031 C 
ATOM     67  C   UNL A   1      43.974  29.394  32.769  1.00  0.00     0.037 A 
BRANCH  54  68
ATOM     68  C   UNL A   1      40.238  27.234  28.354  1.00  0.00     0.057 A 
ATOM     69  C   UNL A   1      40.787  27.240  27.065  1.00  0.00     0.134 A 
ATOM     70  C   UNL A   1      39.467  26.120  28.717  1.00  0.00     0.134 A 
ATOM     71  F   UNL A   1      41.538  28.273  26.651  1.00  0.00    -0.206 F 
ATOM     72  C   UNL A   1      40.555  26.198  26.164  1.00  0.00     0.040 A 
ATOM     73  C   UNL A   1      39.253  25.058  27.836  1.00  0.00     0.040 A 
ATOM     74  F   UNL A   1      38.926  26.036  29.942  1.00  0.00    -0.206 F 
ATOM     75  C   UNL A   1      39.792  25.099  26.551  1.00  0.00     0.006 A 
ENDBRANCH  54  68
BRANCH  55  76
ATOM     76  C   UNL A   1      41.575  34.442  35.071  1.00  0.00     0.057 A 
ATOM     77  C   UNL A   1      42.343  35.578  34.788  1.00  0.00     0.134 A 
ATOM     78  C   UNL A   1      41.019  34.341  36.352  1.00  0.00     0.134 A 
ATOM     79  F   UNL A   1      42.918  35.721  33.585  1.00  0.00    -0.206 F 
ATOM     80  C   UNL A   1      42.573  36.563  35.749  1.00  0.00     0.040 A 
ATOM     81  C   UNL A   1      41.216  35.333  37.314  1.00  0.00     0.040 A 
ATOM     82  F   UNL A   1      40.265  33.282  36.683  1.00  0.00    -0.206 F 
ATOM     83  C   UNL A   1      42.004  36.444  37.016  1.00  0.00     0.006 A 
ENDBRANCH  55  76
BRANCH  67  84
ATOM     84  C   UNL A   1      45.285  28.841  33.252  1.00  0.00     0.057 A 
ATOM     85  C   UNL A   1      45.360  27.913  34.299  1.00  0.00     0.134 A 
ATOM     86  C   UNL A   1      46.487  29.219  32.640  1.00  0.00     0.134 A 
ATOM     87  F   UNL A   1      44.248  27.517  34.938  1.00  0.00    -0.206 F 
ATOM     88  C   UNL A   1      46.584  27.399  34.734  1.00  0.00     0.040 A 
ATOM     89  C   UNL A   1      47.714  28.692  33.048  1.00  0.00     0.040 A 
ATOM     90  F   UNL A   1      46.489  30.099  31.627  1.00  0.00    -0.206 F 
ATOM     91  C   UNL A   1      47.764  27.785  34.103  1.00  0.00     0.006 A 
ENDBRANCH  67  84
ENDBRANCH  41  42
ENDBRANCH  33  36
ENDBRANCH  31  32
ENDBRANCH  30  31
ENDBRANCH  29  30
ENDBRANCH   1  29
TORSDOF 17
ENDMDL
MODEL 3
REMARK VINA RESULT:     -11.6      0.666      1.889
REMARK SMILES O=C(CS[C@H](C(=O)Nc1ccc(C(F)(F)F)cc1)c1ccccc1)NCCCCNC(=O)c1ccc(-c2c3nc(c(-c4c(F)cccc4F)c4ccc([nH]4)c(-c4c(F)cccc4F)c4nc(c(-c5c(F)cccc5F)c5ccc2[nH]5)C=C4)C=C3)cc1
REMARK SMILES IDX 26 1 25 2 1 3 2 4 3 6 4 7 5 8 19 9 20 10 24 11 21 12 23 13
REMARK SMILES IDX 22 14 6 15 7 16 8 17 9 19 10 20 18 21 11 22 17 23 12 24
REMARK SMILES IDX 13 25 14 26 15 27 16 28 27 29 28 30 29 31 30 32 31 33 32 35
REMARK SMILES IDX 33 36 34 37 86 38 35 39 85 40 36 41 37 42 38 43 79 44 39 45
REMARK SMILES IDX 84 46 78 47 80 48 40 49 83 50 77 51 76 52 41 54 67 55 50 56
REMARK SMILES IDX 66 57 51 58 54 59 65 60 81 61 52 62 53 63 64 65 82 66 55 67
REMARK SMILES IDX 42 68 43 69 48 70 44 71 45 72 47 73 49 74 46 75 68 76 69 77
REMARK SMILES IDX 74 78 70 79 71 80 73 81 75 82 72 83 56 84 57 85 62 86 58 87
REMARK SMILES IDX 59 88 61 89 63 90 60 91
REMARK H PARENT 25 5 8 18 30 34 80 53 54 64
REMARK Flexibility Score: inf
ROOT
ATOM      1  C   UNL A   1      31.069  29.468  24.956  1.00  0.00     0.116 C 
ENDROOT
BRANCH   1   2
ATOM      2  N   UNL A   1      31.667  28.328  24.281  1.00  0.00    -0.355 N 
ATOM      3  O   UNL A   1      30.500  28.714  22.339  1.00  0.00    -0.274 OA
ATOM      4  C   UNL A   1      31.354  28.071  22.947  1.00  0.00     0.230 C 
ATOM      5  H   UNL A   1      32.290  27.739  24.764  1.00  0.00     0.163 HD
BRANCH   4   6
ATOM      6  C   UNL A   1      32.133  26.936  22.303  1.00  0.00     0.170 C 
BRANCH   6   7
ATOM      7  S   UNL A   1      33.649  26.440  23.205  1.00  0.00    -0.134 SA
BRANCH   7   8
ATOM      8  C   UNL A   1      33.394  24.664  23.684  1.00  0.00     0.166 C 
BRANCH   8   9
ATOM      9  C   UNL A   1      34.697  24.006  24.102  1.00  0.00    -0.026 A 
ATOM     10  C   UNL A   1      35.294  24.296  25.341  1.00  0.00     0.005 A 
ATOM     11  C   UNL A   1      35.388  23.146  23.252  1.00  0.00     0.005 A 
ATOM     12  C   UNL A   1      36.545  23.764  25.681  1.00  0.00     0.000 A 
ATOM     13  C   UNL A   1      36.620  22.587  23.598  1.00  0.00     0.000 A 
ATOM     14  C   UNL A   1      37.208  22.907  24.809  1.00  0.00     0.000 A 
ENDBRANCH   8   9
BRANCH   8  15
ATOM     15  C   UNL A   1      32.125  24.441  24.569  1.00  0.00     0.242 C 
ATOM     16  O   UNL A   1      31.574  25.339  25.214  1.00  0.00    -0.273 OA
ATOM     17  N   UNL A   1      31.488  23.209  24.525  1.00  0.00    -0.325 N 
ATOM     18  H   UNL A   1      30.504  23.223  24.538  1.00  0.00     0.169 HD
BRANCH  17  19
ATOM     19  C   UNL A   1      32.094  21.946  24.464  1.00  0.00     0.041 A 
ATOM     20  C   UNL A   1      32.756  21.404  25.559  1.00  0.00     0.027 A 
ATOM     21  C   UNL A   1      32.110  21.242  23.271  1.00  0.00     0.027 A 
ATOM     22  C   UNL A   1      33.243  20.087  25.493  1.00  0.00     0.015 A 
ATOM     23  C   UNL A   1      32.529  19.921  23.208  1.00  0.00     0.015 A 
ATOM     24  C   UNL A   1      33.075  19.311  24.332  1.00  0.00     0.056 A 
BRANCH  24  25
ATOM     25  C   UNL A   1      33.499  17.867  24.257  1.00  0.00     0.416 C 
ATOM     26  F   UNL A   1      32.958  17.222  23.192  1.00  0.00    -0.166 F 
ATOM     27  F   UNL A   1      34.845  17.714  24.158  1.00  0.00    -0.166 F 
ATOM     28  F   UNL A   1      33.122  17.146  25.353  1.00  0.00    -0.166 F 
ENDBRANCH  24  25
ENDBRANCH  17  19
ENDBRANCH   8  15
ENDBRANCH   7   8
ENDBRANCH   6   7
ENDBRANCH   4   6
ENDBRANCH   1   2
BRANCH   1  29
ATOM     29  C   UNL A   1      31.843  30.080  26.138  1.00  0.00     0.023 C 
BRANCH  29  30
ATOM     30  C   UNL A   1      31.633  31.542  26.574  1.00  0.00     0.023 C 
BRANCH  30  31
ATOM     31  C   UNL A   1      32.776  32.394  27.157  1.00  0.00     0.116 C 
BRANCH  31  32
ATOM     32  N   UNL A   1      32.443  33.723  27.633  1.00  0.00    -0.352 N 
ATOM     33  C   UNL A   1      33.150  34.525  28.507  1.00  0.00     0.251 C 
ATOM     34  H   UNL A   1      31.602  34.103  27.288  1.00  0.00     0.163 HD
ATOM     35  O   UNL A   1      32.714  35.636  28.809  1.00  0.00    -0.269 OA
BRANCH  33  36
ATOM     36  C   UNL A   1      34.418  34.057  29.124  1.00  0.00     0.039 A 
ATOM     37  C   UNL A   1      34.379  33.390  30.352  1.00  0.00     0.014 A 
ATOM     38  C   UNL A   1      35.653  34.303  28.523  1.00  0.00     0.014 A 
ATOM     39  C   UNL A   1      35.560  32.892  30.925  1.00  0.00     0.010 A 
ATOM     40  C   UNL A   1      36.827  33.771  29.075  1.00  0.00     0.010 A 
ATOM     41  C   UNL A   1      36.794  33.040  30.271  1.00  0.00    -0.014 A 
BRANCH  41  42
ATOM     42  C   UNL A   1      38.025  32.352  30.764  1.00  0.00     0.031 A 
ATOM     43  C   UNL A   1      38.871  32.921  31.874  1.00  0.00     0.074 A 
ATOM     44  C   UNL A   1      38.436  31.226  30.144  1.00  0.00     0.049 A 
ATOM     45  N   UNL A   1      39.984  32.454  32.389  1.00  0.00    -0.248 NA
ATOM     46  C   UNL A   1      38.423  34.186  32.468  1.00  0.00     0.031 C 
ATOM     47  C   UNL A   1      37.756  30.593  29.013  1.00  0.00     0.029 A 
ATOM     48  N   UNL A   1      39.525  30.419  30.370  1.00  0.00    -0.354 N 
ATOM     49  C   UNL A   1      40.375  33.371  33.357  1.00  0.00     0.074 A 
ATOM     50  C   UNL A   1      39.400  34.442  33.328  1.00  0.00     0.031 C 
ATOM     51  C   UNL A   1      38.424  29.482  28.665  1.00  0.00     0.029 A 
ATOM     52  C   UNL A   1      39.599  29.341  29.520  1.00  0.00     0.049 A 
ATOM     53  H   UNL A   1      40.191  30.597  31.074  1.00  0.00     0.167 HD
ATOM     54  C   UNL A   1      41.437  33.325  34.202  1.00  0.00     0.037 A 
ATOM     55  C   UNL A   1      40.505  28.348  29.432  1.00  0.00     0.037 A 
ATOM     56  C   UNL A   1      42.401  32.251  34.250  1.00  0.00     0.049 A 
ATOM     57  C   UNL A   1      41.667  28.311  30.386  1.00  0.00     0.074 A 
ATOM     58  C   UNL A   1      43.460  32.082  35.127  1.00  0.00     0.029 A 
ATOM     59  N   UNL A   1      42.429  31.169  33.383  1.00  0.00    -0.354 N 
ATOM     60  N   UNL A   1      41.971  29.142  31.353  1.00  0.00    -0.248 NA
ATOM     61  C   UNL A   1      42.609  27.192  30.241  1.00  0.00     0.031 C 
ATOM     62  C   UNL A   1      44.159  30.927  34.758  1.00  0.00     0.029 A 
ATOM     63  C   UNL A   1      43.503  30.346  33.687  1.00  0.00     0.049 A 
ATOM     64  H   UNL A   1      41.782  31.010  32.658  1.00  0.00     0.167 HD
ATOM     65  C   UNL A   1      43.116  28.628  31.950  1.00  0.00     0.074 A 
ATOM     66  C   UNL A   1      43.446  27.408  31.246  1.00  0.00     0.031 C 
ATOM     67  C   UNL A   1      43.828  29.127  32.990  1.00  0.00     0.037 A 
BRANCH  54  68
ATOM     68  C   UNL A   1      41.622  34.469  35.160  1.00  0.00     0.057 A 
ATOM     69  C   UNL A   1      42.381  35.598  34.827  1.00  0.00     0.134 A 
ATOM     70  C   UNL A   1      40.977  34.475  36.406  1.00  0.00     0.134 A 
ATOM     71  F   UNL A   1      43.023  35.662  33.650  1.00  0.00    -0.206 F 
ATOM     72  C   UNL A   1      42.518  36.676  35.706  1.00  0.00     0.040 A 
ATOM     73  C   UNL A   1      41.081  35.559  37.280  1.00  0.00     0.040 A 
ATOM     74  F   UNL A   1      40.216  33.436  36.785  1.00  0.00    -0.206 F 
ATOM     75  C   UNL A   1      41.860  36.661  36.934  1.00  0.00     0.006 A 
ENDBRANCH  54  68
BRANCH  55  76
ATOM     76  C   UNL A   1      40.336  27.277  28.416  1.00  0.00     0.057 A 
ATOM     77  C   UNL A   1      40.951  27.372  27.162  1.00  0.00     0.134 A 
ATOM     78  C   UNL A   1      39.552  26.145  28.666  1.00  0.00     0.134 A 
ATOM     79  F   UNL A   1      41.699  28.442  26.856  1.00  0.00    -0.206 F 
ATOM     80  C   UNL A   1      40.773  26.393  26.184  1.00  0.00     0.040 A 
ATOM     81  C   UNL A   1      39.387  25.144  27.707  1.00  0.00     0.040 A 
ATOM     82  F   UNL A   1      38.943  25.991  29.852  1.00  0.00    -0.206 F 
ATOM     83  C   UNL A   1      39.992  25.272  26.458  1.00  0.00     0.006 A 
ENDBRANCH  55  76
BRANCH  67  84
ATOM     84  C   UNL A   1      45.014  28.334  33.460  1.00  0.00     0.057 A 
ATOM     85  C   UNL A   1      46.310  28.583  32.987  1.00  0.00     0.134 A 
ATOM     86  C   UNL A   1      44.863  27.328  34.422  1.00  0.00     0.134 A 
ATOM     87  F   UNL A   1      46.524  29.524  32.054  1.00  0.00    -0.206 F 
ATOM     88  C   UNL A   1      47.407  27.844  33.437  1.00  0.00     0.040 A 
ATOM     89  C   UNL A   1      45.956  26.602  34.901  1.00  0.00     0.040 A 
ATOM     90  F   UNL A   1      43.653  27.041  34.925  1.00  0.00    -0.206 F 
ATOM     91  C   UNL A   1      47.231  26.854  34.401  1.00  0.00     0.006 A 
ENDBRANCH  67  84
ENDBRANCH  41  42
ENDBRANCH  33  36
ENDBRANCH  31  32
ENDBRANCH  30  31
ENDBRANCH  29  30
ENDBRANCH   1  29
TORSDOF 17
ENDMDL
