MODEL 1
REMARK VINA RESULT:     -11.4      0.000      0.000
REMARK SMILES CCCC[C@@H](Sc1nc(OCCC2CCCCC2)cc(OCCC2CCCCC2)n1)C(=O)NCCCCNC(=O)c1ccc(-c2c3nc(c(-c4c(F)cccc4F)c4ccc([nH]4)c(-c4c(F)cccc4F)c4nc(c(-c5c(F)cccc5F)c5ccc2[nH]5)C=C4)C=C3)cc1
REMARK SMILES IDX 31 1 32 2 33 3 5 5 4 6 3 7 2 8 1 9 6 10 7 11 8 12 30 13 9 14
REMARK SMILES IDX 20 15 19 16 10 17 11 18 12 19 13 20 14 21 18 22 15 23 17 24
REMARK SMILES IDX 16 25 21 26 22 27 23 28 24 29 25 30 29 31 26 32 28 33 27 34
REMARK SMILES IDX 34 35 35 36 36 37 37 38 38 39 39 40 40 42 41 43 42 44 94 45
REMARK SMILES IDX 43 46 93 47 44 48 45 49 46 50 87 51 47 52 92 53 86 54 88 55
REMARK SMILES IDX 48 56 91 57 85 58 84 59 49 61 75 62 58 63 74 64 59 65 62 66
REMARK SMILES IDX 73 67 89 68 60 69 61 70 72 72 90 73 63 74 50 75 51 76 56 77
REMARK SMILES IDX 52 78 53 79 55 80 57 81 54 82 76 83 77 84 82 85 78 86 79 87
REMARK SMILES IDX 81 88 83 89 80 90 64 91 65 92 70 93 66 94 67 95 69 96 71 97
REMARK SMILES IDX 68 98
REMARK H PARENT 33 4 38 41 88 60 62 71
REMARK Flexibility Score: inf
ROOT
ATOM      1  C   UNL A   1      32.947  27.502  24.670  1.00  0.00     0.233 C 
ATOM      2  O   UNL A   1      33.829  26.649  24.805  1.00  0.00    -0.274 OA
ATOM      3  N   UNL A   1      33.036  28.630  25.445  1.00  0.00    -0.355 N 
ATOM      4  H   UNL A   1      33.824  28.661  26.035  1.00  0.00     0.163 HD
ENDROOT
BRANCH   1   5
ATOM      5  C   UNL A   1      31.801  27.314  23.638  1.00  0.00     0.144 C 
BRANCH   5   6
ATOM      6  C   UNL A   1      32.451  26.933  22.291  1.00  0.00     0.025 C 
BRANCH   6   7
ATOM      7  C   UNL A   1      31.782  25.981  21.297  1.00  0.00     0.001 C 
BRANCH   7   8
ATOM      8  C   UNL A   1      32.683  25.214  20.340  1.00  0.00    -0.003 C 
ATOM      9  C   UNL A   1      32.342  25.491  18.888  1.00  0.00     0.004 C 
ENDBRANCH   7   8
ENDBRANCH   6   7
ENDBRANCH   5   6
BRANCH   5  10
ATOM     10  S   UNL A   1      30.567  26.345  24.620  1.00  0.00    -0.073 SA
BRANCH  10  11
ATOM     11  C   UNL A   1      31.230  24.766  24.986  1.00  0.00     0.195 A 
ATOM     12  N   UNL A   1      31.252  23.940  23.928  1.00  0.00    -0.187 NA
ATOM     13  N   UNL A   1      31.535  24.405  26.229  1.00  0.00    -0.187 NA
ATOM     14  C   UNL A   1      31.441  22.643  24.167  1.00  0.00     0.221 A 
ATOM     15  C   UNL A   1      31.680  23.093  26.430  1.00  0.00     0.221 A 
ATOM     16  C   UNL A   1      31.483  22.167  25.443  1.00  0.00     0.136 A 
BRANCH  14  17
ATOM     17  O   UNL A   1      31.641  21.898  23.040  1.00  0.00    -0.477 OA
BRANCH  17  18
ATOM     18  C   UNL A   1      32.602  20.841  23.080  1.00  0.00     0.231 C 
BRANCH  18  19
ATOM     19  C   UNL A   1      32.152  19.461  22.543  1.00  0.00     0.045 C 
BRANCH  19  20
ATOM     20  C   UNL A   1      32.434  18.244  23.440  1.00  0.00    -0.008 C 
ATOM     21  C   UNL A   1      33.693  17.464  23.011  1.00  0.00     0.004 C 
ATOM     22  C   UNL A   1      32.602  18.632  24.915  1.00  0.00     0.004 C 
ATOM     23  C   UNL A   1      33.910  16.222  23.885  1.00  0.00     0.000 C 
ATOM     24  C   UNL A   1      32.675  17.378  25.779  1.00  0.00     0.000 C 
ATOM     25  C   UNL A   1      33.873  16.523  25.384  1.00  0.00     0.000 C 
ENDBRANCH  19  20
ENDBRANCH  18  19
ENDBRANCH  17  18
ENDBRANCH  14  17
BRANCH  15  26
ATOM     26  O   UNL A   1      31.927  22.669  27.720  1.00  0.00    -0.477 OA
BRANCH  26  27
ATOM     27  C   UNL A   1      33.336  22.618  28.018  1.00  0.00     0.231 C 
BRANCH  27  28
ATOM     28  C   UNL A   1      34.038  21.445  27.287  1.00  0.00     0.045 C 
BRANCH  28  29
ATOM     29  C   UNL A   1      35.242  21.868  26.431  1.00  0.00    -0.008 C 
ATOM     30  C   UNL A   1      35.454  20.979  25.203  1.00  0.00     0.004 C 
ATOM     31  C   UNL A   1      35.187  23.308  25.897  1.00  0.00     0.004 C 
ATOM     32  C   UNL A   1      36.884  21.212  24.714  1.00  0.00     0.000 C 
ATOM     33  C   UNL A   1      36.511  23.675  25.197  1.00  0.00     0.000 C 
ATOM     34  C   UNL A   1      37.011  22.632  24.191  1.00  0.00     0.000 C 
ENDBRANCH  28  29
ENDBRANCH  27  28
ENDBRANCH  26  27
ENDBRANCH  15  26
ENDBRANCH  10  11
ENDBRANCH   5  10
ENDBRANCH   1   5
BRANCH   3  35
ATOM     35  C   UNL A   1      32.159  29.788  25.540  1.00  0.00     0.116 C 
BRANCH  35  36
ATOM     36  C   UNL A   1      32.228  30.419  26.933  1.00  0.00     0.023 C 
BRANCH  36  37
ATOM     37  C   UNL A   1      31.895  31.910  26.958  1.00  0.00     0.023 C 
BRANCH  37  38
ATOM     38  C   UNL A   1      32.960  32.784  27.604  1.00  0.00     0.116 C 
BRANCH  38  39
ATOM     39  N   UNL A   1      32.526  34.161  27.803  1.00  0.00    -0.352 N 
ATOM     40  C   UNL A   1      33.051  35.090  28.671  1.00  0.00     0.251 C 
ATOM     41  H   UNL A   1      31.767  34.462  27.253  1.00  0.00     0.163 HD
ATOM     42  O   UNL A   1      32.519  36.183  28.834  1.00  0.00    -0.269 OA
BRANCH  40  43
ATOM     43  C   UNL A   1      34.259  34.723  29.434  1.00  0.00     0.039 A 
ATOM     44  C   UNL A   1      34.134  34.353  30.774  1.00  0.00     0.014 A 
ATOM     45  C   UNL A   1      35.491  34.645  28.781  1.00  0.00     0.014 A 
ATOM     46  C   UNL A   1      35.239  33.826  31.444  1.00  0.00     0.010 A 
ATOM     47  C   UNL A   1      36.566  34.049  29.425  1.00  0.00     0.010 A 
ATOM     48  C   UNL A   1      36.450  33.628  30.760  1.00  0.00    -0.014 A 
BRANCH  48  49
ATOM     49  C   UNL A   1      37.626  32.998  31.407  1.00  0.00     0.031 A 
ATOM     50  C   UNL A   1      38.267  31.803  30.760  1.00  0.00     0.074 A 
ATOM     51  C   UNL A   1      38.047  33.425  32.614  1.00  0.00     0.049 A 
ATOM     52  N   UNL A   1      39.178  30.992  31.233  1.00  0.00    -0.248 NA
ATOM     53  C   UNL A   1      37.791  31.454  29.412  1.00  0.00     0.031 C 
ATOM     54  C   UNL A   1      37.490  34.557  33.357  1.00  0.00     0.029 A 
ATOM     55  N   UNL A   1      39.026  32.935  33.441  1.00  0.00    -0.354 N 
ATOM     56  C   UNL A   1      39.363  30.026  30.254  1.00  0.00     0.074 A 
ATOM     57  C   UNL A   1      38.437  30.321  29.183  1.00  0.00     0.031 C 
ATOM     58  C   UNL A   1      38.143  34.679  34.524  1.00  0.00     0.029 A 
ATOM     59  C   UNL A   1      39.127  33.608  34.636  1.00  0.00     0.049 A 
ATOM     60  H   UNL A   1      39.603  32.174  33.201  1.00  0.00     0.167 HD
ATOM     61  C   UNL A   1      40.240  28.995  30.241  1.00  0.00     0.037 A 
ATOM     62  C   UNL A   1      39.908  33.370  35.707  1.00  0.00     0.037 A 
ATOM     63  C   UNL A   1      41.177  28.723  31.298  1.00  0.00     0.049 A 
ATOM     64  C   UNL A   1      40.857  32.203  35.680  1.00  0.00     0.074 A 
ATOM     65  C   UNL A   1      42.141  27.733  31.360  1.00  0.00     0.029 A 
ATOM     66  N   UNL A   1      41.266  29.446  32.478  1.00  0.00    -0.354 N 
ATOM     67  N   UNL A   1      41.058  31.322  34.729  1.00  0.00    -0.248 NA
ATOM     68  C   UNL A   1      41.688  31.992  36.875  1.00  0.00     0.031 C 
ATOM     69  C   UNL A   1      42.785  27.829  32.597  1.00  0.00     0.029 A 
ATOM     70  C   UNL A   1      42.258  28.913  33.282  1.00  0.00     0.049 A 
ATOM     71  H   UNL A   1      40.706  30.222  32.709  1.00  0.00     0.167 HD
ATOM     72  C   UNL A   1      42.063  30.482  35.192  1.00  0.00     0.074 A 
ATOM     73  C   UNL A   1      42.431  30.957  36.510  1.00  0.00     0.031 C 
ATOM     74  C   UNL A   1      42.632  29.417  34.578  1.00  0.00     0.037 A 
BRANCH  61  75
ATOM     75  C   UNL A   1      40.224  28.088  29.046  1.00  0.00     0.057 A 
ATOM     76  C   UNL A   1      40.959  28.379  27.888  1.00  0.00     0.134 A 
ATOM     77  C   UNL A   1      39.490  26.896  29.063  1.00  0.00     0.134 A 
ATOM     78  F   UNL A   1      41.673  29.511  27.802  1.00  0.00    -0.206 F 
ATOM     79  C   UNL A   1      40.938  27.530  26.780  1.00  0.00     0.040 A 
ATOM     80  C   UNL A   1      39.486  26.026  27.972  1.00  0.00     0.040 A 
ATOM     81  F   UNL A   1      38.770  26.554  30.142  1.00  0.00    -0.206 F 
ATOM     82  C   UNL A   1      40.206  26.347  26.824  1.00  0.00     0.006 A 
ENDBRANCH  61  75
BRANCH  62  83
ATOM     83  C   UNL A   1      39.837  34.259  36.895  1.00  0.00     0.057 A 
ATOM     84  C   UNL A   1      38.968  33.976  37.956  1.00  0.00     0.134 A 
ATOM     85  C   UNL A   1      40.617  35.417  36.994  1.00  0.00     0.134 A 
ATOM     86  F   UNL A   1      38.181  32.891  37.911  1.00  0.00    -0.206 F 
ATOM     87  C   UNL A   1      38.863  34.820  39.062  1.00  0.00     0.040 A 
ATOM     88  C   UNL A   1      40.541  36.257  38.107  1.00  0.00     0.040 A 
ATOM     89  F   UNL A   1      41.474  35.743  36.015  1.00  0.00    -0.206 F 
ATOM     90  C   UNL A   1      39.655  35.964  39.141  1.00  0.00     0.006 A 
ENDBRANCH  62  83
BRANCH  74  91
ATOM     91  C   UNL A   1      43.758  28.724  35.287  1.00  0.00     0.057 A 
ATOM     92  C   UNL A   1      45.090  29.127  35.140  1.00  0.00     0.134 A 
ATOM     93  C   UNL A   1      43.489  27.692  36.196  1.00  0.00     0.134 A 
ATOM     94  F   UNL A   1      45.414  30.101  34.276  1.00  0.00    -0.206 F 
ATOM     95  C   UNL A   1      46.117  28.521  35.865  1.00  0.00     0.040 A 
ATOM     96  C   UNL A   1      44.503  27.097  36.946  1.00  0.00     0.040 A 
ATOM     97  F   UNL A   1      42.231  27.266  36.390  1.00  0.00    -0.206 F 
ATOM     98  C   UNL A   1      45.823  27.511  36.780  1.00  0.00     0.006 A 
ENDBRANCH  74  91
ENDBRANCH  48  49
ENDBRANCH  40  43
ENDBRANCH  38  39
ENDBRANCH  37  38
ENDBRANCH  36  37
ENDBRANCH  35  36
ENDBRANCH   3  35
TORSDOF 24
ENDMDL
MODEL 2
REMARK VINA RESULT:     -11.4      0.765      5.733
REMARK SMILES CCCC[C@@H](Sc1nc(OCCC2CCCCC2)cc(OCCC2CCCCC2)n1)C(=O)NCCCCNC(=O)c1ccc(-c2c3nc(c(-c4c(F)cccc4F)c4ccc([nH]4)c(-c4c(F)cccc4F)c4nc(c(-c5c(F)cccc5F)c5ccc2[nH]5)C=C4)C=C3)cc1
REMARK SMILES IDX 31 1 32 2 33 3 5 5 4 6 3 7 2 8 1 9 6 10 7 11 8 12 30 13 9 14
REMARK SMILES IDX 20 15 19 16 10 17 11 18 12 19 13 20 14 21 18 22 15 23 17 24
REMARK SMILES IDX 16 25 21 26 22 27 23 28 24 29 25 30 29 31 26 32 28 33 27 34
REMARK SMILES IDX 34 35 35 36 36 37 37 38 38 39 39 40 40 42 41 43 42 44 94 45
REMARK SMILES IDX 43 46 93 47 44 48 45 49 46 50 87 51 47 52 92 53 86 54 88 55
REMARK SMILES IDX 48 56 91 57 85 58 84 59 49 61 75 62 58 63 74 64 59 65 62 66
REMARK SMILES IDX 73 67 89 68 60 69 61 70 72 72 90 73 63 74 50 75 51 76 56 77
REMARK SMILES IDX 52 78 53 79 55 80 57 81 54 82 76 83 77 84 82 85 78 86 79 87
REMARK SMILES IDX 81 88 83 89 80 90 64 91 65 92 70 93 66 94 67 95 69 96 71 97
REMARK SMILES IDX 68 98
REMARK H PARENT 33 4 38 41 88 60 62 71
REMARK Flexibility Score: inf
ROOT
ATOM      1  C   UNL A   1      32.142  27.675  24.621  1.00  0.00     0.233 C 
ATOM      2  O   UNL A   1      33.043  26.833  24.678  1.00  0.00    -0.274 OA
ATOM      3  N   UNL A   1      32.363  28.878  25.241  1.00  0.00    -0.355 N 
ATOM      4  H   UNL A   1      33.248  28.964  25.665  1.00  0.00     0.163 HD
ENDROOT
BRANCH   1   5
ATOM      5  C   UNL A   1      30.825  27.388  23.849  1.00  0.00     0.144 C 
BRANCH   5   6
ATOM      6  C   UNL A   1      31.206  27.080  22.385  1.00  0.00     0.025 C 
BRANCH   6   7
ATOM      7  C   UNL A   1      32.605  26.613  21.982  1.00  0.00     0.001 C 
BRANCH   7   8
ATOM      8  C   UNL A   1      32.720  25.290  21.239  1.00  0.00    -0.003 C 
ATOM      9  C   UNL A   1      32.510  25.453  19.744  1.00  0.00     0.004 C 
ENDBRANCH   7   8
ENDBRANCH   6   7
ENDBRANCH   5   6
BRANCH   5  10
ATOM     10  S   UNL A   1      29.919  26.301  25.041  1.00  0.00    -0.073 SA
BRANCH  10  11
ATOM     11  C   UNL A   1      30.823  24.821  25.277  1.00  0.00     0.195 A 
ATOM     12  N   UNL A   1      30.952  24.092  24.158  1.00  0.00    -0.187 NA
ATOM     13  N   UNL A   1      31.204  24.417  26.486  1.00  0.00    -0.187 NA
ATOM     14  C   UNL A   1      31.343  22.826  24.292  1.00  0.00     0.221 A 
ATOM     15  C   UNL A   1      31.553  23.132  26.581  1.00  0.00     0.221 A 
ATOM     16  C   UNL A   1      31.482  22.264  25.526  1.00  0.00     0.136 A 
BRANCH  14  17
ATOM     17  O   UNL A   1      31.633  22.209  23.108  1.00  0.00    -0.477 OA
BRANCH  17  18
ATOM     18  C   UNL A   1      32.607  21.163  23.102  1.00  0.00     0.231 C 
BRANCH  18  19
ATOM     19  C   UNL A   1      32.167  19.795  22.530  1.00  0.00     0.045 C 
BRANCH  19  20
ATOM     20  C   UNL A   1      32.373  18.568  23.434  1.00  0.00    -0.008 C 
ATOM     21  C   UNL A   1      33.462  17.613  22.907  1.00  0.00     0.004 C 
ATOM     22  C   UNL A   1      32.744  18.957  24.871  1.00  0.00     0.004 C 
ATOM     23  C   UNL A   1      33.598  16.370  23.796  1.00  0.00     0.000 C 
ATOM     24  C   UNL A   1      32.735  17.722  25.765  1.00  0.00     0.000 C 
ATOM     25  C   UNL A   1      33.758  16.702  25.280  1.00  0.00     0.000 C 
ENDBRANCH  19  20
ENDBRANCH  18  19
ENDBRANCH  17  18
ENDBRANCH  14  17
BRANCH  15  26
ATOM     26  O   UNL A   1      31.887  22.653  27.833  1.00  0.00    -0.477 OA
BRANCH  26  27
ATOM     27  C   UNL A   1      33.307  22.696  28.073  1.00  0.00     0.231 C 
BRANCH  27  28
ATOM     28  C   UNL A   1      34.056  21.575  27.308  1.00  0.00     0.045 C 
BRANCH  28  29
ATOM     29  C   UNL A   1      34.862  22.070  26.097  1.00  0.00    -0.008 C 
ATOM     30  C   UNL A   1      35.690  23.322  26.391  1.00  0.00     0.004 C 
ATOM     31  C   UNL A   1      35.848  21.048  25.510  1.00  0.00     0.004 C 
ATOM     32  C   UNL A   1      36.063  23.948  25.048  1.00  0.00     0.000 C 
ATOM     33  C   UNL A   1      36.476  21.589  24.210  1.00  0.00     0.000 C 
ATOM     34  C   UNL A   1      37.012  23.022  24.308  1.00  0.00     0.000 C 
ENDBRANCH  28  29
ENDBRANCH  27  28
ENDBRANCH  26  27
ENDBRANCH  15  26
ENDBRANCH  10  11
ENDBRANCH   5  10
ENDBRANCH   1   5
BRANCH   3  35
ATOM     35  C   UNL A   1      31.508  30.048  25.375  1.00  0.00     0.116 C 
BRANCH  35  36
ATOM     36  C   UNL A   1      31.688  30.709  26.744  1.00  0.00     0.023 C 
BRANCH  36  37
ATOM     37  C   UNL A   1      31.587  32.233  26.717  1.00  0.00     0.023 C 
BRANCH  37  38
ATOM     38  C   UNL A   1      32.730  32.954  27.417  1.00  0.00     0.116 C 
BRANCH  38  39
ATOM     39  N   UNL A   1      32.426  34.345  27.726  1.00  0.00    -0.352 N 
ATOM     40  C   UNL A   1      33.030  35.149  28.664  1.00  0.00     0.251 C 
ATOM     41  H   UNL A   1      31.702  34.758  27.202  1.00  0.00     0.163 HD
ATOM     42  O   UNL A   1      32.601  36.270  28.914  1.00  0.00    -0.269 OA
BRANCH  40  43
ATOM     43  C   UNL A   1      34.193  34.611  29.394  1.00  0.00     0.039 A 
ATOM     44  C   UNL A   1      34.002  34.023  30.646  1.00  0.00     0.014 A 
ATOM     45  C   UNL A   1      35.448  34.599  28.781  1.00  0.00     0.014 A 
ATOM     46  C   UNL A   1      35.061  33.347  31.253  1.00  0.00     0.010 A 
ATOM     47  C   UNL A   1      36.476  33.860  29.350  1.00  0.00     0.010 A 
ATOM     48  C   UNL A   1      36.292  33.223  30.588  1.00  0.00    -0.014 A 
BRANCH  48  49
ATOM     49  C   UNL A   1      37.420  32.447  31.158  1.00  0.00     0.031 A 
ATOM     50  C   UNL A   1      38.099  32.945  32.402  1.00  0.00     0.074 A 
ATOM     51  C   UNL A   1      37.900  31.370  30.506  1.00  0.00     0.049 A 
ATOM     52  N   UNL A   1      39.206  32.533  32.964  1.00  0.00    -0.248 NA
ATOM     53  C   UNL A   1      37.462  34.082  33.086  1.00  0.00     0.031 C 
ATOM     54  C   UNL A   1      37.347  30.804  29.274  1.00  0.00     0.029 A 
ATOM     55  N   UNL A   1      38.985  30.574  30.777  1.00  0.00    -0.354 N 
ATOM     56  C   UNL A   1      39.410  33.377  34.048  1.00  0.00     0.074 A 
ATOM     57  C   UNL A   1      38.343  34.352  34.037  1.00  0.00     0.031 C 
ATOM     58  C   UNL A   1      38.089  29.749  28.903  1.00  0.00     0.029 A 
ATOM     59  C   UNL A   1      39.198  29.592  29.839  1.00  0.00     0.049 A 
ATOM     60  H   UNL A   1      39.556  30.694  31.571  1.00  0.00     0.167 HD
ATOM     61  C   UNL A   1      40.392  33.330  34.980  1.00  0.00     0.037 A 
ATOM     62  C   UNL A   1      40.190  28.687  29.733  1.00  0.00     0.037 A 
ATOM     63  C   UNL A   1      41.435  32.341  35.001  1.00  0.00     0.049 A 
ATOM     64  C   UNL A   1      41.283  28.671  30.767  1.00  0.00     0.074 A 
ATOM     65  C   UNL A   1      42.447  32.176  35.929  1.00  0.00     0.029 A 
ATOM     66  N   UNL A   1      41.598  31.347  34.048  1.00  0.00    -0.354 N 
ATOM     67  N   UNL A   1      41.441  29.444  31.815  1.00  0.00    -0.248 NA
ATOM     68  C   UNL A   1      42.338  27.660  30.605  1.00  0.00     0.031 C 
ATOM     69  C   UNL A   1      43.249  31.110  35.515  1.00  0.00     0.029 A 
ATOM     70  C   UNL A   1      42.705  30.576  34.357  1.00  0.00     0.049 A 
ATOM     71  H   UNL A   1      41.013  31.210  33.267  1.00  0.00     0.167 HD
ATOM     72  C   UNL A   1      42.586  28.987  32.457  1.00  0.00     0.074 A 
ATOM     73  C   UNL A   1      43.083  27.870  31.681  1.00  0.00     0.031 C 
ATOM     74  C   UNL A   1      43.167  29.448  33.589  1.00  0.00     0.037 A 
BRANCH  61  75
ATOM     75  C   UNL A   1      40.378  34.380  36.052  1.00  0.00     0.057 A 
ATOM     76  C   UNL A   1      41.032  35.609  35.891  1.00  0.00     0.134 A 
ATOM     77  C   UNL A   1      39.678  34.172  37.247  1.00  0.00     0.134 A 
ATOM     78  F   UNL A   1      41.730  35.867  34.775  1.00  0.00    -0.206 F 
ATOM     79  C   UNL A   1      41.015  36.580  36.893  1.00  0.00     0.040 A 
ATOM     80  C   UNL A   1      39.630  35.148  38.243  1.00  0.00     0.040 A 
ATOM     81  F   UNL A   1      39.026  33.020  37.463  1.00  0.00    -0.206 F 
ATOM     82  C   UNL A   1      40.306  36.353  38.070  1.00  0.00     0.006 A 
ENDBRANCH  61  75
BRANCH  62  83
ATOM     83  C   UNL A   1      40.194  27.711  28.613  1.00  0.00     0.057 A 
ATOM     84  C   UNL A   1      39.536  26.481  28.728  1.00  0.00     0.134 A 
ATOM     85  C   UNL A   1      40.864  27.973  27.412  1.00  0.00     0.134 A 
ATOM     86  F   UNL A   1      38.892  26.165  29.861  1.00  0.00    -0.206 F 
ATOM     87  C   UNL A   1      39.560  25.538  27.700  1.00  0.00     0.040 A 
ATOM     88  C   UNL A   1      40.875  27.049  26.365  1.00  0.00     0.040 A 
ATOM     89  F   UNL A   1      41.510  29.135  27.235  1.00  0.00    -0.206 F 
ATOM     90  C   UNL A   1      40.229  25.824  26.511  1.00  0.00     0.006 A 
ENDBRANCH  62  83
BRANCH  74  91
ATOM     91  C   UNL A   1      44.371  28.714  34.104  1.00  0.00     0.057 A 
ATOM     92  C   UNL A   1      45.675  29.117  33.796  1.00  0.00     0.134 A 
ATOM     93  C   UNL A   1      44.215  27.640  34.989  1.00  0.00     0.134 A 
ATOM     94  F   UNL A   1      45.890  30.132  32.945  1.00  0.00    -0.206 F 
ATOM     95  C   UNL A   1      46.784  28.471  34.344  1.00  0.00     0.040 A 
ATOM     96  C   UNL A   1      45.315  27.002  35.564  1.00  0.00     0.040 A 
ATOM     97  F   UNL A   1      42.991  27.211  35.332  1.00  0.00    -0.206 F 
ATOM     98  C   UNL A   1      46.605  27.417  35.240  1.00  0.00     0.006 A 
ENDBRANCH  74  91
ENDBRANCH  48  49
ENDBRANCH  40  43
ENDBRANCH  38  39
ENDBRANCH  37  38
ENDBRANCH  36  37
ENDBRANCH  35  36
ENDBRANCH   3  35
TORSDOF 24
ENDMDL
MODEL 3
REMARK VINA RESULT:     -11.0      7.451     12.023
REMARK SMILES CCCC[C@@H](Sc1nc(OCCC2CCCCC2)cc(OCCC2CCCCC2)n1)C(=O)NCCCCNC(=O)c1ccc(-c2c3nc(c(-c4c(F)cccc4F)c4ccc([nH]4)c(-c4c(F)cccc4F)c4nc(c(-c5c(F)cccc5F)c5ccc2[nH]5)C=C4)C=C3)cc1
REMARK SMILES IDX 31 1 32 2 33 3 5 5 4 6 3 7 2 8 1 9 6 10 7 11 8 12 30 13 9 14
REMARK SMILES IDX 20 15 19 16 10 17 11 18 12 19 13 20 14 21 18 22 15 23 17 24
REMARK SMILES IDX 16 25 21 26 22 27 23 28 24 29 25 30 29 31 26 32 28 33 27 34
REMARK SMILES IDX 34 35 35 36 36 37 37 38 38 39 39 40 40 42 41 43 42 44 94 45
REMARK SMILES IDX 43 46 93 47 44 48 45 49 46 50 87 51 47 52 92 53 86 54 88 55
REMARK SMILES IDX 48 56 91 57 85 58 84 59 49 61 75 62 58 63 74 64 59 65 62 66
REMARK SMILES IDX 73 67 89 68 60 69 61 70 72 72 90 73 63 74 50 75 51 76 56 77
REMARK SMILES IDX 52 78 53 79 55 80 57 81 54 82 76 83 77 84 82 85 78 86 79 87
REMARK SMILES IDX 81 88 83 89 80 90 64 91 65 92 70 93 66 94 67 95 69 96 71 97
REMARK SMILES IDX 68 98
REMARK H PARENT 33 4 38 41 88 60 62 71
REMARK Flexibility Score: inf
ROOT
ATOM      1  C   UNL A   1      34.392  22.845  26.587  1.00  0.00     0.233 C 
ATOM      2  O   UNL A   1      33.836  22.213  27.490  1.00  0.00    -0.274 OA
ATOM      3  N   UNL A   1      35.761  22.916  26.618  1.00  0.00    -0.355 N 
ATOM      4  H   UNL A   1      36.181  22.427  27.364  1.00  0.00     0.163 HD
ENDROOT
BRANCH   1   5
ATOM      5  C   UNL A   1      33.570  23.506  25.447  1.00  0.00     0.144 C 
BRANCH   5   6
ATOM      6  C   UNL A   1      33.778  22.656  24.176  1.00  0.00     0.025 C 
BRANCH   6   7
ATOM      7  C   UNL A   1      32.708  21.701  23.643  1.00  0.00     0.001 C 
BRANCH   7   8
ATOM      8  C   UNL A   1      32.387  20.468  24.476  1.00  0.00    -0.003 C 
ATOM      9  C   UNL A   1      33.625  19.643  24.777  1.00  0.00     0.004 C 
ENDBRANCH   7   8
ENDBRANCH   6   7
ENDBRANCH   5   6
BRANCH   5  10
ATOM     10  S   UNL A   1      31.978  23.895  26.307  1.00  0.00    -0.073 SA
BRANCH  10  11
ATOM     11  C   UNL A   1      31.512  25.544  25.945  1.00  0.00     0.195 A 
ATOM     12  N   UNL A   1      30.395  25.631  25.207  1.00  0.00    -0.187 NA
ATOM     13  N   UNL A   1      32.289  26.576  26.260  1.00  0.00    -0.187 NA
ATOM     14  C   UNL A   1      30.136  26.801  24.624  1.00  0.00     0.221 A 
ATOM     15  C   UNL A   1      32.015  27.719  25.626  1.00  0.00     0.221 A 
ATOM     16  C   UNL A   1      31.035  27.823  24.677  1.00  0.00     0.136 A 
BRANCH  14  17
ATOM     17  O   UNL A   1      28.897  26.869  24.052  1.00  0.00    -0.477 OA
BRANCH  17  18
ATOM     18  C   UNL A   1      28.670  27.838  23.026  1.00  0.00     0.231 C 
BRANCH  18  19
ATOM     19  C   UNL A   1      27.387  28.695  23.140  1.00  0.00     0.045 C 
BRANCH  19  20
ATOM     20  C   UNL A   1      27.496  30.166  22.705  1.00  0.00    -0.008 C 
ATOM     21  C   UNL A   1      28.370  31.008  23.656  1.00  0.00     0.004 C 
ATOM     22  C   UNL A   1      28.065  30.316  21.288  1.00  0.00     0.004 C 
ATOM     23  C   UNL A   1      28.406  32.481  23.230  1.00  0.00     0.000 C 
ATOM     24  C   UNL A   1      27.961  31.767  20.834  1.00  0.00     0.000 C 
ATOM     25  C   UNL A   1      28.764  32.677  21.757  1.00  0.00     0.000 C 
ENDBRANCH  19  20
ENDBRANCH  18  19
ENDBRANCH  17  18
ENDBRANCH  14  17
BRANCH  15  26
ATOM     26  O   UNL A   1      32.841  28.798  25.870  1.00  0.00    -0.477 OA
BRANCH  26  27
ATOM     27  C   UNL A   1      33.330  28.816  27.226  1.00  0.00     0.231 C 
BRANCH  27  28
ATOM     28  C   UNL A   1      34.878  28.873  27.281  1.00  0.00     0.045 C 
BRANCH  28  29
ATOM     29  C   UNL A   1      35.436  30.085  28.044  1.00  0.00    -0.008 C 
ATOM     30  C   UNL A   1      36.945  30.268  27.868  1.00  0.00     0.004 C 
ATOM     31  C   UNL A   1      34.807  31.436  27.669  1.00  0.00     0.004 C 
ATOM     32  C   UNL A   1      37.427  31.186  28.991  1.00  0.00     0.000 C 
ATOM     33  C   UNL A   1      35.320  32.548  28.605  1.00  0.00     0.000 C 
ATOM     34  C   UNL A   1      36.842  32.574  28.791  1.00  0.00     0.000 C 
ENDBRANCH  28  29
ENDBRANCH  27  28
ENDBRANCH  26  27
ENDBRANCH  15  26
ENDBRANCH  10  11
ENDBRANCH   5  10
ENDBRANCH   1   5
BRANCH   3  35
ATOM     35  C   UNL A   1      36.697  23.592  25.732  1.00  0.00     0.116 C 
BRANCH  35  36
ATOM     36  C   UNL A   1      38.141  23.398  26.201  1.00  0.00     0.023 C 
BRANCH  36  37
ATOM     37  C   UNL A   1      38.730  24.611  26.920  1.00  0.00     0.023 C 
BRANCH  37  38
ATOM     38  C   UNL A   1      40.194  24.881  26.604  1.00  0.00     0.116 C 
BRANCH  38  39
ATOM     39  N   UNL A   1      40.947  23.671  26.302  1.00  0.00    -0.352 N 
ATOM     40  C   UNL A   1      42.300  23.556  26.083  1.00  0.00     0.251 C 
ATOM     41  H   UNL A   1      40.427  22.837  26.248  1.00  0.00     0.163 HD
ATOM     42  O   UNL A   1      42.799  22.497  25.716  1.00  0.00    -0.269 OA
BRANCH  40  43
ATOM     43  C   UNL A   1      43.138  24.756  26.264  1.00  0.00     0.039 A 
ATOM     44  C   UNL A   1      43.664  25.038  27.526  1.00  0.00     0.014 A 
ATOM     45  C   UNL A   1      43.483  25.531  25.154  1.00  0.00     0.014 A 
ATOM     46  C   UNL A   1      44.606  26.058  27.662  1.00  0.00     0.010 A 
ATOM     47  C   UNL A   1      44.477  26.492  25.278  1.00  0.00     0.010 A 
ATOM     48  C   UNL A   1      45.052  26.761  26.531  1.00  0.00    -0.014 A 
BRANCH  48  49
ATOM     49  C   UNL A   1      46.109  27.799  26.613  1.00  0.00     0.031 A 
ATOM     50  C   UNL A   1      45.712  29.243  26.725  1.00  0.00     0.074 A 
ATOM     51  C   UNL A   1      47.405  27.459  26.480  1.00  0.00     0.049 A 
ATOM     52  N   UNL A   1      46.453  30.317  26.629  1.00  0.00    -0.248 NA
ATOM     53  C   UNL A   1      44.282  29.515  26.940  1.00  0.00     0.031 C 
ATOM     54  C   UNL A   1      47.916  26.094  26.337  1.00  0.00     0.029 A 
ATOM     55  N   UNL A   1      48.531  28.242  26.415  1.00  0.00    -0.354 N 
ATOM     56  C   UNL A   1      45.576  31.387  26.744  1.00  0.00     0.074 A 
ATOM     57  C   UNL A   1      44.245  30.837  26.868  1.00  0.00     0.031 C 
ATOM     58  C   UNL A   1      49.252  26.136  26.211  1.00  0.00     0.029 A 
ATOM     59  C   UNL A   1      49.689  27.529  26.213  1.00  0.00     0.049 A 
ATOM     60  H   UNL A   1      48.510  29.223  26.505  1.00  0.00     0.167 HD
ATOM     61  C   UNL A   1      45.859  32.711  26.763  1.00  0.00     0.037 A 
ATOM     62  C   UNL A   1      50.953  27.954  26.025  1.00  0.00     0.037 A 
ATOM     63  C   UNL A   1      47.188  33.251  26.667  1.00  0.00     0.049 A 
ATOM     64  C   UNL A   1      51.239  29.431  26.025  1.00  0.00     0.074 A 
ATOM     65  C   UNL A   1      47.587  34.575  26.726  1.00  0.00     0.029 A 
ATOM     66  N   UNL A   1      48.336  32.493  26.492  1.00  0.00    -0.354 N 
ATOM     67  N   UNL A   1      50.409  30.434  26.182  1.00  0.00    -0.248 NA
ATOM     68  C   UNL A   1      52.637  29.839  25.820  1.00  0.00     0.031 C 
ATOM     69  C   UNL A   1      48.971  34.622  26.543  1.00  0.00     0.029 A 
ATOM     70  C   UNL A   1      49.442  33.323  26.424  1.00  0.00     0.049 A 
ATOM     71  H   UNL A   1      48.361  31.511  26.426  1.00  0.00     0.167 HD
ATOM     72  C   UNL A   1      51.187  31.585  26.136  1.00  0.00     0.074 A 
ATOM     73  C   UNL A   1      52.555  31.156  25.936  1.00  0.00     0.031 C 
ATOM     74  C   UNL A   1      50.801  32.877  26.255  1.00  0.00     0.037 A 
BRANCH  61  75
ATOM     75  C   UNL A   1      44.707  33.663  26.895  1.00  0.00     0.057 A 
ATOM     76  C   UNL A   1      44.248  34.101  28.145  1.00  0.00     0.134 A 
ATOM     77  C   UNL A   1      44.066  34.170  25.757  1.00  0.00     0.134 A 
ATOM     78  F   UNL A   1      44.810  33.643  29.274  1.00  0.00    -0.206 F 
ATOM     79  C   UNL A   1      43.175  34.986  28.258  1.00  0.00     0.040 A 
ATOM     80  C   UNL A   1      43.011  35.078  25.859  1.00  0.00     0.040 A 
ATOM     81  F   UNL A   1      44.458  33.797  24.530  1.00  0.00    -0.206 F 
ATOM     82  C   UNL A   1      42.558  35.482  27.112  1.00  0.00     0.006 A 
ENDBRANCH  61  75
BRANCH  62  83
ATOM     83  C   UNL A   1      52.050  26.971  25.832  1.00  0.00     0.057 A 
ATOM     84  C   UNL A   1      52.362  26.482  24.557  1.00  0.00     0.134 A 
ATOM     85  C   UNL A   1      52.800  26.485  26.909  1.00  0.00     0.134 A 
ATOM     86  F   UNL A   1      51.667  26.895  23.488  1.00  0.00    -0.206 F 
ATOM     87  C   UNL A   1      53.366  25.531  24.363  1.00  0.00     0.040 A 
ATOM     88  C   UNL A   1      53.824  25.553  26.727  1.00  0.00     0.040 A 
ATOM     89  F   UNL A   1      52.555  26.917  28.155  1.00  0.00    -0.206 F 
ATOM     90  C   UNL A   1      54.103  25.067  25.451  1.00  0.00     0.006 A 
ENDBRANCH  62  83
BRANCH  74  91
ATOM     91  C   UNL A   1      51.872  33.928  26.238  1.00  0.00     0.057 A 
ATOM     92  C   UNL A   1      52.548  34.321  27.398  1.00  0.00     0.134 A 
ATOM     93  C   UNL A   1      52.286  34.491  25.023  1.00  0.00     0.134 A 
ATOM     94  F   UNL A   1      52.189  33.827  28.593  1.00  0.00    -0.206 F 
ATOM     95  C   UNL A   1      53.594  35.243  27.353  1.00  0.00     0.040 A 
ATOM     96  C   UNL A   1      53.348  35.395  24.962  1.00  0.00     0.040 A 
ATOM     97  F   UNL A   1      51.685  34.150  23.873  1.00  0.00    -0.206 F 
ATOM     98  C   UNL A   1      54.003  35.775  26.131  1.00  0.00     0.006 A 
ENDBRANCH  74  91
ENDBRANCH  48  49
ENDBRANCH  40  43
ENDBRANCH  38  39
ENDBRANCH  37  38
ENDBRANCH  36  37
ENDBRANCH  35  36
ENDBRANCH   3  35
TORSDOF 24
ENDMDL
