MODEL 1
REMARK VINA RESULT:     -12.4      0.000      0.000
REMARK SMILES COc1ccc2[nH]c(C(=O)c3cc(C)ccn3)c(CC(=O)NCCCCNC(=O)c3ccc(-c4c5nc(c(-c6c(F)cccc6F)c6ccc([nH]6)c(-c6c(F)cccc6F)c6nc(c(-c7c(F)cccc7F)c7ccc4[nH]7)C=C6)C=C5)cc3)c2c1
REMARK SMILES IDX 24 1 23 2 22 3 20 4 21 5 19 7 18 8 3 9 4 10 85 11 5 12 84 13
REMARK SMILES IDX 6 14 7 15 8 16 2 18 1 19 9 20 10 21 11 22 12 23 17 24 13 25
REMARK SMILES IDX 16 26 14 27 15 28 25 29 26 30 27 31 28 32 29 34 30 35 31 36
REMARK SMILES IDX 83 37 32 38 82 39 33 40 34 41 35 42 76 43 36 44 81 45 75 46
REMARK SMILES IDX 77 47 37 48 80 49 74 50 73 51 38 53 64 54 47 55 63 56 48 57
REMARK SMILES IDX 51 58 62 59 78 60 49 61 50 62 61 64 79 65 52 66 39 67 40 68
REMARK SMILES IDX 45 69 41 70 42 71 44 72 46 73 43 74 65 75 66 76 71 77 67 78
REMARK SMILES IDX 68 79 70 80 72 81 69 82 53 83 54 84 59 85 55 86 56 87 58 88
REMARK SMILES IDX 60 89 57 90
REMARK H PARENT 22 6 7 17 27 33 77 52 51 63
REMARK Flexibility Score: inf
ROOT
ATOM      1  C   UNL A   1      36.788  20.577  24.966  1.00  0.00     0.023 C 
ENDROOT
BRANCH   1   2
ATOM      2  C   UNL A   1      37.192  21.977  24.510  1.00  0.00     0.116 C 
BRANCH   2   3
ATOM      3  N   UNL A   1      36.215  22.578  23.630  1.00  0.00    -0.356 N 
ATOM      4  C   UNL A   1      35.343  23.601  23.872  1.00  0.00     0.224 C 
ATOM      5  O   UNL A   1      34.764  24.079  22.892  1.00  0.00    -0.275 OA
ATOM      6  H   UNL A   1      36.173  22.194  22.724  1.00  0.00     0.163 HD
BRANCH   4   7
ATOM      7  C   UNL A   1      35.196  24.213  25.263  1.00  0.00     0.138 C 
BRANCH   7   8
ATOM      8  C   UNL A   1      33.781  24.525  25.682  1.00  0.00    -0.002 A 
ATOM      9  C   UNL A   1      32.644  28.125  25.025  1.00  0.00     0.119 A 
ATOM     10  C   UNL A   1      31.402  28.004  25.643  1.00  0.00     0.048 A 
ATOM     11  C   UNL A   1      33.491  27.018  24.916  1.00  0.00     0.057 A 
ATOM     12  C   UNL A   1      30.995  26.786  26.203  1.00  0.00     0.030 A 
ATOM     13  C   UNL A   1      33.122  25.789  25.505  1.00  0.00     0.008 A 
ATOM     14  C   UNL A   1      31.880  25.703  26.126  1.00  0.00     0.046 A 
ATOM     15  N   UNL A   1      31.759  24.421  26.605  1.00  0.00    -0.352 N 
ATOM     16  C   UNL A   1      32.869  23.663  26.296  1.00  0.00     0.093 A 
ATOM     17  H   UNL A   1      30.980  24.087  27.105  1.00  0.00     0.167 HD
BRANCH   9  18
ATOM     18  O   UNL A   1      33.100  29.283  24.452  1.00  0.00    -0.497 OA
ATOM     19  C   UNL A   1      33.525  29.125  23.100  1.00  0.00     0.278 C 
ENDBRANCH   9  18
BRANCH  16  20
ATOM     20  C   UNL A   1      33.042  22.244  26.602  1.00  0.00     0.227 C 
ATOM     21  O   UNL A   1      33.333  21.829  27.720  1.00  0.00    -0.285 OA
BRANCH  20  22
ATOM     22  C   UNL A   1      32.916  21.237  25.513  1.00  0.00     0.113 A 
ATOM     23  C   UNL A   1      33.278  19.914  25.747  1.00  0.00     0.036 A 
ATOM     24  N   UNL A   1      32.394  21.682  24.343  1.00  0.00    -0.253 NA
ATOM     25  C   UNL A   1      33.094  18.986  24.719  1.00  0.00    -0.047 A 
ATOM     26  C   UNL A   1      32.194  20.761  23.381  1.00  0.00     0.112 A 
ATOM     27  C   UNL A   1      33.457  17.543  24.900  1.00  0.00     0.044 C 
ATOM     28  C   UNL A   1      32.528  19.423  23.518  1.00  0.00     0.023 A 
ENDBRANCH  20  22
ENDBRANCH  16  20
ENDBRANCH   7   8
ENDBRANCH   4   7
ENDBRANCH   2   3
ENDBRANCH   1   2
BRANCH   1  29
ATOM     29  C   UNL A   1      37.934  19.564  25.004  1.00  0.00     0.023 C 
BRANCH  29  30
ATOM     30  C   UNL A   1      39.180  20.020  25.750  1.00  0.00     0.116 C 
BRANCH  30  31
ATOM     31  N   UNL A   1      40.212  18.996  25.824  1.00  0.00    -0.352 N 
ATOM     32  C   UNL A   1      41.555  19.146  26.070  1.00  0.00     0.251 C 
ATOM     33  H   UNL A   1      39.906  18.072  25.677  1.00  0.00     0.163 HD
ATOM     34  O   UNL A   1      42.315  18.187  25.977  1.00  0.00    -0.269 OA
BRANCH  32  35
ATOM     35  C   UNL A   1      42.089  20.483  26.410  1.00  0.00     0.039 A 
ATOM     36  C   UNL A   1      42.487  21.333  25.376  1.00  0.00     0.014 A 
ATOM     37  C   UNL A   1      42.167  20.906  27.740  1.00  0.00     0.014 A 
ATOM     38  C   UNL A   1      42.901  22.633  25.672  1.00  0.00     0.010 A 
ATOM     39  C   UNL A   1      42.506  22.225  28.026  1.00  0.00     0.010 A 
ATOM     40  C   UNL A   1      42.877  23.102  26.996  1.00  0.00    -0.014 A 
BRANCH  40  41
ATOM     41  C   UNL A   1      43.239  24.505  27.324  1.00  0.00     0.031 A 
ATOM     42  C   UNL A   1      44.679  24.939  27.294  1.00  0.00     0.074 A 
ATOM     43  C   UNL A   1      42.280  25.371  27.708  1.00  0.00     0.049 A 
ATOM     44  N   UNL A   1      45.200  26.096  27.615  1.00  0.00    -0.248 NA
ATOM     45  C   UNL A   1      45.665  23.932  26.873  1.00  0.00     0.031 C 
ATOM     46  C   UNL A   1      40.854  25.062  27.821  1.00  0.00     0.029 A 
ATOM     47  N   UNL A   1      42.365  26.688  28.085  1.00  0.00    -0.354 N 
ATOM     48  C   UNL A   1      46.571  25.952  27.446  1.00  0.00     0.074 A 
ATOM     49  C   UNL A   1      46.807  24.581  27.050  1.00  0.00     0.031 C 
ATOM     50  C   UNL A   1      40.195  26.163  28.216  1.00  0.00     0.029 A 
ATOM     51  C   UNL A   1      41.154  27.243  28.424  1.00  0.00     0.049 A 
ATOM     52  H   UNL A   1      43.213  27.188  28.112  1.00  0.00     0.167 HD
ATOM     53  C   UNL A   1      47.545  26.884  27.584  1.00  0.00     0.037 A 
ATOM     54  C   UNL A   1      40.853  28.481  28.861  1.00  0.00     0.037 A 
ATOM     55  C   UNL A   1      47.307  28.252  27.959  1.00  0.00     0.049 A 
ATOM     56  C   UNL A   1      41.955  29.491  29.025  1.00  0.00     0.074 A 
ATOM     57  C   UNL A   1      48.222  29.285  28.076  1.00  0.00     0.029 A 
ATOM     58  N   UNL A   1      46.065  28.779  28.281  1.00  0.00    -0.354 N 
ATOM     59  N   UNL A   1      43.240  29.359  28.795  1.00  0.00    -0.248 NA
ATOM     60  C   UNL A   1      41.565  30.826  29.501  1.00  0.00     0.031 C 
ATOM     61  C   UNL A   1      47.540  30.425  28.513  1.00  0.00     0.029 A 
ATOM     62  C   UNL A   1      46.193  30.117  28.616  1.00  0.00     0.049 A 
ATOM     63  H   UNL A   1      45.219  28.277  28.273  1.00  0.00     0.167 HD
ATOM     64  C   UNL A   1      43.804  30.599  29.068  1.00  0.00     0.074 A 
ATOM     65  C   UNL A   1      42.721  31.473  29.466  1.00  0.00     0.031 C 
ATOM     66  C   UNL A   1      45.103  30.979  28.997  1.00  0.00     0.037 A 
BRANCH  53  67
ATOM     67  C   UNL A   1      48.958  26.453  27.320  1.00  0.00     0.057 A 
ATOM     68  C   UNL A   1      49.794  25.991  28.347  1.00  0.00     0.134 A 
ATOM     69  C   UNL A   1      49.481  26.463  26.021  1.00  0.00     0.134 A 
ATOM     70  F   UNL A   1      49.360  25.968  29.617  1.00  0.00    -0.206 F 
ATOM     71  C   UNL A   1      51.103  25.580  28.095  1.00  0.00     0.040 A 
ATOM     72  C   UNL A   1      50.779  26.026  25.752  1.00  0.00     0.040 A 
ATOM     73  F   UNL A   1      48.734  26.886  24.990  1.00  0.00    -0.206 F 
ATOM     74  C   UNL A   1      51.596  25.589  26.792  1.00  0.00     0.006 A 
ENDBRANCH  53  67
BRANCH  54  75
ATOM     75  C   UNL A   1      39.445  28.847  29.161  1.00  0.00     0.057 A 
ATOM     76  C   UNL A   1      38.907  28.661  30.440  1.00  0.00     0.134 A 
ATOM     77  C   UNL A   1      38.597  29.366  28.175  1.00  0.00     0.134 A 
ATOM     78  F   UNL A   1      39.664  28.150  31.422  1.00  0.00    -0.206 F 
ATOM     79  C   UNL A   1      37.571  28.953  30.722  1.00  0.00     0.040 A 
ATOM     80  C   UNL A   1      37.267  29.688  28.450  1.00  0.00     0.040 A 
ATOM     81  F   UNL A   1      39.051  29.574  26.930  1.00  0.00    -0.206 F 
ATOM     82  C   UNL A   1      36.748  29.472  29.725  1.00  0.00     0.006 A 
ENDBRANCH  54  75
BRANCH  66  83
ATOM     83  C   UNL A   1      45.420  32.413  29.311  1.00  0.00     0.057 A 
ATOM     84  C   UNL A   1      45.368  33.416  28.335  1.00  0.00     0.134 A 
ATOM     85  C   UNL A   1      45.745  32.798  30.618  1.00  0.00     0.134 A 
ATOM     86  F   UNL A   1      45.076  33.112  27.061  1.00  0.00    -0.206 F 
ATOM     87  C   UNL A   1      45.650  34.747  28.643  1.00  0.00     0.040 A 
ATOM     88  C   UNL A   1      46.001  34.130  30.945  1.00  0.00     0.040 A 
ATOM     89  F   UNL A   1      45.803  31.888  31.603  1.00  0.00    -0.206 F 
ATOM     90  C   UNL A   1      45.960  35.109  29.954  1.00  0.00     0.006 A 
ENDBRANCH  66  83
ENDBRANCH  40  41
ENDBRANCH  32  35
ENDBRANCH  30  31
ENDBRANCH  29  30
ENDBRANCH   1  29
TORSDOF 15
ENDMDL
MODEL 2
REMARK VINA RESULT:     -12.3      0.630      6.147
REMARK SMILES COc1ccc2[nH]c(C(=O)c3cc(C)ccn3)c(CC(=O)NCCCCNC(=O)c3ccc(-c4c5nc(c(-c6c(F)cccc6F)c6ccc([nH]6)c(-c6c(F)cccc6F)c6nc(c(-c7c(F)cccc7F)c7ccc4[nH]7)C=C6)C=C5)cc3)c2c1
REMARK SMILES IDX 24 1 23 2 22 3 20 4 21 5 19 7 18 8 3 9 4 10 85 11 5 12 84 13
REMARK SMILES IDX 6 14 7 15 8 16 2 18 1 19 9 20 10 21 11 22 12 23 17 24 13 25
REMARK SMILES IDX 16 26 14 27 15 28 25 29 26 30 27 31 28 32 29 34 30 35 31 36
REMARK SMILES IDX 83 37 32 38 82 39 33 40 34 41 35 42 76 43 36 44 81 45 75 46
REMARK SMILES IDX 77 47 37 48 80 49 74 50 73 51 38 53 64 54 47 55 63 56 48 57
REMARK SMILES IDX 51 58 62 59 78 60 49 61 50 62 61 64 79 65 52 66 39 67 40 68
REMARK SMILES IDX 45 69 41 70 42 71 44 72 46 73 43 74 65 75 66 76 71 77 67 78
REMARK SMILES IDX 68 79 70 80 72 81 69 82 53 83 54 84 59 85 55 86 56 87 58 88
REMARK SMILES IDX 60 89 57 90
REMARK H PARENT 22 6 7 17 27 33 77 52 51 63
REMARK Flexibility Score: inf
ROOT
ATOM      1  C   UNL A   1      36.944  20.778  24.988  1.00  0.00     0.023 C 
ENDROOT
BRANCH   1   2
ATOM      2  C   UNL A   1      37.373  22.082  24.322  1.00  0.00     0.116 C 
BRANCH   2   3
ATOM      3  N   UNL A   1      36.331  22.655  23.500  1.00  0.00    -0.356 N 
ATOM      4  C   UNL A   1      35.447  23.655  23.793  1.00  0.00     0.224 C 
ATOM      5  O   UNL A   1      34.799  24.115  22.848  1.00  0.00    -0.275 OA
ATOM      6  H   UNL A   1      36.246  22.268  22.599  1.00  0.00     0.163 HD
BRANCH   4   7
ATOM      7  C   UNL A   1      35.366  24.265  25.189  1.00  0.00     0.138 C 
BRANCH   7   8
ATOM      8  C   UNL A   1      33.970  24.538  25.692  1.00  0.00    -0.002 A 
ATOM      9  C   UNL A   1      32.687  28.098  25.090  1.00  0.00     0.119 A 
ATOM     10  C   UNL A   1      31.489  27.943  25.783  1.00  0.00     0.048 A 
ATOM     11  C   UNL A   1      33.559  27.016  24.935  1.00  0.00     0.057 A 
ATOM     12  C   UNL A   1      31.154  26.717  26.371  1.00  0.00     0.030 A 
ATOM     13  C   UNL A   1      33.263  25.781  25.550  1.00  0.00     0.008 A 
ATOM     14  C   UNL A   1      32.065  25.661  26.246  1.00  0.00     0.046 A 
ATOM     15  N   UNL A   1      32.012  24.379  26.737  1.00  0.00    -0.352 N 
ATOM     16  C   UNL A   1      33.124  23.653  26.364  1.00  0.00     0.093 A 
ATOM     17  H   UNL A   1      31.275  24.024  27.285  1.00  0.00     0.167 HD
BRANCH   9  18
ATOM     18  O   UNL A   1      33.072  29.265  24.485  1.00  0.00    -0.497 OA
ATOM     19  C   UNL A   1      33.405  29.114  23.106  1.00  0.00     0.278 C 
ENDBRANCH   9  18
BRANCH  16  20
ATOM     20  C   UNL A   1      33.358  22.242  26.665  1.00  0.00     0.227 C 
ATOM     21  O   UNL A   1      33.855  21.854  27.719  1.00  0.00    -0.285 OA
BRANCH  20  22
ATOM     22  C   UNL A   1      33.036  21.209  25.643  1.00  0.00     0.113 A 
ATOM     23  C   UNL A   1      32.606  21.595  24.378  1.00  0.00     0.036 A 
ATOM     24  N   UNL A   1      33.238  19.919  26.011  1.00  0.00    -0.253 NA
ATOM     25  C   UNL A   1      32.366  20.600  23.427  1.00  0.00    -0.047 A 
ATOM     26  C   UNL A   1      33.034  18.982  25.065  1.00  0.00     0.112 A 
ATOM     27  C   UNL A   1      31.904  20.943  22.043  1.00  0.00     0.044 C 
ATOM     28  C   UNL A   1      32.600  19.269  23.780  1.00  0.00     0.023 A 
ENDBRANCH  20  22
ENDBRANCH  16  20
ENDBRANCH   7   8
ENDBRANCH   4   7
ENDBRANCH   2   3
ENDBRANCH   1   2
BRANCH   1  29
ATOM     29  C   UNL A   1      38.024  19.695  25.023  1.00  0.00     0.023 C 
BRANCH  29  30
ATOM     30  C   UNL A   1      39.307  20.079  25.748  1.00  0.00     0.116 C 
BRANCH  30  31
ATOM     31  N   UNL A   1      40.262  18.985  25.842  1.00  0.00    -0.352 N 
ATOM     32  C   UNL A   1      41.610  19.042  26.103  1.00  0.00     0.251 C 
ATOM     33  H   UNL A   1      39.894  18.083  25.698  1.00  0.00     0.163 HD
ATOM     34  O   UNL A   1      42.302  18.031  26.027  1.00  0.00    -0.269 OA
BRANCH  32  35
ATOM     35  C   UNL A   1      42.233  20.340  26.440  1.00  0.00     0.039 A 
ATOM     36  C   UNL A   1      42.796  21.104  25.415  1.00  0.00     0.014 A 
ATOM     37  C   UNL A   1      42.234  20.815  27.754  1.00  0.00     0.014 A 
ATOM     38  C   UNL A   1      43.300  22.375  25.698  1.00  0.00     0.010 A 
ATOM     39  C   UNL A   1      42.667  22.110  28.021  1.00  0.00     0.010 A 
ATOM     40  C   UNL A   1      43.205  22.904  26.996  1.00  0.00    -0.014 A 
BRANCH  40  41
ATOM     41  C   UNL A   1      43.664  24.283  27.303  1.00  0.00     0.031 A 
ATOM     42  C   UNL A   1      42.673  25.332  27.726  1.00  0.00     0.074 A 
ATOM     43  C   UNL A   1      44.962  24.607  27.140  1.00  0.00     0.049 A 
ATOM     44  N   UNL A   1      42.867  26.603  27.968  1.00  0.00    -0.248 NA
ATOM     45  C   UNL A   1      41.274  24.900  27.871  1.00  0.00     0.031 C 
ATOM     46  C   UNL A   1      46.015  23.694  26.692  1.00  0.00     0.029 A 
ATOM     47  N   UNL A   1      45.615  25.800  27.324  1.00  0.00    -0.354 N 
ATOM     48  C   UNL A   1      41.618  27.124  28.282  1.00  0.00     0.074 A 
ATOM     49  C   UNL A   1      40.664  26.045  28.145  1.00  0.00     0.031 C 
ATOM     50  C   UNL A   1      47.184  24.353  26.658  1.00  0.00     0.029 A 
ATOM     51  C   UNL A   1      46.959  25.743  27.042  1.00  0.00     0.049 A 
ATOM     52  H   UNL A   1      45.163  26.620  27.629  1.00  0.00     0.167 HD
ATOM     53  C   UNL A   1      41.297  28.380  28.674  1.00  0.00     0.037 A 
ATOM     54  C   UNL A   1      47.901  26.705  27.080  1.00  0.00     0.037 A 
ATOM     55  C   UNL A   1      42.249  29.446  28.830  1.00  0.00     0.049 A 
ATOM     56  C   UNL A   1      47.514  28.096  27.500  1.00  0.00     0.074 A 
ATOM     57  C   UNL A   1      42.029  30.740  29.270  1.00  0.00     0.029 A 
ATOM     58  N   UNL A   1      43.603  29.345  28.546  1.00  0.00    -0.354 N 
ATOM     59  N   UNL A   1      46.339  28.556  27.859  1.00  0.00    -0.248 NA
ATOM     60  C   UNL A   1      48.586  29.102  27.526  1.00  0.00     0.031 C 
ATOM     61  C   UNL A   1      43.242  31.435  29.211  1.00  0.00     0.029 A 
ATOM     62  C   UNL A   1      44.227  30.558  28.784  1.00  0.00     0.049 A 
ATOM     63  H   UNL A   1      44.053  28.531  28.224  1.00  0.00     0.167 HD
ATOM     64  C   UNL A   1      46.538  29.893  28.184  1.00  0.00     0.074 A 
ATOM     65  C   UNL A   1      47.947  30.165  27.993  1.00  0.00     0.031 C 
ATOM     66  C   UNL A   1      45.634  30.811  28.603  1.00  0.00     0.037 A 
BRANCH  53  67
ATOM     67  C   UNL A   1      39.853  28.665  28.969  1.00  0.00     0.057 A 
ATOM     68  C   UNL A   1      38.972  29.117  27.976  1.00  0.00     0.134 A 
ATOM     69  C   UNL A   1      39.326  28.451  30.249  1.00  0.00     0.134 A 
ATOM     70  F   UNL A   1      39.414  29.354  26.732  1.00  0.00    -0.206 F 
ATOM     71  C   UNL A   1      37.627  29.369  28.252  1.00  0.00     0.040 A 
ATOM     72  C   UNL A   1      37.977  28.672  30.529  1.00  0.00     0.040 A 
ATOM     73  F   UNL A   1      40.111  28.013  31.244  1.00  0.00    -0.206 F 
ATOM     74  C   UNL A   1      37.124  29.139  29.531  1.00  0.00     0.006 A 
ENDBRANCH  53  67
BRANCH  54  75
ATOM     75  C   UNL A   1      49.309  26.388  26.728  1.00  0.00     0.057 A 
ATOM     76  C   UNL A   1      49.791  26.585  25.429  1.00  0.00     0.134 A 
ATOM     77  C   UNL A   1      50.198  25.857  27.671  1.00  0.00     0.134 A 
ATOM     78  F   UNL A   1      48.982  27.073  24.477  1.00  0.00    -0.206 F 
ATOM     79  C   UNL A   1      51.096  26.244  25.072  1.00  0.00     0.040 A 
ATOM     80  C   UNL A   1      51.514  25.537  27.335  1.00  0.00     0.040 A 
ATOM     81  F   UNL A   1      49.802  25.649  28.936  1.00  0.00    -0.206 F 
ATOM     82  C   UNL A   1      51.964  25.721  26.029  1.00  0.00     0.006 A 
ENDBRANCH  54  75
BRANCH  66  83
ATOM     83  C   UNL A   1      46.146  32.185  28.927  1.00  0.00     0.057 A 
ATOM     84  C   UNL A   1      46.187  33.207  27.970  1.00  0.00     0.134 A 
ATOM     85  C   UNL A   1      46.569  32.497  30.225  1.00  0.00     0.134 A 
ATOM     86  F   UNL A   1      45.809  32.970  26.705  1.00  0.00    -0.206 F 
ATOM     87  C   UNL A   1      46.651  34.484  28.288  1.00  0.00     0.040 A 
ATOM     88  C   UNL A   1      47.008  33.778  30.563  1.00  0.00     0.040 A 
ATOM     89  F   UNL A   1      46.547  31.566  31.192  1.00  0.00    -0.206 F 
ATOM     90  C   UNL A   1      47.056  34.774  29.590  1.00  0.00     0.006 A 
ENDBRANCH  66  83
ENDBRANCH  40  41
ENDBRANCH  32  35
ENDBRANCH  30  31
ENDBRANCH  29  30
ENDBRANCH   1  29
TORSDOF 15
ENDMDL
MODEL 3
REMARK VINA RESULT:     -12.3      1.363      3.959
REMARK SMILES COc1ccc2[nH]c(C(=O)c3cc(C)ccn3)c(CC(=O)NCCCCNC(=O)c3ccc(-c4c5nc(c(-c6c(F)cccc6F)c6ccc([nH]6)c(-c6c(F)cccc6F)c6nc(c(-c7c(F)cccc7F)c7ccc4[nH]7)C=C6)C=C5)cc3)c2c1
REMARK SMILES IDX 24 1 23 2 22 3 20 4 21 5 19 7 18 8 3 9 4 10 85 11 5 12 84 13
REMARK SMILES IDX 6 14 7 15 8 16 2 18 1 19 9 20 10 21 11 22 12 23 17 24 13 25
REMARK SMILES IDX 16 26 14 27 15 28 25 29 26 30 27 31 28 32 29 34 30 35 31 36
REMARK SMILES IDX 83 37 32 38 82 39 33 40 34 41 35 42 76 43 36 44 81 45 75 46
REMARK SMILES IDX 77 47 37 48 80 49 74 50 73 51 38 53 64 54 47 55 63 56 48 57
REMARK SMILES IDX 51 58 62 59 78 60 49 61 50 62 61 64 79 65 52 66 39 67 40 68
REMARK SMILES IDX 45 69 41 70 42 71 44 72 46 73 43 74 65 75 66 76 71 77 67 78
REMARK SMILES IDX 68 79 70 80 72 81 69 82 53 83 54 84 59 85 55 86 56 87 58 88
REMARK SMILES IDX 60 89 57 90
REMARK H PARENT 22 6 7 17 27 33 77 52 51 63
REMARK Flexibility Score: inf
ROOT
ATOM      1  C   UNL A   1      37.444  21.173  24.632  1.00  0.00     0.023 C 
ENDROOT
BRANCH   1   2
ATOM      2  C   UNL A   1      37.741  22.370  25.531  1.00  0.00     0.116 C 
BRANCH   2   3
ATOM      3  N   UNL A   1      36.598  22.768  26.321  1.00  0.00    -0.356 N 
ATOM      4  C   UNL A   1      35.472  23.441  25.939  1.00  0.00     0.224 C 
ATOM      5  O   UNL A   1      34.541  23.467  26.751  1.00  0.00    -0.275 OA
ATOM      6  H   UNL A   1      36.637  22.518  27.273  1.00  0.00     0.163 HD
BRANCH   4   7
ATOM      7  C   UNL A   1      35.320  24.009  24.531  1.00  0.00     0.138 C 
BRANCH   7   8
ATOM      8  C   UNL A   1      34.123  23.507  23.761  1.00  0.00    -0.002 A 
ATOM      9  C   UNL A   1      33.411  19.759  24.117  1.00  0.00     0.119 A 
ATOM     10  C   UNL A   1      32.366  19.719  23.198  1.00  0.00     0.048 A 
ATOM     11  C   UNL A   1      34.025  20.974  24.437  1.00  0.00     0.057 A 
ATOM     12  C   UNL A   1      31.938  20.882  22.547  1.00  0.00     0.030 A 
ATOM     13  C   UNL A   1      33.639  22.155  23.767  1.00  0.00     0.008 A 
ATOM     14  C   UNL A   1      32.601  22.080  22.845  1.00  0.00     0.046 A 
ATOM     15  N   UNL A   1      32.415  23.346  22.345  1.00  0.00    -0.352 N 
ATOM     16  C   UNL A   1      33.281  24.247  22.928  1.00  0.00     0.093 A 
ATOM     17  H   UNL A   1      31.749  23.580  21.659  1.00  0.00     0.167 HD
BRANCH   9  18
ATOM     18  O   UNL A   1      33.873  18.662  24.795  1.00  0.00    -0.497 OA
ATOM     19  C   UNL A   1      33.847  17.461  24.027  1.00  0.00     0.278 C 
ENDBRANCH   9  18
BRANCH  16  20
ATOM     20  C   UNL A   1      33.312  25.686  22.671  1.00  0.00     0.227 C 
ATOM     21  O   UNL A   1      33.809  26.177  21.662  1.00  0.00    -0.285 OA
BRANCH  20  22
ATOM     22  C   UNL A   1      32.767  26.626  23.688  1.00  0.00     0.113 A 
ATOM     23  C   UNL A   1      33.607  27.159  24.660  1.00  0.00     0.036 A 
ATOM     24  N   UNL A   1      31.454  26.948  23.564  1.00  0.00    -0.253 NA
ATOM     25  C   UNL A   1      33.072  28.080  25.565  1.00  0.00    -0.047 A 
ATOM     26  C   UNL A   1      30.974  27.865  24.425  1.00  0.00     0.112 A 
ATOM     27  C   UNL A   1      33.918  28.699  26.636  1.00  0.00     0.044 C 
ATOM     28  C   UNL A   1      31.730  28.447  25.430  1.00  0.00     0.023 A 
ENDBRANCH  20  22
ENDBRANCH  16  20
ENDBRANCH   7   8
ENDBRANCH   4   7
ENDBRANCH   2   3
ENDBRANCH   1   2
BRANCH   1  29
ATOM     29  C   UNL A   1      38.227  19.905  24.979  1.00  0.00     0.023 C 
BRANCH  29  30
ATOM     30  C   UNL A   1      39.296  20.074  26.050  1.00  0.00     0.116 C 
BRANCH  30  31
ATOM     31  N   UNL A   1      40.405  19.144  25.906  1.00  0.00    -0.352 N 
ATOM     32  C   UNL A   1      41.751  19.382  26.051  1.00  0.00     0.251 C 
ATOM     33  H   UNL A   1      40.159  18.219  25.673  1.00  0.00     0.163 HD
ATOM     34  O   UNL A   1      42.570  18.510  25.773  1.00  0.00    -0.269 OA
BRANCH  32  35
ATOM     35  C   UNL A   1      42.211  20.711  26.506  1.00  0.00     0.039 A 
ATOM     36  C   UNL A   1      42.595  21.656  25.551  1.00  0.00     0.014 A 
ATOM     37  C   UNL A   1      42.234  21.034  27.865  1.00  0.00     0.014 A 
ATOM     38  C   UNL A   1      42.938  22.947  25.956  1.00  0.00     0.010 A 
ATOM     39  C   UNL A   1      42.501  22.342  28.260  1.00  0.00     0.010 A 
ATOM     40  C   UNL A   1      42.856  23.312  27.310  1.00  0.00    -0.014 A 
BRANCH  40  41
ATOM     41  C   UNL A   1      43.142  24.701  27.753  1.00  0.00     0.031 A 
ATOM     42  C   UNL A   1      44.562  25.145  27.974  1.00  0.00     0.074 A 
ATOM     43  C   UNL A   1      42.123  25.541  28.017  1.00  0.00     0.049 A 
ATOM     44  N   UNL A   1      45.009  26.289  28.424  1.00  0.00    -0.248 NA
ATOM     45  C   UNL A   1      45.617  24.165  27.672  1.00  0.00     0.031 C 
ATOM     46  C   UNL A   1      40.701  25.218  27.887  1.00  0.00     0.029 A 
ATOM     47  N   UNL A   1      42.127  26.840  28.461  1.00  0.00    -0.354 N 
ATOM     48  C   UNL A   1      46.392  26.163  28.471  1.00  0.00     0.074 A 
ATOM     49  C   UNL A   1      46.707  24.813  28.058  1.00  0.00     0.031 C 
ATOM     50  C   UNL A   1      39.972  26.295  28.220  1.00  0.00     0.029 A 
ATOM     51  C   UNL A   1      40.870  27.371  28.626  1.00  0.00     0.049 A 
ATOM     52  H   UNL A   1      42.953  27.344  28.645  1.00  0.00     0.167 HD
ATOM     53  C   UNL A   1      47.318  27.094  28.804  1.00  0.00     0.037 A 
ATOM     54  C   UNL A   1      40.486  28.586  29.064  1.00  0.00     0.037 A 
ATOM     55  C   UNL A   1      47.005  28.441  29.196  1.00  0.00     0.049 A 
ATOM     56  C   UNL A   1      41.535  29.595  29.446  1.00  0.00     0.074 A 
ATOM     57  C   UNL A   1      47.874  29.474  29.503  1.00  0.00     0.029 A 
ATOM     58  N   UNL A   1      45.720  28.945  29.338  1.00  0.00    -0.354 N 
ATOM     59  N   UNL A   1      42.841  29.482  29.419  1.00  0.00    -0.248 NA
ATOM     60  C   UNL A   1      41.055  30.903  29.912  1.00  0.00     0.031 C 
ATOM     61  C   UNL A   1      47.116  30.589  29.875  1.00  0.00     0.029 A 
ATOM     62  C   UNL A   1      45.774  30.267  29.748  1.00  0.00     0.049 A 
ATOM     63  H   UNL A   1      44.893  28.438  29.173  1.00  0.00     0.167 HD
ATOM     64  C   UNL A   1      43.338  30.712  29.833  1.00  0.00     0.074 A 
ATOM     65  C   UNL A   1      42.192  31.559  30.090  1.00  0.00     0.031 C 
ATOM     66  C   UNL A   1      44.625  31.104  29.987  1.00  0.00     0.037 A 
BRANCH  53  67
ATOM     67  C   UNL A   1      48.761  26.685  28.750  1.00  0.00     0.057 A 
ATOM     68  C   UNL A   1      49.424  26.166  29.872  1.00  0.00     0.134 A 
ATOM     69  C   UNL A   1      49.489  26.774  27.557  1.00  0.00     0.134 A 
ATOM     70  F   UNL A   1      48.788  26.065  31.050  1.00  0.00    -0.206 F 
ATOM     71  C   UNL A   1      50.762  25.775  29.815  1.00  0.00     0.040 A 
ATOM     72  C   UNL A   1      50.819  26.359  27.480  1.00  0.00     0.040 A 
ATOM     73  F   UNL A   1      48.915  27.255  26.444  1.00  0.00    -0.206 F 
ATOM     74  C   UNL A   1      51.462  25.864  28.613  1.00  0.00     0.006 A 
ENDBRANCH  53  67
BRANCH  54  75
ATOM     75  C   UNL A   1      39.044  28.928  29.150  1.00  0.00     0.057 A 
ATOM     76  C   UNL A   1      38.359  29.452  28.047  1.00  0.00     0.134 A 
ATOM     77  C   UNL A   1      38.322  28.766  30.339  1.00  0.00     0.134 A 
ATOM     78  F   UNL A   1      39.000  29.649  26.886  1.00  0.00    -0.206 F 
ATOM     79  C   UNL A   1      37.016  29.826  28.128  1.00  0.00     0.040 A 
ATOM     80  C   UNL A   1      36.972  29.110  30.426  1.00  0.00     0.040 A 
ATOM     81  F   UNL A   1      38.917  28.263  31.431  1.00  0.00    -0.206 F 
ATOM     82  C   UNL A   1      36.318  29.652  29.322  1.00  0.00     0.006 A 
ENDBRANCH  54  75
BRANCH  66  83
ATOM     83  C   UNL A   1      44.869  32.523  30.411  1.00  0.00     0.057 A 
ATOM     84  C   UNL A   1      45.017  32.882  31.756  1.00  0.00     0.134 A 
ATOM     85  C   UNL A   1      44.994  33.538  29.453  1.00  0.00     0.134 A 
ATOM     86  F   UNL A   1      44.894  31.960  32.723  1.00  0.00    -0.206 F 
ATOM     87  C   UNL A   1      45.258  34.203  32.136  1.00  0.00     0.040 A 
ATOM     88  C   UNL A   1      45.264  34.858  29.818  1.00  0.00     0.040 A 
ATOM     89  F   UNL A   1      44.873  33.261  28.146  1.00  0.00    -0.206 F 
ATOM     90  C   UNL A   1      45.390  35.194  31.164  1.00  0.00     0.006 A 
ENDBRANCH  66  83
ENDBRANCH  40  41
ENDBRANCH  32  35
ENDBRANCH  30  31
ENDBRANCH  29  30
ENDBRANCH   1  29
TORSDOF 15
ENDMDL
