MODEL 1
REMARK VINA RESULT:     -10.1      0.000      0.000
REMARK SMILES [NH3+]C[C@@]1([C@@H](O)C(=O)NCCCCNC(=O)c2ccc(-c3c4nc(c(-c5c(F)cccc5F)c5ccc([nH]5)c(-c5c(F)cccc5F)c5nc(c(-c6c(F)cccc6F)c6ccc3[nH]6)C=C5)C=C4)cc2)CCOc2ccccc21
REMARK SMILES IDX 10 1 9 2 8 3 6 4 7 5 4 7 3 8 70 9 78 10 71 11 73 12 77 13
REMARK SMILES IDX 72 14 74 15 76 16 75 17 2 18 1 19 5 23 11 25 12 26 13 27
REMARK SMILES IDX 14 28 15 30 16 31 17 32 69 33 18 34 68 35 19 36 20 37 21 38
REMARK SMILES IDX 62 39 22 40 67 41 61 42 63 43 23 44 66 45 60 46 59 47 24 49
REMARK SMILES IDX 50 50 33 51 49 52 34 53 37 54 48 55 64 56 35 57 36 58 47 60
REMARK SMILES IDX 65 61 38 62 25 63 26 64 31 65 27 66 28 67 30 68 32 69 29 70
REMARK SMILES IDX 51 71 52 72 57 73 53 74 54 75 56 76 58 77 55 78 39 79 40 80
REMARK SMILES IDX 45 81 41 82 42 83 44 84 46 85 43 86
REMARK H PARENT 8 6 1 20 1 21 1 22 5 24 13 29 63 48 37 59
REMARK Flexibility Score: inf
ROOT
ATOM      1  C   UNL A   1      33.913  35.371  28.968  1.00  0.00     0.023 C 
ENDROOT
BRANCH   1   2
ATOM      2  C   UNL A   1      33.297  34.995  30.312  1.00  0.00     0.116 C 
BRANCH   2   3
ATOM      3  N   UNL A   1      33.775  35.845  31.378  1.00  0.00    -0.354 N 
ATOM      4  C   UNL A   1      34.463  35.528  32.503  1.00  0.00     0.250 C 
ATOM      5  O   UNL A   1      34.778  36.465  33.249  1.00  0.00    -0.272 OA
ATOM      6  H   UNL A   1      33.570  36.802  31.271  1.00  0.00     0.163 HD
BRANCH   4   7
ATOM      7  C   UNL A   1      34.885  34.083  32.869  1.00  0.00     0.219 C 
BRANCH   7   8
ATOM      8  C   UNL A   1      36.424  33.687  32.981  1.00  0.00     0.086 C 
ATOM      9  C   UNL A   1      37.079  34.576  34.086  1.00  0.00     0.062 C 
ATOM     10  C   UNL A   1      37.284  33.840  31.715  1.00  0.00     0.009 A 
ATOM     11  C   UNL A   1      38.583  34.390  34.133  1.00  0.00     0.231 C 
ATOM     12  C   UNL A   1      38.588  34.370  31.782  1.00  0.00     0.123 A 
ATOM     13  C   UNL A   1      36.816  33.453  30.443  1.00  0.00     0.008 A 
ATOM     14  O   UNL A   1      39.196  34.812  32.924  1.00  0.00    -0.493 OA
ATOM     15  C   UNL A   1      39.347  34.575  30.623  1.00  0.00     0.047 A 
ATOM     16  C   UNL A   1      37.575  33.664  29.287  1.00  0.00     0.001 A 
ATOM     17  C   UNL A   1      38.838  34.235  29.376  1.00  0.00     0.004 A 
BRANCH   8  18
ATOM     18  C   UNL A   1      36.487  32.190  33.518  1.00  0.00     0.274 C 
BRANCH  18  19
ATOM     19  N   UNL A   1      35.922  31.129  32.684  1.00  0.00    -0.357 N 
ATOM     20  H   UNL A   1      36.580  30.351  32.630  1.00  0.00     0.344 HD
ATOM     21  H   UNL A   1      35.747  31.491  31.746  1.00  0.00     0.344 HD
ATOM     22  H   UNL A   1      35.045  30.805  33.092  1.00  0.00     0.344 HD
ENDBRANCH  18  19
ENDBRANCH   8  18
ENDBRANCH   7   8
BRANCH   7  23
ATOM     23  O   UNL A   1      34.141  33.606  34.003  1.00  0.00    -0.382 OA
ATOM     24  H   UNL A   1      34.734  33.526  34.767  1.00  0.00     0.211 HD
ENDBRANCH   7  23
ENDBRANCH   4   7
ENDBRANCH   2   3
ENDBRANCH   1   2
BRANCH   1  25
ATOM     25  C   UNL A   1      34.042  34.227  27.967  1.00  0.00     0.023 C 
BRANCH  25  26
ATOM     26  C   UNL A   1      34.128  32.856  28.610  1.00  0.00     0.116 C 
BRANCH  26  27
ATOM     27  N   UNL A   1      33.629  31.804  27.736  1.00  0.00    -0.352 N 
ATOM     28  C   UNL A   1      34.250  30.655  27.326  1.00  0.00     0.251 C 
ATOM     29  H   UNL A   1      32.716  31.936  27.392  1.00  0.00     0.163 HD
ATOM     30  O   UNL A   1      33.758  29.959  26.443  1.00  0.00    -0.269 OA
BRANCH  28  31
ATOM     31  C   UNL A   1      35.534  30.275  27.944  1.00  0.00     0.039 A 
ATOM     32  C   UNL A   1      35.528  29.671  29.201  1.00  0.00     0.014 A 
ATOM     33  C   UNL A   1      36.736  30.486  27.262  1.00  0.00     0.014 A 
ATOM     34  C   UNL A   1      36.728  29.232  29.754  1.00  0.00     0.010 A 
ATOM     35  C   UNL A   1      37.915  29.958  27.768  1.00  0.00     0.010 A 
ATOM     36  C   UNL A   1      37.926  29.342  29.027  1.00  0.00    -0.014 A 
BRANCH  36  37
ATOM     37  C   UNL A   1      39.205  28.838  29.581  1.00  0.00     0.031 A 
ATOM     38  C   UNL A   1      39.826  29.520  30.769  1.00  0.00     0.074 A 
ATOM     39  C   UNL A   1      39.827  27.805  28.982  1.00  0.00     0.049 A 
ATOM     40  N   UNL A   1      40.953  29.252  31.377  1.00  0.00    -0.248 NA
ATOM     41  C   UNL A   1      39.105  30.676  31.329  1.00  0.00     0.031 C 
ATOM     42  C   UNL A   1      39.353  27.110  27.783  1.00  0.00     0.029 A 
ATOM     43  N   UNL A   1      40.998  27.164  29.295  1.00  0.00    -0.354 N 
ATOM     44  C   UNL A   1      41.082  30.212  32.372  1.00  0.00     0.074 A 
ATOM     45  C   UNL A   1      39.952  31.104  32.253  1.00  0.00     0.031 C 
ATOM     46  C   UNL A   1      40.210  26.121  27.480  1.00  0.00     0.029 A 
ATOM     47  C   UNL A   1      41.312  26.138  28.437  1.00  0.00     0.049 A 
ATOM     48  H   UNL A   1      41.561  27.415  30.063  1.00  0.00     0.167 HD
ATOM     49  C   UNL A   1      42.043  30.322  33.318  1.00  0.00     0.037 A 
ATOM     50  C   UNL A   1      42.372  25.309  28.421  1.00  0.00     0.037 A 
ATOM     51  C   UNL A   1      43.143  29.406  33.454  1.00  0.00     0.049 A 
ATOM     52  C   UNL A   1      43.416  25.443  29.497  1.00  0.00     0.074 A 
ATOM     53  C   UNL A   1      44.123  29.378  34.430  1.00  0.00     0.029 A 
ATOM     54  N   UNL A   1      43.411  28.360  32.584  1.00  0.00    -0.354 N 
ATOM     55  N   UNL A   1      43.474  26.296  30.491  1.00  0.00    -0.248 NA
ATOM     56  C   UNL A   1      44.537  24.494  29.454  1.00  0.00     0.031 C 
ATOM     57  C   UNL A   1      45.018  28.349  34.119  1.00  0.00     0.029 A 
ATOM     58  C   UNL A   1      44.560  27.699  32.984  1.00  0.00     0.049 A 
ATOM     59  H   UNL A   1      42.866  28.123  31.799  1.00  0.00     0.167 HD
ATOM     60  C   UNL A   1      44.618  25.968  31.208  1.00  0.00     0.074 A 
ATOM     61  C   UNL A   1      45.213  24.827  30.544  1.00  0.00     0.031 C 
ATOM     62  C   UNL A   1      45.132  26.560  32.314  1.00  0.00     0.037 A 
BRANCH  49  63
ATOM     63  C   UNL A   1      41.950  31.468  34.283  1.00  0.00     0.057 A 
ATOM     64  C   UNL A   1      41.272  31.357  35.504  1.00  0.00     0.134 A 
ATOM     65  C   UNL A   1      42.594  32.681  34.011  1.00  0.00     0.134 A 
ATOM     66  F   UNL A   1      40.622  30.228  35.822  1.00  0.00    -0.206 F 
ATOM     67  C   UNL A   1      41.223  32.418  36.410  1.00  0.00     0.040 A 
ATOM     68  C   UNL A   1      42.576  33.738  34.922  1.00  0.00     0.040 A 
ATOM     69  F   UNL A   1      43.263  32.854  32.861  1.00  0.00    -0.206 F 
ATOM     70  C   UNL A   1      41.885  33.609  36.124  1.00  0.00     0.006 A 
ENDBRANCH  49  63
BRANCH  50  71
ATOM     71  C   UNL A   1      42.499  24.275  27.362  1.00  0.00     0.057 A 
ATOM     72  C   UNL A   1      42.055  22.964  27.568  1.00  0.00     0.134 A 
ATOM     73  C   UNL A   1      43.091  24.566  26.126  1.00  0.00     0.134 A 
ATOM     74  F   UNL A   1      41.493  22.617  28.736  1.00  0.00    -0.206 F 
ATOM     75  C   UNL A   1      42.220  21.973  26.598  1.00  0.00     0.040 A 
ATOM     76  C   UNL A   1      43.235  23.594  25.136  1.00  0.00     0.040 A 
ATOM     77  F   UNL A   1      43.528  25.807  25.860  1.00  0.00    -0.206 F 
ATOM     78  C   UNL A   1      42.809  22.289  25.376  1.00  0.00     0.006 A 
ENDBRANCH  50  71
BRANCH  62  79
ATOM     79  C   UNL A   1      46.379  25.960  32.897  1.00  0.00     0.057 A 
ATOM     80  C   UNL A   1      46.333  24.941  33.856  1.00  0.00     0.134 A 
ATOM     81  C   UNL A   1      47.642  26.379  32.457  1.00  0.00     0.134 A 
ATOM     82  F   UNL A   1      45.156  24.503  34.327  1.00  0.00    -0.206 F 
ATOM     83  C   UNL A   1      47.499  24.378  34.376  1.00  0.00     0.040 A 
ATOM     84  C   UNL A   1      48.813  25.802  32.946  1.00  0.00     0.040 A 
ATOM     85  F   UNL A   1      47.756  27.342  31.530  1.00  0.00    -0.206 F 
ATOM     86  C   UNL A   1      48.743  24.802  33.915  1.00  0.00     0.006 A 
ENDBRANCH  62  79
ENDBRANCH  36  37
ENDBRANCH  28  31
ENDBRANCH  26  27
ENDBRANCH  25  26
ENDBRANCH   1  25
TORSDOF 15
ENDMDL
MODEL 2
REMARK VINA RESULT:      -9.8      4.970      9.869
REMARK SMILES [NH3+]C[C@@]1([C@@H](O)C(=O)NCCCCNC(=O)c2ccc(-c3c4nc(c(-c5c(F)cccc5F)c5ccc([nH]5)c(-c5c(F)cccc5F)c5nc(c(-c6c(F)cccc6F)c6ccc3[nH]6)C=C5)C=C4)cc2)CCOc2ccccc21
REMARK SMILES IDX 10 1 9 2 8 3 6 4 7 5 4 7 3 8 70 9 78 10 71 11 73 12 77 13
REMARK SMILES IDX 72 14 74 15 76 16 75 17 2 18 1 19 5 23 11 25 12 26 13 27
REMARK SMILES IDX 14 28 15 30 16 31 17 32 69 33 18 34 68 35 19 36 20 37 21 38
REMARK SMILES IDX 62 39 22 40 67 41 61 42 63 43 23 44 66 45 60 46 59 47 24 49
REMARK SMILES IDX 50 50 33 51 49 52 34 53 37 54 48 55 64 56 35 57 36 58 47 60
REMARK SMILES IDX 65 61 38 62 25 63 26 64 31 65 27 66 28 67 30 68 32 69 29 70
REMARK SMILES IDX 51 71 52 72 57 73 53 74 54 75 56 76 58 77 55 78 39 79 40 80
REMARK SMILES IDX 45 81 41 82 42 83 44 84 46 85 43 86
REMARK H PARENT 8 6 1 20 1 21 1 22 5 24 13 29 63 48 37 59
REMARK Flexibility Score: inf
ROOT
ATOM      1  C   UNL A   1      36.957  21.192  24.622  1.00  0.00     0.023 C 
ENDROOT
BRANCH   1   2
ATOM      2  C   UNL A   1      35.973  21.564  25.726  1.00  0.00     0.116 C 
BRANCH   2   3
ATOM      3  N   UNL A   1      34.805  20.713  25.714  1.00  0.00    -0.354 N 
ATOM      4  C   UNL A   1      33.521  20.991  26.052  1.00  0.00     0.250 C 
ATOM      5  O   UNL A   1      32.698  20.075  25.923  1.00  0.00    -0.272 OA
ATOM      6  H   UNL A   1      34.966  19.790  25.413  1.00  0.00     0.163 HD
BRANCH   4   7
ATOM      7  C   UNL A   1      33.051  22.379  26.554  1.00  0.00     0.219 C 
BRANCH   7   8
ATOM      8  C   UNL A   1      32.115  23.298  25.649  1.00  0.00     0.086 C 
ATOM      9  C   UNL A   1      31.781  22.516  24.338  1.00  0.00     0.062 C 
ATOM     10  C   UNL A   1      32.672  24.667  25.225  1.00  0.00     0.009 A 
ATOM     11  C   UNL A   1      31.042  23.388  23.341  1.00  0.00     0.231 C 
ATOM     12  C   UNL A   1      32.486  25.153  23.915  1.00  0.00     0.123 A 
ATOM     13  C   UNL A   1      33.379  25.496  26.120  1.00  0.00     0.008 A 
ATOM     14  O   UNL A   1      31.843  24.479  22.914  1.00  0.00    -0.493 OA
ATOM     15  C   UNL A   1      33.051  26.367  23.506  1.00  0.00     0.047 A 
ATOM     16  C   UNL A   1      33.946  26.706  25.706  1.00  0.00     0.001 A 
ATOM     17  C   UNL A   1      33.791  27.137  24.395  1.00  0.00     0.004 A 
BRANCH   8  18
ATOM     18  C   UNL A   1      30.736  23.475  26.425  1.00  0.00     0.274 C 
BRANCH  18  19
ATOM     19  N   UNL A   1      29.886  22.297  26.608  1.00  0.00    -0.357 N 
ATOM     20  H   UNL A   1      29.260  22.449  27.398  1.00  0.00     0.344 HD
ATOM     21  H   UNL A   1      30.471  21.481  26.790  1.00  0.00     0.344 HD
ATOM     22  H   UNL A   1      29.337  22.139  25.763  1.00  0.00     0.344 HD
ENDBRANCH  18  19
ENDBRANCH   8  18
ENDBRANCH   7   8
BRANCH   7  23
ATOM     23  O   UNL A   1      32.551  22.293  27.899  1.00  0.00    -0.382 OA
ATOM     24  H   UNL A   1      33.287  22.116  28.506  1.00  0.00     0.211 HD
ENDBRANCH   7  23
ENDBRANCH   4   7
ENDBRANCH   2   3
ENDBRANCH   1   2
BRANCH   1  25
ATOM     25  C   UNL A   1      37.869  20.009  24.931  1.00  0.00     0.023 C 
BRANCH  25  26
ATOM     26  C   UNL A   1      39.004  20.342  25.881  1.00  0.00     0.116 C 
BRANCH  26  27
ATOM     27  N   UNL A   1      40.053  19.332  25.863  1.00  0.00    -0.352 N 
ATOM     28  C   UNL A   1      41.397  19.479  26.083  1.00  0.00     0.251 C 
ATOM     29  H   UNL A   1      39.755  18.415  25.666  1.00  0.00     0.163 HD
ATOM     30  O   UNL A   1      42.172  18.555  25.853  1.00  0.00    -0.269 OA
BRANCH  28  31
ATOM     31  C   UNL A   1      41.905  20.772  26.578  1.00  0.00     0.039 A 
ATOM     32  C   UNL A   1      42.331  21.728  25.656  1.00  0.00     0.014 A 
ATOM     33  C   UNL A   1      41.926  21.045  27.948  1.00  0.00     0.014 A 
ATOM     34  C   UNL A   1      42.733  22.982  26.110  1.00  0.00     0.010 A 
ATOM     35  C   UNL A   1      42.228  22.324  28.389  1.00  0.00     0.010 A 
ATOM     36  C   UNL A   1      42.653  23.301  27.477  1.00  0.00    -0.014 A 
BRANCH  36  37
ATOM     37  C   UNL A   1      43.032  24.645  27.971  1.00  0.00     0.031 A 
ATOM     38  C   UNL A   1      41.967  25.676  28.229  1.00  0.00     0.074 A 
ATOM     39  C   UNL A   1      44.334  24.950  28.132  1.00  0.00     0.049 A 
ATOM     40  N   UNL A   1      42.099  26.914  28.629  1.00  0.00    -0.248 NA
ATOM     41  C   UNL A   1      40.573  25.275  27.976  1.00  0.00     0.031 C 
ATOM     42  C   UNL A   1      45.457  24.054  27.847  1.00  0.00     0.029 A 
ATOM     43  N   UNL A   1      44.933  26.104  28.569  1.00  0.00    -0.354 N 
ATOM     44  C   UNL A   1      40.814  27.441  28.655  1.00  0.00     0.074 A 
ATOM     45  C   UNL A   1      39.922  26.410  28.177  1.00  0.00     0.031 C 
ATOM     46  C   UNL A   1      46.607  24.681  28.143  1.00  0.00     0.029 A 
ATOM     47  C   UNL A   1      46.306  26.033  28.601  1.00  0.00     0.049 A 
ATOM     48  H   UNL A   1      44.429  26.906  28.835  1.00  0.00     0.167 HD
ATOM     49  C   UNL A   1      40.413  28.665  29.069  1.00  0.00     0.037 A 
ATOM     50  C   UNL A   1      47.217  26.959  28.954  1.00  0.00     0.037 A 
ATOM     51  C   UNL A   1      41.304  29.671  29.580  1.00  0.00     0.049 A 
ATOM     52  C   UNL A   1      46.741  28.306  29.426  1.00  0.00     0.074 A 
ATOM     53  C   UNL A   1      40.990  30.912  30.105  1.00  0.00     0.029 A 
ATOM     54  N   UNL A   1      42.685  29.553  29.626  1.00  0.00    -0.354 N 
ATOM     55  N   UNL A   1      45.514  28.756  29.539  1.00  0.00    -0.248 NA
ATOM     56  C   UNL A   1      47.773  29.270  29.830  1.00  0.00     0.031 C 
ATOM     57  C   UNL A   1      42.185  31.568  30.416  1.00  0.00     0.029 A 
ATOM     58  C   UNL A   1      43.239  30.712  30.142  1.00  0.00     0.049 A 
ATOM     59  H   UNL A   1      43.195  28.762  29.335  1.00  0.00     0.167 HD
ATOM     60  C   UNL A   1      45.626  30.042  30.052  1.00  0.00     0.074 A 
ATOM     61  C   UNL A   1      47.039  30.291  30.246  1.00  0.00     0.031 C 
ATOM     62  C   UNL A   1      44.648  30.937  30.335  1.00  0.00     0.037 A 
BRANCH  49  63
ATOM     63  C   UNL A   1      38.949  28.987  28.988  1.00  0.00     0.057 A 
ATOM     64  C   UNL A   1      38.099  28.858  30.095  1.00  0.00     0.134 A 
ATOM     65  C   UNL A   1      38.394  29.486  27.803  1.00  0.00     0.134 A 
ATOM     66  F   UNL A   1      38.562  28.373  31.256  1.00  0.00    -0.206 F 
ATOM     67  C   UNL A   1      36.747  29.195  30.019  1.00  0.00     0.040 A 
ATOM     68  C   UNL A   1      37.050  29.854  27.725  1.00  0.00     0.040 A 
ATOM     69  F   UNL A   1      39.153  29.638  26.708  1.00  0.00    -0.206 F 
ATOM     70  C   UNL A   1      36.222  29.705  28.834  1.00  0.00     0.006 A 
ENDBRANCH  49  63
BRANCH  50  71
ATOM     71  C   UNL A   1      48.668  26.647  28.884  1.00  0.00     0.057 A 
ATOM     72  C   UNL A   1      49.352  26.118  29.985  1.00  0.00     0.134 A 
ATOM     73  C   UNL A   1      49.411  26.892  27.723  1.00  0.00     0.134 A 
ATOM     74  F   UNL A   1      48.700  25.875  31.132  1.00  0.00    -0.206 F 
ATOM     75  C   UNL A   1      50.726  25.873  29.945  1.00  0.00     0.040 A 
ATOM     76  C   UNL A   1      50.779  26.623  27.658  1.00  0.00     0.040 A 
ATOM     77  F   UNL A   1      48.814  27.387  26.628  1.00  0.00    -0.206 F 
ATOM     78  C   UNL A   1      51.443  26.123  28.777  1.00  0.00     0.006 A 
ENDBRANCH  50  71
BRANCH  62  79
ATOM     79  C   UNL A   1      45.071  32.254  30.920  1.00  0.00     0.057 A 
ATOM     80  C   UNL A   1      45.332  33.372  30.118  1.00  0.00     0.134 A 
ATOM     81  C   UNL A   1      45.171  32.415  32.308  1.00  0.00     0.134 A 
ATOM     82  F   UNL A   1      45.264  33.281  28.782  1.00  0.00    -0.206 F 
ATOM     83  C   UNL A   1      45.705  34.596  30.675  1.00  0.00     0.040 A 
ATOM     84  C   UNL A   1      45.512  33.641  32.878  1.00  0.00     0.040 A 
ATOM     85  F   UNL A   1      44.922  31.387  33.134  1.00  0.00    -0.206 F 
ATOM     86  C   UNL A   1      45.787  34.735  32.059  1.00  0.00     0.006 A 
ENDBRANCH  62  79
ENDBRANCH  36  37
ENDBRANCH  28  31
ENDBRANCH  26  27
ENDBRANCH  25  26
ENDBRANCH   1  25
TORSDOF 15
ENDMDL
MODEL 3
REMARK VINA RESULT:      -9.8      5.416     10.665
REMARK SMILES [NH3+]C[C@@]1([C@@H](O)C(=O)NCCCCNC(=O)c2ccc(-c3c4nc(c(-c5c(F)cccc5F)c5ccc([nH]5)c(-c5c(F)cccc5F)c5nc(c(-c6c(F)cccc6F)c6ccc3[nH]6)C=C5)C=C4)cc2)CCOc2ccccc21
REMARK SMILES IDX 10 1 9 2 8 3 6 4 7 5 4 7 3 8 70 9 78 10 71 11 73 12 77 13
REMARK SMILES IDX 72 14 74 15 76 16 75 17 2 18 1 19 5 23 11 25 12 26 13 27
REMARK SMILES IDX 14 28 15 30 16 31 17 32 69 33 18 34 68 35 19 36 20 37 21 38
REMARK SMILES IDX 62 39 22 40 67 41 61 42 63 43 23 44 66 45 60 46 59 47 24 49
REMARK SMILES IDX 50 50 33 51 49 52 34 53 37 54 48 55 64 56 35 57 36 58 47 60
REMARK SMILES IDX 65 61 38 62 25 63 26 64 31 65 27 66 28 67 30 68 32 69 29 70
REMARK SMILES IDX 51 71 52 72 57 73 53 74 54 75 56 76 58 77 55 78 39 79 40 80
REMARK SMILES IDX 45 81 41 82 42 83 44 84 46 85 43 86
REMARK H PARENT 8 6 1 20 1 21 1 22 5 24 13 29 63 48 37 59
REMARK Flexibility Score: inf
ROOT
ATOM      1  C   UNL A   1      36.796  20.700  24.612  1.00  0.00     0.023 C 
ENDROOT
BRANCH   1   2
ATOM      2  C   UNL A   1      35.790  21.138  25.672  1.00  0.00     0.116 C 
BRANCH   2   3
ATOM      3  N   UNL A   1      34.514  20.483  25.505  1.00  0.00    -0.354 N 
ATOM      4  C   UNL A   1      33.260  20.944  25.739  1.00  0.00     0.250 C 
ATOM      5  O   UNL A   1      32.324  20.175  25.483  1.00  0.00    -0.272 OA
ATOM      6  H   UNL A   1      34.561  19.558  25.169  1.00  0.00     0.163 HD
BRANCH   4   7
ATOM      7  C   UNL A   1      32.959  22.367  26.272  1.00  0.00     0.219 C 
BRANCH   7   8
ATOM      8  C   UNL A   1      32.006  23.356  25.462  1.00  0.00     0.086 C 
ATOM      9  C   UNL A   1      31.672  22.696  24.086  1.00  0.00     0.062 C 
ATOM     10  C   UNL A   1      32.546  24.765  25.164  1.00  0.00     0.009 A 
ATOM     11  C   UNL A   1      30.916  23.648  23.180  1.00  0.00     0.231 C 
ATOM     12  C   UNL A   1      32.346  25.369  23.907  1.00  0.00     0.123 A 
ATOM     13  C   UNL A   1      33.250  25.514  26.129  1.00  0.00     0.008 A 
ATOM     14  O   UNL A   1      31.703  24.784  22.852  1.00  0.00    -0.493 OA
ATOM     15  C   UNL A   1      32.894  26.622  23.610  1.00  0.00     0.047 A 
ATOM     16  C   UNL A   1      33.801  26.764  25.826  1.00  0.00     0.001 A 
ATOM     17  C   UNL A   1      33.632  27.314  24.562  1.00  0.00     0.004 A 
BRANCH   8  18
ATOM     18  C   UNL A   1      30.631  23.444  26.260  1.00  0.00     0.274 C 
BRANCH  18  19
ATOM     19  N   UNL A   1      29.892  22.205  26.508  1.00  0.00    -0.357 N 
ATOM     20  H   UNL A   1      30.517  21.514  26.926  1.00  0.00     0.344 HD
ATOM     21  H   UNL A   1      29.529  21.844  25.626  1.00  0.00     0.344 HD
ATOM     22  H   UNL A   1      29.118  22.392  27.144  1.00  0.00     0.344 HD
ENDBRANCH  18  19
ENDBRANCH   8  18
ENDBRANCH   7   8
BRANCH   7  23
ATOM     23  O   UNL A   1      32.602  22.326  27.664  1.00  0.00    -0.382 OA
ATOM     24  H   UNL A   1      33.131  22.977  28.152  1.00  0.00     0.211 HD
ENDBRANCH   7  23
ENDBRANCH   4   7
ENDBRANCH   2   3
ENDBRANCH   1   2
BRANCH   1  25
ATOM     25  C   UNL A   1      37.767  19.606  25.046  1.00  0.00     0.023 C 
BRANCH  25  26
ATOM     26  C   UNL A   1      39.022  20.132  25.718  1.00  0.00     0.116 C 
BRANCH  26  27
ATOM     27  N   UNL A   1      40.058  19.115  25.827  1.00  0.00    -0.352 N 
ATOM     28  C   UNL A   1      41.401  19.270  26.045  1.00  0.00     0.251 C 
ATOM     29  H   UNL A   1      39.750  18.185  25.732  1.00  0.00     0.163 HD
ATOM     30  O   UNL A   1      42.166  18.317  25.931  1.00  0.00    -0.269 OA
BRANCH  28  31
ATOM     31  C   UNL A   1      41.921  20.604  26.396  1.00  0.00     0.039 A 
ATOM     32  C   UNL A   1      42.247  21.494  25.372  1.00  0.00     0.014 A 
ATOM     33  C   UNL A   1      42.051  20.982  27.735  1.00  0.00     0.014 A 
ATOM     34  C   UNL A   1      42.658  22.785  25.695  1.00  0.00     0.010 A 
ATOM     35  C   UNL A   1      42.361  22.297  28.051  1.00  0.00     0.010 A 
ATOM     36  C   UNL A   1      42.686  23.206  27.035  1.00  0.00    -0.014 A 
BRANCH  36  37
ATOM     37  C   UNL A   1      43.076  24.590  27.392  1.00  0.00     0.031 A 
ATOM     38  C   UNL A   1      44.520  25.005  27.317  1.00  0.00     0.074 A 
ATOM     39  C   UNL A   1      42.139  25.451  27.834  1.00  0.00     0.049 A 
ATOM     40  N   UNL A   1      45.064  26.155  27.618  1.00  0.00    -0.248 NA
ATOM     41  C   UNL A   1      45.486  23.984  26.875  1.00  0.00     0.031 C 
ATOM     42  C   UNL A   1      40.719  25.140  28.014  1.00  0.00     0.029 A 
ATOM     43  N   UNL A   1      42.243  26.763  28.219  1.00  0.00    -0.354 N 
ATOM     44  C   UNL A   1      46.429  25.989  27.422  1.00  0.00     0.074 A 
ATOM     45  C   UNL A   1      46.640  24.614  27.032  1.00  0.00     0.031 C 
ATOM     46  C   UNL A   1      40.080  26.239  28.447  1.00  0.00     0.029 A 
ATOM     47  C   UNL A   1      41.048  27.318  28.612  1.00  0.00     0.049 A 
ATOM     48  H   UNL A   1      43.092  27.261  28.215  1.00  0.00     0.167 HD
ATOM     49  C   UNL A   1      47.415  26.910  27.531  1.00  0.00     0.037 A 
ATOM     50  C   UNL A   1      40.769  28.556  29.062  1.00  0.00     0.037 A 
ATOM     51  C   UNL A   1      47.191  28.287  27.882  1.00  0.00     0.049 A 
ATOM     52  C   UNL A   1      41.882  29.564  29.155  1.00  0.00     0.074 A 
ATOM     53  C   UNL A   1      48.109  29.320  27.935  1.00  0.00     0.029 A 
ATOM     54  N   UNL A   1      45.963  28.819  28.244  1.00  0.00    -0.354 N 
ATOM     55  N   UNL A   1      43.154  29.420  28.871  1.00  0.00    -0.248 NA
ATOM     56  C   UNL A   1      41.519  30.910  29.621  1.00  0.00     0.031 C 
ATOM     57  C   UNL A   1      47.447  30.467  28.385  1.00  0.00     0.029 A 
ATOM     58  C   UNL A   1      46.106  30.161  28.552  1.00  0.00     0.049 A 
ATOM     59  H   UNL A   1      45.116  28.318  28.276  1.00  0.00     0.167 HD
ATOM     60  C   UNL A   1      43.737  30.660  29.096  1.00  0.00     0.074 A 
ATOM     61  C   UNL A   1      42.676  31.549  29.521  1.00  0.00     0.031 C 
ATOM     62  C   UNL A   1      45.035  31.031  28.966  1.00  0.00     0.037 A 
BRANCH  49  63
ATOM     63  C   UNL A   1      48.823  26.464  27.266  1.00  0.00     0.057 A 
ATOM     64  C   UNL A   1      49.654  25.985  28.287  1.00  0.00     0.134 A 
ATOM     65  C   UNL A   1      49.336  26.462  25.962  1.00  0.00     0.134 A 
ATOM     66  F   UNL A   1      49.231  25.972  29.559  1.00  0.00    -0.206 F 
ATOM     67  C   UNL A   1      50.950  25.538  28.023  1.00  0.00     0.040 A 
ATOM     68  C   UNL A   1      50.619  25.990  25.683  1.00  0.00     0.040 A 
ATOM     69  F   UNL A   1      48.592  26.905  24.938  1.00  0.00    -0.206 F 
ATOM     70  C   UNL A   1      51.431  25.530  26.716  1.00  0.00     0.006 A 
ENDBRANCH  49  63
BRANCH  50  71
ATOM     71  C   UNL A   1      39.381  28.916  29.450  1.00  0.00     0.057 A 
ATOM     72  C   UNL A   1      38.909  28.697  30.749  1.00  0.00     0.134 A 
ATOM     73  C   UNL A   1      38.484  29.465  28.524  1.00  0.00     0.134 A 
ATOM     74  F   UNL A   1      39.713  28.160  31.678  1.00  0.00    -0.206 F 
ATOM     75  C   UNL A   1      37.589  28.982  31.107  1.00  0.00     0.040 A 
ATOM     76  C   UNL A   1      37.172  29.783  28.876  1.00  0.00     0.040 A 
ATOM     77  F   UNL A   1      38.876  29.711  27.264  1.00  0.00    -0.206 F 
ATOM     78  C   UNL A   1      36.718  29.530  30.168  1.00  0.00     0.006 A 
ENDBRANCH  50  71
BRANCH  62  79
ATOM     79  C   UNL A   1      45.371  32.467  29.249  1.00  0.00     0.057 A 
ATOM     80  C   UNL A   1      45.809  32.891  30.509  1.00  0.00     0.134 A 
ATOM     81  C   UNL A   1      45.298  33.427  28.231  1.00  0.00     0.134 A 
ATOM     82  F   UNL A   1      45.890  32.022  31.529  1.00  0.00    -0.206 F 
ATOM     83  C   UNL A   1      46.138  34.224  30.755  1.00  0.00     0.040 A 
ATOM     84  C   UNL A   1      45.655  34.757  28.456  1.00  0.00     0.040 A 
ATOM     85  F   UNL A   1      44.898  33.085  26.997  1.00  0.00    -0.206 F 
ATOM     86  C   UNL A   1      46.069  35.160  29.724  1.00  0.00     0.006 A 
ENDBRANCH  62  79
ENDBRANCH  36  37
ENDBRANCH  28  31
ENDBRANCH  26  27
ENDBRANCH  25  26
ENDBRANCH   1  25
TORSDOF 15
ENDMDL
