MODEL 1
REMARK VINA RESULT:      -9.4      0.000      0.000
REMARK SMILES O=C(C[C@H]1C(=O)Nc2ccccc21)NCCCCNC(=O)c1ccc(-c2c3nc(c(-c4c(F)cccc4F)c4ccc([nH]4)c(-c4c(F)cccc4F)c4nc(c(-c5c(F)cccc5F)c5ccc2[nH]5)C=C4)C=C3)cc1
REMARK SMILES IDX 17 1 16 2 15 3 14 4 1 5 2 6 3 8 4 9 5 10 13 11 6 12 7 13
REMARK SMILES IDX 8 14 12 15 9 17 11 18 10 19 18 20 19 21 20 22 21 24 22 25
REMARK SMILES IDX 23 26 75 27 24 28 74 29 25 30 26 31 27 32 68 33 28 34 73 35
REMARK SMILES IDX 67 36 69 37 29 38 72 39 66 40 65 41 30 43 56 44 39 45 55 46
REMARK SMILES IDX 40 47 43 48 54 49 70 50 41 51 42 52 53 54 71 55 44 56 31 57
REMARK SMILES IDX 32 58 37 59 33 60 34 61 36 62 38 63 35 64 57 65 58 66 63 67
REMARK SMILES IDX 59 68 60 69 62 70 64 71 61 72 45 73 46 74 51 75 47 76 48 77
REMARK SMILES IDX 50 78 52 79 49 80
REMARK H PARENT 14 7 7 16 19 23 69 42 43 53
REMARK Flexibility Score: inf
ROOT
ATOM      1  C   UNL A   1      33.330  35.541  32.209  1.00  0.00     0.023 C 
ENDROOT
BRANCH   1   2
ATOM      2  C   UNL A   1      34.663  35.326  32.933  1.00  0.00     0.023 C 
BRANCH   2   3
ATOM      3  C   UNL A   1      34.778  34.011  33.699  1.00  0.00     0.116 C 
BRANCH   3   4
ATOM      4  N   UNL A   1      36.127  33.482  33.677  1.00  0.00    -0.356 N 
ATOM      5  O   UNL A   1      36.398  33.401  35.950  1.00  0.00    -0.275 OA
ATOM      6  C   UNL A   1      36.813  33.152  34.822  1.00  0.00     0.221 C 
ATOM      7  H   UNL A   1      36.570  33.355  32.807  1.00  0.00     0.163 HD
BRANCH   6   8
ATOM      8  C   UNL A   1      38.177  32.519  34.599  1.00  0.00     0.118 C 
BRANCH   8   9
ATOM      9  C   UNL A   1      38.216  30.993  34.644  1.00  0.00     0.120 C 
ATOM     10  C   UNL A   1      37.790  30.340  33.315  1.00  0.00     0.232 C 
ATOM     11  C   UNL A   1      39.597  30.413  34.842  1.00  0.00    -0.011 A 
ATOM     12  O   UNL A   1      36.722  30.473  32.742  1.00  0.00    -0.274 OA
ATOM     13  N   UNL A   1      38.849  29.555  32.874  1.00  0.00    -0.325 N 
ATOM     14  C   UNL A   1      39.911  29.587  33.763  1.00  0.00     0.045 A 
ATOM     15  C   UNL A   1      40.499  30.596  35.875  1.00  0.00     0.007 A 
ATOM     16  H   UNL A   1      38.845  29.039  32.036  1.00  0.00     0.169 HD
ATOM     17  C   UNL A   1      41.123  28.944  33.649  1.00  0.00     0.026 A 
ATOM     18  C   UNL A   1      41.736  29.949  35.785  1.00  0.00     0.000 A 
ATOM     19  C   UNL A   1      42.048  29.136  34.678  1.00  0.00     0.002 A 
ENDBRANCH   8   9
ENDBRANCH   6   8
ENDBRANCH   3   4
ENDBRANCH   2   3
ENDBRANCH   1   2
BRANCH   1  20
ATOM     20  C   UNL A   1      33.422  36.250  30.862  1.00  0.00     0.116 C 
BRANCH  20  21
ATOM     21  N   UNL A   1      32.716  35.545  29.804  1.00  0.00    -0.352 N 
ATOM     22  C   UNL A   1      33.144  34.527  28.987  1.00  0.00     0.251 C 
ATOM     23  H   UNL A   1      31.790  35.842  29.650  1.00  0.00     0.163 HD
ATOM     24  O   UNL A   1      32.449  34.167  28.041  1.00  0.00    -0.269 OA
BRANCH  22  25
ATOM     25  C   UNL A   1      34.453  33.874  29.220  1.00  0.00     0.039 A 
ATOM     26  C   UNL A   1      35.569  34.335  28.516  1.00  0.00     0.014 A 
ATOM     27  C   UNL A   1      34.585  32.808  30.113  1.00  0.00     0.014 A 
ATOM     28  C   UNL A   1      36.826  33.776  28.760  1.00  0.00     0.010 A 
ATOM     29  C   UNL A   1      35.849  32.304  30.412  1.00  0.00     0.010 A 
ATOM     30  C   UNL A   1      36.985  32.784  29.741  1.00  0.00    -0.014 A 
BRANCH  30  31
ATOM     31  C   UNL A   1      38.329  32.250  30.087  1.00  0.00     0.031 A 
ATOM     32  C   UNL A   1      38.781  30.917  29.556  1.00  0.00     0.074 A 
ATOM     33  C   UNL A   1      39.122  32.939  30.931  1.00  0.00     0.049 A 
ATOM     34  N   UNL A   1      39.887  30.260  29.805  1.00  0.00    -0.248 NA
ATOM     35  C   UNL A   1      37.859  30.219  28.648  1.00  0.00     0.031 C 
ATOM     36  C   UNL A   1      38.787  34.224  31.550  1.00  0.00     0.029 A 
ATOM     37  N   UNL A   1      40.371  32.651  31.424  1.00  0.00    -0.354 N 
ATOM     38  C   UNL A   1      39.789  29.072  29.091  1.00  0.00     0.074 A 
ATOM     39  C   UNL A   1      38.491  29.071  28.450  1.00  0.00     0.031 C 
ATOM     40  C   UNL A   1      39.811  34.621  32.320  1.00  0.00     0.029 A 
ATOM     41  C   UNL A   1      40.857  33.603  32.287  1.00  0.00     0.049 A 
ATOM     42  H   UNL A   1      40.871  31.838  31.182  1.00  0.00     0.167 HD
ATOM     43  C   UNL A   1      40.705  28.083  28.960  1.00  0.00     0.037 A 
ATOM     44  C   UNL A   1      42.008  33.649  32.984  1.00  0.00     0.037 A 
ATOM     45  C   UNL A   1      42.002  28.089  29.589  1.00  0.00     0.049 A 
ATOM     46  C   UNL A   1      42.998  32.525  32.844  1.00  0.00     0.074 A 
ATOM     47  C   UNL A   1      43.017  27.155  29.479  1.00  0.00     0.029 A 
ATOM     48  N   UNL A   1      42.459  29.076  30.450  1.00  0.00    -0.354 N 
ATOM     49  N   UNL A   1      42.919  31.437  32.117  1.00  0.00    -0.248 NA
ATOM     50  C   UNL A   1      44.243  32.638  33.619  1.00  0.00     0.031 C 
ATOM     51  C   UNL A   1      44.066  27.548  30.317  1.00  0.00     0.029 A 
ATOM     52  C   UNL A   1      43.731  28.759  30.901  1.00  0.00     0.049 A 
ATOM     53  H   UNL A   1      41.954  29.882  30.703  1.00  0.00     0.167 HD
ATOM     54  C   UNL A   1      44.110  30.753  32.321  1.00  0.00     0.074 A 
ATOM     55  C   UNL A   1      44.902  31.556  33.229  1.00  0.00     0.031 C 
ATOM     56  C   UNL A   1      44.512  29.567  31.802  1.00  0.00     0.037 A 
BRANCH  43  57
ATOM     57  C   UNL A   1      40.334  26.904  28.104  1.00  0.00     0.057 A 
ATOM     58  C   UNL A   1      40.825  26.752  26.799  1.00  0.00     0.134 A 
ATOM     59  C   UNL A   1      39.503  25.892  28.600  1.00  0.00     0.134 A 
ATOM     60  F   UNL A   1      41.619  27.690  26.259  1.00  0.00    -0.206 F 
ATOM     61  C   UNL A   1      40.477  25.656  26.009  1.00  0.00     0.040 A 
ATOM     62  C   UNL A   1      39.174  24.774  27.830  1.00  0.00     0.040 A 
ATOM     63  F   UNL A   1      39.004  25.966  29.842  1.00  0.00    -0.206 F 
ATOM     64  C   UNL A   1      39.655  24.658  26.528  1.00  0.00     0.006 A 
ENDBRANCH  43  57
BRANCH  44  65
ATOM     65  C   UNL A   1      42.294  34.806  33.871  1.00  0.00     0.057 A 
ATOM     66  C   UNL A   1      42.950  35.944  33.388  1.00  0.00     0.134 A 
ATOM     67  C   UNL A   1      41.929  34.800  35.223  1.00  0.00     0.134 A 
ATOM     68  F   UNL A   1      43.343  36.004  32.105  1.00  0.00    -0.206 F 
ATOM     69  C   UNL A   1      43.250  37.025  34.219  1.00  0.00     0.040 A 
ATOM     70  C   UNL A   1      42.197  35.884  36.058  1.00  0.00     0.040 A 
ATOM     71  F   UNL A   1      41.291  33.743  35.747  1.00  0.00    -0.206 F 
ATOM     72  C   UNL A   1      42.868  36.998  35.558  1.00  0.00     0.006 A 
ENDBRANCH  44  65
BRANCH  56  73
ATOM     73  C   UNL A   1      45.885  29.082  32.172  1.00  0.00     0.057 A 
ATOM     74  C   UNL A   1      47.019  29.411  31.420  1.00  0.00     0.134 A 
ATOM     75  C   UNL A   1      46.078  28.305  33.323  1.00  0.00     0.134 A 
ATOM     76  F   UNL A   1      46.904  30.141  30.300  1.00  0.00    -0.206 F 
ATOM     77  C   UNL A   1      48.291  28.963  31.782  1.00  0.00     0.040 A 
ATOM     78  C   UNL A   1      47.348  27.878  33.713  1.00  0.00     0.040 A 
ATOM     79  F   UNL A   1      45.035  27.961  34.096  1.00  0.00    -0.206 F 
ATOM     80  C   UNL A   1      48.458  28.201  32.938  1.00  0.00     0.006 A 
ENDBRANCH  56  73
ENDBRANCH  30  31
ENDBRANCH  22  25
ENDBRANCH  20  21
ENDBRANCH   1  20
TORSDOF 12
ENDMDL
MODEL 2
REMARK VINA RESULT:      -8.8      5.104     10.577
REMARK SMILES O=C(C[C@H]1C(=O)Nc2ccccc21)NCCCCNC(=O)c1ccc(-c2c3nc(c(-c4c(F)cccc4F)c4ccc([nH]4)c(-c4c(F)cccc4F)c4nc(c(-c5c(F)cccc5F)c5ccc2[nH]5)C=C4)C=C3)cc1
REMARK SMILES IDX 17 1 16 2 15 3 14 4 1 5 2 6 3 8 4 9 5 10 13 11 6 12 7 13
REMARK SMILES IDX 8 14 12 15 9 17 11 18 10 19 18 20 19 21 20 22 21 24 22 25
REMARK SMILES IDX 23 26 75 27 24 28 74 29 25 30 26 31 27 32 68 33 28 34 73 35
REMARK SMILES IDX 67 36 69 37 29 38 72 39 66 40 65 41 30 43 56 44 39 45 55 46
REMARK SMILES IDX 40 47 43 48 54 49 70 50 41 51 42 52 53 54 71 55 44 56 31 57
REMARK SMILES IDX 32 58 37 59 33 60 34 61 36 62 38 63 35 64 57 65 58 66 63 67
REMARK SMILES IDX 59 68 60 69 62 70 64 71 61 72 45 73 46 74 51 75 47 76 48 77
REMARK SMILES IDX 50 78 52 79 49 80
REMARK H PARENT 14 7 7 16 19 23 69 42 43 53
REMARK Flexibility Score: inf
ROOT
ATOM      1  C   UNL A   1      37.790  19.795  24.898  1.00  0.00     0.023 C 
ENDROOT
BRANCH   1   2
ATOM      2  C   UNL A   1      36.537  20.666  25.031  1.00  0.00     0.023 C 
BRANCH   2   3
ATOM      3  C   UNL A   1      36.778  22.067  25.588  1.00  0.00     0.116 C 
BRANCH   3   4
ATOM      4  N   UNL A   1      35.595  22.615  26.219  1.00  0.00    -0.356 N 
ATOM      5  O   UNL A   1      35.260  24.295  24.699  1.00  0.00    -0.275 OA
ATOM      6  C   UNL A   1      34.882  23.659  25.679  1.00  0.00     0.221 C 
ATOM      7  H   UNL A   1      35.290  22.225  27.071  1.00  0.00     0.163 HD
BRANCH   6   8
ATOM      8  C   UNL A   1      33.614  24.033  26.429  1.00  0.00     0.118 C 
BRANCH   8   9
ATOM      9  C   UNL A   1      32.694  25.029  25.724  1.00  0.00     0.120 C 
ATOM     10  C   UNL A   1      31.200  24.753  25.979  1.00  0.00     0.232 C 
ATOM     11  C   UNL A   1      32.831  26.452  26.210  1.00  0.00    -0.011 A 
ATOM     12  O   UNL A   1      30.588  23.731  25.719  1.00  0.00    -0.274 OA
ATOM     13  N   UNL A   1      30.657  25.892  26.563  1.00  0.00    -0.325 N 
ATOM     14  C   UNL A   1      31.603  26.894  26.699  1.00  0.00     0.045 A 
ATOM     15  C   UNL A   1      33.936  27.286  26.224  1.00  0.00     0.007 A 
ATOM     16  H   UNL A   1      29.718  25.975  26.845  1.00  0.00     0.169 HD
ATOM     17  C   UNL A   1      31.428  28.148  27.242  1.00  0.00     0.026 A 
ATOM     18  C   UNL A   1      33.782  28.565  26.766  1.00  0.00     0.000 A 
ATOM     19  C   UNL A   1      32.542  28.990  27.277  1.00  0.00     0.002 A 
ENDBRANCH   8   9
ENDBRANCH   6   8
ENDBRANCH   3   4
ENDBRANCH   2   3
ENDBRANCH   1   2
BRANCH   1  20
ATOM     20  C   UNL A   1      38.981  20.226  25.749  1.00  0.00     0.116 C 
BRANCH  20  21
ATOM     21  N   UNL A   1      40.014  19.206  25.828  1.00  0.00    -0.352 N 
ATOM     22  C   UNL A   1      41.353  19.328  26.114  1.00  0.00     0.251 C 
ATOM     23  H   UNL A   1      39.708  18.287  25.650  1.00  0.00     0.163 HD
ATOM     24  O   UNL A   1      42.099  18.363  25.975  1.00  0.00    -0.269 OA
BRANCH  22  25
ATOM     25  C   UNL A   1      41.911  20.625  26.561  1.00  0.00     0.039 A 
ATOM     26  C   UNL A   1      42.352  21.536  25.597  1.00  0.00     0.014 A 
ATOM     27  C   UNL A   1      42.016  20.941  27.918  1.00  0.00     0.014 A 
ATOM     28  C   UNL A   1      42.829  22.789  25.991  1.00  0.00     0.010 A 
ATOM     29  C   UNL A   1      42.419  22.218  28.305  1.00  0.00     0.010 A 
ATOM     30  C   UNL A   1      42.827  23.158  27.346  1.00  0.00    -0.014 A 
BRANCH  30  31
ATOM     31  C   UNL A   1      43.234  24.522  27.773  1.00  0.00     0.031 A 
ATOM     32  C   UNL A   1      42.197  25.569  28.077  1.00  0.00     0.074 A 
ATOM     33  C   UNL A   1      44.543  24.840  27.831  1.00  0.00     0.049 A 
ATOM     34  N   UNL A   1      42.362  26.829  28.394  1.00  0.00    -0.248 NA
ATOM     35  C   UNL A   1      40.790  25.152  27.985  1.00  0.00     0.031 C 
ATOM     36  C   UNL A   1      45.649  23.931  27.521  1.00  0.00     0.029 A 
ATOM     37  N   UNL A   1      45.166  26.019  28.158  1.00  0.00    -0.354 N 
ATOM     38  C   UNL A   1      41.083  27.355  28.533  1.00  0.00     0.074 A 
ATOM     39  C   UNL A   1      40.155  26.294  28.204  1.00  0.00     0.031 C 
ATOM     40  C   UNL A   1      46.812  24.578  27.695  1.00  0.00     0.029 A 
ATOM     41  C   UNL A   1      46.537  25.958  28.084  1.00  0.00     0.049 A 
ATOM     42  H   UNL A   1      44.677  26.831  28.421  1.00  0.00     0.167 HD
ATOM     43  C   UNL A   1      40.715  28.598  28.922  1.00  0.00     0.037 A 
ATOM     44  C   UNL A   1      47.469  26.907  28.294  1.00  0.00     0.037 A 
ATOM     45  C   UNL A   1      41.640  29.650  29.260  1.00  0.00     0.049 A 
ATOM     46  C   UNL A   1      47.035  28.289  28.698  1.00  0.00     0.074 A 
ATOM     47  C   UNL A   1      41.363  30.929  29.711  1.00  0.00     0.029 A 
ATOM     48  N   UNL A   1      43.021  29.546  29.179  1.00  0.00    -0.354 N 
ATOM     49  N   UNL A   1      45.823  28.754  28.885  1.00  0.00    -0.248 NA
ATOM     50  C   UNL A   1      48.098  29.278  28.926  1.00  0.00     0.031 C 
ATOM     51  C   UNL A   1      42.574  31.617  29.849  1.00  0.00     0.029 A 
ATOM     52  C   UNL A   1      43.608  30.747  29.545  1.00  0.00     0.049 A 
ATOM     53  H   UNL A   1      43.511  28.738  28.904  1.00  0.00     0.167 HD
ATOM     54  C   UNL A   1      45.979  30.076  29.281  1.00  0.00     0.074 A 
ATOM     55  C   UNL A   1      47.403  30.335  29.322  1.00  0.00     0.031 C 
ATOM     56  C   UNL A   1      45.027  30.993  29.586  1.00  0.00     0.037 A 
BRANCH  43  57
ATOM     57  C   UNL A   1      39.243  28.892  29.000  1.00  0.00     0.057 A 
ATOM     58  C   UNL A   1      38.519  28.739  30.191  1.00  0.00     0.134 A 
ATOM     59  C   UNL A   1      38.546  29.364  27.880  1.00  0.00     0.134 A 
ATOM     60  F   UNL A   1      39.122  28.282  31.299  1.00  0.00    -0.206 F 
ATOM     61  C   UNL A   1      37.151  29.013  30.256  1.00  0.00     0.040 A 
ATOM     62  C   UNL A   1      37.186  29.672  27.942  1.00  0.00     0.040 A 
ATOM     63  F   UNL A   1      39.177  29.542  26.710  1.00  0.00    -0.206 F 
ATOM     64  C   UNL A   1      36.483  29.489  29.130  1.00  0.00     0.006 A 
ENDBRANCH  43  57
BRANCH  44  65
ATOM     65  C   UNL A   1      48.910  26.581  28.136  1.00  0.00     0.057 A 
ATOM     66  C   UNL A   1      49.563  26.759  26.911  1.00  0.00     0.134 A 
ATOM     67  C   UNL A   1      49.666  26.073  29.200  1.00  0.00     0.134 A 
ATOM     68  F   UNL A   1      48.888  27.224  25.847  1.00  0.00    -0.206 F 
ATOM     69  C   UNL A   1      50.908  26.428  26.743  1.00  0.00     0.040 A 
ATOM     70  C   UNL A   1      51.019  25.766  29.054  1.00  0.00     0.040 A 
ATOM     71  F   UNL A   1      49.103  25.886  30.402  1.00  0.00    -0.206 F 
ATOM     72  C   UNL A   1      51.641  25.935  27.819  1.00  0.00     0.006 A 
ENDBRANCH  44  65
BRANCH  56  73
ATOM     73  C   UNL A   1      45.494  32.352  30.026  1.00  0.00     0.057 A 
ATOM     74  C   UNL A   1      45.671  33.407  29.123  1.00  0.00     0.134 A 
ATOM     75  C   UNL A   1      45.734  32.616  31.382  1.00  0.00     0.134 A 
ATOM     76  F   UNL A   1      45.471  33.219  27.810  1.00  0.00    -0.206 F 
ATOM     77  C   UNL A   1      46.093  34.668  29.547  1.00  0.00     0.040 A 
ATOM     78  C   UNL A   1      46.126  33.881  31.822  1.00  0.00     0.040 A 
ATOM     79  F   UNL A   1      45.575  31.652  32.303  1.00  0.00    -0.206 F 
ATOM     80  C   UNL A   1      46.314  34.909  30.902  1.00  0.00     0.006 A 
ENDBRANCH  56  73
ENDBRANCH  30  31
ENDBRANCH  22  25
ENDBRANCH  20  21
ENDBRANCH   1  20
TORSDOF 12
ENDMDL
MODEL 3
REMARK VINA RESULT:      -8.8      4.986     10.444
REMARK SMILES O=C(C[C@H]1C(=O)Nc2ccccc21)NCCCCNC(=O)c1ccc(-c2c3nc(c(-c4c(F)cccc4F)c4ccc([nH]4)c(-c4c(F)cccc4F)c4nc(c(-c5c(F)cccc5F)c5ccc2[nH]5)C=C4)C=C3)cc1
REMARK SMILES IDX 17 1 16 2 15 3 14 4 1 5 2 6 3 8 4 9 5 10 13 11 6 12 7 13
REMARK SMILES IDX 8 14 12 15 9 17 11 18 10 19 18 20 19 21 20 22 21 24 22 25
REMARK SMILES IDX 23 26 75 27 24 28 74 29 25 30 26 31 27 32 68 33 28 34 73 35
REMARK SMILES IDX 67 36 69 37 29 38 72 39 66 40 65 41 30 43 56 44 39 45 55 46
REMARK SMILES IDX 40 47 43 48 54 49 70 50 41 51 42 52 53 54 71 55 44 56 31 57
REMARK SMILES IDX 32 58 37 59 33 60 34 61 36 62 38 63 35 64 57 65 58 66 63 67
REMARK SMILES IDX 59 68 60 69 62 70 64 71 61 72 45 73 46 74 51 75 47 76 48 77
REMARK SMILES IDX 50 78 52 79 49 80
REMARK H PARENT 14 7 7 16 19 23 69 42 43 53
REMARK Flexibility Score: inf
ROOT
ATOM      1  C   UNL A   1      37.855  19.699  24.999  1.00  0.00     0.023 C 
ENDROOT
BRANCH   1   2
ATOM      2  C   UNL A   1      36.612  20.594  24.999  1.00  0.00     0.023 C 
BRANCH   2   3
ATOM      3  C   UNL A   1      36.853  22.036  25.437  1.00  0.00     0.116 C 
BRANCH   3   4
ATOM      4  N   UNL A   1      35.697  22.606  26.099  1.00  0.00    -0.356 N 
ATOM      5  O   UNL A   1      35.168  24.092  24.439  1.00  0.00    -0.275 OA
ATOM      6  C   UNL A   1      34.897  23.555  25.509  1.00  0.00     0.221 C 
ATOM      7  H   UNL A   1      35.477  22.302  27.010  1.00  0.00     0.163 HD
BRANCH   6   8
ATOM      8  C   UNL A   1      33.675  23.963  26.315  1.00  0.00     0.118 C 
BRANCH   8   9
ATOM      9  C   UNL A   1      32.722  24.941  25.629  1.00  0.00     0.120 C 
ATOM     10  C   UNL A   1      31.238  24.628  25.903  1.00  0.00     0.232 C 
ATOM     11  C   UNL A   1      32.832  26.364  26.123  1.00  0.00    -0.011 A 
ATOM     12  O   UNL A   1      30.647  23.594  25.645  1.00  0.00    -0.274 OA
ATOM     13  N   UNL A   1      30.677  25.750  26.502  1.00  0.00    -0.325 N 
ATOM     14  C   UNL A   1      31.600  26.773  26.632  1.00  0.00     0.045 A 
ATOM     15  C   UNL A   1      33.917  27.223  26.128  1.00  0.00     0.007 A 
ATOM     16  H   UNL A   1      29.739  25.809  26.797  1.00  0.00     0.169 HD
ATOM     17  C   UNL A   1      31.403  28.019  27.187  1.00  0.00     0.026 A 
ATOM     18  C   UNL A   1      33.741  28.495  26.681  1.00  0.00     0.000 A 
ATOM     19  C   UNL A   1      32.497  28.887  27.212  1.00  0.00     0.002 A 
ENDBRANCH   8   9
ENDBRANCH   6   8
ENDBRANCH   3   4
ENDBRANCH   2   3
ENDBRANCH   1   2
BRANCH   1  20
ATOM     20  C   UNL A   1      39.015  20.187  25.862  1.00  0.00     0.116 C 
BRANCH  20  21
ATOM     21  N   UNL A   1      40.131  19.256  25.885  1.00  0.00    -0.352 N 
ATOM     22  C   UNL A   1      41.465  19.485  26.121  1.00  0.00     0.251 C 
ATOM     23  H   UNL A   1      39.895  18.317  25.703  1.00  0.00     0.163 HD
ATOM     24  O   UNL A   1      42.282  18.587  25.939  1.00  0.00    -0.269 OA
BRANCH  22  25
ATOM     25  C   UNL A   1      41.931  20.817  26.570  1.00  0.00     0.039 A 
ATOM     26  C   UNL A   1      42.328  21.749  25.607  1.00  0.00     0.014 A 
ATOM     27  C   UNL A   1      41.994  21.147  27.926  1.00  0.00     0.014 A 
ATOM     28  C   UNL A   1      42.717  23.033  25.999  1.00  0.00     0.010 A 
ATOM     29  C   UNL A   1      42.308  22.449  28.311  1.00  0.00     0.010 A 
ATOM     30  C   UNL A   1      42.670  23.408  27.352  1.00  0.00    -0.014 A 
BRANCH  30  31
ATOM     31  C   UNL A   1      42.982  24.798  27.777  1.00  0.00     0.031 A 
ATOM     32  C   UNL A   1      44.406  25.229  27.996  1.00  0.00     0.074 A 
ATOM     33  C   UNL A   1      41.976  25.660  28.026  1.00  0.00     0.049 A 
ATOM     34  N   UNL A   1      44.866  26.375  28.433  1.00  0.00    -0.248 NA
ATOM     35  C   UNL A   1      45.450  24.232  27.713  1.00  0.00     0.031 C 
ATOM     36  C   UNL A   1      40.549  25.357  27.894  1.00  0.00     0.029 A 
ATOM     37  N   UNL A   1      41.998  26.964  28.454  1.00  0.00    -0.354 N 
ATOM     38  C   UNL A   1      46.248  26.234  28.483  1.00  0.00     0.074 A 
ATOM     39  C   UNL A   1      46.546  24.873  28.091  1.00  0.00     0.031 C 
ATOM     40  C   UNL A   1      39.836  26.449  28.211  1.00  0.00     0.029 A 
ATOM     41  C   UNL A   1      40.749  27.515  28.613  1.00  0.00     0.049 A 
ATOM     42  H   UNL A   1      42.831  27.459  28.631  1.00  0.00     0.167 HD
ATOM     43  C   UNL A   1      47.184  27.160  28.800  1.00  0.00     0.037 A 
ATOM     44  C   UNL A   1      40.377  28.735  29.043  1.00  0.00     0.037 A 
ATOM     45  C   UNL A   1      46.886  28.518  29.179  1.00  0.00     0.049 A 
ATOM     46  C   UNL A   1      41.434  29.738  29.418  1.00  0.00     0.074 A 
ATOM     47  C   UNL A   1      47.768  29.543  29.474  1.00  0.00     0.029 A 
ATOM     48  N   UNL A   1      45.608  29.038  29.321  1.00  0.00    -0.354 N 
ATOM     49  N   UNL A   1      42.739  29.610  29.400  1.00  0.00    -0.248 NA
ATOM     50  C   UNL A   1      40.967  31.057  29.866  1.00  0.00     0.031 C 
ATOM     51  C   UNL A   1      47.024  30.667  29.848  1.00  0.00     0.029 A 
ATOM     52  C   UNL A   1      45.678  30.362  29.726  1.00  0.00     0.049 A 
ATOM     53  H   UNL A   1      44.775  28.541  29.157  1.00  0.00     0.167 HD
ATOM     54  C   UNL A   1      43.248  30.837  29.805  1.00  0.00     0.074 A 
ATOM     55  C   UNL A   1      42.112  31.701  30.047  1.00  0.00     0.031 C 
ATOM     56  C   UNL A   1      44.541  31.215  29.960  1.00  0.00     0.037 A 
BRANCH  43  57
ATOM     57  C   UNL A   1      48.624  26.732  28.757  1.00  0.00     0.057 A 
ATOM     58  C   UNL A   1      49.414  26.908  27.612  1.00  0.00     0.134 A 
ATOM     59  C   UNL A   1      49.238  26.166  29.881  1.00  0.00     0.134 A 
ATOM     60  F   UNL A   1      48.887  27.434  26.496  1.00  0.00    -0.206 F 
ATOM     61  C   UNL A   1      50.751  26.507  27.577  1.00  0.00     0.040 A 
ATOM     62  C   UNL A   1      50.584  25.792  29.869  1.00  0.00     0.040 A 
ATOM     63  F   UNL A   1      48.545  25.976  31.014  1.00  0.00    -0.206 F 
ATOM     64  C   UNL A   1      51.342  25.955  28.712  1.00  0.00     0.006 A 
ENDBRANCH  43  57
BRANCH  44  65
ATOM     65  C   UNL A   1      38.935  29.084  29.134  1.00  0.00     0.057 A 
ATOM     66  C   UNL A   1      38.232  29.552  28.018  1.00  0.00     0.134 A 
ATOM     67  C   UNL A   1      38.229  28.967  30.337  1.00  0.00     0.134 A 
ATOM     68  F   UNL A   1      38.857  29.705  26.840  1.00  0.00    -0.206 F 
ATOM     69  C   UNL A   1      36.885  29.910  28.099  1.00  0.00     0.040 A 
ATOM     70  C   UNL A   1      36.876  29.293  30.426  1.00  0.00     0.040 A 
ATOM     71  F   UNL A   1      38.842  28.516  31.441  1.00  0.00    -0.206 F 
ATOM     72  C   UNL A   1      36.202  29.776  29.306  1.00  0.00     0.006 A 
ENDBRANCH  44  65
BRANCH  56  73
ATOM     73  C   UNL A   1      44.799  32.635  30.377  1.00  0.00     0.057 A 
ATOM     74  C   UNL A   1      44.945  33.002  31.721  1.00  0.00     0.134 A 
ATOM     75  C   UNL A   1      44.943  33.644  29.414  1.00  0.00     0.134 A 
ATOM     76  F   UNL A   1      44.808  32.088  32.694  1.00  0.00    -0.206 F 
ATOM     77  C   UNL A   1      45.197  34.323  32.094  1.00  0.00     0.040 A 
ATOM     78  C   UNL A   1      45.225  34.962  29.773  1.00  0.00     0.040 A 
ATOM     79  F   UNL A   1      44.824  33.361  28.107  1.00  0.00    -0.206 F 
ATOM     80  C   UNL A   1      45.347  35.306  31.117  1.00  0.00     0.006 A 
ENDBRANCH  56  73
ENDBRANCH  30  31
ENDBRANCH  22  25
ENDBRANCH  20  21
ENDBRANCH   1  20
TORSDOF 12
ENDMDL
