MODEL 1
REMARK VINA RESULT:     -11.5      0.000      0.000
REMARK SMILES CC[NH2+][C@@]1(C(=O)NCCCCNC(=O)c2ccc(-c3c4nc(c(-c5c(F)cccc5F)c5ccc([nH]5)c(-c5c(F)cccc5F)c5nc(c(-c6c(F)cccc6F)c6ccc3[nH]6)C=C5)C=C4)cc2)CC[C@@H]([NH+]2CCC(C)(CC)CC2)C1
REMARK SMILES IDX 9 1 8 2 7 3 5 4 6 5 4 7 69 8 81 9 70 10 71 11 3 12 2 15 1 16
REMARK SMILES IDX 72 17 73 18 80 19 74 21 79 22 75 23 76 24 77 25 78 26 10 27
REMARK SMILES IDX 11 28 12 29 13 30 14 32 15 33 16 34 68 35 17 36 67 37 18 38
REMARK SMILES IDX 19 39 20 40 61 41 21 42 66 43 60 44 62 45 22 46 65 47 59 48
REMARK SMILES IDX 58 49 23 51 49 52 32 53 48 54 33 55 36 56 47 57 63 58 34 59
REMARK SMILES IDX 35 60 46 62 64 63 37 64 24 65 25 66 30 67 26 68 27 69 29 70
REMARK SMILES IDX 31 71 28 72 50 73 51 74 56 75 52 76 53 77 55 78 57 79 54 80
REMARK SMILES IDX 38 81 39 82 44 83 40 84 41 85 43 86 45 87 42 88
REMARK H PARENT 7 6 3 13 3 14 72 20 12 31 62 50 36 61
REMARK Flexibility Score: inf
ROOT
ATOM      1  C   UNL A   1      37.128  21.948  24.448  1.00  0.00     0.023 C 
ENDROOT
BRANCH   1   2
ATOM      2  C   UNL A   1      36.862  23.022  25.502  1.00  0.00     0.116 C 
BRANCH   2   3
ATOM      3  N   UNL A   1      35.948  22.574  26.526  1.00  0.00    -0.351 N 
ATOM      4  C   UNL A   1      34.606  22.718  26.680  1.00  0.00     0.281 C 
ATOM      5  O   UNL A   1      34.124  22.117  27.652  1.00  0.00    -0.268 OA
ATOM      6  H   UNL A   1      36.380  22.068  27.252  1.00  0.00     0.163 HD
BRANCH   4   7
ATOM      7  C   UNL A   1      33.666  23.562  25.725  1.00  0.00     0.181 C 
ATOM      8  C   UNL A   1      34.337  24.844  25.203  1.00  0.00     0.085 C 
ATOM      9  C   UNL A   1      32.379  24.019  26.430  1.00  0.00     0.144 C 
ATOM     10  C   UNL A   1      33.582  26.055  25.747  1.00  0.00     0.072 C 
ATOM     11  C   UNL A   1      32.409  25.544  26.591  1.00  0.00     0.191 C 
BRANCH   7  12
ATOM     12  N   UNL A   1      33.485  22.713  24.494  1.00  0.00    -0.334 N 
ATOM     13  H   UNL A   1      34.398  22.618  24.050  1.00  0.00     0.347 HD
ATOM     14  H   UNL A   1      33.071  21.845  24.835  1.00  0.00     0.347 HD
BRANCH  12  15
ATOM     15  C   UNL A   1      32.555  23.190  23.478  1.00  0.00     0.257 C 
ATOM     16  C   UNL A   1      33.225  23.256  22.113  1.00  0.00     0.071 C 
ENDBRANCH  12  15
ENDBRANCH   7  12
BRANCH  11  17
ATOM     17  N   UNL A   1      31.163  26.317  26.458  1.00  0.00    -0.332 N 
ATOM     18  C   UNL A   1      30.058  25.643  25.776  1.00  0.00     0.263 C 
ATOM     19  C   UNL A   1      31.250  27.702  26.008  1.00  0.00     0.263 C 
ATOM     20  H   UNL A   1      30.945  26.369  27.452  1.00  0.00     0.348 HD
ATOM     21  C   UNL A   1      30.103  25.688  24.245  1.00  0.00     0.068 C 
ATOM     22  C   UNL A   1      31.470  27.876  24.508  1.00  0.00     0.068 C 
ATOM     23  C   UNL A   1      30.531  27.040  23.600  1.00  0.00    -0.022 C 
ATOM     24  C   UNL A   1      31.282  26.702  22.281  1.00  0.00     0.012 C 
BRANCH  23  25
ATOM     25  C   UNL A   1      29.305  27.887  23.150  1.00  0.00     0.004 C 
ATOM     26  C   UNL A   1      29.485  29.393  23.096  1.00  0.00     0.004 C 
ENDBRANCH  23  25
ENDBRANCH  11  17
ENDBRANCH   4   7
ENDBRANCH   2   3
ENDBRANCH   1   2
BRANCH   1  27
ATOM     27  C   UNL A   1      37.734  20.654  24.986  1.00  0.00     0.023 C 
BRANCH  27  28
ATOM     28  C   UNL A   1      39.053  20.824  25.728  1.00  0.00     0.116 C 
BRANCH  28  29
ATOM     29  N   UNL A   1      39.940  19.670  25.662  1.00  0.00    -0.352 N 
ATOM     30  C   UNL A   1      41.267  19.628  26.025  1.00  0.00     0.251 C 
ATOM     31  H   UNL A   1      39.549  18.833  25.321  1.00  0.00     0.163 HD
ATOM     32  O   UNL A   1      41.944  18.618  25.866  1.00  0.00    -0.269 OA
BRANCH  30  33
ATOM     33  C   UNL A   1      41.871  20.862  26.559  1.00  0.00     0.039 A 
ATOM     34  C   UNL A   1      42.334  21.828  25.665  1.00  0.00     0.014 A 
ATOM     35  C   UNL A   1      41.835  21.112  27.933  1.00  0.00     0.014 A 
ATOM     36  C   UNL A   1      42.681  23.090  26.147  1.00  0.00     0.010 A 
ATOM     37  C   UNL A   1      42.098  22.393  28.397  1.00  0.00     0.010 A 
ATOM     38  C   UNL A   1      42.517  23.395  27.509  1.00  0.00    -0.014 A 
BRANCH  38  39
ATOM     39  C   UNL A   1      42.778  24.759  28.030  1.00  0.00     0.031 A 
ATOM     40  C   UNL A   1      44.172  25.150  28.429  1.00  0.00     0.074 A 
ATOM     41  C   UNL A   1      41.753  25.613  28.218  1.00  0.00     0.049 A 
ATOM     42  N   UNL A   1      44.595  26.261  28.977  1.00  0.00    -0.248 NA
ATOM     43  C   UNL A   1      45.225  24.144  28.218  1.00  0.00     0.031 C 
ATOM     44  C   UNL A   1      40.346  25.330  27.927  1.00  0.00     0.029 A 
ATOM     45  N   UNL A   1      41.737  26.895  28.707  1.00  0.00    -0.354 N 
ATOM     46  C   UNL A   1      45.954  26.077  29.192  1.00  0.00     0.074 A 
ATOM     47  C   UNL A   1      46.273  24.730  28.775  1.00  0.00     0.031 C 
ATOM     48  C   UNL A   1      39.609  26.417  28.213  1.00  0.00     0.029 A 
ATOM     49  C   UNL A   1      40.485  27.460  28.737  1.00  0.00     0.049 A 
ATOM     50  H   UNL A   1      42.548  27.365  29.010  1.00  0.00     0.167 HD
ATOM     51  C   UNL A   1      46.862  26.962  29.667  1.00  0.00     0.037 A 
ATOM     52  C   UNL A   1      40.092  28.683  29.139  1.00  0.00     0.037 A 
ATOM     53  C   UNL A   1      46.550  28.313  30.044  1.00  0.00     0.049 A 
ATOM     54  C   UNL A   1      41.122  29.654  29.648  1.00  0.00     0.074 A 
ATOM     55  C   UNL A   1      47.408  29.310  30.473  1.00  0.00     0.029 A 
ATOM     56  N   UNL A   1      45.274  28.858  30.033  1.00  0.00    -0.354 N 
ATOM     57  N   UNL A   1      42.416  29.492  29.780  1.00  0.00    -0.248 NA
ATOM     58  C   UNL A   1      40.636  30.979  30.058  1.00  0.00     0.031 C 
ATOM     59  C   UNL A   1      46.646  30.450  30.752  1.00  0.00     0.029 A 
ATOM     60  C   UNL A   1      45.319  30.173  30.461  1.00  0.00     0.049 A 
ATOM     61  H   UNL A   1      44.458  28.379  29.761  1.00  0.00     0.167 HD
ATOM     62  C   UNL A   1      42.903  30.701  30.259  1.00  0.00     0.074 A 
ATOM     63  C   UNL A   1      41.767  31.589  30.386  1.00  0.00     0.031 C 
ATOM     64  C   UNL A   1      44.177  31.045  30.567  1.00  0.00     0.037 A 
BRANCH  51  65
ATOM     65  C   UNL A   1      48.281  26.488  29.786  1.00  0.00     0.057 A 
ATOM     66  C   UNL A   1      48.748  25.841  30.938  1.00  0.00     0.134 A 
ATOM     67  C   UNL A   1      49.189  26.676  28.737  1.00  0.00     0.134 A 
ATOM     68  F   UNL A   1      47.932  25.646  31.985  1.00  0.00    -0.206 F 
ATOM     69  C   UNL A   1      50.076  25.429  31.057  1.00  0.00     0.040 A 
ATOM     70  C   UNL A   1      50.513  26.243  28.834  1.00  0.00     0.040 A 
ATOM     71  F   UNL A   1      48.808  27.285  27.605  1.00  0.00    -0.206 F 
ATOM     72  C   UNL A   1      50.961  25.626  30.000  1.00  0.00     0.006 A 
ENDBRANCH  51  65
BRANCH  52  73
ATOM     73  C   UNL A   1      38.666  29.079  29.036  1.00  0.00     0.057 A 
ATOM     74  C   UNL A   1      38.139  29.559  27.831  1.00  0.00     0.134 A 
ATOM     75  C   UNL A   1      37.800  29.002  30.133  1.00  0.00     0.134 A 
ATOM     76  F   UNL A   1      38.926  29.672  26.750  1.00  0.00    -0.206 F 
ATOM     77  C   UNL A   1      36.809  29.964  27.723  1.00  0.00     0.040 A 
ATOM     78  C   UNL A   1      36.460  29.384  30.033  1.00  0.00     0.040 A 
ATOM     79  F   UNL A   1      38.241  28.544  31.314  1.00  0.00    -0.206 F 
ATOM     80  C   UNL A   1      35.963  29.874  28.827  1.00  0.00     0.006 A 
ENDBRANCH  52  73
BRANCH  64  81
ATOM     81  C   UNL A   1      44.412  32.450  31.034  1.00  0.00     0.057 A 
ATOM     82  C   UNL A   1      44.658  33.495  30.136  1.00  0.00     0.134 A 
ATOM     83  C   UNL A   1      44.349  32.765  32.397  1.00  0.00     0.134 A 
ATOM     84  F   UNL A   1      44.744  33.254  28.819  1.00  0.00    -0.206 F 
ATOM     85  C   UNL A   1      44.853  34.804  30.580  1.00  0.00     0.040 A 
ATOM     86  C   UNL A   1      44.518  34.074  32.851  1.00  0.00     0.040 A 
ATOM     87  F   UNL A   1      44.109  31.810  33.307  1.00  0.00    -0.206 F 
ATOM     88  C   UNL A   1      44.776  35.097  31.940  1.00  0.00     0.006 A 
ENDBRANCH  64  81
ENDBRANCH  38  39
ENDBRANCH  30  33
ENDBRANCH  28  29
ENDBRANCH  27  28
ENDBRANCH   1  27
TORSDOF 15
ENDMDL
MODEL 2
REMARK VINA RESULT:     -11.5      0.976      6.316
REMARK SMILES CC[NH2+][C@@]1(C(=O)NCCCCNC(=O)c2ccc(-c3c4nc(c(-c5c(F)cccc5F)c5ccc([nH]5)c(-c5c(F)cccc5F)c5nc(c(-c6c(F)cccc6F)c6ccc3[nH]6)C=C5)C=C4)cc2)CC[C@@H]([NH+]2CCC(C)(CC)CC2)C1
REMARK SMILES IDX 9 1 8 2 7 3 5 4 6 5 4 7 69 8 81 9 70 10 71 11 3 12 2 15 1 16
REMARK SMILES IDX 72 17 73 18 80 19 74 21 79 22 75 23 76 24 77 25 78 26 10 27
REMARK SMILES IDX 11 28 12 29 13 30 14 32 15 33 16 34 68 35 17 36 67 37 18 38
REMARK SMILES IDX 19 39 20 40 61 41 21 42 66 43 60 44 62 45 22 46 65 47 59 48
REMARK SMILES IDX 58 49 23 51 49 52 32 53 48 54 33 55 36 56 47 57 63 58 34 59
REMARK SMILES IDX 35 60 46 62 64 63 37 64 24 65 25 66 30 67 26 68 27 69 29 70
REMARK SMILES IDX 31 71 28 72 50 73 51 74 56 75 52 76 53 77 55 78 57 79 54 80
REMARK SMILES IDX 38 81 39 82 44 83 40 84 41 85 43 86 45 87 42 88
REMARK H PARENT 7 6 3 13 3 14 72 20 12 31 62 50 36 61
REMARK Flexibility Score: inf
ROOT
ATOM      1  C   UNL A   1      37.019  22.527  24.532  1.00  0.00     0.023 C 
ENDROOT
BRANCH   1   2
ATOM      2  C   UNL A   1      36.379  23.366  25.636  1.00  0.00     0.116 C 
BRANCH   2   3
ATOM      3  N   UNL A   1      35.662  22.559  26.596  1.00  0.00    -0.351 N 
ATOM      4  C   UNL A   1      34.350  22.230  26.713  1.00  0.00     0.281 C 
ATOM      5  O   UNL A   1      34.092  21.428  27.625  1.00  0.00    -0.268 OA
ATOM      6  H   UNL A   1      36.234  22.176  27.300  1.00  0.00     0.163 HD
BRANCH   4   7
ATOM      7  C   UNL A   1      33.188  22.775  25.787  1.00  0.00     0.181 C 
ATOM      8  C   UNL A   1      33.354  22.367  24.313  1.00  0.00     0.085 C 
ATOM      9  C   UNL A   1      33.112  24.310  25.791  1.00  0.00     0.144 C 
ATOM     10  C   UNL A   1      33.572  23.624  23.473  1.00  0.00     0.072 C 
ATOM     11  C   UNL A   1      33.511  24.837  24.408  1.00  0.00     0.191 C 
BRANCH   7  12
ATOM     12  N   UNL A   1      31.947  22.046  26.233  1.00  0.00    -0.334 N 
ATOM     13  H   UNL A   1      31.969  21.118  25.810  1.00  0.00     0.347 HD
ATOM     14  H   UNL A   1      31.988  22.064  27.252  1.00  0.00     0.347 HD
BRANCH  12  15
ATOM     15  C   UNL A   1      30.659  22.645  25.904  1.00  0.00     0.257 C 
ATOM     16  C   UNL A   1      29.847  22.918  27.162  1.00  0.00     0.071 C 
ENDBRANCH  12  15
ENDBRANCH   7  12
BRANCH  11  17
ATOM     17  N   UNL A   1      32.831  26.018  23.851  1.00  0.00    -0.332 N 
ATOM     18  C   UNL A   1      33.628  27.242  23.773  1.00  0.00     0.263 C 
ATOM     19  C   UNL A   1      31.487  26.334  24.324  1.00  0.00     0.263 C 
ATOM     20  H   UNL A   1      32.706  25.653  22.908  1.00  0.00     0.348 HD
ATOM     21  C   UNL A   1      33.714  28.057  25.068  1.00  0.00     0.068 C 
ATOM     22  C   UNL A   1      31.432  26.999  25.696  1.00  0.00     0.068 C 
ATOM     23  C   UNL A   1      32.400  28.195  25.892  1.00  0.00    -0.022 C 
ATOM     24  C   UNL A   1      32.804  28.270  27.392  1.00  0.00     0.012 C 
BRANCH  23  25
ATOM     25  C   UNL A   1      31.673  29.542  25.612  1.00  0.00     0.004 C 
ATOM     26  C   UNL A   1      31.930  30.684  26.578  1.00  0.00     0.004 C 
ENDBRANCH  23  25
ENDBRANCH  11  17
ENDBRANCH   4   7
ENDBRANCH   2   3
ENDBRANCH   1   2
BRANCH   1  27
ATOM     27  C   UNL A   1      37.560  21.172  24.984  1.00  0.00     0.023 C 
BRANCH  27  28
ATOM     28  C   UNL A   1      38.884  21.228  25.732  1.00  0.00     0.116 C 
BRANCH  28  29
ATOM     29  N   UNL A   1      39.663  19.998  25.681  1.00  0.00    -0.352 N 
ATOM     30  C   UNL A   1      40.973  19.833  26.076  1.00  0.00     0.251 C 
ATOM     31  H   UNL A   1      39.205  19.201  25.327  1.00  0.00     0.163 HD
ATOM     32  O   UNL A   1      41.558  18.766  25.927  1.00  0.00    -0.269 OA
BRANCH  30  33
ATOM     33  C   UNL A   1      41.674  21.006  26.629  1.00  0.00     0.039 A 
ATOM     34  C   UNL A   1      42.204  21.951  25.752  1.00  0.00     0.014 A 
ATOM     35  C   UNL A   1      41.666  21.228  28.008  1.00  0.00     0.014 A 
ATOM     36  C   UNL A   1      42.651  23.172  26.257  1.00  0.00     0.010 A 
ATOM     37  C   UNL A   1      42.031  22.475  28.497  1.00  0.00     0.010 A 
ATOM     38  C   UNL A   1      42.521  23.460  27.627  1.00  0.00    -0.014 A 
BRANCH  38  39
ATOM     39  C   UNL A   1      42.891  24.788  28.174  1.00  0.00     0.031 A 
ATOM     40  C   UNL A   1      41.829  25.829  28.382  1.00  0.00     0.074 A 
ATOM     41  C   UNL A   1      44.185  25.082  28.406  1.00  0.00     0.049 A 
ATOM     42  N   UNL A   1      41.954  27.071  28.774  1.00  0.00    -0.248 NA
ATOM     43  C   UNL A   1      40.446  25.431  28.074  1.00  0.00     0.031 C 
ATOM     44  C   UNL A   1      45.315  24.177  28.184  1.00  0.00     0.029 A 
ATOM     45  N   UNL A   1      44.769  26.232  28.873  1.00  0.00    -0.354 N 
ATOM     46  C   UNL A   1      40.673  27.605  28.740  1.00  0.00     0.074 A 
ATOM     47  C   UNL A   1      39.796  26.575  28.230  1.00  0.00     0.031 C 
ATOM     48  C   UNL A   1      46.452  24.796  28.546  1.00  0.00     0.029 A 
ATOM     49  C   UNL A   1      46.135  26.148  28.993  1.00  0.00     0.049 A 
ATOM     50  H   UNL A   1      44.257  27.042  29.100  1.00  0.00     0.167 HD
ATOM     51  C   UNL A   1      40.258  28.834  29.126  1.00  0.00     0.037 A 
ATOM     52  C   UNL A   1      47.029  27.061  29.419  1.00  0.00     0.037 A 
ATOM     53  C   UNL A   1      41.125  29.845  29.668  1.00  0.00     0.049 A 
ATOM     54  C   UNL A   1      46.541  28.414  29.858  1.00  0.00     0.074 A 
ATOM     55  C   UNL A   1      40.795  31.098  30.152  1.00  0.00     0.029 A 
ATOM     56  N   UNL A   1      42.500  29.711  29.801  1.00  0.00    -0.354 N 
ATOM     57  N   UNL A   1      45.318  28.882  29.887  1.00  0.00    -0.248 NA
ATOM     58  C   UNL A   1      47.561  29.363  30.328  1.00  0.00     0.031 C 
ATOM     59  C   UNL A   1      41.974  31.736  30.549  1.00  0.00     0.029 A 
ATOM     60  C   UNL A   1      43.034  30.866  30.346  1.00  0.00     0.049 A 
ATOM     61  H   UNL A   1      43.017  28.914  29.545  1.00  0.00     0.167 HD
ATOM     62  C   UNL A   1      45.414  30.167  30.405  1.00  0.00     0.074 A 
ATOM     63  C   UNL A   1      46.816  30.401  30.685  1.00  0.00     0.031 C 
ATOM     64  C   UNL A   1      44.431  31.073  30.629  1.00  0.00     0.037 A 
BRANCH  51  65
ATOM     65  C   UNL A   1      38.795  29.138  28.984  1.00  0.00     0.057 A 
ATOM     66  C   UNL A   1      37.911  29.028  30.066  1.00  0.00     0.134 A 
ATOM     67  C   UNL A   1      38.265  29.550  27.756  1.00  0.00     0.134 A 
ATOM     68  F   UNL A   1      38.354  28.622  31.266  1.00  0.00    -0.206 F 
ATOM     69  C   UNL A   1      36.546  29.282  29.923  1.00  0.00     0.040 A 
ATOM     70  C   UNL A   1      36.906  29.834  27.607  1.00  0.00     0.040 A 
ATOM     71  F   UNL A   1      39.056  29.679  26.680  1.00  0.00    -0.206 F 
ATOM     72  C   UNL A   1      36.042  29.691  28.691  1.00  0.00     0.006 A 
ENDBRANCH  51  65
BRANCH  52  73
ATOM     73  C   UNL A   1      48.470  26.714  29.497  1.00  0.00     0.057 A 
ATOM     74  C   UNL A   1      49.338  27.016  28.441  1.00  0.00     0.134 A 
ATOM     75  C   UNL A   1      49.011  26.067  30.613  1.00  0.00     0.134 A 
ATOM     76  F   UNL A   1      48.872  27.620  27.338  1.00  0.00    -0.206 F 
ATOM     77  C   UNL A   1      50.689  26.671  28.483  1.00  0.00     0.040 A 
ATOM     78  C   UNL A   1      50.367  25.735  30.677  1.00  0.00     0.040 A 
ATOM     79  F   UNL A   1      48.234  25.757  31.660  1.00  0.00    -0.206 F 
ATOM     80  C   UNL A   1      51.208  26.031  29.606  1.00  0.00     0.006 A 
ENDBRANCH  52  73
BRANCH  64  81
ATOM     81  C   UNL A   1      44.834  32.382  31.238  1.00  0.00     0.057 A 
ATOM     82  C   UNL A   1      45.293  33.449  30.459  1.00  0.00     0.134 A 
ATOM     83  C   UNL A   1      44.718  32.588  32.619  1.00  0.00     0.134 A 
ATOM     84  F   UNL A   1      45.438  33.309  29.131  1.00  0.00    -0.206 F 
ATOM     85  C   UNL A   1      45.644  34.672  31.033  1.00  0.00     0.040 A 
ATOM     86  C   UNL A   1      45.043  33.814  33.202  1.00  0.00     0.040 A 
ATOM     87  F   UNL A   1      44.277  31.608  33.420  1.00  0.00    -0.206 F 
ATOM     88  C   UNL A   1      45.512  34.858  32.408  1.00  0.00     0.006 A 
ENDBRANCH  64  81
ENDBRANCH  38  39
ENDBRANCH  30  33
ENDBRANCH  28  29
ENDBRANCH  27  28
ENDBRANCH   1  27
TORSDOF 15
ENDMDL
MODEL 3
REMARK VINA RESULT:     -11.3      4.347      8.828
REMARK SMILES CC[NH2+][C@@]1(C(=O)NCCCCNC(=O)c2ccc(-c3c4nc(c(-c5c(F)cccc5F)c5ccc([nH]5)c(-c5c(F)cccc5F)c5nc(c(-c6c(F)cccc6F)c6ccc3[nH]6)C=C5)C=C4)cc2)CC[C@@H]([NH+]2CCC(C)(CC)CC2)C1
REMARK SMILES IDX 9 1 8 2 7 3 5 4 6 5 4 7 69 8 81 9 70 10 71 11 3 12 2 15 1 16
REMARK SMILES IDX 72 17 73 18 80 19 74 21 79 22 75 23 76 24 77 25 78 26 10 27
REMARK SMILES IDX 11 28 12 29 13 30 14 32 15 33 16 34 68 35 17 36 67 37 18 38
REMARK SMILES IDX 19 39 20 40 61 41 21 42 66 43 60 44 62 45 22 46 65 47 59 48
REMARK SMILES IDX 58 49 23 51 49 52 32 53 48 54 33 55 36 56 47 57 63 58 34 59
REMARK SMILES IDX 35 60 46 62 64 63 37 64 24 65 25 66 30 67 26 68 27 69 29 70
REMARK SMILES IDX 31 71 28 72 50 73 51 74 56 75 52 76 53 77 55 78 57 79 54 80
REMARK SMILES IDX 38 81 39 82 44 83 40 84 41 85 43 86 45 87 42 88
REMARK H PARENT 7 6 3 13 3 14 72 20 12 31 62 50 36 61
REMARK Flexibility Score: inf
ROOT
ATOM      1  C   UNL A   1      31.209  30.648  25.578  1.00  0.00     0.023 C 
ENDROOT
BRANCH   1   2
ATOM      2  C   UNL A   1      32.536  29.917  25.779  1.00  0.00     0.116 C 
BRANCH   2   3
ATOM      3  N   UNL A   1      33.241  29.703  24.537  1.00  0.00    -0.351 N 
ATOM      4  C   UNL A   1      33.299  28.643  23.691  1.00  0.00     0.281 C 
ATOM      5  O   UNL A   1      33.945  28.839  22.650  1.00  0.00    -0.268 OA
ATOM      6  H   UNL A   1      33.784  30.472  24.249  1.00  0.00     0.163 HD
BRANCH   4   7
ATOM      7  C   UNL A   1      32.609  27.240  23.941  1.00  0.00     0.181 C 
ATOM      8  C   UNL A   1      32.549  26.858  25.430  1.00  0.00     0.085 C 
ATOM      9  C   UNL A   1      33.355  26.091  23.244  1.00  0.00     0.144 C 
ATOM     10  C   UNL A   1      33.405  25.614  25.658  1.00  0.00     0.072 C 
ATOM     11  C   UNL A   1      33.986  25.183  24.306  1.00  0.00     0.191 C 
BRANCH   7  12
ATOM     12  N   UNL A   1      31.166  27.430  23.552  1.00  0.00    -0.334 N 
ATOM     13  H   UNL A   1      31.037  28.417  23.328  1.00  0.00     0.347 HD
ATOM     14  H   UNL A   1      31.019  26.782  22.777  1.00  0.00     0.347 HD
BRANCH  12  15
ATOM     15  C   UNL A   1      30.150  27.070  24.533  1.00  0.00     0.257 C 
ATOM     16  C   UNL A   1      28.997  26.324  23.876  1.00  0.00     0.071 C 
ENDBRANCH  12  15
ENDBRANCH   7  12
BRANCH  11  17
ATOM     17  N   UNL A   1      34.037  23.728  24.087  1.00  0.00    -0.332 N 
ATOM     18  C   UNL A   1      34.015  22.895  25.289  1.00  0.00     0.263 C 
ATOM     19  C   UNL A   1      35.014  23.202  23.139  1.00  0.00     0.263 C 
ATOM     20  H   UNL A   1      33.136  23.644  23.619  1.00  0.00     0.348 HD
ATOM     21  C   UNL A   1      35.367  22.712  25.988  1.00  0.00     0.068 C 
ATOM     22  C   UNL A   1      36.444  23.132  23.667  1.00  0.00     0.068 C 
ATOM     23  C   UNL A   1      36.602  22.484  25.067  1.00  0.00    -0.022 C 
ATOM     24  C   UNL A   1      37.829  23.122  25.778  1.00  0.00     0.012 C 
BRANCH  23  25
ATOM     25  C   UNL A   1      36.962  20.975  24.936  1.00  0.00     0.004 C 
ATOM     26  C   UNL A   1      35.818  19.980  25.000  1.00  0.00     0.004 C 
ENDBRANCH  23  25
ENDBRANCH  11  17
ENDBRANCH   4   7
ENDBRANCH   2   3
ENDBRANCH   1   2
BRANCH   1  27
ATOM     27  C   UNL A   1      31.069  31.954  26.358  1.00  0.00     0.023 C 
BRANCH  27  28
ATOM     28  C   UNL A   1      32.376  32.528  26.887  1.00  0.00     0.116 C 
BRANCH  28  29
ATOM     29  N   UNL A   1      32.257  33.846  27.497  1.00  0.00    -0.352 N 
ATOM     30  C   UNL A   1      33.131  34.424  28.390  1.00  0.00     0.251 C 
ATOM     31  H   UNL A   1      31.469  34.379  27.243  1.00  0.00     0.163 HD
ATOM     32  O   UNL A   1      32.902  35.516  28.897  1.00  0.00    -0.269 OA
BRANCH  30  33
ATOM     33  C   UNL A   1      34.331  33.655  28.769  1.00  0.00     0.039 A 
ATOM     34  C   UNL A   1      35.579  34.272  28.697  1.00  0.00     0.014 A 
ATOM     35  C   UNL A   1      34.187  32.384  29.332  1.00  0.00     0.014 A 
ATOM     36  C   UNL A   1      36.682  33.645  29.276  1.00  0.00     0.010 A 
ATOM     37  C   UNL A   1      35.268  31.804  29.981  1.00  0.00     0.010 A 
ATOM     38  C   UNL A   1      36.524  32.431  29.965  1.00  0.00    -0.014 A 
BRANCH  38  39
ATOM     39  C   UNL A   1      37.658  31.796  30.679  1.00  0.00     0.031 A 
ATOM     40  C   UNL A   1      38.474  30.741  29.990  1.00  0.00     0.074 A 
ATOM     41  C   UNL A   1      37.901  32.110  31.967  1.00  0.00     0.049 A 
ATOM     42  N   UNL A   1      39.452  30.011  30.463  1.00  0.00    -0.248 NA
ATOM     43  C   UNL A   1      38.119  30.439  28.594  1.00  0.00     0.031 C 
ATOM     44  C   UNL A   1      37.140  33.073  32.765  1.00  0.00     0.029 A 
ATOM     45  N   UNL A   1      38.855  31.643  32.834  1.00  0.00    -0.354 N 
ATOM     46  C   UNL A   1      39.814  29.156  29.431  1.00  0.00     0.074 A 
ATOM     47  C   UNL A   1      38.911  29.411  28.331  1.00  0.00     0.031 C 
ATOM     48  C   UNL A   1      37.678  33.149  33.994  1.00  0.00     0.029 A 
ATOM     49  C   UNL A   1      38.798  32.218  34.081  1.00  0.00     0.049 A 
ATOM     50  H   UNL A   1      39.519  30.959  32.587  1.00  0.00     0.167 HD
ATOM     51  C   UNL A   1      40.825  28.257  29.392  1.00  0.00     0.037 A 
ATOM     52  C   UNL A   1      39.566  32.017  35.168  1.00  0.00     0.037 A 
ATOM     53  C   UNL A   1      41.745  28.032  30.474  1.00  0.00     0.049 A 
ATOM     54  C   UNL A   1      40.695  31.025  35.095  1.00  0.00     0.074 A 
ATOM     55  C   UNL A   1      42.845  27.194  30.512  1.00  0.00     0.029 A 
ATOM     56  N   UNL A   1      41.672  28.656  31.711  1.00  0.00    -0.354 N 
ATOM     57  N   UNL A   1      41.069  30.273  34.089  1.00  0.00    -0.248 NA
ATOM     58  C   UNL A   1      41.508  30.860  36.307  1.00  0.00     0.031 C 
ATOM     59  C   UNL A   1      43.420  27.286  31.784  1.00  0.00     0.029 A 
ATOM     60  C   UNL A   1      42.699  28.210  32.525  1.00  0.00     0.049 A 
ATOM     61  H   UNL A   1      40.991  29.316  31.971  1.00  0.00     0.167 HD
ATOM     62  C   UNL A   1      42.179  29.568  34.536  1.00  0.00     0.074 A 
ATOM     63  C   UNL A   1      42.421  29.989  35.900  1.00  0.00     0.031 C 
ATOM     64  C   UNL A   1      42.930  28.653  33.876  1.00  0.00     0.037 A 
BRANCH  51  65
ATOM     65  C   UNL A   1      40.990  27.466  28.128  1.00  0.00     0.057 A 
ATOM     66  C   UNL A   1      40.344  26.236  27.939  1.00  0.00     0.134 A 
ATOM     67  C   UNL A   1      41.797  27.940  27.087  1.00  0.00     0.134 A 
ATOM     68  F   UNL A   1      39.570  25.720  28.905  1.00  0.00    -0.206 F 
ATOM     69  C   UNL A   1      40.524  25.489  26.774  1.00  0.00     0.040 A 
ATOM     70  C   UNL A   1      41.962  27.214  25.905  1.00  0.00     0.040 A 
ATOM     71  F   UNL A   1      42.441  29.111  27.201  1.00  0.00    -0.206 F 
ATOM     72  C   UNL A   1      41.331  25.981  25.751  1.00  0.00     0.006 A 
ENDBRANCH  51  65
BRANCH  52  73
ATOM     73  C   UNL A   1      39.327  32.801  36.405  1.00  0.00     0.057 A 
ATOM     74  C   UNL A   1      38.437  32.343  37.384  1.00  0.00     0.134 A 
ATOM     75  C   UNL A   1      39.967  34.024  36.636  1.00  0.00     0.134 A 
ATOM     76  F   UNL A   1      37.782  31.186  37.209  1.00  0.00    -0.206 F 
ATOM     77  C   UNL A   1      38.177  33.081  38.539  1.00  0.00     0.040 A 
ATOM     78  C   UNL A   1      39.732  34.762  37.798  1.00  0.00     0.040 A 
ATOM     79  F   UNL A   1      40.837  34.514  35.740  1.00  0.00    -0.206 F 
ATOM     80  C   UNL A   1      38.829  34.294  38.750  1.00  0.00     0.006 A 
ENDBRANCH  52  73
BRANCH  64  81
ATOM     81  C   UNL A   1      44.104  28.076  34.608  1.00  0.00     0.057 A 
ATOM     82  C   UNL A   1      44.012  26.877  35.324  1.00  0.00     0.134 A 
ATOM     83  C   UNL A   1      45.353  28.708  34.558  1.00  0.00     0.134 A 
ATOM     84  F   UNL A   1      42.839  26.231  35.421  1.00  0.00    -0.206 F 
ATOM     85  C   UNL A   1      45.116  26.336  35.984  1.00  0.00     0.040 A 
ATOM     86  C   UNL A   1      46.471  28.165  35.193  1.00  0.00     0.040 A 
ATOM     87  F   UNL A   1      45.510  29.855  33.881  1.00  0.00    -0.206 F 
ATOM     88  C   UNL A   1      46.352  26.978  35.913  1.00  0.00     0.006 A 
ENDBRANCH  64  81
ENDBRANCH  38  39
ENDBRANCH  30  33
ENDBRANCH  28  29
ENDBRANCH  27  28
ENDBRANCH   1  27
TORSDOF 15
ENDMDL
