MODEL 1
REMARK VINA RESULT:     -15.7      0.000      0.000
REMARK SMILES O=C(NCCCCNC(=O)[C@]1(NC(=O)C2CCN(C(=O)C3CC3)CC2)CCCc2ccccc21)c1ccc(-c2c3nc(c(-c4c(F)cccc4F)c4ccc([nH]4)c(-c4c(F)cccc4F)c4nc(c(-c5c(F)cccc5F)c5ccc2[nH]5)C=C4)C=C3)cc1
REMARK SMILES IDX 6 1 5 2 4 3 3 4 1 5 2 6 35 8 36 9 88 10 37 11 87 12 38 13
REMARK SMILES IDX 39 14 40 15 81 16 41 17 86 18 80 19 82 20 42 21 85 22 79 23
REMARK SMILES IDX 78 24 43 26 69 27 52 28 68 29 53 30 56 31 67 32 83 33 54 34
REMARK SMILES IDX 55 35 66 37 84 38 57 39 44 40 45 41 50 42 46 43 47 44 49 45
REMARK SMILES IDX 51 46 48 47 70 48 71 49 76 50 72 51 73 52 75 53 77 54 74 55
REMARK SMILES IDX 58 56 59 57 64 58 60 59 61 60 63 61 65 62 62 63 7 64 8 65
REMARK SMILES IDX 9 66 10 68 11 69 26 70 34 71 27 72 29 73 33 74 28 75 30 76
REMARK SMILES IDX 32 77 31 78 12 79 13 80 14 82 15 83 16 84 25 85 17 86 24 87
REMARK SMILES IDX 18 88 19 89 20 90 21 91 22 92 23 93
REMARK H PARENT 3 7 82 25 56 36 8 67 12 81
REMARK Flexibility Score: inf
ROOT
ATOM      1  C   UNL A   1      34.465  20.694  24.563  1.00  0.00     0.023 C 
ENDROOT
BRANCH   1   2
ATOM      2  C   UNL A   1      36.278  20.867  25.671  1.00  0.00     0.023 C 
BRANCH   2   3
ATOM      3  C   UNL A   1      38.061  20.752  25.084  1.00  0.00     0.116 C 
BRANCH   3   4
ATOM      4  N   UNL A   1      39.045  19.687  25.610  1.00  0.00    -0.352 N 
ATOM      5  O   UNL A   1      41.167  18.845  25.681  1.00  0.00    -0.269 OA
ATOM      6  C   UNL A   1      40.396  19.767  25.917  1.00  0.00     0.251 C 
ATOM      7  H   UNL A   1      38.647  18.799  25.752  1.00  0.00     0.163 HD
BRANCH   6   8
ATOM      8  C   UNL A   1      40.850  20.979  26.590  1.00  0.00     0.039 A 
ATOM      9  C   UNL A   1      41.072  22.056  25.738  1.00  0.00     0.014 A 
ATOM     10  C   UNL A   1      41.119  21.045  27.964  1.00  0.00     0.014 A 
ATOM     11  C   UNL A   1      41.721  23.161  26.220  1.00  0.00     0.010 A 
ATOM     12  C   UNL A   1      41.738  22.190  28.464  1.00  0.00     0.010 A 
ATOM     13  C   UNL A   1      42.055  23.232  27.581  1.00  0.00    -0.014 A 
BRANCH  13  14
ATOM     14  C   UNL A   1      42.572  24.528  28.034  1.00  0.00     0.031 A 
ATOM     15  C   UNL A   1      44.019  24.863  27.952  1.00  0.00     0.074 A 
ATOM     16  C   UNL A   1      41.634  25.441  28.334  1.00  0.00     0.049 A 
ATOM     17  N   UNL A   1      44.600  26.025  28.074  1.00  0.00    -0.248 NA
ATOM     18  C   UNL A   1      44.939  23.756  27.675  1.00  0.00     0.031 C 
ATOM     19  C   UNL A   1      40.191  25.174  28.368  1.00  0.00     0.029 A 
ATOM     20  N   UNL A   1      41.742  26.768  28.613  1.00  0.00    -0.354 N 
ATOM     21  C   UNL A   1      45.953  25.792  27.869  1.00  0.00     0.074 A 
ATOM     22  C   UNL A   1      46.109  24.376  27.621  1.00  0.00     0.031 C 
ATOM     23  C   UNL A   1      39.545  26.316  28.624  1.00  0.00     0.029 A 
ATOM     24  C   UNL A   1      40.531  27.366  28.840  1.00  0.00     0.049 A 
ATOM     25  H   UNL A   1      42.600  27.249  28.650  1.00  0.00     0.167 HD
ATOM     26  C   UNL A   1      46.964  26.690  27.915  1.00  0.00     0.037 A 
ATOM     27  C   UNL A   1      40.255  28.622  29.220  1.00  0.00     0.037 A 
ATOM     28  C   UNL A   1      46.766  28.075  28.257  1.00  0.00     0.049 A 
ATOM     29  C   UNL A   1      41.401  29.571  29.366  1.00  0.00     0.074 A 
ATOM     30  C   UNL A   1      47.706  29.082  28.371  1.00  0.00     0.029 A 
ATOM     31  N   UNL A   1      45.534  28.635  28.579  1.00  0.00    -0.354 N 
ATOM     32  N   UNL A   1      42.677  29.358  29.142  1.00  0.00    -0.248 NA
ATOM     33  C   UNL A   1      41.079  30.927  29.814  1.00  0.00     0.031 C 
ATOM     34  C   UNL A   1      47.053  30.231  28.832  1.00  0.00     0.029 A 
ATOM     35  C   UNL A   1      45.695  29.962  28.934  1.00  0.00     0.049 A 
ATOM     36  H   UNL A   1      44.675  28.157  28.557  1.00  0.00     0.167 HD
ATOM     37  C   UNL A   1      43.315  30.557  29.407  1.00  0.00     0.074 A 
ATOM     38  C   UNL A   1      42.277  31.495  29.801  1.00  0.00     0.031 C 
ATOM     39  C   UNL A   1      44.634  30.860  29.328  1.00  0.00     0.037 A 
BRANCH  26  40
ATOM     40  C   UNL A   1      48.356  26.182  27.678  1.00  0.00     0.057 A 
ATOM     41  C   UNL A   1      49.121  25.593  28.694  1.00  0.00     0.134 A 
ATOM     42  C   UNL A   1      48.941  26.279  26.409  1.00  0.00     0.134 A 
ATOM     43  F   UNL A   1      48.633  25.485  29.939  1.00  0.00    -0.206 F 
ATOM     44  C   UNL A   1      50.422  25.137  28.459  1.00  0.00     0.040 A 
ATOM     45  C   UNL A   1      50.230  25.807  26.157  1.00  0.00     0.040 A 
ATOM     46  F   UNL A   1      48.267  26.836  25.391  1.00  0.00    -0.206 F 
ATOM     47  C   UNL A   1      50.977  25.239  27.186  1.00  0.00     0.006 A 
ENDBRANCH  26  40
BRANCH  27  48
ATOM     48  C   UNL A   1      38.851  28.981  29.512  1.00  0.00     0.057 A 
ATOM     49  C   UNL A   1      38.313  28.850  30.793  1.00  0.00     0.134 A 
ATOM     50  C   UNL A   1      38.050  29.581  28.528  1.00  0.00     0.134 A 
ATOM     51  F   UNL A   1      39.034  28.288  31.775  1.00  0.00    -0.206 F 
ATOM     52  C   UNL A   1      37.028  29.308  31.090  1.00  0.00     0.040 A 
ATOM     53  C   UNL A   1      36.778  30.069  28.817  1.00  0.00     0.040 A 
ATOM     54  F   UNL A   1      38.525  29.759  27.286  1.00  0.00    -0.206 F 
ATOM     55  C   UNL A   1      36.263  29.931  30.104  1.00  0.00     0.006 A 
ENDBRANCH  27  48
BRANCH  39  56
ATOM     56  C   UNL A   1      45.017  32.273  29.642  1.00  0.00     0.057 A 
ATOM     57  C   UNL A   1      45.445  32.656  30.917  1.00  0.00     0.134 A 
ATOM     58  C   UNL A   1      45.002  33.246  28.636  1.00  0.00     0.134 A 
ATOM     59  F   UNL A   1      45.465  31.770  31.925  1.00  0.00    -0.206 F 
ATOM     60  C   UNL A   1      45.832  33.969  31.186  1.00  0.00     0.040 A 
ATOM     61  C   UNL A   1      45.413  34.553  28.885  1.00  0.00     0.040 A 
ATOM     62  F   UNL A   1      44.608  32.934  27.392  1.00  0.00    -0.206 F 
ATOM     63  C   UNL A   1      45.825  34.918  30.166  1.00  0.00     0.006 A 
ENDBRANCH  39  56
ENDBRANCH  13  14
ENDBRANCH   6   8
ENDBRANCH   3   4
ENDBRANCH   2   3
ENDBRANCH   1   2
BRANCH   1  64
ATOM     64  C   UNL A   1      32.719  20.478  25.295  1.00  0.00     0.116 C 
BRANCH  64  65
ATOM     65  N   UNL A   1      32.183  21.503  26.485  1.00  0.00    -0.354 N 
ATOM     66  C   UNL A   1      32.263  22.905  26.720  1.00  0.00     0.250 C 
ATOM     67  H   UNL A   1      31.692  21.031  27.196  1.00  0.00     0.163 HD
ATOM     68  O   UNL A   1      32.444  23.317  27.866  1.00  0.00    -0.272 OA
BRANCH  66  69
ATOM     69  C   UNL A   1      31.809  23.819  25.542  1.00  0.00     0.145 C 
ATOM     70  C   UNL A   1      30.859  23.316  24.408  1.00  0.00     0.044 C 
ATOM     71  C   UNL A   1      33.163  24.373  24.994  1.00  0.00    -0.010 A 
ATOM     72  C   UNL A   1      31.430  22.995  23.038  1.00  0.00     0.008 C 
ATOM     73  C   UNL A   1      33.505  24.161  23.642  1.00  0.00    -0.042 A 
ATOM     74  C   UNL A   1      34.236  24.619  25.885  1.00  0.00     0.007 A 
ATOM     75  C   UNL A   1      32.436  24.037  22.600  1.00  0.00     0.036 C 
ATOM     76  C   UNL A   1      34.847  23.982  23.262  1.00  0.00     0.004 A 
ATOM     77  C   UNL A   1      35.560  24.362  25.516  1.00  0.00     0.000 A 
ATOM     78  C   UNL A   1      35.861  24.010  24.211  1.00  0.00     0.000 A 
BRANCH  69  79
ATOM     79  N   UNL A   1      30.925  24.653  26.310  1.00  0.00    -0.338 N 
ATOM     80  C   UNL A   1      30.594  25.893  25.786  1.00  0.00     0.224 C 
ATOM     81  H   UNL A   1      30.567  24.353  27.177  1.00  0.00     0.164 HD
ATOM     82  O   UNL A   1      30.716  26.805  26.614  1.00  0.00    -0.275 OA
BRANCH  80  83
ATOM     83  C   UNL A   1      29.947  26.180  24.147  1.00  0.00     0.082 C 
ATOM     84  C   UNL A   1      31.155  27.608  23.812  1.00  0.00     0.035 C 
ATOM     85  C   UNL A   1      28.019  26.624  23.647  1.00  0.00     0.035 C 
ATOM     86  C   UNL A   1      30.595  29.315  24.046  1.00  0.00     0.120 C 
ATOM     87  C   UNL A   1      27.545  28.607  23.664  1.00  0.00     0.120 C 
ATOM     88  N   UNL A   1      28.980  29.771  23.683  1.00  0.00    -0.342 N 
ATOM     89  C   UNL A   1      28.969  31.110  23.287  1.00  0.00     0.225 C 
ATOM     90  O   UNL A   1      29.357  32.012  24.023  1.00  0.00    -0.275 OA
BRANCH  89  91
ATOM     91  C   UNL A   1      29.020  31.370  21.817  1.00  0.00     0.079 C 
ATOM     92  C   UNL A   1      28.006  30.891  20.843  1.00  0.00     0.014 C 
ATOM     93  C   UNL A   1      28.025  32.336  21.207  1.00  0.00     0.014 C 
ENDBRANCH  89  91
ENDBRANCH  80  83
ENDBRANCH  69  79
ENDBRANCH  66  69
ENDBRANCH  64  65
ENDBRANCH   1  64
TORSDOF 14
ENDMDL
MODEL 2
REMARK VINA RESULT:     -15.2      4.256      9.094
REMARK SMILES O=C(NCCCCNC(=O)[C@]1(NC(=O)C2CCN(C(=O)C3CC3)CC2)CCCc2ccccc21)c1ccc(-c2c3nc(c(-c4c(F)cccc4F)c4ccc([nH]4)c(-c4c(F)cccc4F)c4nc(c(-c5c(F)cccc5F)c5ccc2[nH]5)C=C4)C=C3)cc1
REMARK SMILES IDX 6 1 5 2 4 3 3 4 1 5 2 6 35 8 36 9 88 10 37 11 87 12 38 13
REMARK SMILES IDX 39 14 40 15 81 16 41 17 86 18 80 19 82 20 42 21 85 22 79 23
REMARK SMILES IDX 78 24 43 26 69 27 52 28 68 29 53 30 56 31 67 32 83 33 54 34
REMARK SMILES IDX 55 35 66 37 84 38 57 39 44 40 45 41 50 42 46 43 47 44 49 45
REMARK SMILES IDX 51 46 48 47 70 48 71 49 76 50 72 51 73 52 75 53 77 54 74 55
REMARK SMILES IDX 58 56 59 57 64 58 60 59 61 60 63 61 65 62 62 63 7 64 8 65
REMARK SMILES IDX 9 66 10 68 11 69 26 70 34 71 27 72 29 73 33 74 28 75 30 76
REMARK SMILES IDX 32 77 31 78 12 79 13 80 14 82 15 83 16 84 25 85 17 86 24 87
REMARK SMILES IDX 18 88 19 89 20 90 21 91 22 92 23 93
REMARK H PARENT 3 7 82 25 56 36 8 67 12 81
REMARK Flexibility Score: inf
ROOT
ATOM      1  C   UNL A   1      30.601  30.200  24.249  1.00  0.00     0.023 C 
ENDROOT
BRANCH   1   2
ATOM      2  C   UNL A   1      30.651  31.689  25.773  1.00  0.00     0.023 C 
BRANCH   2   3
ATOM      3  C   UNL A   1      32.079  32.247  26.861  1.00  0.00     0.116 C 
BRANCH   3   4
ATOM      4  N   UNL A   1      32.375  33.732  27.154  1.00  0.00    -0.352 N 
ATOM      5  O   UNL A   1      32.671  35.409  28.676  1.00  0.00    -0.269 OA
ATOM      6  C   UNL A   1      33.041  34.339  28.210  1.00  0.00     0.251 C 
ATOM      7  H   UNL A   1      32.034  34.357  26.475  1.00  0.00     0.163 HD
BRANCH   6   8
ATOM      8  C   UNL A   1      34.240  33.673  28.705  1.00  0.00     0.039 A 
ATOM      9  C   UNL A   1      33.998  32.709  29.677  1.00  0.00     0.014 A 
ATOM     10  C   UNL A   1      35.537  34.018  28.301  1.00  0.00     0.014 A 
ATOM     11  C   UNL A   1      35.054  32.194  30.380  1.00  0.00     0.010 A 
ATOM     12  C   UNL A   1      36.616  33.458  28.985  1.00  0.00     0.010 A 
ATOM     13  C   UNL A   1      36.364  32.564  30.036  1.00  0.00    -0.014 A 
BRANCH  13  14
ATOM     14  C   UNL A   1      37.427  31.816  30.715  1.00  0.00     0.031 A 
ATOM     15  C   UNL A   1      38.204  30.756  30.017  1.00  0.00     0.074 A 
ATOM     16  C   UNL A   1      37.773  32.288  31.924  1.00  0.00     0.049 A 
ATOM     17  N   UNL A   1      39.318  30.181  30.381  1.00  0.00    -0.248 NA
ATOM     18  C   UNL A   1      37.679  30.292  28.730  1.00  0.00     0.031 C 
ATOM     19  C   UNL A   1      37.076  33.373  32.625  1.00  0.00     0.029 A 
ATOM     20  N   UNL A   1      38.808  31.962  32.744  1.00  0.00    -0.354 N 
ATOM     21  C   UNL A   1      39.637  29.300  29.358  1.00  0.00     0.074 A 
ATOM     22  C   UNL A   1      38.597  29.410  28.359  1.00  0.00     0.031 C 
ATOM     23  C   UNL A   1      37.726  33.643  33.762  1.00  0.00     0.029 A 
ATOM     24  C   UNL A   1      38.832  32.705  33.894  1.00  0.00     0.049 A 
ATOM     25  H   UNL A   1      39.471  31.265  32.533  1.00  0.00     0.167 HD
ATOM     26  C   UNL A   1      40.696  28.461  29.288  1.00  0.00     0.037 A 
ATOM     27  C   UNL A   1      39.643  32.607  34.957  1.00  0.00     0.037 A 
ATOM     28  C   UNL A   1      41.657  28.323  30.352  1.00  0.00     0.049 A 
ATOM     29  C   UNL A   1      40.745  31.599  34.901  1.00  0.00     0.074 A 
ATOM     30  C   UNL A   1      42.756  27.489  30.424  1.00  0.00     0.029 A 
ATOM     31  N   UNL A   1      41.601  29.021  31.554  1.00  0.00    -0.354 N 
ATOM     32  N   UNL A   1      41.065  30.787  33.920  1.00  0.00    -0.248 NA
ATOM     33  C   UNL A   1      41.596  31.487  36.087  1.00  0.00     0.031 C 
ATOM     34  C   UNL A   1      43.322  27.630  31.697  1.00  0.00     0.029 A 
ATOM     35  C   UNL A   1      42.621  28.605  32.391  1.00  0.00     0.049 A 
ATOM     36  H   UNL A   1      40.934  29.710  31.776  1.00  0.00     0.167 HD
ATOM     37  C   UNL A   1      42.166  30.074  34.361  1.00  0.00     0.074 A 
ATOM     38  C   UNL A   1      42.461  30.561  35.698  1.00  0.00     0.031 C 
ATOM     39  C   UNL A   1      42.874  29.111  33.720  1.00  0.00     0.037 A 
BRANCH  26  40
ATOM     40  C   UNL A   1      40.810  27.584  28.075  1.00  0.00     0.057 A 
ATOM     41  C   UNL A   1      41.541  27.966  26.942  1.00  0.00     0.134 A 
ATOM     42  C   UNL A   1      40.180  26.334  28.041  1.00  0.00     0.134 A 
ATOM     43  F   UNL A   1      42.153  29.159  26.896  1.00  0.00    -0.206 F 
ATOM     44  C   UNL A   1      41.625  27.144  25.815  1.00  0.00     0.040 A 
ATOM     45  C   UNL A   1      40.276  25.494  26.930  1.00  0.00     0.040 A 
ATOM     46  F   UNL A   1      39.459  25.907  29.089  1.00  0.00    -0.206 F 
ATOM     47  C   UNL A   1      40.995  25.901  25.809  1.00  0.00     0.006 A 
ENDBRANCH  26  40
BRANCH  27  48
ATOM     48  C   UNL A   1      39.376  33.465  36.132  1.00  0.00     0.057 A 
ATOM     49  C   UNL A   1      38.588  33.024  37.197  1.00  0.00     0.134 A 
ATOM     50  C   UNL A   1      40.011  34.709  36.264  1.00  0.00     0.134 A 
ATOM     51  F   UNL A   1      37.961  31.841  37.129  1.00  0.00    -0.206 F 
ATOM     52  C   UNL A   1      38.444  33.788  38.356  1.00  0.00     0.040 A 
ATOM     53  C   UNL A   1      39.899  35.469  37.426  1.00  0.00     0.040 A 
ATOM     54  F   UNL A   1      40.803  35.172  35.284  1.00  0.00    -0.206 F 
ATOM     55  C   UNL A   1      39.111  35.007  38.477  1.00  0.00     0.006 A 
ENDBRANCH  27  48
BRANCH  39  56
ATOM     56  C   UNL A   1      44.054  28.550  34.451  1.00  0.00     0.057 A 
ATOM     57  C   UNL A   1      43.956  27.397  35.238  1.00  0.00     0.134 A 
ATOM     58  C   UNL A   1      45.312  29.147  34.320  1.00  0.00     0.134 A 
ATOM     59  F   UNL A   1      42.772  26.790  35.414  1.00  0.00    -0.206 F 
ATOM     60  C   UNL A   1      45.071  26.866  35.885  1.00  0.00     0.040 A 
ATOM     61  C   UNL A   1      46.439  28.609  34.937  1.00  0.00     0.040 A 
ATOM     62  F   UNL A   1      45.469  30.250  33.571  1.00  0.00    -0.206 F 
ATOM     63  C   UNL A   1      46.319  27.468  35.727  1.00  0.00     0.006 A 
ENDBRANCH  39  56
ENDBRANCH  13  14
ENDBRANCH   6   8
ENDBRANCH   3   4
ENDBRANCH   2   3
ENDBRANCH   1   2
BRANCH   1  64
ATOM     64  C   UNL A   1      31.997  28.970  23.836  1.00  0.00     0.116 C 
BRANCH  64  65
ATOM     65  N   UNL A   1      33.080  28.515  25.008  1.00  0.00    -0.354 N 
ATOM     66  C   UNL A   1      33.292  27.339  25.782  1.00  0.00     0.250 C 
ATOM     67  H   UNL A   1      33.729  29.225  25.217  1.00  0.00     0.163 HD
ATOM     68  O   UNL A   1      33.614  27.444  26.967  1.00  0.00    -0.272 OA
BRANCH  66  69
ATOM     69  C   UNL A   1      33.395  26.006  24.981  1.00  0.00     0.145 C 
ATOM     70  C   UNL A   1      34.228  25.881  23.666  1.00  0.00     0.044 C 
ATOM     71  C   UNL A   1      31.898  25.604  24.789  1.00  0.00    -0.010 A 
ATOM     72  C   UNL A   1      33.514  25.835  22.326  1.00  0.00     0.008 C 
ATOM     73  C   UNL A   1      31.391  25.415  23.486  1.00  0.00    -0.042 A 
ATOM     74  C   UNL A   1      30.950  25.908  25.795  1.00  0.00     0.007 A 
ATOM     75  C   UNL A   1      32.290  24.947  22.383  1.00  0.00     0.036 C 
ATOM     76  C   UNL A   1      30.056  25.737  23.183  1.00  0.00     0.004 A 
ATOM     77  C   UNL A   1      29.648  26.303  25.473  1.00  0.00     0.000 A 
ATOM     78  C   UNL A   1      29.212  26.249  24.159  1.00  0.00     0.000 A 
BRANCH  69  79
ATOM     79  N   UNL A   1      34.233  25.312  25.921  1.00  0.00    -0.338 N 
ATOM     80  C   UNL A   1      34.213  23.926  25.899  1.00  0.00     0.224 C 
ATOM     81  H   UNL A   1      34.801  25.804  26.557  1.00  0.00     0.164 HD
ATOM     82  O   UNL A   1      34.079  23.436  27.027  1.00  0.00    -0.275 OA
BRANCH  80  83
ATOM     83  C   UNL A   1      34.466  22.915  24.449  1.00  0.00     0.082 C 
ATOM     84  C   UNL A   1      32.716  22.182  24.531  1.00  0.00     0.035 C 
ATOM     85  C   UNL A   1      35.916  21.506  24.172  1.00  0.00     0.035 C 
ATOM     86  C   UNL A   1      32.470  20.559  25.298  1.00  0.00     0.120 C 
ATOM     87  C   UNL A   1      35.445  19.628  24.813  1.00  0.00     0.120 C 
ATOM     88  N   UNL A   1      33.653  19.324  25.144  1.00  0.00    -0.342 N 
ATOM     89  C   UNL A   1      33.014  18.083  25.180  1.00  0.00     0.225 C 
ATOM     90  O   UNL A   1      32.350  17.718  26.145  1.00  0.00    -0.275 OA
BRANCH  89  91
ATOM     91  C   UNL A   1      32.682  17.466  23.861  1.00  0.00     0.079 C 
ATOM     92  C   UNL A   1      32.941  18.105  22.546  1.00  0.00     0.014 C 
ATOM     93  C   UNL A   1      33.808  16.972  22.977  1.00  0.00     0.014 C 
ENDBRANCH  89  91
ENDBRANCH  80  83
ENDBRANCH  69  79
ENDBRANCH  66  69
ENDBRANCH  64  65
ENDBRANCH   1  64
TORSDOF 14
ENDMDL
MODEL 3
REMARK VINA RESULT:     -15.1      0.668      5.923
REMARK SMILES O=C(NCCCCNC(=O)[C@]1(NC(=O)C2CCN(C(=O)C3CC3)CC2)CCCc2ccccc21)c1ccc(-c2c3nc(c(-c4c(F)cccc4F)c4ccc([nH]4)c(-c4c(F)cccc4F)c4nc(c(-c5c(F)cccc5F)c5ccc2[nH]5)C=C4)C=C3)cc1
REMARK SMILES IDX 6 1 5 2 4 3 3 4 1 5 2 6 35 8 36 9 88 10 37 11 87 12 38 13
REMARK SMILES IDX 39 14 40 15 81 16 41 17 86 18 80 19 82 20 42 21 85 22 79 23
REMARK SMILES IDX 78 24 43 26 69 27 52 28 68 29 53 30 56 31 67 32 83 33 54 34
REMARK SMILES IDX 55 35 66 37 84 38 57 39 44 40 45 41 50 42 46 43 47 44 49 45
REMARK SMILES IDX 51 46 48 47 70 48 71 49 76 50 72 51 73 52 75 53 77 54 74 55
REMARK SMILES IDX 58 56 59 57 64 58 60 59 61 60 63 61 65 62 62 63 7 64 8 65
REMARK SMILES IDX 9 66 10 68 11 69 26 70 34 71 27 72 29 73 33 74 28 75 30 76
REMARK SMILES IDX 32 77 31 78 12 79 13 80 14 82 15 83 16 84 25 85 17 86 24 87
REMARK SMILES IDX 18 88 19 89 20 90 21 91 22 92 23 93
REMARK H PARENT 3 7 82 25 56 36 8 67 12 81
REMARK Flexibility Score: inf
ROOT
ATOM      1  C   UNL A   1      34.981  19.868  24.639  1.00  0.00     0.023 C 
ENDROOT
BRANCH   1   2
ATOM      2  C   UNL A   1      36.826  20.248  25.639  1.00  0.00     0.023 C 
BRANCH   2   3
ATOM      3  C   UNL A   1      38.590  20.083  25.010  1.00  0.00     0.116 C 
BRANCH   3   4
ATOM      4  N   UNL A   1      39.661  19.245  25.739  1.00  0.00    -0.352 N 
ATOM      5  O   UNL A   1      41.858  18.693  26.023  1.00  0.00    -0.269 OA
ATOM      6  C   UNL A   1      40.974  19.539  26.076  1.00  0.00     0.251 C 
ATOM      7  H   UNL A   1      39.361  18.349  26.012  1.00  0.00     0.163 HD
BRANCH   6   8
ATOM      8  C   UNL A   1      41.248  20.889  26.554  1.00  0.00     0.039 A 
ATOM      9  C   UNL A   1      41.709  21.760  25.573  1.00  0.00     0.014 A 
ATOM     10  C   UNL A   1      41.135  21.270  27.898  1.00  0.00     0.014 A 
ATOM     11  C   UNL A   1      42.221  22.973  25.948  1.00  0.00     0.010 A 
ATOM     12  C   UNL A   1      41.613  22.525  28.275  1.00  0.00     0.010 A 
ATOM     13  C   UNL A   1      42.174  23.360  27.297  1.00  0.00    -0.014 A 
BRANCH  13  14
ATOM     14  C   UNL A   1      42.568  24.745  27.567  1.00  0.00     0.031 A 
ATOM     15  C   UNL A   1      41.568  25.787  27.927  1.00  0.00     0.074 A 
ATOM     16  C   UNL A   1      43.892  24.953  27.660  1.00  0.00     0.049 A 
ATOM     17  N   UNL A   1      41.765  26.975  28.429  1.00  0.00    -0.248 NA
ATOM     18  C   UNL A   1      40.157  25.446  27.720  1.00  0.00     0.031 C 
ATOM     19  C   UNL A   1      44.916  23.941  27.375  1.00  0.00     0.029 A 
ATOM     20  N   UNL A   1      44.595  26.046  28.062  1.00  0.00    -0.354 N 
ATOM     21  C   UNL A   1      40.501  27.518  28.616  1.00  0.00     0.074 A 
ATOM     22  C   UNL A   1      39.543  26.532  28.168  1.00  0.00     0.031 C 
ATOM     23  C   UNL A   1      46.120  24.455  27.642  1.00  0.00     0.029 A 
ATOM     24  C   UNL A   1      45.950  25.845  28.044  1.00  0.00     0.049 A 
ATOM     25  H   UNL A   1      44.175  26.893  28.336  1.00  0.00     0.167 HD
ATOM     26  C   UNL A   1      40.189  28.744  29.095  1.00  0.00     0.037 A 
ATOM     27  C   UNL A   1      46.945  26.709  28.290  1.00  0.00     0.037 A 
ATOM     28  C   UNL A   1      41.185  29.725  29.443  1.00  0.00     0.049 A 
ATOM     29  C   UNL A   1      46.575  28.093  28.718  1.00  0.00     0.074 A 
ATOM     30  C   UNL A   1      41.005  31.014  29.908  1.00  0.00     0.029 A 
ATOM     31  N   UNL A   1      42.556  29.528  29.321  1.00  0.00    -0.354 N 
ATOM     32  N   UNL A   1      45.380  28.595  28.923  1.00  0.00    -0.248 NA
ATOM     33  C   UNL A   1      47.678  29.027  28.948  1.00  0.00     0.031 C 
ATOM     34  C   UNL A   1      42.264  31.619  29.999  1.00  0.00     0.029 A 
ATOM     35  C   UNL A   1      43.233  30.685  29.661  1.00  0.00     0.049 A 
ATOM     36  H   UNL A   1      42.981  28.688  29.035  1.00  0.00     0.167 HD
ATOM     37  C   UNL A   1      45.583  29.905  29.323  1.00  0.00     0.074 A 
ATOM     38  C   UNL A   1      47.021  30.111  29.337  1.00  0.00     0.031 C 
ATOM     39  C   UNL A   1      44.668  30.850  29.654  1.00  0.00     0.037 A 
BRANCH  26  40
ATOM     40  C   UNL A   1      38.735  29.107  29.181  1.00  0.00     0.057 A 
ATOM     41  C   UNL A   1      38.005  28.991  30.372  1.00  0.00     0.134 A 
ATOM     42  C   UNL A   1      38.054  29.585  28.055  1.00  0.00     0.134 A 
ATOM     43  F   UNL A   1      38.587  28.521  31.485  1.00  0.00    -0.206 F 
ATOM     44  C   UNL A   1      36.648  29.320  30.433  1.00  0.00     0.040 A 
ATOM     45  C   UNL A   1      36.705  29.939  28.109  1.00  0.00     0.040 A 
ATOM     46  F   UNL A   1      38.690  29.717  26.881  1.00  0.00    -0.206 F 
ATOM     47  C   UNL A   1      35.995  29.800  29.299  1.00  0.00     0.006 A 
ENDBRANCH  26  40
BRANCH  27  48
ATOM     48  C   UNL A   1      48.339  26.260  28.082  1.00  0.00     0.057 A 
ATOM     49  C   UNL A   1      49.071  25.648  29.102  1.00  0.00     0.134 A 
ATOM     50  C   UNL A   1      48.927  26.328  26.810  1.00  0.00     0.134 A 
ATOM     51  F   UNL A   1      48.558  25.551  30.337  1.00  0.00    -0.206 F 
ATOM     52  C   UNL A   1      50.338  25.113  28.864  1.00  0.00     0.040 A 
ATOM     53  C   UNL A   1      50.178  25.773  26.552  1.00  0.00     0.040 A 
ATOM     54  F   UNL A   1      48.259  26.879  25.785  1.00  0.00    -0.206 F 
ATOM     55  C   UNL A   1      50.888  25.164  27.582  1.00  0.00     0.006 A 
ENDBRANCH  27  48
BRANCH  39  56
ATOM     56  C   UNL A   1      45.205  32.177  30.090  1.00  0.00     0.057 A 
ATOM     57  C   UNL A   1      45.553  32.433  31.420  1.00  0.00     0.134 A 
ATOM     58  C   UNL A   1      45.421  33.192  29.150  1.00  0.00     0.134 A 
ATOM     59  F   UNL A   1      45.354  31.504  32.369  1.00  0.00    -0.206 F 
ATOM     60  C   UNL A   1      46.085  33.663  31.805  1.00  0.00     0.040 A 
ATOM     61  C   UNL A   1      45.978  34.414  29.517  1.00  0.00     0.040 A 
ATOM     62  F   UNL A   1      45.114  33.000  27.858  1.00  0.00    -0.206 F 
ATOM     63  C   UNL A   1      46.307  34.654  30.850  1.00  0.00     0.006 A 
ENDBRANCH  39  56
ENDBRANCH  13  14
ENDBRANCH   6   8
ENDBRANCH   3   4
ENDBRANCH   2   3
ENDBRANCH   1   2
BRANCH   1  64
ATOM     64  C   UNL A   1      33.241  20.017  25.401  1.00  0.00     0.116 C 
BRANCH  64  65
ATOM     65  N   UNL A   1      32.925  21.188  26.533  1.00  0.00    -0.354 N 
ATOM     66  C   UNL A   1      33.163  22.588  26.629  1.00  0.00     0.250 C 
ATOM     67  H   UNL A   1      32.463  20.831  27.326  1.00  0.00     0.163 HD
ATOM     68  O   UNL A   1      33.495  23.073  27.712  1.00  0.00    -0.272 OA
BRANCH  66  69
ATOM     69  C   UNL A   1      32.688  23.445  25.416  1.00  0.00     0.145 C 
ATOM     70  C   UNL A   1      31.619  22.934  24.398  1.00  0.00     0.044 C 
ATOM     71  C   UNL A   1      34.032  23.847  24.731  1.00  0.00    -0.010 A 
ATOM     72  C   UNL A   1      32.057  22.466  23.021  1.00  0.00     0.008 C 
ATOM     73  C   UNL A   1      34.252  23.508  23.379  1.00  0.00    -0.042 A 
ATOM     74  C   UNL A   1      35.186  24.075  25.519  1.00  0.00     0.007 A 
ATOM     75  C   UNL A   1      33.099  23.391  22.430  1.00  0.00     0.036 C 
ATOM     76  C   UNL A   1      35.544  23.196  22.920  1.00  0.00     0.004 A 
ATOM     77  C   UNL A   1      36.455  23.687  25.079  1.00  0.00     0.000 A 
ATOM     78  C   UNL A   1      36.628  23.216  23.788  1.00  0.00     0.000 A 
BRANCH  69  79
ATOM     79  N   UNL A   1      31.928  24.400  26.176  1.00  0.00    -0.338 N 
ATOM     80  C   UNL A   1      31.706  25.644  25.605  1.00  0.00     0.224 C 
ATOM     81  H   UNL A   1      31.579  24.179  27.069  1.00  0.00     0.164 HD
ATOM     82  O   UNL A   1      31.957  26.574  26.382  1.00  0.00    -0.275 OA
BRANCH  80  83
ATOM     83  C   UNL A   1      31.022  25.924  23.980  1.00  0.00     0.082 C 
ATOM     84  C   UNL A   1      31.955  27.564  23.760  1.00  0.00     0.035 C 
ATOM     85  C   UNL A   1      29.047  26.049  23.482  1.00  0.00     0.035 C 
ATOM     86  C   UNL A   1      31.097  29.124  24.102  1.00  0.00     0.120 C 
ATOM     87  C   UNL A   1      28.224  27.910  23.626  1.00  0.00     0.120 C 
ATOM     88  N   UNL A   1      29.428  29.307  23.746  1.00  0.00    -0.342 N 
ATOM     89  C   UNL A   1      29.178  30.647  23.442  1.00  0.00     0.225 C 
ATOM     90  O   UNL A   1      29.396  31.550  24.243  1.00  0.00    -0.275 OA
BRANCH  89  91
ATOM     91  C   UNL A   1      29.184  31.013  21.993  1.00  0.00     0.079 C 
ATOM     92  C   UNL A   1      28.232  30.479  20.987  1.00  0.00     0.014 C 
ATOM     93  C   UNL A   1      28.072  31.886  21.451  1.00  0.00     0.014 C 
ENDBRANCH  89  91
ENDBRANCH  80  83
ENDBRANCH  69  79
ENDBRANCH  66  69
ENDBRANCH  64  65
ENDBRANCH   1  64
TORSDOF 14
ENDMDL
