MODEL 1
REMARK VINA RESULT:     -11.0      0.000      0.000
REMARK SMILES C[N@H+]1CCO[C@@H](C[N@H+]2CCCC[C@@H]2CCC(=O)NCCCCNC(=O)c2ccc(-c3c4nc(c(-c5c(F)cccc5F)c5ccc([nH]5)c(-c5c(F)cccc5F)c5nc(c(-c6c(F)cccc6F)c6ccc3[nH]6)C=C5)C=C4)cc2)C1
REMARK SMILES IDX 19 1 18 2 16 3 17 4 15 6 14 7 13 8 8 9 9 10 10 12 12 13
REMARK SMILES IDX 11 14 7 15 6 16 1 17 2 18 3 19 80 20 4 22 5 23 20 24 21 25
REMARK SMILES IDX 22 26 23 27 24 28 25 30 26 31 27 32 79 33 28 34 78 35 29 36
REMARK SMILES IDX 30 37 31 38 72 39 32 40 77 41 71 42 73 43 33 44 76 45 70 46
REMARK SMILES IDX 69 47 34 49 60 50 43 51 59 52 44 53 47 54 58 55 74 56 45 57
REMARK SMILES IDX 46 58 57 60 75 61 48 62 35 63 36 64 41 65 37 66 38 67 40 68
REMARK SMILES IDX 42 69 39 70 61 71 62 72 67 73 63 74 64 75 66 76 68 77 65 78
REMARK SMILES IDX 49 79 50 80 55 81 51 82 52 83 54 84 56 85 53 86
REMARK H PARENT 18 5 8 11 2 21 23 29 73 48 47 59
REMARK Flexibility Score: inf
ROOT
ATOM      1  C   UNL A   1      39.876  22.470  26.594  1.00  0.00     0.116 C 
ENDROOT
BRANCH   1   2
ATOM      2  N   UNL A   1      39.132  21.848  25.518  1.00  0.00    -0.356 N 
ATOM      3  C   UNL A   1      37.797  21.930  25.243  1.00  0.00     0.220 C 
ATOM      4  O   UNL A   1      37.345  21.224  24.340  1.00  0.00    -0.275 OA
ATOM      5  H   UNL A   1      39.660  21.291  24.902  1.00  0.00     0.163 HD
BRANCH   3   6
ATOM      6  C   UNL A   1      36.892  22.856  26.045  1.00  0.00     0.106 C 
BRANCH   6   7
ATOM      7  C   UNL A   1      35.439  22.811  25.548  1.00  0.00     0.075 C 
BRANCH   7   8
ATOM      8  C   UNL A   1      34.623  21.596  26.072  1.00  0.00     0.184 C 
ATOM      9  N   UNL A   1      34.134  20.840  24.912  1.00  0.00    -0.330 N 
ATOM     10  C   UNL A   1      32.962  21.395  24.255  1.00  0.00     0.262 C 
ATOM     11  H   UNL A   1      34.861  21.029  24.222  1.00  0.00     0.348 HD
ATOM     12  C   UNL A   1      31.821  21.717  25.217  1.00  0.00     0.062 C 
ATOM     13  C   UNL A   1      33.509  21.989  27.054  1.00  0.00     0.065 C 
ATOM     14  C   UNL A   1      32.289  22.594  26.370  1.00  0.00     0.012 C 
BRANCH   9  15
ATOM     15  C   UNL A   1      34.263  19.381  24.952  1.00  0.00     0.300 C 
BRANCH  15  16
ATOM     16  C   UNL A   1      33.347  18.477  24.097  1.00  0.00     0.228 C 
ATOM     17  C   UNL A   1      35.369  16.162  25.267  1.00  0.00     0.332 C 
ATOM     18  N   UNL A   1      34.204  16.058  24.400  1.00  0.00    -0.333 N 
ATOM     19  C   UNL A   1      32.963  15.819  25.157  1.00  0.00     0.290 C 
ATOM     20  C   UNL A   1      34.012  17.212  23.501  1.00  0.00     0.300 C 
ATOM     21  H   UNL A   1      34.405  15.247  23.813  1.00  0.00     0.348 HD
ATOM     22  C   UNL A   1      32.381  17.086  25.804  1.00  0.00     0.222 C 
ATOM     23  O   UNL A   1      32.156  18.123  24.840  1.00  0.00    -0.361 OA
ENDBRANCH  15  16
ENDBRANCH   9  15
ENDBRANCH   7   8
ENDBRANCH   6   7
ENDBRANCH   3   6
ENDBRANCH   1   2
BRANCH   1  24
ATOM     24  C   UNL A   1      41.041  21.586  27.019  1.00  0.00     0.023 C 
BRANCH  24  25
ATOM     25  C   UNL A   1      41.348  20.395  26.129  1.00  0.00     0.023 C 
BRANCH  25  26
ATOM     26  C   UNL A   1      42.648  19.697  26.476  1.00  0.00     0.116 C 
BRANCH  26  27
ATOM     27  N   UNL A   1      43.308  19.046  25.349  1.00  0.00    -0.352 N 
ATOM     28  C   UNL A   1      44.310  19.545  24.543  1.00  0.00     0.251 C 
ATOM     29  H   UNL A   1      42.999  18.136  25.137  1.00  0.00     0.163 HD
ATOM     30  O   UNL A   1      44.754  18.886  23.609  1.00  0.00    -0.269 OA
BRANCH  28  31
ATOM     31  C   UNL A   1      44.784  20.927  24.764  1.00  0.00     0.039 A 
ATOM     32  C   UNL A   1      44.408  21.919  23.855  1.00  0.00     0.014 A 
ATOM     33  C   UNL A   1      45.486  21.262  25.922  1.00  0.00     0.014 A 
ATOM     34  C   UNL A   1      44.637  23.259  24.168  1.00  0.00     0.010 A 
ATOM     35  C   UNL A   1      45.600  22.596  26.287  1.00  0.00     0.010 A 
ATOM     36  C   UNL A   1      45.176  23.610  25.415  1.00  0.00    -0.014 A 
BRANCH  36  37
ATOM     37  C   UNL A   1      45.313  25.025  25.840  1.00  0.00     0.031 A 
ATOM     38  C   UNL A   1      46.659  25.693  25.782  1.00  0.00     0.074 A 
ATOM     39  C   UNL A   1      44.259  25.671  26.376  1.00  0.00     0.049 A 
ATOM     40  N   UNL A   1      47.020  26.868  26.228  1.00  0.00    -0.248 NA
ATOM     41  C   UNL A   1      47.758  24.912  25.192  1.00  0.00     0.031 C 
ATOM     42  C   UNL A   1      42.921  25.106  26.569  1.00  0.00     0.029 A 
ATOM     43  N   UNL A   1      44.154  26.945  26.877  1.00  0.00    -0.354 N 
ATOM     44  C   UNL A   1      48.390  26.946  26.013  1.00  0.00     0.074 A 
ATOM     45  C   UNL A   1      48.805  25.679  25.453  1.00  0.00     0.031 C 
ATOM     46  C   UNL A   1      42.123  26.037  27.119  1.00  0.00     0.029 A 
ATOM     47  C   UNL A   1      42.900  27.251  27.349  1.00  0.00     0.049 A 
ATOM     48  H   UNL A   1      44.906  27.579  26.896  1.00  0.00     0.167 HD
ATOM     49  C   UNL A   1      49.223  27.989  26.232  1.00  0.00     0.037 A 
ATOM     50  C   UNL A   1      42.433  28.383  27.908  1.00  0.00     0.037 A 
ATOM     51  C   UNL A   1      48.794  29.269  26.723  1.00  0.00     0.049 A 
ATOM     52  C   UNL A   1      43.358  29.555  28.071  1.00  0.00     0.074 A 
ATOM     53  C   UNL A   1      49.537  30.426  26.884  1.00  0.00     0.029 A 
ATOM     54  N   UNL A   1      47.498  29.564  27.121  1.00  0.00    -0.354 N 
ATOM     55  N   UNL A   1      44.636  29.643  27.787  1.00  0.00    -0.248 NA
ATOM     56  C   UNL A   1      42.778  30.787  28.623  1.00  0.00     0.031 C 
ATOM     57  C   UNL A   1      48.696  31.413  27.406  1.00  0.00     0.029 A 
ATOM     58  C   UNL A   1      47.422  30.882  27.538  1.00  0.00     0.049 A 
ATOM     59  H   UNL A   1      46.746  28.931  27.110  1.00  0.00     0.167 HD
ATOM     60  C   UNL A   1      45.007  30.942  28.106  1.00  0.00     0.074 A 
ATOM     61  C   UNL A   1      43.817  31.610  28.591  1.00  0.00     0.031 C 
ATOM     62  C   UNL A   1      46.224  31.528  28.009  1.00  0.00     0.037 A 
BRANCH  49  63
ATOM     63  C   UNL A   1      50.677  27.783  25.923  1.00  0.00     0.057 A 
ATOM     64  C   UNL A   1      51.181  27.909  24.621  1.00  0.00     0.134 A 
ATOM     65  C   UNL A   1      51.584  27.457  26.938  1.00  0.00     0.134 A 
ATOM     66  F   UNL A   1      50.362  28.204  23.600  1.00  0.00    -0.206 F 
ATOM     67  C   UNL A   1      52.527  27.680  24.334  1.00  0.00     0.040 A 
ATOM     68  C   UNL A   1      52.938  27.253  26.667  1.00  0.00     0.040 A 
ATOM     69  F   UNL A   1      51.169  27.323  28.206  1.00  0.00    -0.206 F 
ATOM     70  C   UNL A   1      53.412  27.356  25.361  1.00  0.00     0.006 A 
ENDBRANCH  49  63
BRANCH  50  71
ATOM     71  C   UNL A   1      41.009  28.473  28.316  1.00  0.00     0.057 A 
ATOM     72  C   UNL A   1      40.033  28.935  27.425  1.00  0.00     0.134 A 
ATOM     73  C   UNL A   1      40.587  28.097  29.596  1.00  0.00     0.134 A 
ATOM     74  F   UNL A   1      40.379  29.325  26.189  1.00  0.00    -0.206 F 
ATOM     75  C   UNL A   1      38.691  29.035  27.796  1.00  0.00     0.040 A 
ATOM     76  C   UNL A   1      39.245  28.171  29.975  1.00  0.00     0.040 A 
ATOM     77  F   UNL A   1      41.472  27.637  30.493  1.00  0.00    -0.206 F 
ATOM     78  C   UNL A   1      38.294  28.647  29.074  1.00  0.00     0.006 A 
ENDBRANCH  50  71
BRANCH  62  79
ATOM     79  C   UNL A   1      46.324  32.969  28.409  1.00  0.00     0.057 A 
ATOM     80  C   UNL A   1      46.651  33.348  29.717  1.00  0.00     0.134 A 
ATOM     81  C   UNL A   1      46.136  33.985  27.464  1.00  0.00     0.134 A 
ATOM     82  F   UNL A   1      46.830  32.419  30.669  1.00  0.00    -0.206 F 
ATOM     83  C   UNL A   1      46.774  34.690  30.074  1.00  0.00     0.040 A 
ATOM     84  C   UNL A   1      46.279  35.330  27.805  1.00  0.00     0.040 A 
ATOM     85  F   UNL A   1      45.828  33.685  26.194  1.00  0.00    -0.206 F 
ATOM     86  C   UNL A   1      46.595  35.686  29.115  1.00  0.00     0.006 A 
ENDBRANCH  62  79
ENDBRANCH  36  37
ENDBRANCH  28  31
ENDBRANCH  26  27
ENDBRANCH  25  26
ENDBRANCH  24  25
ENDBRANCH   1  24
TORSDOF 15
ENDMDL
MODEL 2
REMARK VINA RESULT:     -11.0      7.848     12.812
REMARK SMILES C[N@H+]1CCO[C@@H](C[N@H+]2CCCC[C@@H]2CCC(=O)NCCCCNC(=O)c2ccc(-c3c4nc(c(-c5c(F)cccc5F)c5ccc([nH]5)c(-c5c(F)cccc5F)c5nc(c(-c6c(F)cccc6F)c6ccc3[nH]6)C=C5)C=C4)cc2)C1
REMARK SMILES IDX 19 1 18 2 16 3 17 4 15 6 14 7 13 8 8 9 9 10 10 12 12 13
REMARK SMILES IDX 11 14 7 15 6 16 1 17 2 18 3 19 80 20 4 22 5 23 20 24 21 25
REMARK SMILES IDX 22 26 23 27 24 28 25 30 26 31 27 32 79 33 28 34 78 35 29 36
REMARK SMILES IDX 30 37 31 38 72 39 32 40 77 41 71 42 73 43 33 44 76 45 70 46
REMARK SMILES IDX 69 47 34 49 60 50 43 51 59 52 44 53 47 54 58 55 74 56 45 57
REMARK SMILES IDX 46 58 57 60 75 61 48 62 35 63 36 64 41 65 37 66 38 67 40 68
REMARK SMILES IDX 42 69 39 70 61 71 62 72 67 73 63 74 64 75 66 76 68 77 65 78
REMARK SMILES IDX 49 79 50 80 55 81 51 82 52 83 54 84 56 85 53 86
REMARK H PARENT 18 5 8 11 2 21 23 29 73 48 47 59
REMARK Flexibility Score: inf
ROOT
ATOM      1  C   UNL A   1      34.739  31.987  28.198  1.00  0.00     0.116 C 
ENDROOT
BRANCH   1   2
ATOM      2  N   UNL A   1      33.391  31.592  27.845  1.00  0.00    -0.356 N 
ATOM      3  C   UNL A   1      32.973  30.474  27.183  1.00  0.00     0.220 C 
ATOM      4  O   UNL A   1      31.781  30.388  26.881  1.00  0.00    -0.275 OA
ATOM      5  H   UNL A   1      32.680  32.215  28.119  1.00  0.00     0.163 HD
BRANCH   3   6
ATOM      6  C   UNL A   1      33.959  29.373  26.813  1.00  0.00     0.106 C 
BRANCH   6   7
ATOM      7  C   UNL A   1      33.273  28.207  26.085  1.00  0.00     0.075 C 
BRANCH   7   8
ATOM      8  C   UNL A   1      32.754  28.560  24.664  1.00  0.00     0.184 C 
ATOM      9  N   UNL A   1      31.355  28.125  24.567  1.00  0.00    -0.330 N 
ATOM     10  C   UNL A   1      31.159  26.704  24.329  1.00  0.00     0.262 C 
ATOM     11  H   UNL A   1      31.046  28.213  25.535  1.00  0.00     0.348 HD
ATOM     12  C   UNL A   1      31.981  26.165  23.161  1.00  0.00     0.062 C 
ATOM     13  C   UNL A   1      33.641  28.008  23.537  1.00  0.00     0.065 C 
ATOM     14  C   UNL A   1      33.456  26.514  23.303  1.00  0.00     0.012 C 
BRANCH   9  15
ATOM     15  C   UNL A   1      30.397  29.053  23.961  1.00  0.00     0.300 C 
BRANCH  15  16
ATOM     16  C   UNL A   1      29.457  28.597  22.823  1.00  0.00     0.228 C 
ATOM     17  C   UNL A   1      27.795  31.264  23.795  1.00  0.00     0.332 C 
ATOM     18  N   UNL A   1      27.532  30.318  22.719  1.00  0.00    -0.333 N 
ATOM     19  C   UNL A   1      28.120  30.749  21.439  1.00  0.00     0.290 C 
ATOM     20  C   UNL A   1      27.958  28.935  23.010  1.00  0.00     0.300 C 
ATOM     21  H   UNL A   1      26.514  30.311  22.641  1.00  0.00     0.348 HD
ATOM     22  C   UNL A   1      29.628  30.473  21.328  1.00  0.00     0.222 C 
ATOM     23  O   UNL A   1      29.935  29.090  21.548  1.00  0.00    -0.361 OA
ENDBRANCH  15  16
ENDBRANCH   9  15
ENDBRANCH   7   8
ENDBRANCH   6   7
ENDBRANCH   3   6
ENDBRANCH   1   2
BRANCH   1  24
ATOM     24  C   UNL A   1      34.719  33.222  29.089  1.00  0.00     0.023 C 
BRANCH  24  25
ATOM     25  C   UNL A   1      33.546  34.168  28.908  1.00  0.00     0.023 C 
BRANCH  25  26
ATOM     26  C   UNL A   1      33.753  35.523  29.557  1.00  0.00     0.116 C 
BRANCH  26  27
ATOM     27  N   UNL A   1      32.699  35.920  30.486  1.00  0.00    -0.352 N 
ATOM     28  C   UNL A   1      32.674  35.781  31.857  1.00  0.00     0.251 C 
ATOM     29  H   UNL A   1      31.906  36.339  30.081  1.00  0.00     0.163 HD
ATOM     30  O   UNL A   1      31.700  36.143  32.509  1.00  0.00    -0.269 OA
BRANCH  28  31
ATOM     31  C   UNL A   1      33.804  35.108  32.529  1.00  0.00     0.039 A 
ATOM     32  C   UNL A   1      33.641  33.786  32.953  1.00  0.00     0.014 A 
ATOM     33  C   UNL A   1      35.049  35.730  32.625  1.00  0.00     0.014 A 
ATOM     34  C   UNL A   1      34.756  33.055  33.366  1.00  0.00     0.010 A 
ATOM     35  C   UNL A   1      36.171  34.967  32.917  1.00  0.00     0.010 A 
ATOM     36  C   UNL A   1      36.038  33.621  33.289  1.00  0.00    -0.014 A 
BRANCH  36  37
ATOM     37  C   UNL A   1      37.260  32.837  33.592  1.00  0.00     0.031 A 
ATOM     38  C   UNL A   1      38.021  33.105  34.861  1.00  0.00     0.074 A 
ATOM     39  C   UNL A   1      37.744  31.967  32.684  1.00  0.00     0.049 A 
ATOM     40  N   UNL A   1      39.176  32.631  35.250  1.00  0.00    -0.248 NA
ATOM     41  C   UNL A   1      37.428  34.077  35.794  1.00  0.00     0.031 C 
ATOM     42  C   UNL A   1      37.148  31.681  31.377  1.00  0.00     0.029 A 
ATOM     43  N   UNL A   1      38.864  31.175  32.715  1.00  0.00    -0.354 N 
ATOM     44  C   UNL A   1      39.465  33.280  36.443  1.00  0.00     0.074 A 
ATOM     45  C   UNL A   1      38.396  34.223  36.685  1.00  0.00     0.031 C 
ATOM     46  C   UNL A   1      37.891  30.757  30.745  1.00  0.00     0.029 A 
ATOM     47  C   UNL A   1      39.034  30.412  31.585  1.00  0.00     0.049 A 
ATOM     48  H   UNL A   1      39.488  31.155  33.477  1.00  0.00     0.167 HD
ATOM     49  C   UNL A   1      40.511  33.087  37.280  1.00  0.00     0.037 A 
ATOM     50  C   UNL A   1      40.003  29.537  31.262  1.00  0.00     0.037 A 
ATOM     51  C   UNL A   1      41.534  32.099  37.071  1.00  0.00     0.049 A 
ATOM     52  C   UNL A   1      41.114  29.282  32.241  1.00  0.00     0.074 A 
ATOM     53  C   UNL A   1      42.580  31.750  37.907  1.00  0.00     0.029 A 
ATOM     54  N   UNL A   1      41.630  31.293  35.947  1.00  0.00    -0.354 N 
ATOM     55  N   UNL A   1      41.333  29.844  33.406  1.00  0.00    -0.248 NA
ATOM     56  C   UNL A   1      42.109  28.266  31.867  1.00  0.00     0.031 C 
ATOM     57  C   UNL A   1      43.326  30.750  37.275  1.00  0.00     0.029 A 
ATOM     58  C   UNL A   1      42.725  30.453  36.062  1.00  0.00     0.049 A 
ATOM     59  H   UNL A   1      41.012  31.315  35.181  1.00  0.00     0.167 HD
ATOM     60  C   UNL A   1      42.474  29.238  33.912  1.00  0.00     0.074 A 
ATOM     61  C   UNL A   1      42.894  28.254  32.936  1.00  0.00     0.031 C 
ATOM     62  C   UNL A   1      43.119  29.476  35.080  1.00  0.00     0.037 A 
BRANCH  49  63
ATOM     63  C   UNL A   1      40.581  33.953  38.502  1.00  0.00     0.057 A 
ATOM     64  C   UNL A   1      39.917  33.614  39.689  1.00  0.00     0.134 A 
ATOM     65  C   UNL A   1      41.322  35.141  38.495  1.00  0.00     0.134 A 
ATOM     66  F   UNL A   1      39.176  32.497  39.758  1.00  0.00    -0.206 F 
ATOM     67  C   UNL A   1      39.955  34.443  40.811  1.00  0.00     0.040 A 
ATOM     68  C   UNL A   1      41.391  35.964  39.620  1.00  0.00     0.040 A 
ATOM     69  F   UNL A   1      41.985  35.525  37.394  1.00  0.00    -0.206 F 
ATOM     70  C   UNL A   1      40.699  35.620  40.780  1.00  0.00     0.006 A 
ENDBRANCH  49  63
BRANCH  50  71
ATOM     71  C   UNL A   1      39.944  28.808  29.971  1.00  0.00     0.057 A 
ATOM     72  C   UNL A   1      39.250  27.597  29.859  1.00  0.00     0.134 A 
ATOM     73  C   UNL A   1      40.568  29.302  28.820  1.00  0.00     0.134 A 
ATOM     74  F   UNL A   1      38.646  27.065  30.932  1.00  0.00    -0.206 F 
ATOM     75  C   UNL A   1      39.192  26.895  28.654  1.00  0.00     0.040 A 
ATOM     76  C   UNL A   1      40.500  28.622  27.602  1.00  0.00     0.040 A 
ATOM     77  F   UNL A   1      41.239  30.463  28.859  1.00  0.00    -0.206 F 
ATOM     78  C   UNL A   1      39.815  27.411  27.520  1.00  0.00     0.006 A 
ENDBRANCH  50  71
BRANCH  62  79
ATOM     79  C   UNL A   1      44.328  28.642  35.376  1.00  0.00     0.057 A 
ATOM     80  C   UNL A   1      44.228  27.409  36.031  1.00  0.00     0.134 A 
ATOM     81  C   UNL A   1      45.599  29.057  34.960  1.00  0.00     0.134 A 
ATOM     82  F   UNL A   1      43.039  26.964  36.465  1.00  0.00    -0.206 F 
ATOM     83  C   UNL A   1      45.354  26.623  36.275  1.00  0.00     0.040 A 
ATOM     84  C   UNL A   1      46.729  28.269  35.178  1.00  0.00     0.040 A 
ATOM     85  F   UNL A   1      45.758  30.226  34.321  1.00  0.00    -0.206 F 
ATOM     86  C   UNL A   1      46.608  27.050  35.841  1.00  0.00     0.006 A 
ENDBRANCH  62  79
ENDBRANCH  36  37
ENDBRANCH  28  31
ENDBRANCH  26  27
ENDBRANCH  25  26
ENDBRANCH  24  25
ENDBRANCH   1  24
TORSDOF 15
ENDMDL
MODEL 3
REMARK VINA RESULT:     -10.9      7.236     12.186
REMARK SMILES C[N@H+]1CCO[C@@H](C[N@H+]2CCCC[C@@H]2CCC(=O)NCCCCNC(=O)c2ccc(-c3c4nc(c(-c5c(F)cccc5F)c5ccc([nH]5)c(-c5c(F)cccc5F)c5nc(c(-c6c(F)cccc6F)c6ccc3[nH]6)C=C5)C=C4)cc2)C1
REMARK SMILES IDX 19 1 18 2 16 3 17 4 15 6 14 7 13 8 8 9 9 10 10 12 12 13
REMARK SMILES IDX 11 14 7 15 6 16 1 17 2 18 3 19 80 20 4 22 5 23 20 24 21 25
REMARK SMILES IDX 22 26 23 27 24 28 25 30 26 31 27 32 79 33 28 34 78 35 29 36
REMARK SMILES IDX 30 37 31 38 72 39 32 40 77 41 71 42 73 43 33 44 76 45 70 46
REMARK SMILES IDX 69 47 34 49 60 50 43 51 59 52 44 53 47 54 58 55 74 56 45 57
REMARK SMILES IDX 46 58 57 60 75 61 48 62 35 63 36 64 41 65 37 66 38 67 40 68
REMARK SMILES IDX 42 69 39 70 61 71 62 72 67 73 63 74 64 75 66 76 68 77 65 78
REMARK SMILES IDX 49 79 50 80 55 81 51 82 52 83 54 84 56 85 53 86
REMARK H PARENT 18 5 8 11 2 21 23 29 73 48 47 59
REMARK Flexibility Score: inf
ROOT
ATOM      1  C   UNL A   1      34.901  32.685  28.166  1.00  0.00     0.116 C 
ENDROOT
BRANCH   1   2
ATOM      2  N   UNL A   1      36.034  31.850  27.824  1.00  0.00    -0.356 N 
ATOM      3  C   UNL A   1      36.095  30.490  27.725  1.00  0.00     0.220 C 
ATOM      4  O   UNL A   1      37.195  29.969  27.532  1.00  0.00    -0.275 OA
ATOM      5  H   UNL A   1      36.874  32.328  27.638  1.00  0.00     0.163 HD
BRANCH   3   6
ATOM      6  C   UNL A   1      34.838  29.641  27.868  1.00  0.00     0.106 C 
BRANCH   6   7
ATOM      7  C   UNL A   1      34.456  28.953  26.549  1.00  0.00     0.075 C 
BRANCH   7   8
ATOM      8  C   UNL A   1      33.168  28.088  26.631  1.00  0.00     0.184 C 
ATOM      9  N   UNL A   1      33.190  27.129  25.520  1.00  0.00    -0.330 N 
ATOM     10  C   UNL A   1      32.797  27.663  24.226  1.00  0.00     0.262 C 
ATOM     11  H   UNL A   1      34.192  26.993  25.386  1.00  0.00     0.348 HD
ATOM     12  C   UNL A   1      31.476  28.428  24.261  1.00  0.00     0.062 C 
ATOM     13  C   UNL A   1      31.878  28.921  26.687  1.00  0.00     0.065 C 
ATOM     14  C   UNL A   1      31.477  29.503  25.338  1.00  0.00     0.012 C 
BRANCH   9  15
ATOM     15  C   UNL A   1      32.832  25.739  25.818  1.00  0.00     0.300 C 
BRANCH  15  16
ATOM     16  C   UNL A   1      31.392  25.358  26.229  1.00  0.00     0.228 C 
ATOM     17  C   UNL A   1      31.763  23.255  23.727  1.00  0.00     0.332 C 
ATOM     18  N   UNL A   1      30.649  23.457  24.644  1.00  0.00    -0.333 N 
ATOM     19  C   UNL A   1      30.728  22.578  25.823  1.00  0.00     0.290 C 
ATOM     20  C   UNL A   1      30.476  24.854  25.089  1.00  0.00     0.300 C 
ATOM     21  H   UNL A   1      29.827  23.211  24.091  1.00  0.00     0.348 HD
ATOM     22  C   UNL A   1      31.714  23.070  26.895  1.00  0.00     0.222 C 
ATOM     23  O   UNL A   1      31.417  24.406  27.321  1.00  0.00    -0.361 OA
ENDBRANCH  15  16
ENDBRANCH   9  15
ENDBRANCH   7   8
ENDBRANCH   6   7
ENDBRANCH   3   6
ENDBRANCH   1   2
BRANCH   1  24
ATOM     24  C   UNL A   1      35.289  34.157  28.119  1.00  0.00     0.023 C 
BRANCH  24  25
ATOM     25  C   UNL A   1      34.323  35.133  28.766  1.00  0.00     0.023 C 
BRANCH  25  26
ATOM     26  C   UNL A   1      33.306  34.470  29.675  1.00  0.00     0.116 C 
BRANCH  26  27
ATOM     27  N   UNL A   1      32.582  35.387  30.549  1.00  0.00    -0.352 N 
ATOM     28  C   UNL A   1      32.863  35.720  31.857  1.00  0.00     0.251 C 
ATOM     29  H   UNL A   1      31.793  35.823  30.155  1.00  0.00     0.163 HD
ATOM     30  O   UNL A   1      32.144  36.494  32.479  1.00  0.00    -0.269 OA
BRANCH  28  31
ATOM     31  C   UNL A   1      33.998  35.060  32.535  1.00  0.00     0.039 A 
ATOM     32  C   UNL A   1      33.821  33.769  33.039  1.00  0.00     0.014 A 
ATOM     33  C   UNL A   1      35.258  35.659  32.560  1.00  0.00     0.014 A 
ATOM     34  C   UNL A   1      34.931  33.038  33.463  1.00  0.00     0.010 A 
ATOM     35  C   UNL A   1      36.372  34.889  32.864  1.00  0.00     0.010 A 
ATOM     36  C   UNL A   1      36.222  33.570  33.317  1.00  0.00    -0.014 A 
BRANCH  36  37
ATOM     37  C   UNL A   1      37.436  32.777  33.631  1.00  0.00     0.031 A 
ATOM     38  C   UNL A   1      38.200  33.054  34.896  1.00  0.00     0.074 A 
ATOM     39  C   UNL A   1      37.911  31.890  32.735  1.00  0.00     0.049 A 
ATOM     40  N   UNL A   1      39.350  32.574  35.291  1.00  0.00    -0.248 NA
ATOM     41  C   UNL A   1      37.617  34.046  35.815  1.00  0.00     0.031 C 
ATOM     42  C   UNL A   1      37.311  31.592  31.431  1.00  0.00     0.029 A 
ATOM     43  N   UNL A   1      39.022  31.086  32.777  1.00  0.00    -0.354 N 
ATOM     44  C   UNL A   1      39.646  33.235  36.475  1.00  0.00     0.074 A 
ATOM     45  C   UNL A   1      38.587  34.193  36.704  1.00  0.00     0.031 C 
ATOM     46  C   UNL A   1      38.045  30.652  30.812  1.00  0.00     0.029 A 
ATOM     47  C   UNL A   1      39.183  30.307  31.656  1.00  0.00     0.049 A 
ATOM     48  H   UNL A   1      39.646  31.070  33.538  1.00  0.00     0.167 HD
ATOM     49  C   UNL A   1      40.690  33.043  37.315  1.00  0.00     0.037 A 
ATOM     50  C   UNL A   1      40.144  29.417  31.346  1.00  0.00     0.037 A 
ATOM     51  C   UNL A   1      41.703  32.042  37.119  1.00  0.00     0.049 A 
ATOM     52  C   UNL A   1      41.252  29.163  32.328  1.00  0.00     0.074 A 
ATOM     53  C   UNL A   1      42.745  31.693  37.960  1.00  0.00     0.029 A 
ATOM     54  N   UNL A   1      41.790  31.219  36.006  1.00  0.00    -0.354 N 
ATOM     55  N   UNL A   1      41.477  29.739  33.485  1.00  0.00    -0.248 NA
ATOM     56  C   UNL A   1      42.236  28.133  31.968  1.00  0.00     0.031 C 
ATOM     57  C   UNL A   1      43.480  30.677  37.341  1.00  0.00     0.029 A 
ATOM     58  C   UNL A   1      42.875  30.370  36.133  1.00  0.00     0.049 A 
ATOM     59  H   UNL A   1      41.172  31.237  35.241  1.00  0.00     0.167 HD
ATOM     60  C   UNL A   1      42.612  29.128  34.000  1.00  0.00     0.074 A 
ATOM     61  C   UNL A   1      43.021  28.127  33.037  1.00  0.00     0.031 C 
ATOM     62  C   UNL A   1      43.259  29.375  35.164  1.00  0.00     0.037 A 
BRANCH  49  63
ATOM     63  C   UNL A   1      40.769  33.925  38.525  1.00  0.00     0.057 A 
ATOM     64  C   UNL A   1      41.525  35.106  38.533  1.00  0.00     0.134 A 
ATOM     65  C   UNL A   1      40.083  33.592  39.699  1.00  0.00     0.134 A 
ATOM     66  F   UNL A   1      42.220  35.474  37.445  1.00  0.00    -0.206 F 
ATOM     67  C   UNL A   1      41.626  35.902  39.673  1.00  0.00     0.040 A 
ATOM     68  C   UNL A   1      40.153  34.396  40.838  1.00  0.00     0.040 A 
ATOM     69  F   UNL A   1      39.339  32.477  39.761  1.00  0.00    -0.206 F 
ATOM     70  C   UNL A   1      40.933  35.550  40.830  1.00  0.00     0.006 A 
ENDBRANCH  49  63
BRANCH  50  71
ATOM     71  C   UNL A   1      40.076  28.671  30.065  1.00  0.00     0.057 A 
ATOM     72  C   UNL A   1      39.337  27.487  29.959  1.00  0.00     0.134 A 
ATOM     73  C   UNL A   1      40.739  29.122  28.917  1.00  0.00     0.134 A 
ATOM     74  F   UNL A   1      38.694  26.997  31.029  1.00  0.00    -0.206 F 
ATOM     75  C   UNL A   1      39.270  26.770  28.764  1.00  0.00     0.040 A 
ATOM     76  C   UNL A   1      40.664  28.426  27.709  1.00  0.00     0.040 A 
ATOM     77  F   UNL A   1      41.456  30.255  28.951  1.00  0.00    -0.206 F 
ATOM     78  C   UNL A   1      39.932  27.243  27.633  1.00  0.00     0.006 A 
ENDBRANCH  50  71
BRANCH  62  79
ATOM     79  C   UNL A   1      44.459  28.533  35.472  1.00  0.00     0.057 A 
ATOM     80  C   UNL A   1      44.349  27.319  36.160  1.00  0.00     0.134 A 
ATOM     81  C   UNL A   1      45.732  28.919  35.033  1.00  0.00     0.134 A 
ATOM     82  F   UNL A   1      43.158  26.902  36.615  1.00  0.00    -0.206 F 
ATOM     83  C   UNL A   1      45.467  26.524  36.414  1.00  0.00     0.040 A 
ATOM     84  C   UNL A   1      46.853  28.122  35.262  1.00  0.00     0.040 A 
ATOM     85  F   UNL A   1      45.902  30.068  34.362  1.00  0.00    -0.206 F 
ATOM     86  C   UNL A   1      46.722  26.922  35.959  1.00  0.00     0.006 A 
ENDBRANCH  62  79
ENDBRANCH  36  37
ENDBRANCH  28  31
ENDBRANCH  26  27
ENDBRANCH  25  26
ENDBRANCH  24  25
ENDBRANCH   1  24
TORSDOF 15
ENDMDL
