MODEL 1
REMARK VINA RESULT:     -11.5      0.000      0.000
REMARK SMILES COC(=O)c1cncc(N2CC[C@H](C(=O)NCCCCNC(=O)c3ccc(-c4c5nc(c(-c6c(F)cccc6F)c6ccc([nH]6)c(-c6c(F)cccc6F)c6nc(c(-c7c(F)cccc7F)c7ccc4[nH]7)C=C6)C=C5)cc3)C2)n1
REMARK SMILES IDX 18 1 17 2 16 3 14 4 15 5 13 7 10 8 11 9 78 10 12 11 9 12
REMARK SMILES IDX 5 13 6 14 79 15 7 16 8 17 3 18 4 19 2 20 1 21 19 22 20 23
REMARK SMILES IDX 21 24 22 25 23 27 24 28 25 29 77 30 26 31 76 32 27 33 28 34
REMARK SMILES IDX 29 35 70 36 30 37 75 38 69 39 71 40 31 41 74 42 68 43 67 44
REMARK SMILES IDX 32 46 58 47 41 48 57 49 42 50 45 51 56 52 72 53 43 54 44 55
REMARK SMILES IDX 55 57 73 58 46 59 33 60 34 61 39 62 35 63 36 64 38 65 40 66
REMARK SMILES IDX 37 67 59 68 60 69 65 70 61 71 62 72 64 73 66 74 63 75 47 76
REMARK SMILES IDX 48 77 53 78 49 79 50 80 52 81 54 82 51 83
REMARK H PARENT 16 6 21 26 71 45 45 56
REMARK Flexibility Score: inf
ROOT
ATOM      1  C   UNL A   1      31.571  27.647  26.509  1.00  0.00     0.023 C 
ENDROOT
BRANCH   1   2
ATOM      2  C   UNL A   1      31.763  26.296  25.822  1.00  0.00     0.116 C 
BRANCH   2   3
ATOM      3  N   UNL A   1      31.092  25.211  26.524  1.00  0.00    -0.356 N 
ATOM      4  C   UNL A   1      31.526  23.970  26.876  1.00  0.00     0.224 C 
ATOM      5  O   UNL A   1      30.752  23.262  27.525  1.00  0.00    -0.275 OA
ATOM      6  H   UNL A   1      30.165  25.410  26.790  1.00  0.00     0.163 HD
BRANCH   4   7
ATOM      7  C   UNL A   1      32.902  23.444  26.505  1.00  0.00     0.099 C 
ATOM      8  N   UNL A   1      33.627  21.496  25.374  1.00  0.00    -0.354 N 
ATOM      9  C   UNL A   1      34.158  21.371  26.720  1.00  0.00     0.119 C 
ATOM     10  C   UNL A   1      32.923  22.749  25.144  1.00  0.00     0.131 C 
ATOM     11  C   UNL A   1      33.478  22.467  27.526  1.00  0.00     0.037 C 
BRANCH   8  12
ATOM     12  C   UNL A   1      33.356  20.387  24.611  1.00  0.00     0.148 A 
ATOM     13  C   UNL A   1      33.680  18.143  24.158  1.00  0.00     0.169 A 
ATOM     14  C   UNL A   1      32.796  18.204  23.093  1.00  0.00     0.147 A 
ATOM     15  N   UNL A   1      33.974  19.230  24.923  1.00  0.00    -0.221 NA
ATOM     16  N   UNL A   1      32.153  19.347  22.761  1.00  0.00    -0.258 NA
ATOM     17  C   UNL A   1      32.450  20.418  23.546  1.00  0.00     0.157 A 
BRANCH  13  18
ATOM     18  C   UNL A   1      34.297  16.861  24.573  1.00  0.00     0.358 C 
ATOM     19  O   UNL A   1      35.396  16.768  25.103  1.00  0.00    -0.244 OA
BRANCH  18  20
ATOM     20  O   UNL A   1      33.475  15.830  24.249  1.00  0.00    -0.464 OA
ATOM     21  C   UNL A   1      32.898  15.164  25.376  1.00  0.00     0.282 C 
ENDBRANCH  18  20
ENDBRANCH  13  18
ENDBRANCH   8  12
ENDBRANCH   4   7
ENDBRANCH   2   3
ENDBRANCH   1   2
BRANCH   1  22
ATOM     22  C   UNL A   1      32.657  28.684  26.223  1.00  0.00     0.023 C 
BRANCH  22  23
ATOM     23  C   UNL A   1      33.744  28.812  27.287  1.00  0.00     0.116 C 
BRANCH  23  24
ATOM     24  N   UNL A   1      33.838  30.145  27.863  1.00  0.00    -0.352 N 
ATOM     25  C   UNL A   1      34.909  30.758  28.472  1.00  0.00     0.251 C 
ATOM     26  H   UNL A   1      33.018  30.686  27.810  1.00  0.00     0.163 HD
ATOM     27  O   UNL A   1      34.785  31.868  28.980  1.00  0.00    -0.269 OA
BRANCH  25  28
ATOM     28  C   UNL A   1      36.204  30.055  28.558  1.00  0.00     0.039 A 
ATOM     29  C   UNL A   1      37.052  30.075  27.447  1.00  0.00     0.014 A 
ATOM     30  C   UNL A   1      36.603  29.423  29.738  1.00  0.00     0.014 A 
ATOM     31  C   UNL A   1      38.342  29.553  27.554  1.00  0.00     0.010 A 
ATOM     32  C   UNL A   1      37.909  28.959  29.863  1.00  0.00     0.010 A 
ATOM     33  C   UNL A   1      38.799  29.044  28.780  1.00  0.00    -0.014 A 
BRANCH  33  34
ATOM     34  C   UNL A   1      40.222  28.668  28.975  1.00  0.00     0.031 A 
ATOM     35  C   UNL A   1      41.214  29.671  29.486  1.00  0.00     0.074 A 
ATOM     36  C   UNL A   1      40.634  27.442  28.597  1.00  0.00     0.049 A 
ATOM     37  N   UNL A   1      42.510  29.554  29.617  1.00  0.00    -0.248 NA
ATOM     38  C   UNL A   1      40.683  30.984  29.881  1.00  0.00     0.031 C 
ATOM     39  C   UNL A   1      39.775  26.394  28.040  1.00  0.00     0.029 A 
ATOM     40  N   UNL A   1      41.884  26.875  28.602  1.00  0.00    -0.354 N 
ATOM     41  C   UNL A   1      42.954  30.779  30.095  1.00  0.00     0.074 A 
ATOM     42  C   UNL A   1      41.793  31.639  30.195  1.00  0.00     0.031 C 
ATOM     43  C   UNL A   1      40.520  25.312  27.768  1.00  0.00     0.029 A 
ATOM     44  C   UNL A   1      41.913  25.601  28.091  1.00  0.00     0.049 A 
ATOM     45  H   UNL A   1      42.684  27.339  28.941  1.00  0.00     0.167 HD
ATOM     46  C   UNL A   1      44.211  31.148  30.435  1.00  0.00     0.037 A 
ATOM     47  C   UNL A   1      42.948  24.764  27.885  1.00  0.00     0.037 A 
ATOM     48  C   UNL A   1      45.361  30.285  30.355  1.00  0.00     0.049 A 
ATOM     49  C   UNL A   1      44.336  25.207  28.250  1.00  0.00     0.074 A 
ATOM     50  C   UNL A   1      46.662  30.543  30.753  1.00  0.00     0.029 A 
ATOM     51  N   UNL A   1      45.351  29.000  29.834  1.00  0.00    -0.354 N 
ATOM     52  N   UNL A   1      44.730  26.344  28.770  1.00  0.00    -0.248 NA
ATOM     53  C   UNL A   1      45.425  24.253  27.995  1.00  0.00     0.031 C 
ATOM     54  C   UNL A   1      47.446  29.430  30.434  1.00  0.00     0.029 A 
ATOM     55  C   UNL A   1      46.628  28.464  29.872  1.00  0.00     0.049 A 
ATOM     56  H   UNL A   1      44.553  28.536  29.490  1.00  0.00     0.167 HD
ATOM     57  C   UNL A   1      46.105  26.238  28.917  1.00  0.00     0.074 A 
ATOM     58  C   UNL A   1      46.477  24.919  28.449  1.00  0.00     0.031 C 
ATOM     59  C   UNL A   1      46.983  27.154  29.395  1.00  0.00     0.037 A 
BRANCH  46  60
ATOM     60  C   UNL A   1      44.413  32.549  30.931  1.00  0.00     0.057 A 
ATOM     61  C   UNL A   1      44.696  33.605  30.057  1.00  0.00     0.134 A 
ATOM     62  C   UNL A   1      44.275  32.852  32.291  1.00  0.00     0.134 A 
ATOM     63  F   UNL A   1      44.850  33.379  28.744  1.00  0.00    -0.206 F 
ATOM     64  C   UNL A   1      44.855  34.913  30.521  1.00  0.00     0.040 A 
ATOM     65  C   UNL A   1      44.409  34.158  32.764  1.00  0.00     0.040 A 
ATOM     66  F   UNL A   1      43.998  31.886  33.181  1.00  0.00    -0.206 F 
ATOM     67  C   UNL A   1      44.704  35.193  31.878  1.00  0.00     0.006 A 
ENDBRANCH  46  60
BRANCH  47  68
ATOM     68  C   UNL A   1      42.711  23.421  27.301  1.00  0.00     0.057 A 
ATOM     69  C   UNL A   1      42.370  22.334  28.113  1.00  0.00     0.134 A 
ATOM     70  C   UNL A   1      42.826  23.191  25.925  1.00  0.00     0.134 A 
ATOM     71  F   UNL A   1      42.265  22.489  29.441  1.00  0.00    -0.206 F 
ATOM     72  C   UNL A   1      42.163  21.060  27.579  1.00  0.00     0.040 A 
ATOM     73  C   UNL A   1      42.601  21.929  25.376  1.00  0.00     0.040 A 
ATOM     74  F   UNL A   1      43.147  24.194  25.096  1.00  0.00    -0.206 F 
ATOM     75  C   UNL A   1      42.274  20.857  26.205  1.00  0.00     0.006 A 
ENDBRANCH  47  68
BRANCH  59  76
ATOM     76  C   UNL A   1      48.428  26.756  29.439  1.00  0.00     0.057 A 
ATOM     77  C   UNL A   1      48.949  26.006  30.501  1.00  0.00     0.134 A 
ATOM     78  C   UNL A   1      49.297  27.093  28.395  1.00  0.00     0.134 A 
ATOM     79  F   UNL A   1      48.171  25.665  31.539  1.00  0.00    -0.206 F 
ATOM     80  C   UNL A   1      50.290  25.619  30.530  1.00  0.00     0.040 A 
ATOM     81  C   UNL A   1      50.634  26.693  28.401  1.00  0.00     0.040 A 
ATOM     82  F   UNL A   1      48.858  27.805  27.346  1.00  0.00    -0.206 F 
ATOM     83  C   UNL A   1      51.134  25.957  29.474  1.00  0.00     0.006 A 
ENDBRANCH  59  76
ENDBRANCH  33  34
ENDBRANCH  25  28
ENDBRANCH  23  24
ENDBRANCH  22  23
ENDBRANCH   1  22
TORSDOF 14
ENDMDL
MODEL 2
REMARK VINA RESULT:     -11.5      4.954      8.401
REMARK SMILES COC(=O)c1cncc(N2CC[C@H](C(=O)NCCCCNC(=O)c3ccc(-c4c5nc(c(-c6c(F)cccc6F)c6ccc([nH]6)c(-c6c(F)cccc6F)c6nc(c(-c7c(F)cccc7F)c7ccc4[nH]7)C=C6)C=C5)cc3)C2)n1
REMARK SMILES IDX 18 1 17 2 16 3 14 4 15 5 13 7 10 8 11 9 78 10 12 11 9 12
REMARK SMILES IDX 5 13 6 14 79 15 7 16 8 17 3 18 4 19 2 20 1 21 19 22 20 23
REMARK SMILES IDX 21 24 22 25 23 27 24 28 25 29 77 30 26 31 76 32 27 33 28 34
REMARK SMILES IDX 29 35 70 36 30 37 75 38 69 39 71 40 31 41 74 42 68 43 67 44
REMARK SMILES IDX 32 46 58 47 41 48 57 49 42 50 45 51 56 52 72 53 43 54 44 55
REMARK SMILES IDX 55 57 73 58 46 59 33 60 34 61 39 62 35 63 36 64 38 65 40 66
REMARK SMILES IDX 37 67 59 68 60 69 65 70 61 71 62 72 64 73 66 74 63 75 47 76
REMARK SMILES IDX 48 77 53 78 49 79 50 80 52 81 54 82 51 83
REMARK H PARENT 16 6 21 26 71 45 45 56
REMARK Flexibility Score: inf
ROOT
ATOM      1  C   UNL A   1      37.483  33.977  29.920  1.00  0.00     0.023 C 
ENDROOT
BRANCH   1   2
ATOM      2  C   UNL A   1      37.713  33.866  31.426  1.00  0.00     0.116 C 
BRANCH   2   3
ATOM      3  N   UNL A   1      38.014  32.506  31.848  1.00  0.00    -0.356 N 
ATOM      4  C   UNL A   1      37.459  31.726  32.816  1.00  0.00     0.224 C 
ATOM      5  O   UNL A   1      37.880  30.572  32.923  1.00  0.00    -0.275 OA
ATOM      6  H   UNL A   1      38.745  32.076  31.347  1.00  0.00     0.163 HD
BRANCH   4   7
ATOM      7  C   UNL A   1      36.363  32.221  33.743  1.00  0.00     0.099 C 
ATOM      8  N   UNL A   1      34.894  34.074  33.650  1.00  0.00    -0.354 N 
ATOM      9  C   UNL A   1      35.719  34.304  34.823  1.00  0.00     0.119 C 
ATOM     10  C   UNL A   1      35.170  32.807  32.989  1.00  0.00     0.131 C 
ATOM     11  C   UNL A   1      36.836  33.275  34.741  1.00  0.00     0.037 C 
BRANCH   8  12
ATOM     12  C   UNL A   1      34.333  35.121  32.961  1.00  0.00     0.148 A 
ATOM     13  C   UNL A   1      33.389  35.966  31.027  1.00  0.00     0.169 A 
ATOM     14  C   UNL A   1      33.215  37.205  31.622  1.00  0.00     0.147 A 
ATOM     15  N   UNL A   1      33.953  34.916  31.683  1.00  0.00    -0.221 NA
ATOM     16  N   UNL A   1      33.577  37.440  32.905  1.00  0.00    -0.258 NA
ATOM     17  C   UNL A   1      34.125  36.374  33.548  1.00  0.00     0.157 A 
BRANCH  13  18
ATOM     18  C   UNL A   1      32.895  35.695  29.657  1.00  0.00     0.358 C 
ATOM     19  O   UNL A   1      32.583  34.586  29.245  1.00  0.00    -0.244 OA
BRANCH  18  20
ATOM     20  O   UNL A   1      32.874  36.848  28.940  1.00  0.00    -0.464 OA
ATOM     21  C   UNL A   1      34.048  37.073  28.154  1.00  0.00     0.282 C 
ENDBRANCH  18  20
ENDBRANCH  13  18
ENDBRANCH   8  12
ENDBRANCH   4   7
ENDBRANCH   2   3
ENDBRANCH   1   2
BRANCH   1  22
ATOM     22  C   UNL A   1      36.031  33.818  29.469  1.00  0.00     0.023 C 
BRANCH  22  23
ATOM     23  C   UNL A   1      35.834  33.251  28.066  1.00  0.00     0.116 C 
BRANCH  23  24
ATOM     24  N   UNL A   1      34.716  32.325  27.966  1.00  0.00    -0.352 N 
ATOM     25  C   UNL A   1      34.714  30.951  28.017  1.00  0.00     0.251 C 
ATOM     26  H   UNL A   1      33.833  32.744  27.843  1.00  0.00     0.163 HD
ATOM     27  O   UNL A   1      33.677  30.321  27.830  1.00  0.00    -0.269 OA
BRANCH  25  28
ATOM     28  C   UNL A   1      35.979  30.225  28.250  1.00  0.00     0.039 A 
ATOM     29  C   UNL A   1      36.882  30.096  27.192  1.00  0.00     0.014 A 
ATOM     30  C   UNL A   1      36.294  29.718  29.513  1.00  0.00     0.014 A 
ATOM     31  C   UNL A   1      38.146  29.552  27.425  1.00  0.00     0.010 A 
ATOM     32  C   UNL A   1      37.576  29.233  29.759  1.00  0.00     0.010 A 
ATOM     33  C   UNL A   1      38.521  29.170  28.723  1.00  0.00    -0.014 A 
BRANCH  33  34
ATOM     34  C   UNL A   1      39.919  28.777  29.035  1.00  0.00     0.031 A 
ATOM     35  C   UNL A   1      40.865  29.756  29.665  1.00  0.00     0.074 A 
ATOM     36  C   UNL A   1      40.357  27.560  28.659  1.00  0.00     0.049 A 
ATOM     37  N   UNL A   1      42.144  29.626  29.909  1.00  0.00    -0.248 NA
ATOM     38  C   UNL A   1      40.308  31.062  30.048  1.00  0.00     0.031 C 
ATOM     39  C   UNL A   1      39.547  26.535  27.996  1.00  0.00     0.029 A 
ATOM     40  N   UNL A   1      41.599  26.983  28.762  1.00  0.00    -0.354 N 
ATOM     41  C   UNL A   1      42.548  30.833  30.462  1.00  0.00     0.074 A 
ATOM     42  C   UNL A   1      41.388  31.698  30.482  1.00  0.00     0.031 C 
ATOM     43  C   UNL A   1      40.308  25.456  27.760  1.00  0.00     0.029 A 
ATOM     44  C   UNL A   1      41.667  25.724  28.217  1.00  0.00     0.049 A 
ATOM     45  H   UNL A   1      42.367  27.430  29.185  1.00  0.00     0.167 HD
ATOM     46  C   UNL A   1      43.771  31.181  30.926  1.00  0.00     0.037 A 
ATOM     47  C   UNL A   1      42.713  24.886  28.081  1.00  0.00     0.037 A 
ATOM     48  C   UNL A   1      44.920  30.312  30.926  1.00  0.00     0.049 A 
ATOM     49  C   UNL A   1      44.064  25.306  28.584  1.00  0.00     0.074 A 
ATOM     50  C   UNL A   1      46.180  30.547  31.448  1.00  0.00     0.029 A 
ATOM     51  N   UNL A   1      44.950  29.043  30.367  1.00  0.00    -0.354 N 
ATOM     52  N   UNL A   1      44.415  26.424  29.171  1.00  0.00    -0.248 NA
ATOM     53  C   UNL A   1      45.166  24.351  28.400  1.00  0.00     0.031 C 
ATOM     54  C   UNL A   1      46.984  29.439  31.168  1.00  0.00     0.029 A 
ATOM     55  C   UNL A   1      46.215  28.496  30.505  1.00  0.00     0.049 A 
ATOM     56  H   UNL A   1      44.184  28.596  29.938  1.00  0.00     0.167 HD
ATOM     57  C   UNL A   1      45.770  26.303  29.440  1.00  0.00     0.074 A 
ATOM     58  C   UNL A   1      46.176  24.995  28.968  1.00  0.00     0.031 C 
ATOM     59  C   UNL A   1      46.606  27.197  30.022  1.00  0.00     0.037 A 
BRANCH  46  60
ATOM     60  C   UNL A   1      43.934  32.565  31.481  1.00  0.00     0.057 A 
ATOM     61  C   UNL A   1      43.716  32.845  32.835  1.00  0.00     0.134 A 
ATOM     62  C   UNL A   1      44.359  33.618  30.661  1.00  0.00     0.134 A 
ATOM     63  F   UNL A   1      43.298  31.882  33.670  1.00  0.00    -0.206 F 
ATOM     64  C   UNL A   1      43.896  34.130  33.352  1.00  0.00     0.040 A 
ATOM     65  C   UNL A   1      44.564  34.901  31.170  1.00  0.00     0.040 A 
ATOM     66  F   UNL A   1      44.592  33.415  29.355  1.00  0.00    -0.206 F 
ATOM     67  C   UNL A   1      44.328  35.161  32.519  1.00  0.00     0.006 A 
ENDBRANCH  46  60
BRANCH  47  68
ATOM     68  C   UNL A   1      42.523  23.562  27.438  1.00  0.00     0.057 A 
ATOM     69  C   UNL A   1      42.212  22.430  28.199  1.00  0.00     0.134 A 
ATOM     70  C   UNL A   1      42.653  23.396  26.054  1.00  0.00     0.134 A 
ATOM     71  F   UNL A   1      42.095  22.524  29.532  1.00  0.00    -0.206 F 
ATOM     72  C   UNL A   1      42.050  21.175  27.609  1.00  0.00     0.040 A 
ATOM     73  C   UNL A   1      42.472  22.152  25.449  1.00  0.00     0.040 A 
ATOM     74  F   UNL A   1      42.946  24.444  25.271  1.00  0.00    -0.206 F 
ATOM     75  C   UNL A   1      42.176  21.035  26.228  1.00  0.00     0.006 A 
ENDBRANCH  47  68
BRANCH  59  76
ATOM     76  C   UNL A   1      48.038  26.787  30.186  1.00  0.00     0.057 A 
ATOM     77  C   UNL A   1      48.458  26.012  31.275  1.00  0.00     0.134 A 
ATOM     78  C   UNL A   1      48.998  27.137  29.230  1.00  0.00     0.134 A 
ATOM     79  F   UNL A   1      47.589  25.657  32.233  1.00  0.00    -0.206 F 
ATOM     80  C   UNL A   1      49.789  25.614  31.414  1.00  0.00     0.040 A 
ATOM     81  C   UNL A   1      50.327  26.726  29.346  1.00  0.00     0.040 A 
ATOM     82  F   UNL A   1      48.659  27.874  28.162  1.00  0.00    -0.206 F 
ATOM     83  C   UNL A   1      50.726  25.966  30.444  1.00  0.00     0.006 A 
ENDBRANCH  59  76
ENDBRANCH  33  34
ENDBRANCH  25  28
ENDBRANCH  23  24
ENDBRANCH  22  23
ENDBRANCH   1  22
TORSDOF 14
ENDMDL
MODEL 3
REMARK VINA RESULT:     -11.4      3.155      7.494
REMARK SMILES COC(=O)c1cncc(N2CC[C@H](C(=O)NCCCCNC(=O)c3ccc(-c4c5nc(c(-c6c(F)cccc6F)c6ccc([nH]6)c(-c6c(F)cccc6F)c6nc(c(-c7c(F)cccc7F)c7ccc4[nH]7)C=C6)C=C5)cc3)C2)n1
REMARK SMILES IDX 18 1 17 2 16 3 14 4 15 5 13 7 10 8 11 9 78 10 12 11 9 12
REMARK SMILES IDX 5 13 6 14 79 15 7 16 8 17 3 18 4 19 2 20 1 21 19 22 20 23
REMARK SMILES IDX 21 24 22 25 23 27 24 28 25 29 77 30 26 31 76 32 27 33 28 34
REMARK SMILES IDX 29 35 70 36 30 37 75 38 69 39 71 40 31 41 74 42 68 43 67 44
REMARK SMILES IDX 32 46 58 47 41 48 57 49 42 50 45 51 56 52 72 53 43 54 44 55
REMARK SMILES IDX 55 57 73 58 46 59 33 60 34 61 39 62 35 63 36 64 38 65 40 66
REMARK SMILES IDX 37 67 59 68 60 69 65 70 61 71 62 72 64 73 66 74 63 75 47 76
REMARK SMILES IDX 48 77 53 78 49 79 50 80 52 81 54 82 51 83
REMARK H PARENT 16 6 21 26 71 45 45 56
REMARK Flexibility Score: inf
ROOT
ATOM      1  C   UNL A   1      31.964  29.073  27.196  1.00  0.00     0.023 C 
ENDROOT
BRANCH   1   2
ATOM      2  C   UNL A   1      31.419  28.044  26.207  1.00  0.00     0.116 C 
BRANCH   2   3
ATOM      3  N   UNL A   1      31.217  26.737  26.814  1.00  0.00    -0.356 N 
ATOM      4  C   UNL A   1      31.717  25.513  26.488  1.00  0.00     0.224 C 
ATOM      5  O   UNL A   1      31.418  24.566  27.220  1.00  0.00    -0.275 OA
ATOM      6  H   UNL A   1      30.616  26.737  27.594  1.00  0.00     0.163 HD
BRANCH   4   7
ATOM      7  C   UNL A   1      32.612  25.284  25.283  1.00  0.00     0.099 C 
ATOM      8  N   UNL A   1      33.929  23.446  24.585  1.00  0.00    -0.354 N 
ATOM      9  C   UNL A   1      34.878  24.517  24.839  1.00  0.00     0.119 C 
ATOM     10  C   UNL A   1      32.542  23.850  24.758  1.00  0.00     0.131 C 
ATOM     11  C   UNL A   1      34.081  25.605  25.542  1.00  0.00     0.037 C 
BRANCH   8  12
ATOM     12  C   UNL A   1      34.299  22.129  24.700  1.00  0.00     0.148 A 
ATOM     13  C   UNL A   1      33.726  19.891  24.795  1.00  0.00     0.169 A 
ATOM     14  C   UNL A   1      35.057  19.529  24.917  1.00  0.00     0.147 A 
ATOM     15  N   UNL A   1      33.332  21.189  24.691  1.00  0.00    -0.221 NA
ATOM     16  N   UNL A   1      36.052  20.446  24.920  1.00  0.00    -0.258 NA
ATOM     17  C   UNL A   1      35.638  21.737  24.802  1.00  0.00     0.157 A 
BRANCH  13  18
ATOM     18  C   UNL A   1      32.658  18.870  24.689  1.00  0.00     0.358 C 
ATOM     19  O   UNL A   1      32.258  18.194  25.628  1.00  0.00    -0.244 OA
BRANCH  18  20
ATOM     20  O   UNL A   1      32.225  18.788  23.405  1.00  0.00    -0.464 OA
ATOM     21  C   UNL A   1      32.818  17.726  22.652  1.00  0.00     0.282 C 
ENDBRANCH  18  20
ENDBRANCH  13  18
ENDBRANCH   8  12
ENDBRANCH   4   7
ENDBRANCH   2   3
ENDBRANCH   1   2
BRANCH   1  22
ATOM     22  C   UNL A   1      31.808  30.533  26.771  1.00  0.00     0.023 C 
BRANCH  22  23
ATOM     23  C   UNL A   1      32.928  31.471  27.210  1.00  0.00     0.116 C 
BRANCH  23  24
ATOM     24  N   UNL A   1      32.481  32.834  27.457  1.00  0.00    -0.352 N 
ATOM     25  C   UNL A   1      33.090  33.835  28.178  1.00  0.00     0.251 C 
ATOM     26  H   UNL A   1      31.618  33.074  27.050  1.00  0.00     0.163 HD
ATOM     27  O   UNL A   1      32.525  34.910  28.354  1.00  0.00    -0.269 OA
BRANCH  25  28
ATOM     28  C   UNL A   1      34.414  33.597  28.787  1.00  0.00     0.039 A 
ATOM     29  C   UNL A   1      34.476  32.959  30.029  1.00  0.00     0.014 A 
ATOM     30  C   UNL A   1      35.588  33.955  28.119  1.00  0.00     0.014 A 
ATOM     31  C   UNL A   1      35.714  32.585  30.553  1.00  0.00     0.010 A 
ATOM     32  C   UNL A   1      36.818  33.528  28.612  1.00  0.00     0.010 A 
ATOM     33  C   UNL A   1      36.889  32.816  29.820  1.00  0.00    -0.014 A 
BRANCH  33  34
ATOM     34  C   UNL A   1      38.192  32.254  30.258  1.00  0.00     0.031 A 
ATOM     35  C   UNL A   1      38.691  30.955  29.697  1.00  0.00     0.074 A 
ATOM     36  C   UNL A   1      38.878  32.875  31.237  1.00  0.00     0.049 A 
ATOM     37  N   UNL A   1      39.747  30.262  30.038  1.00  0.00    -0.248 NA
ATOM     38  C   UNL A   1      37.887  30.343  28.629  1.00  0.00     0.031 C 
ATOM     39  C   UNL A   1      38.473  34.118  31.898  1.00  0.00     0.029 A 
ATOM     40  N   UNL A   1      40.050  32.535  31.865  1.00  0.00    -0.354 N 
ATOM     41  C   UNL A   1      39.729  29.127  29.239  1.00  0.00     0.074 A 
ATOM     42  C   UNL A   1      38.536  29.205  28.422  1.00  0.00     0.031 C 
ATOM     43  C   UNL A   1      39.385  34.440  32.828  1.00  0.00     0.029 A 
ATOM     44  C   UNL A   1      40.416  33.409  32.860  1.00  0.00     0.049 A 
ATOM     45  H   UNL A   1      40.579  31.740  31.625  1.00  0.00     0.167 HD
ATOM     46  C   UNL A   1      40.633  28.121  29.179  1.00  0.00     0.037 A 
ATOM     47  C   UNL A   1      41.454  33.373  33.717  1.00  0.00     0.037 A 
ATOM     48  C   UNL A   1      41.831  28.057  29.977  1.00  0.00     0.049 A 
ATOM     49  C   UNL A   1      42.429  32.234  33.645  1.00  0.00     0.074 A 
ATOM     50  C   UNL A   1      42.848  27.119  29.930  1.00  0.00     0.029 A 
ATOM     51  N   UNL A   1      42.167  28.961  30.972  1.00  0.00    -0.354 N 
ATOM     52  N   UNL A   1      42.438  31.205  32.834  1.00  0.00    -0.248 NA
ATOM     53  C   UNL A   1      43.537  32.248  34.612  1.00  0.00     0.031 C 
ATOM     54  C   UNL A   1      43.778  27.432  30.926  1.00  0.00     0.029 A 
ATOM     55  C   UNL A   1      43.361  28.586  31.567  1.00  0.00     0.049 A 
ATOM     56  H   UNL A   1      41.637  29.754  31.218  1.00  0.00     0.167 HD
ATOM     57  C   UNL A   1      43.555  30.458  33.180  1.00  0.00     0.074 A 
ATOM     58  C   UNL A   1      44.210  31.160  34.264  1.00  0.00     0.031 C 
ATOM     59  C   UNL A   1      43.996  29.291  32.650  1.00  0.00     0.037 A 
BRANCH  46  60
ATOM     60  C   UNL A   1      40.366  27.006  28.213  1.00  0.00     0.057 A 
ATOM     61  C   UNL A   1      40.960  26.972  26.946  1.00  0.00     0.134 A 
ATOM     62  C   UNL A   1      39.545  25.930  28.573  1.00  0.00     0.134 A 
ATOM     63  F   UNL A   1      41.750  27.977  26.537  1.00  0.00    -0.206 F 
ATOM     64  C   UNL A   1      40.731  25.917  26.061  1.00  0.00     0.040 A 
ATOM     65  C   UNL A   1      39.326  24.858  27.707  1.00  0.00     0.040 A 
ATOM     66  F   UNL A   1      38.950  25.899  29.776  1.00  0.00    -0.206 F 
ATOM     67  C   UNL A   1      39.916  24.852  26.444  1.00  0.00     0.006 A 
ENDBRANCH  46  60
BRANCH  47  68
ATOM     68  C   UNL A   1      41.623  34.452  34.721  1.00  0.00     0.057 A 
ATOM     69  C   UNL A   1      42.345  35.612  34.416  1.00  0.00     0.134 A 
ATOM     70  C   UNL A   1      41.076  34.350  36.005  1.00  0.00     0.134 A 
ATOM     71  F   UNL A   1      42.910  35.758  33.208  1.00  0.00    -0.206 F 
ATOM     72  C   UNL A   1      42.528  36.626  35.358  1.00  0.00     0.040 A 
ATOM     73  C   UNL A   1      41.233  35.365  36.948  1.00  0.00     0.040 A 
ATOM     74  F   UNL A   1      40.371  33.265  36.355  1.00  0.00    -0.206 F 
ATOM     75  C   UNL A   1      41.967  36.506  36.627  1.00  0.00     0.006 A 
ENDBRANCH  47  68
BRANCH  59  76
ATOM     76  C   UNL A   1      45.248  28.707  33.232  1.00  0.00     0.057 A 
ATOM     77  C   UNL A   1      46.515  29.088  32.773  1.00  0.00     0.134 A 
ATOM     78  C   UNL A   1      45.188  27.785  34.283  1.00  0.00     0.134 A 
ATOM     79  F   UNL A   1      46.639  29.956  31.758  1.00  0.00    -0.206 F 
ATOM     80  C   UNL A   1      47.681  28.558  33.331  1.00  0.00     0.040 A 
ATOM     81  C   UNL A   1      46.347  27.265  34.864  1.00  0.00     0.040 A 
ATOM     82  F   UNL A   1      44.005  27.384  34.771  1.00  0.00    -0.206 F 
ATOM     83  C   UNL A   1      47.597  27.649  34.383  1.00  0.00     0.006 A 
ENDBRANCH  59  76
ENDBRANCH  33  34
ENDBRANCH  25  28
ENDBRANCH  23  24
ENDBRANCH  22  23
ENDBRANCH   1  22
TORSDOF 14
ENDMDL
