MODEL 1
REMARK VINA RESULT:     -12.6      0.000      0.000
REMARK SMILES O=C(COc1ccccc1/C=C1\C(=O)Nc2ccccc21)NCCCCNC(=O)c1ccc(-c2c3nc(c(-c4c(F)cccc4F)c4ccc([nH]4)c(-c4c(F)cccc4F)c4nc(c(-c5c(F)cccc5F)c5ccc2[nH]5)C=C4)C=C3)cc1
REMARK SMILES IDX 24 1 23 2 22 3 1 4 2 5 3 7 4 8 5 9 6 10 10 11 7 12 9 13 8 14
REMARK SMILES IDX 11 15 12 16 13 17 21 18 14 19 15 20 16 21 20 22 17 24 19 25
REMARK SMILES IDX 18 26 25 27 26 28 27 29 28 30 29 32 30 33 31 34 83 35 32 36
REMARK SMILES IDX 82 37 33 38 34 39 35 40 76 41 36 42 81 43 75 44 77 45 37 46
REMARK SMILES IDX 80 47 74 48 73 49 38 51 64 52 47 53 63 54 48 55 51 56 62 57
REMARK SMILES IDX 78 58 49 59 50 60 61 62 79 63 52 64 39 65 40 66 45 67 41 68
REMARK SMILES IDX 42 69 44 70 46 71 43 72 65 73 66 74 71 75 67 76 68 77 70 78
REMARK SMILES IDX 72 79 69 80 53 81 54 82 59 83 55 84 56 85 58 86 60 87 57 88
REMARK H PARENT 22 6 15 23 27 31 77 50 51 61
REMARK Flexibility Score: inf
ROOT
ATOM      1  C   UNL A   1      31.407  30.806  25.951  1.00  0.00     0.023 C 
ENDROOT
BRANCH   1   2
ATOM      2  C   UNL A   1      32.147  29.861  26.879  1.00  0.00     0.116 C 
BRANCH   2   3
ATOM      3  N   UNL A   1      32.125  28.473  26.502  1.00  0.00    -0.353 N 
ATOM      4  O   UNL A   1      34.023  28.510  25.186  1.00  0.00    -0.271 OA
ATOM      5  C   UNL A   1      33.210  27.891  25.862  1.00  0.00     0.257 C 
ATOM      6  H   UNL A   1      31.329  27.929  26.701  1.00  0.00     0.163 HD
BRANCH   5   7
ATOM      7  C   UNL A   1      33.309  26.393  26.117  1.00  0.00     0.329 C 
BRANCH   7   8
ATOM      8  O   UNL A   1      31.949  25.947  26.232  1.00  0.00    -0.483 OA
BRANCH   8   9
ATOM      9  C   UNL A   1      31.681  24.814  25.508  1.00  0.00     0.127 A 
ATOM     10  C   UNL A   1      32.451  23.680  25.806  1.00  0.00     0.047 A 
ATOM     11  C   UNL A   1      30.825  24.850  24.384  1.00  0.00     0.017 A 
ATOM     12  C   UNL A   1      32.414  22.571  24.966  1.00  0.00     0.004 A 
ATOM     13  C   UNL A   1      30.915  23.769  23.495  1.00  0.00     0.012 A 
ATOM     14  C   UNL A   1      31.672  22.631  23.793  1.00  0.00     0.001 A 
BRANCH  11  15
ATOM     15  C   UNL A   1      29.896  25.979  24.096  1.00  0.00     0.026 C 
ATOM     16  C   UNL A   1      30.140  27.103  23.383  1.00  0.00     0.050 C 
ATOM     17  C   UNL A   1      31.451  27.482  22.705  1.00  0.00     0.256 C 
ATOM     18  C   UNL A   1      29.207  28.222  23.084  1.00  0.00     0.011 A 
ATOM     19  O   UNL A   1      32.482  26.855  22.597  1.00  0.00    -0.269 OA
ATOM     20  N   UNL A   1      31.248  28.747  22.188  1.00  0.00    -0.321 N 
ATOM     21  C   UNL A   1      29.944  29.172  22.369  1.00  0.00     0.049 A 
ATOM     22  C   UNL A   1      27.868  28.481  23.320  1.00  0.00     0.011 A 
ATOM     23  H   UNL A   1      31.947  29.281  21.747  1.00  0.00     0.170 HD
ATOM     24  C   UNL A   1      29.413  30.353  21.880  1.00  0.00     0.027 A 
ATOM     25  C   UNL A   1      27.288  29.651  22.800  1.00  0.00     0.001 A 
ATOM     26  C   UNL A   1      28.056  30.582  22.088  1.00  0.00     0.002 A 
ENDBRANCH  11  15
ENDBRANCH   8   9
ENDBRANCH   7   8
ENDBRANCH   5   7
ENDBRANCH   2   3
ENDBRANCH   1   2
BRANCH   1  27
ATOM     27  C   UNL A   1      31.238  32.231  26.481  1.00  0.00     0.023 C 
BRANCH  27  28
ATOM     28  C   UNL A   1      32.426  32.810  27.251  1.00  0.00     0.116 C 
BRANCH  28  29
ATOM     29  N   UNL A   1      32.247  34.204  27.627  1.00  0.00    -0.352 N 
ATOM     30  C   UNL A   1      32.930  34.967  28.546  1.00  0.00     0.251 C 
ATOM     31  H   UNL A   1      31.527  34.676  27.149  1.00  0.00     0.163 HD
ATOM     32  O   UNL A   1      32.527  36.092  28.827  1.00  0.00    -0.269 OA
BRANCH  30  33
ATOM     33  C   UNL A   1      34.130  34.428  29.226  1.00  0.00     0.039 A 
ATOM     34  C   UNL A   1      33.983  33.823  30.478  1.00  0.00     0.014 A 
ATOM     35  C   UNL A   1      35.396  34.517  28.642  1.00  0.00     0.014 A 
ATOM     36  C   UNL A   1      35.088  33.235  31.100  1.00  0.00     0.010 A 
ATOM     37  C   UNL A   1      36.478  33.858  29.223  1.00  0.00     0.010 A 
ATOM     38  C   UNL A   1      36.336  33.204  30.457  1.00  0.00    -0.014 A 
BRANCH  38  39
ATOM     39  C   UNL A   1      37.492  32.479  31.050  1.00  0.00     0.031 A 
ATOM     40  C   UNL A   1      38.128  32.967  32.325  1.00  0.00     0.074 A 
ATOM     41  C   UNL A   1      38.014  31.415  30.408  1.00  0.00     0.049 A 
ATOM     42  N   UNL A   1      39.175  32.501  32.957  1.00  0.00    -0.248 NA
ATOM     43  C   UNL A   1      37.520  34.146  32.960  1.00  0.00     0.031 C 
ATOM     44  C   UNL A   1      37.522  30.864  29.144  1.00  0.00     0.029 A 
ATOM     45  N   UNL A   1      39.081  30.609  30.725  1.00  0.00    -0.354 N 
ATOM     46  C   UNL A   1      39.360  33.335  34.053  1.00  0.00     0.074 A 
ATOM     47  C   UNL A   1      38.349  34.368  33.970  1.00  0.00     0.031 C 
ATOM     48  C   UNL A   1      38.264  29.797  28.809  1.00  0.00     0.029 A 
ATOM     49  C   UNL A   1      39.314  29.614  29.806  1.00  0.00     0.049 A 
ATOM     50  H   UNL A   1      39.627  30.734  31.534  1.00  0.00     0.167 HD
ATOM     51  C   UNL A   1      40.273  33.240  35.049  1.00  0.00     0.037 A 
ATOM     52  C   UNL A   1      40.271  28.666  29.764  1.00  0.00     0.037 A 
ATOM     53  C   UNL A   1      41.268  32.203  35.140  1.00  0.00     0.049 A 
ATOM     54  C   UNL A   1      41.292  28.602  30.867  1.00  0.00     0.074 A 
ATOM     55  C   UNL A   1      42.198  31.988  36.143  1.00  0.00     0.029 A 
ATOM     56  N   UNL A   1      41.472  31.216  34.188  1.00  0.00    -0.354 N 
ATOM     57  N   UNL A   1      41.406  29.353  31.936  1.00  0.00    -0.248 NA
ATOM     58  C   UNL A   1      42.316  27.551  30.761  1.00  0.00     0.031 C 
ATOM     59  C   UNL A   1      43.004  30.909  35.769  1.00  0.00     0.029 A 
ATOM     60  C   UNL A   1      42.534  30.408  34.566  1.00  0.00     0.049 A 
ATOM     61  H   UNL A   1      40.940  31.103  33.367  1.00  0.00     0.167 HD
ATOM     62  C   UNL A   1      42.488  28.845  32.644  1.00  0.00     0.074 A 
ATOM     63  C   UNL A   1      42.987  27.715  31.891  1.00  0.00     0.031 C 
ATOM     64  C   UNL A   1      43.019  29.278  33.814  1.00  0.00     0.037 A 
BRANCH  51  65
ATOM     65  C   UNL A   1      40.244  34.290  36.124  1.00  0.00     0.057 A 
ATOM     66  C   UNL A   1      41.001  35.467  36.033  1.00  0.00     0.134 A 
ATOM     67  C   UNL A   1      39.414  34.145  37.243  1.00  0.00     0.134 A 
ATOM     68  F   UNL A   1      41.825  35.668  34.993  1.00  0.00    -0.206 F 
ATOM     69  C   UNL A   1      40.954  36.445  37.029  1.00  0.00     0.040 A 
ATOM     70  C   UNL A   1      39.334  35.129  38.229  1.00  0.00     0.040 A 
ATOM     71  F   UNL A   1      38.656  33.049  37.391  1.00  0.00    -0.206 F 
ATOM     72  C   UNL A   1      40.113  36.281  38.126  1.00  0.00     0.006 A 
ENDBRANCH  51  65
BRANCH  52  73
ATOM     73  C   UNL A   1      40.307  27.688  28.645  1.00  0.00     0.057 A 
ATOM     74  C   UNL A   1      39.618  26.472  28.727  1.00  0.00     0.134 A 
ATOM     75  C   UNL A   1      41.048  27.930  27.482  1.00  0.00     0.134 A 
ATOM     76  F   UNL A   1      38.907  26.171  29.823  1.00  0.00    -0.206 F 
ATOM     77  C   UNL A   1      39.686  25.520  27.707  1.00  0.00     0.040 A 
ATOM     78  C   UNL A   1      41.100  27.002  26.441  1.00  0.00     0.040 A 
ATOM     79  F   UNL A   1      41.726  29.078  27.337  1.00  0.00    -0.206 F 
ATOM     80  C   UNL A   1      40.426  25.788  26.556  1.00  0.00     0.006 A 
ENDBRANCH  52  73
BRANCH  64  81
ATOM     81  C   UNL A   1      44.173  28.499  34.380  1.00  0.00     0.057 A 
ATOM     82  C   UNL A   1      43.985  27.389  35.213  1.00  0.00     0.134 A 
ATOM     83  C   UNL A   1      45.491  28.845  34.053  1.00  0.00     0.134 A 
ATOM     84  F   UNL A   1      42.750  27.011  35.576  1.00  0.00    -0.206 F 
ATOM     85  C   UNL A   1      45.068  26.668  35.723  1.00  0.00     0.040 A 
ATOM     86  C   UNL A   1      46.579  28.112  34.529  1.00  0.00     0.040 A 
ATOM     87  F   UNL A   1      45.744  29.890  33.252  1.00  0.00    -0.206 F 
ATOM     88  C   UNL A   1      46.369  27.024  35.373  1.00  0.00     0.006 A 
ENDBRANCH  64  81
ENDBRANCH  38  39
ENDBRANCH  30  33
ENDBRANCH  28  29
ENDBRANCH  27  28
ENDBRANCH   1  27
TORSDOF 14
ENDMDL
MODEL 2
REMARK VINA RESULT:     -12.5      5.245     10.346
REMARK SMILES O=C(COc1ccccc1/C=C1\C(=O)Nc2ccccc21)NCCCCNC(=O)c1ccc(-c2c3nc(c(-c4c(F)cccc4F)c4ccc([nH]4)c(-c4c(F)cccc4F)c4nc(c(-c5c(F)cccc5F)c5ccc2[nH]5)C=C4)C=C3)cc1
REMARK SMILES IDX 24 1 23 2 22 3 1 4 2 5 3 7 4 8 5 9 6 10 10 11 7 12 9 13 8 14
REMARK SMILES IDX 11 15 12 16 13 17 21 18 14 19 15 20 16 21 20 22 17 24 19 25
REMARK SMILES IDX 18 26 25 27 26 28 27 29 28 30 29 32 30 33 31 34 83 35 32 36
REMARK SMILES IDX 82 37 33 38 34 39 35 40 76 41 36 42 81 43 75 44 77 45 37 46
REMARK SMILES IDX 80 47 74 48 73 49 38 51 64 52 47 53 63 54 48 55 51 56 62 57
REMARK SMILES IDX 78 58 49 59 50 60 61 62 79 63 52 64 39 65 40 66 45 67 41 68
REMARK SMILES IDX 42 69 44 70 46 71 43 72 65 73 66 74 71 75 67 76 68 77 70 78
REMARK SMILES IDX 72 79 69 80 53 81 54 82 59 83 55 84 56 85 58 86 60 87 57 88
REMARK H PARENT 22 6 15 23 27 31 77 50 51 61
REMARK Flexibility Score: inf
ROOT
ATOM      1  C   UNL A   1      36.651  20.425  24.957  1.00  0.00     0.023 C 
ENDROOT
BRANCH   1   2
ATOM      2  C   UNL A   1      36.922  21.773  24.317  1.00  0.00     0.116 C 
BRANCH   2   3
ATOM      3  N   UNL A   1      35.791  22.658  24.223  1.00  0.00    -0.353 N 
ATOM      4  O   UNL A   1      35.829  23.394  26.412  1.00  0.00    -0.271 OA
ATOM      5  C   UNL A   1      35.499  23.553  25.243  1.00  0.00     0.257 C 
ATOM      6  H   UNL A   1      35.217  22.627  23.424  1.00  0.00     0.163 HD
BRANCH   5   7
ATOM      7  C   UNL A   1      34.751  24.782  24.748  1.00  0.00     0.329 C 
BRANCH   7   8
ATOM      8  O   UNL A   1      34.204  24.397  23.478  1.00  0.00    -0.483 OA
BRANCH   8   9
ATOM      9  C   UNL A   1      32.894  24.768  23.310  1.00  0.00     0.127 A 
ATOM     10  C   UNL A   1      32.618  26.143  23.367  1.00  0.00     0.047 A 
ATOM     11  C   UNL A   1      31.858  23.809  23.293  1.00  0.00     0.017 A 
ATOM     12  C   UNL A   1      31.302  26.587  23.448  1.00  0.00     0.004 A 
ATOM     13  C   UNL A   1      30.558  24.288  23.507  1.00  0.00     0.012 A 
ATOM     14  C   UNL A   1      30.275  25.657  23.553  1.00  0.00     0.001 A 
BRANCH  11  15
ATOM     15  C   UNL A   1      32.096  22.349  23.108  1.00  0.00     0.026 C 
ATOM     16  C   UNL A   1      32.344  21.414  24.054  1.00  0.00     0.050 C 
ATOM     17  C   UNL A   1      32.450  21.648  25.556  1.00  0.00     0.256 C 
ATOM     18  C   UNL A   1      32.566  19.955  23.868  1.00  0.00     0.011 A 
ATOM     19  O   UNL A   1      32.266  22.656  26.202  1.00  0.00    -0.269 OA
ATOM     20  N   UNL A   1      32.807  20.427  26.096  1.00  0.00    -0.321 N 
ATOM     21  C   UNL A   1      32.843  19.432  25.136  1.00  0.00     0.049 A 
ATOM     22  C   UNL A   1      32.529  19.079  22.797  1.00  0.00     0.011 A 
ATOM     23  H   UNL A   1      33.012  20.284  27.049  1.00  0.00     0.170 HD
ATOM     24  C   UNL A   1      33.076  18.090  25.384  1.00  0.00     0.027 A 
ATOM     25  C   UNL A   1      32.719  17.704  23.022  1.00  0.00     0.001 A 
ATOM     26  C   UNL A   1      32.994  17.214  24.306  1.00  0.00     0.002 A 
ENDBRANCH  11  15
ENDBRANCH   8   9
ENDBRANCH   7   8
ENDBRANCH   5   7
ENDBRANCH   2   3
ENDBRANCH   1   2
BRANCH   1  27
ATOM     27  C   UNL A   1      37.848  19.472  24.987  1.00  0.00     0.023 C 
BRANCH  27  28
ATOM     28  C   UNL A   1      39.081  19.961  25.748  1.00  0.00     0.116 C 
BRANCH  28  29
ATOM     29  N   UNL A   1      40.140  18.967  25.832  1.00  0.00    -0.352 N 
ATOM     30  C   UNL A   1      41.487  19.127  26.060  1.00  0.00     0.251 C 
ATOM     31  H   UNL A   1      39.848  18.035  25.707  1.00  0.00     0.163 HD
ATOM     32  O   UNL A   1      42.246  18.169  25.945  1.00  0.00    -0.269 OA
BRANCH  30  33
ATOM     33  C   UNL A   1      42.036  20.457  26.412  1.00  0.00     0.039 A 
ATOM     34  C   UNL A   1      42.473  21.300  25.386  1.00  0.00     0.014 A 
ATOM     35  C   UNL A   1      42.127  20.876  27.741  1.00  0.00     0.014 A 
ATOM     36  C   UNL A   1      42.918  22.591  25.688  1.00  0.00     0.010 A 
ATOM     37  C   UNL A   1      42.491  22.189  28.033  1.00  0.00     0.010 A 
ATOM     38  C   UNL A   1      42.885  23.065  27.010  1.00  0.00    -0.014 A 
BRANCH  38  39
ATOM     39  C   UNL A   1      43.242  24.472  27.334  1.00  0.00     0.031 A 
ATOM     40  C   UNL A   1      44.678  24.923  27.307  1.00  0.00     0.074 A 
ATOM     41  C   UNL A   1      42.278  25.335  27.715  1.00  0.00     0.049 A 
ATOM     42  N   UNL A   1      45.185  26.090  27.615  1.00  0.00    -0.248 NA
ATOM     43  C   UNL A   1      45.680  23.924  26.903  1.00  0.00     0.031 C 
ATOM     44  C   UNL A   1      40.853  25.017  27.824  1.00  0.00     0.029 A 
ATOM     45  N   UNL A   1      42.351  26.655  28.090  1.00  0.00    -0.354 N 
ATOM     46  C   UNL A   1      46.559  25.962  27.456  1.00  0.00     0.074 A 
ATOM     47  C   UNL A   1      46.812  24.589  27.077  1.00  0.00     0.031 C 
ATOM     48  C   UNL A   1      40.185  26.116  28.209  1.00  0.00     0.029 A 
ATOM     49  C   UNL A   1      41.135  27.203  28.421  1.00  0.00     0.049 A 
ATOM     50  H   UNL A   1      43.196  27.159  28.120  1.00  0.00     0.167 HD
ATOM     51  C   UNL A   1      47.522  26.906  27.593  1.00  0.00     0.037 A 
ATOM     52  C   UNL A   1      40.820  28.439  28.855  1.00  0.00     0.037 A 
ATOM     53  C   UNL A   1      47.267  28.276  27.955  1.00  0.00     0.049 A 
ATOM     54  C   UNL A   1      41.912  29.459  29.028  1.00  0.00     0.074 A 
ATOM     55  C   UNL A   1      48.170  29.321  28.060  1.00  0.00     0.029 A 
ATOM     56  N   UNL A   1      46.023  28.791  28.283  1.00  0.00    -0.354 N 
ATOM     57  N   UNL A   1      43.199  29.343  28.800  1.00  0.00    -0.248 NA
ATOM     58  C   UNL A   1      41.507  30.787  29.513  1.00  0.00     0.031 C 
ATOM     59  C   UNL A   1      47.483  30.451  28.511  1.00  0.00     0.029 A 
ATOM     60  C   UNL A   1      46.140  30.131  28.622  1.00  0.00     0.049 A 
ATOM     61  H   UNL A   1      45.180  28.282  28.275  1.00  0.00     0.167 HD
ATOM     62  C   UNL A   1      43.748  30.588  29.080  1.00  0.00     0.074 A 
ATOM     63  C   UNL A   1      42.655  31.448  29.480  1.00  0.00     0.031 C 
ATOM     64  C   UNL A   1      45.044  30.982  29.011  1.00  0.00     0.037 A 
BRANCH  51  65
ATOM     65  C   UNL A   1      48.946  26.489  27.356  1.00  0.00     0.057 A 
ATOM     66  C   UNL A   1      49.786  26.082  28.402  1.00  0.00     0.134 A 
ATOM     67  C   UNL A   1      49.472  26.449  26.058  1.00  0.00     0.134 A 
ATOM     68  F   UNL A   1      49.350  26.104  29.671  1.00  0.00    -0.206 F 
ATOM     69  C   UNL A   1      51.102  25.679  28.169  1.00  0.00     0.040 A 
ATOM     70  C   UNL A   1      50.776  26.018  25.808  1.00  0.00     0.040 A 
ATOM     71  F   UNL A   1      48.722  26.815  25.008  1.00  0.00    -0.206 F 
ATOM     72  C   UNL A   1      51.597  25.638  26.868  1.00  0.00     0.006 A 
ENDBRANCH  51  65
BRANCH  52  73
ATOM     73  C   UNL A   1      39.406  28.792  29.147  1.00  0.00     0.057 A 
ATOM     74  C   UNL A   1      38.586  29.362  28.164  1.00  0.00     0.134 A 
ATOM     75  C   UNL A   1      38.847  28.595  30.415  1.00  0.00     0.134 A 
ATOM     76  F   UNL A   1      39.069  29.594  26.935  1.00  0.00    -0.206 F 
ATOM     77  C   UNL A   1      37.272  29.747  28.439  1.00  0.00     0.040 A 
ATOM     78  C   UNL A   1      37.526  28.947  30.695  1.00  0.00     0.040 A 
ATOM     79  F   UNL A   1      39.576  28.048  31.400  1.00  0.00    -0.206 F 
ATOM     80  C   UNL A   1      36.737  29.535  29.708  1.00  0.00     0.006 A 
ENDBRANCH  52  73
BRANCH  64  81
ATOM     81  C   UNL A   1      45.347  32.419  29.329  1.00  0.00     0.057 A 
ATOM     82  C   UNL A   1      45.822  32.821  30.584  1.00  0.00     0.134 A 
ATOM     83  C   UNL A   1      45.198  33.410  28.349  1.00  0.00     0.134 A 
ATOM     84  F   UNL A   1      45.977  31.926  31.571  1.00  0.00    -0.206 F 
ATOM     85  C   UNL A   1      46.110  34.159  30.861  1.00  0.00     0.040 A 
ATOM     86  C   UNL A   1      45.513  34.745  28.604  1.00  0.00     0.040 A 
ATOM     87  F   UNL A   1      44.758  33.094  27.122  1.00  0.00    -0.206 F 
ATOM     88  C   UNL A   1      45.964  35.124  29.866  1.00  0.00     0.006 A 
ENDBRANCH  64  81
ENDBRANCH  38  39
ENDBRANCH  30  33
ENDBRANCH  28  29
ENDBRANCH  27  28
ENDBRANCH   1  27
TORSDOF 14
ENDMDL
MODEL 3
REMARK VINA RESULT:     -12.5      0.561      6.035
REMARK SMILES O=C(COc1ccccc1/C=C1\C(=O)Nc2ccccc21)NCCCCNC(=O)c1ccc(-c2c3nc(c(-c4c(F)cccc4F)c4ccc([nH]4)c(-c4c(F)cccc4F)c4nc(c(-c5c(F)cccc5F)c5ccc2[nH]5)C=C4)C=C3)cc1
REMARK SMILES IDX 24 1 23 2 22 3 1 4 2 5 3 7 4 8 5 9 6 10 10 11 7 12 9 13 8 14
REMARK SMILES IDX 11 15 12 16 13 17 21 18 14 19 15 20 16 21 20 22 17 24 19 25
REMARK SMILES IDX 18 26 25 27 26 28 27 29 28 30 29 32 30 33 31 34 83 35 32 36
REMARK SMILES IDX 82 37 33 38 34 39 35 40 76 41 36 42 81 43 75 44 77 45 37 46
REMARK SMILES IDX 80 47 74 48 73 49 38 51 64 52 47 53 63 54 48 55 51 56 62 57
REMARK SMILES IDX 78 58 49 59 50 60 61 62 79 63 52 64 39 65 40 66 45 67 41 68
REMARK SMILES IDX 42 69 44 70 46 71 43 72 65 73 66 74 71 75 67 76 68 77 70 78
REMARK SMILES IDX 72 79 69 80 53 81 54 82 59 83 55 84 56 85 58 86 60 87 57 88
REMARK H PARENT 22 6 15 23 27 31 77 50 51 61
REMARK Flexibility Score: inf
ROOT
ATOM      1  C   UNL A   1      31.514  30.852  25.968  1.00  0.00     0.023 C 
ENDROOT
BRANCH   1   2
ATOM      2  C   UNL A   1      31.991  29.644  26.753  1.00  0.00     0.116 C 
BRANCH   2   3
ATOM      3  N   UNL A   1      32.414  28.517  25.966  1.00  0.00    -0.353 N 
ATOM      4  O   UNL A   1      34.569  28.395  26.787  1.00  0.00    -0.271 OA
ATOM      5  C   UNL A   1      33.610  27.867  26.235  1.00  0.00     0.257 C 
ATOM      6  H   UNL A   1      31.845  28.202  25.227  1.00  0.00     0.163 HD
BRANCH   5   7
ATOM      7  C   UNL A   1      33.597  26.408  25.804  1.00  0.00     0.329 C 
BRANCH   7   8
ATOM      8  O   UNL A   1      32.245  25.973  26.012  1.00  0.00    -0.483 OA
BRANCH   8   9
ATOM      9  C   UNL A   1      31.935  24.812  25.351  1.00  0.00     0.127 A 
ATOM     10  C   UNL A   1      32.728  23.691  25.642  1.00  0.00     0.047 A 
ATOM     11  C   UNL A   1      31.008  24.802  24.285  1.00  0.00     0.017 A 
ATOM     12  C   UNL A   1      32.641  22.551  24.849  1.00  0.00     0.004 A 
ATOM     13  C   UNL A   1      31.044  23.688  23.435  1.00  0.00     0.012 A 
ATOM     14  C   UNL A   1      31.823  22.564  23.726  1.00  0.00     0.001 A 
BRANCH  11  15
ATOM     15  C   UNL A   1      30.057  25.919  24.015  1.00  0.00     0.026 C 
ATOM     16  C   UNL A   1      30.277  27.054  23.313  1.00  0.00     0.050 C 
ATOM     17  C   UNL A   1      31.577  27.465  22.633  1.00  0.00     0.256 C 
ATOM     18  C   UNL A   1      29.322  28.160  23.032  1.00  0.00     0.011 A 
ATOM     19  O   UNL A   1      32.619  26.857  22.513  1.00  0.00    -0.269 OA
ATOM     20  N   UNL A   1      31.349  28.732  22.132  1.00  0.00    -0.321 N 
ATOM     21  C   UNL A   1      30.038  29.131  22.325  1.00  0.00     0.049 A 
ATOM     22  C   UNL A   1      27.980  28.392  23.279  1.00  0.00     0.011 A 
ATOM     23  H   UNL A   1      32.036  29.283  21.693  1.00  0.00     0.170 HD
ATOM     24  C   UNL A   1      29.484  30.308  21.852  1.00  0.00     0.027 A 
ATOM     25  C   UNL A   1      27.377  29.557  22.775  1.00  0.00     0.001 A 
ATOM     26  C   UNL A   1      28.125  30.510  22.070  1.00  0.00     0.002 A 
ENDBRANCH  11  15
ENDBRANCH   8   9
ENDBRANCH   7   8
ENDBRANCH   5   7
ENDBRANCH   2   3
ENDBRANCH   1   2
BRANCH   1  27
ATOM     27  C   UNL A   1      31.300  32.119  26.799  1.00  0.00     0.023 C 
BRANCH  27  28
ATOM     28  C   UNL A   1      32.565  32.846  27.259  1.00  0.00     0.116 C 
BRANCH  28  29
ATOM     29  N   UNL A   1      32.337  34.242  27.600  1.00  0.00    -0.352 N 
ATOM     30  C   UNL A   1      32.965  35.038  28.530  1.00  0.00     0.251 C 
ATOM     31  H   UNL A   1      31.625  34.686  27.086  1.00  0.00     0.163 HD
ATOM     32  O   UNL A   1      32.524  36.158  28.774  1.00  0.00    -0.269 OA
BRANCH  30  33
ATOM     33  C   UNL A   1      34.150  34.541  29.267  1.00  0.00     0.039 A 
ATOM     34  C   UNL A   1      33.977  34.022  30.553  1.00  0.00     0.014 A 
ATOM     35  C   UNL A   1      35.427  34.588  28.701  1.00  0.00     0.014 A 
ATOM     36  C   UNL A   1      35.068  33.473  31.234  1.00  0.00     0.010 A 
ATOM     37  C   UNL A   1      36.495  33.966  29.345  1.00  0.00     0.010 A 
ATOM     38  C   UNL A   1      36.328  33.396  30.617  1.00  0.00    -0.014 A 
BRANCH  38  39
ATOM     39  C   UNL A   1      37.470  32.709  31.278  1.00  0.00     0.031 A 
ATOM     40  C   UNL A   1      38.147  31.539  30.615  1.00  0.00     0.074 A 
ATOM     41  C   UNL A   1      37.861  33.097  32.509  1.00  0.00     0.049 A 
ATOM     42  N   UNL A   1      39.116  30.782  31.064  1.00  0.00    -0.248 NA
ATOM     43  C   UNL A   1      37.656  31.156  29.282  1.00  0.00     0.031 C 
ATOM     44  C   UNL A   1      37.263  34.188  33.282  1.00  0.00     0.029 A 
ATOM     45  N   UNL A   1      38.849  32.613  33.332  1.00  0.00    -0.354 N 
ATOM     46  C   UNL A   1      39.340  29.828  30.078  1.00  0.00     0.074 A 
ATOM     47  C   UNL A   1      38.370  30.069  29.032  1.00  0.00     0.031 C 
ATOM     48  C   UNL A   1      37.913  34.308  34.450  1.00  0.00     0.029 A 
ATOM     49  C   UNL A   1      38.942  33.276  34.533  1.00  0.00     0.049 A 
ATOM     50  H   UNL A   1      39.434  31.862  33.085  1.00  0.00     0.167 HD
ATOM     51  C   UNL A   1      40.281  28.853  30.037  1.00  0.00     0.037 A 
ATOM     52  C   UNL A   1      39.755  33.071  35.586  1.00  0.00     0.037 A 
ATOM     53  C   UNL A   1      41.256  28.624  31.072  1.00  0.00     0.049 A 
ATOM     54  C   UNL A   1      40.770  31.962  35.527  1.00  0.00     0.074 A 
ATOM     55  C   UNL A   1      42.287  27.701  31.093  1.00  0.00     0.029 A 
ATOM     56  N   UNL A   1      41.315  29.316  32.272  1.00  0.00    -0.354 N 
ATOM     57  N   UNL A   1      41.019  31.116  34.556  1.00  0.00    -0.248 NA
ATOM     58  C   UNL A   1      41.623  31.781  36.712  1.00  0.00     0.031 C 
ATOM     59  C   UNL A   1      42.931  27.791  32.331  1.00  0.00     0.029 A 
ATOM     60  C   UNL A   1      42.346  28.817  33.054  1.00  0.00     0.049 A 
ATOM     61  H   UNL A   1      40.716  30.053  32.530  1.00  0.00     0.167 HD
ATOM     62  C   UNL A   1      42.077  30.330  34.997  1.00  0.00     0.074 A 
ATOM     63  C   UNL A   1      42.431  30.808  36.316  1.00  0.00     0.031 C 
ATOM     64  C   UNL A   1      42.698  29.305  34.364  1.00  0.00     0.037 A 
BRANCH  51  65
ATOM     65  C   UNL A   1      40.299  27.952  28.835  1.00  0.00     0.057 A 
ATOM     66  C   UNL A   1      41.015  28.277  27.673  1.00  0.00     0.134 A 
ATOM     67  C   UNL A   1      39.630  26.722  28.854  1.00  0.00     0.134 A 
ATOM     68  F   UNL A   1      41.671  29.444  27.584  1.00  0.00    -0.206 F 
ATOM     69  C   UNL A   1      41.040  27.425  26.568  1.00  0.00     0.040 A 
ATOM     70  C   UNL A   1      39.674  25.847  27.767  1.00  0.00     0.040 A 
ATOM     71  F   UNL A   1      38.933  26.342  29.935  1.00  0.00    -0.206 F 
ATOM     72  C   UNL A   1      40.376  26.202  26.616  1.00  0.00     0.006 A 
ENDBRANCH  51  65
BRANCH  52  73
ATOM     73  C   UNL A   1      39.658  33.940  36.788  1.00  0.00     0.057 A 
ATOM     74  C   UNL A   1      38.858  33.579  37.878  1.00  0.00     0.134 A 
ATOM     75  C   UNL A   1      40.339  35.162  36.867  1.00  0.00     0.134 A 
ATOM     76  F   UNL A   1      38.165  32.431  37.856  1.00  0.00    -0.206 F 
ATOM     77  C   UNL A   1      38.716  34.410  38.992  1.00  0.00     0.040 A 
ATOM     78  C   UNL A   1      40.231  35.989  37.986  1.00  0.00     0.040 A 
ATOM     79  F   UNL A   1      41.127  35.565  35.859  1.00  0.00    -0.206 F 
ATOM     80  C   UNL A   1      39.408  35.619  39.048  1.00  0.00     0.006 A 
ENDBRANCH  52  73
BRANCH  64  81
ATOM     81  C   UNL A   1      43.858  28.659  35.068  1.00  0.00     0.057 A 
ATOM     82  C   UNL A   1      43.696  27.549  35.907  1.00  0.00     0.134 A 
ATOM     83  C   UNL A   1      45.162  29.133  34.869  1.00  0.00     0.134 A 
ATOM     84  F   UNL A   1      42.474  27.052  36.150  1.00  0.00    -0.206 F 
ATOM     85  C   UNL A   1      44.785  26.953  36.546  1.00  0.00     0.040 A 
ATOM     86  C   UNL A   1      46.261  28.525  35.476  1.00  0.00     0.040 A 
ATOM     87  F   UNL A   1      45.390  30.185  34.070  1.00  0.00    -0.206 F 
ATOM     88  C   UNL A   1      46.074  27.436  36.324  1.00  0.00     0.006 A 
ENDBRANCH  64  81
ENDBRANCH  38  39
ENDBRANCH  30  33
ENDBRANCH  28  29
ENDBRANCH  27  28
ENDBRANCH   1  27
TORSDOF 14
ENDMDL
